0
                    3D
 Structure written by MMmdl.
163171  0  0  1  0            999 V2000
  -30.7048  -14.4965   20.4195 C   0  0  0  0  0  0
  -30.4119  -12.2792   19.4235 C   0  0  0  0  0  0
  -29.4949  -12.4406   18.1936 C   0  0  0  0  0  0
  -28.0096  -12.3468   18.6059 C   0  0  0  0  0  0
  -27.6524  -13.2033   19.8576 C   0  0  2  0  0  0
  -28.7078  -13.0648   20.9757 C   0  0  0  0  0  0
  -25.2606  -13.8138   20.5684 C   0  0  0  0  0  0
  -24.1839  -13.0441   20.9166 C   0  0  0  0  0  0
  -24.6370  -11.6905   20.8726 C   0  0  0  0  0  0
  -23.9007  -10.4304   21.0381 C   0  0  0  0  0  0
  -24.3579   -9.4238   21.9162 C   0  0  0  0  0  0
  -23.6273   -8.2267   22.0741 C   0  0  0  0  0  0
  -22.4264   -8.0275   21.3530 C   0  0  0  0  0  0
  -21.9870   -9.0242   20.4635 C   0  0  0  0  0  0
  -22.7178  -10.2129   20.3032 C   0  0  0  0  0  0
  -21.6869   -6.0724   22.5287 C   0  0  0  0  0  0
  -21.4033   -6.5624   23.8223 C   0  0  0  0  0  0
  -21.3641   -5.6775   24.9170 C   0  0  0  0  0  0
  -21.6030   -4.3035   24.7222 C   0  0  0  0  0  0
  -21.8830   -3.8135   23.4342 C   0  0  0  0  0  0
  -21.9205   -4.6957   22.3400 C   0  0  0  0  0  0
  -22.7854  -13.5250   21.1808 C   0  0  0  0  0  0
  -22.1684   -4.2130   21.0989 F   0  0  0  0  0  0
  -21.5598   -3.4525   25.7734 F   0  0  0  0  0  0
  -30.0221  -13.3227   20.3787 N   0  0  0  0  0  0
  -26.3017  -12.9277   20.3335 N   0  0  0  0  0  0
  -25.9296  -11.6456   20.5785 N   0  0  0  0  0  0
  -22.0484  -12.8275   22.0380 N   0  0  0  0  0  0
  -25.4333  -15.1841   20.4098 N   0  0  0  0  0  0
  -31.9201  -14.5637   20.2241 O   0  0  0  0  0  0
  -21.6648   -6.8859   21.4235 O   0  0  0  0  0  0
  -22.3551  -14.5551   20.6630 O   0  0  0  0  0  0
  -24.6131  -31.8686   23.2100 C   0  0  0  0  0  0
  -25.9005  -32.4837   23.8413 C   0  0  1  0  0  0
  -27.2434  -27.4420   20.1251 C   0  0  0  0  0  0
  -25.5864  -33.8640   24.2359 N   0  0  0  0  0  0
  -23.4027  -30.4937   21.5473 C   0  0  2  0  0  0
  -24.8551  -28.9515   20.1246 C   0  0  0  0  0  0
  -22.7411  -29.4684   22.4962 C   0  0  0  0  0  0
  -18.0286  -28.1386   22.8508 C   0  0  0  0  0  0
  -24.1470  -36.7329   23.2646 C   0  0  0  0  0  0
  -25.9331  -30.8411   21.3588 C   0  0  0  0  0  0
  -26.0125  -29.4716   20.7182 C   0  0  0  0  0  0
  -27.2117  -28.7255   20.7149 C   0  0  0  0  0  0
  -26.0770  -26.9354   19.5168 C   0  0  0  0  0  0
  -24.8802  -27.6781   19.5242 C   0  0  0  0  0  0
  -23.6181  -29.8231   20.1630 C   0  0  0  0  0  0
  -25.4085  -36.3155   24.0359 C   0  0  1  0  0  0
  -20.5880  -28.3673   23.1314 C   0  0  2  0  0  0
  -20.6789  -26.9407   22.5416 C   0  0  0  0  0  0
  -19.5762  -26.6417   21.5204 C   0  0  0  0  0  0
  -18.1935  -26.7929   22.1641 C   0  0  0  0  0  0
  -19.1539  -28.8835   23.2919 C   0  0  0  0  0  0
  -18.9466  -30.1433   23.8942 C   0  0  0  0  0  0
  -17.6461  -30.6574   24.0592 C   0  0  0  0  0  0
  -25.9019  -34.9499   23.5173 C   0  0  0  0  0  0
  -16.5351  -29.9097   23.6334 C   0  0  0  0  0  0
  -16.7289  -28.6514   23.0342 C   0  0  0  0  0  0
  -26.4441  -31.6598   25.0724 C   0  0  0  0  0  0
  -25.3724  -31.3662   26.1493 C   0  0  0  0  0  0
  -27.0292  -30.3056   24.6053 C   0  0  0  0  0  0
  -27.6041  -32.4315   25.7458 C   0  0  0  0  0  0
  -27.5578  -37.1817   24.8478 C   0  0  0  0  0  0
  -21.4138  -29.3082   22.3733 N   0  0  0  0  0  0
  -26.4297  -37.3816   23.9429 N   0  0  0  0  0  0
  -24.6682  -31.0833   22.0954 N   0  0  0  0  0  0
  -23.4166  -28.8209   23.2993 O   0  0  0  0  0  0
  -28.4138  -26.7221   20.0965 O   0  0  0  0  0  0
  -26.5605  -34.8936   22.4754 O   0  0  0  0  0  0
  -23.5320  -32.1416   23.7485 O   0  0  0  0  0  0
  -28.6963  -18.5734   22.2789 C   0  0  0  0  0  0
  -29.3474  -18.0040   21.1554 C   0  0  0  0  0  0
  -28.8677  -19.9342   19.9529 C   0  0  0  0  0  0
  -28.2130  -20.4968   21.0799 C   0  0  0  0  0  0
  -28.9142  -20.6268   18.6053 C   0  0  0  0  0  0
  -28.6326  -16.3353   18.1639 C   0  0  0  0  0  0
  -27.5111  -21.8537   21.0030 C   0  0  0  0  0  0
  -30.0775  -16.6461   21.2680 C   0  0  0  0  0  0
  -28.3808  -23.0842   21.3711 C   0  0  0  0  0  0
  -27.9855  -24.3320   20.5410 C   0  0  0  0  0  0
  -30.0161  -16.0940   18.7986 C   0  0  0  0  0  0
  -28.5329  -25.6748   21.0689 C   0  0  0  0  0  0
  -28.1458  -19.8170   22.2536 N   0  0  0  0  0  0
  -29.4612  -18.7204   20.0109 N   0  0  0  0  0  0
  -29.9569  -15.6094   20.2008 N   0  0  0  0  0  0
  -31.4623  -12.3475   19.1303 H   0  0  0  0  0  0
  -30.2845  -11.2930   19.8726 H   0  0  0  0  0  0
  -29.7257  -11.6737   17.4510 H   0  0  0  0  0  0
  -29.6769  -13.3938   17.7051 H   0  0  0  0  0  0
  -27.7976  -11.2948   18.8058 H   0  0  0  0  0  0
  -27.3721  -12.6252   17.7653 H   0  0  0  0  0  0
  -27.6625  -14.2405   19.5438 H   0  0  0  0  0  0
  -28.6906  -12.0676   21.4189 H   0  0  0  0  0  0
  -28.5032  -13.7705   21.7840 H   0  0  0  0  0  0
  -25.2724   -9.5742   22.4718 H   0  0  0  0  0  0
  -23.9989   -7.4681   22.7470 H   0  0  0  0  0  0
  -21.0793   -8.8755   19.8945 H   0  0  0  0  0  0
  -22.3638  -10.9657   19.6136 H   0  0  0  0  0  0
  -21.2061   -7.6143   23.9709 H   0  0  0  0  0  0
  -21.1433   -6.0513   25.9070 H   0  0  0  0  0  0
  -22.0623   -2.7595   23.2864 H   0  0  0  0  0  0
  -22.4111  -11.9964   22.4831 H   0  0  0  0  0  0
  -21.1099  -13.1297   22.2526 H   0  0  0  0  0  0
  -24.6654  -15.8381   20.5092 H   0  0  0  0  0  0
  -26.2927  -15.6234   20.1065 H   0  0  0  0  0  0
  -26.7090  -32.5560   23.1203 H   0  0  0  0  0  0
  -24.9979  -33.9789   25.0473 H   0  0  0  0  0  0
  -22.6937  -31.3098   21.4039 H   0  0  0  0  0  0
  -23.3741  -35.9656   23.3323 H   0  0  0  0  0  0
  -24.3585  -36.8909   22.2065 H   0  0  0  0  0  0
  -23.7183  -37.6528   23.6621 H   0  0  0  0  0  0
  -26.0456  -31.5990   20.5823 H   0  0  0  0  0  0
  -26.8205  -30.8990   21.9774 H   0  0  0  0  0  0
  -28.1106  -29.1278   21.1595 H   0  0  0  0  0  0
  -26.0964  -25.9690   19.0330 H   0  0  0  0  0  0
  -23.9915  -27.2682   19.0596 H   0  0  0  0  0  0
  -22.7392  -29.2514   19.8553 H   0  0  0  0  0  0
  -23.7440  -30.5978   19.4060 H   0  0  0  0  0  0
  -25.1248  -36.2075   25.0851 H   0  0  0  0  0  0
  -20.9992  -28.3244   24.1411 H   0  0  0  0  0  0
  -20.5680  -26.2294   23.3604 H   0  0  0  0  0  0
  -21.6667  -26.7454   22.1210 H   0  0  0  0  0  0
  -19.6903  -25.6331   21.1190 H   0  0  0  0  0  0
  -19.6669  -27.3260   20.6761 H   0  0  0  0  0  0
  -17.4184  -26.6682   21.4067 H   0  0  0  0  0  0
  -18.0360  -26.0051   22.9018 H   0  0  0  0  0  0
  -19.7925  -30.7241   24.2328 H   0  0  0  0  0  0
  -17.5021  -31.6254   24.5215 H   0  0  0  0  0  0
  -15.5359  -30.3016   23.7616 H   0  0  0  0  0  0
  -15.8685  -28.0855   22.7005 H   0  0  0  0  0  0
  -24.5900  -30.7001   25.7824 H   0  0  0  0  0  0
  -24.8893  -32.2795   26.4987 H   0  0  0  0  0  0
  -25.8102  -30.8814   27.0231 H   0  0  0  0  0  0
  -26.2826  -29.6793   24.1152 H   0  0  0  0  0  0
  -27.4151  -29.7302   25.4478 H   0  0  0  0  0  0
  -27.8618  -30.4415   23.9142 H   0  0  0  0  0  0
  -27.2685  -33.3610   26.2074 H   0  0  0  0  0  0
  -28.3810  -32.6877   25.0241 H   0  0  0  0  0  0
  -28.0748  -31.8407   26.5327 H   0  0  0  0  0  0
  -28.2639  -38.0078   24.7534 H   0  0  0  0  0  0
  -28.1049  -36.2630   24.6317 H   0  0  0  0  0  0
  -27.2326  -37.1481   25.8888 H   0  0  0  0  0  0
  -20.9268  -29.8809   21.6974 H   0  0  0  0  0  0
  -26.0223  -38.2921   24.1393 H   0  0  0  0  0  0
  -28.6449  -18.0371   23.2137 H   0  0  0  0  0  0
  -27.9264  -20.6195   18.1446 H   0  0  0  0  0  0
  -29.5968  -20.1278   17.9167 H   0  0  0  0  0  0
  -29.2320  -21.6633   18.7134 H   0  0  0  0  0  0
  -28.1735  -15.4095   17.8275 H   0  0  0  0  0  0
  -28.7233  -16.9643   17.2768 H   0  0  0  0  0  0
  -27.9440  -16.8266   18.8523 H   0  0  0  0  0  0
  -26.6265  -21.8328   21.6429 H   0  0  0  0  0  0
  -27.1185  -21.9742   19.9939 H   0  0  0  0  0  0
  -31.1346  -16.8916   21.3989 H   0  0  0  0  0  0
  -29.7712  -16.1858   22.2090 H   0  0  0  0  0  0
  -29.4341  -22.8682   21.1828 H   0  0  0  0  0  0
  -28.3108  -23.2803   22.4434 H   0  0  0  0  0  0
  -28.3363  -24.1880   19.5162 H   0  0  0  0  0  0
  -26.8990  -24.3940   20.4856 H   0  0  0  0  0  0
  -30.6324  -16.9898   18.7405 H   0  0  0  0  0  0
  -30.5502  -15.4014   18.1449 H   0  0  0  0  0  0
  -29.5930  -25.5574   21.3064 H   0  0  0  0  0  0
  -28.0439  -25.9503   22.0061 H   0  0  0  0  0  0
  1 25  1  0  0  0
  1 30  2  0  0  0
  1 85  1  0  0  0
  2  3  1  0  0  0
  2 25  1  0  0  0
  2 86  1  0  0  0
  2 87  1  0  0  0
  3  4  1  0  0  0
  3 88  1  0  0  0
  3 89  1  0  0  0
  4  5  1  0  0  0
  4 90  1  0  0  0
  4 91  1  0  0  0
  5  6  1  0  0  0
  5 26  1  0  0  0
  5 92  1  0  0  0
  6 25  1  0  0  0
  6 93  1  0  0  0
  6 94  1  0  0  0
  7  8  2  0  0  0
  7 26  1  0  0  0
  7 29  1  0  0  0
  8  9  1  0  0  0
  8 22  1  0  0  0
  9 10  1  0  0  0
  9 27  2  0  0  0
 10 11  2  0  0  0
 10 15  1  0  0  0
 11 12  1  0  0  0
 11 95  1  0  0  0
 12 13  2  0  0  0
 12 96  1  0  0  0
 13 14  1  0  0  0
 13 31  1  0  0  0
 14 15  2  0  0  0
 14 97  1  0  0  0
 15 98  1  0  0  0
 16 17  2  0  0  0
 16 21  1  0  0  0
 16 31  1  0  0  0
 17 18  1  0  0  0
 17 99  1  0  0  0
 18 19  2  0  0  0
 18100  1  0  0  0
 19 20  1  0  0  0
 19 24  1  0  0  0
 20 21  2  0  0  0
 20101  1  0  0  0
 21 23  1  0  0  0
 22 28  1  0  0  0
 22 32  2  0  0  0
 26 27  1  0  0  0
 28102  1  0  0  0
 28103  1  0  0  0
 29104  1  0  0  0
 29105  1  0  0  0
 33 34  1  0  0  0
 33 66  1  0  0  0
 33 70  2  0  0  0
 34 36  1  0  0  0
 34 59  1  0  0  0
 34106  1  0  0  0
 35 44  2  0  0  0
 35 45  1  0  0  0
 35 68  1  0  0  0
 36 56  1  0  0  0
 36107  1  0  0  0
 37 39  1  0  0  0
 37 47  1  0  0  0
 37 66  1  0  0  0
 37108  1  0  0  0
 38 43  2  0  0  0
 38 46  1  0  0  0
 38 47  1  0  0  0
 39 64  1  0  0  0
 39 67  2  0  0  0
 40 52  1  0  0  0
 40 53  2  0  0  0
 40 58  1  0  0  0
 41109  1  0  0  0
 41110  1  0  0  0
 41111  1  0  0  0
 41 48  1  0  0  0
 42 43  1  0  0  0
 42 66  1  0  0  0
 42112  1  0  0  0
 42113  1  0  0  0
 43 44  1  0  0  0
 44114  1  0  0  0
 45 46  2  0  0  0
 45115  1  0  0  0
 46116  1  0  0  0
 47117  1  0  0  0
 47118  1  0  0  0
 48 56  1  0  0  0
 48 65  1  0  0  0
 48119  1  0  0  0
 49 50  1  0  0  0
 49 53  1  0  0  0
 49 64  1  0  0  0
 49120  1  0  0  0
 50 51  1  0  0  0
 50121  1  0  0  0
 50122  1  0  0  0
 51 52  1  0  0  0
 51123  1  0  0  0
 51124  1  0  0  0
 52125  1  0  0  0
 52126  1  0  0  0
 53 54  1  0  0  0
 54 55  2  0  0  0
 54127  1  0  0  0
 55 57  1  0  0  0
 55128  1  0  0  0
 56 69  2  0  0  0
 57 58  2  0  0  0
 57129  1  0  0  0
 58130  1  0  0  0
 59 60  1  0  0  0
 59 61  1  0  0  0
 59 62  1  0  0  0
 60131  1  0  0  0
 60132  1  0  0  0
 60133  1  0  0  0
 61134  1  0  0  0
 61135  1  0  0  0
 61136  1  0  0  0
 62137  1  0  0  0
 62138  1  0  0  0
 62139  1  0  0  0
 63 65  1  0  0  0
 63140  1  0  0  0
 63141  1  0  0  0
 63142  1  0  0  0
 64143  1  0  0  0
 65144  1  0  0  0
 68 82  1  0  0  0
 71 72  2  0  0  0
 71 83  1  0  0  0
 71145  1  0  0  0
 72 78  1  0  0  0
 72 84  1  0  0  0
 73 74  1  0  0  0
 73 75  1  0  0  0
 73 84  2  0  0  0
 74 77  1  0  0  0
 74 83  2  0  0  0
 75146  1  0  0  0
 75147  1  0  0  0
 75148  1  0  0  0
 76 81  1  0  0  0
 76149  1  0  0  0
 76150  1  0  0  0
 76151  1  0  0  0
 77 79  1  0  0  0
 77152  1  0  0  0
 77153  1  0  0  0
 78 85  1  0  0  0
 78154  1  0  0  0
 78155  1  0  0  0
 79 80  1  0  0  0
 79156  1  0  0  0
 79157  1  0  0  0
 80 82  1  0  0  0
 80158  1  0  0  0
 80159  1  0  0  0
 81 85  1  0  0  0
 81160  1  0  0  0
 81161  1  0  0  0
 82162  1  0  0  0
 82163  1  0  0  0
M  ISO  4   1 100  68 101  82 101  85 100
M  END
> <chiral flag>
0

> <version>
0

> <s_m_source_file>
/data/baiqing/PycharmProjects/Reinvent-master-3.2/result/LINK_invent/BTK/process_docking_weight1_custom_sum_contain_oxygen_bond_distance_aromatic_linkinvent_7_9_3/rearranged_h_0064.sdf

> <i_m_source_file_index>
1

> <r_mmod_Potential_Energy-OPLS-2005>
202.515121459961

> <r_mmod_Stretch_Energy-OPLS-2005>
43.1310234069824

> <r_mmod_Bend_Energy-OPLS-2005>
113.506202697754

> <r_mmod_Torsional_Energy-OPLS-2005>
320.124542236328

> <r_mmod_Improper_Torsional_Energy-OPLS-2005>
18.7919616699219

> <r_mmod_Van_der_Waal_Energy-OPLS-2005>
156.307586669922

> <r_mmod_Electrostatic_Energy-OPLS-2005>
-274.932281494141

> <r_mmod_Solvation_Energy-OPLS-2005>
-200.468170166016

> <b_mmod_Minimization_Converged-OPLS-2005>
0

> <r_mmod_RMS_Derivative-OPLS-2005>
5.06846952438354

$$$$
1
                    3D
 Structure written by MMmdl.
190198  0  0  1  0            999 V2000
  -30.7661  -14.3574   20.7018 C   0  0  0  0  0  0
  -30.4188  -12.3000   19.3768 C   0  0  0  0  0  0
  -29.4750  -12.5363   18.1828 C   0  0  0  0  0  0
  -28.0013  -12.3851   18.6039 C   0  0  0  0  0  0
  -27.6672  -13.1924   19.8838 C   0  0  2  0  0  0
  -28.7111  -12.8983   20.9865 C   0  0  0  0  0  0
  -25.2639  -13.8119   20.5770 C   0  0  0  0  0  0
  -24.1846  -13.0417   20.9187 C   0  0  0  0  0  0
  -24.6367  -11.6883   20.8711 C   0  0  0  0  0  0
  -23.9022  -10.4283   21.0400 C   0  0  0  0  0  0
  -24.3583   -9.4209   21.9184 C   0  0  0  0  0  0
  -23.6268   -8.2241   22.0752 C   0  0  0  0  0  0
  -22.4256   -8.0270   21.3535 C   0  0  0  0  0  0
  -21.9881   -9.0240   20.4641 C   0  0  0  0  0  0
  -22.7201  -10.2126   20.3049 C   0  0  0  0  0  0
  -21.6850   -6.0726   22.5276 C   0  0  0  0  0  0
  -21.4014   -6.5631   23.8208 C   0  0  0  0  0  0
  -21.3655   -5.6787   24.9169 C   0  0  0  0  0  0
  -21.6047   -4.3051   24.7227 C   0  0  0  0  0  0
  -21.8814   -3.8137   23.4347 C   0  0  0  0  0  0
  -21.9189   -4.6952   22.3402 C   0  0  0  0  0  0
  -22.7877  -13.5259   21.1848 C   0  0  0  0  0  0
  -22.1657   -4.2140   21.0981 F   0  0  0  0  0  0
  -21.5625   -3.4537   25.7738 F   0  0  0  0  0  0
  -30.0459  -13.2285   20.4558 N   0  0  0  0  0  0
  -26.3051  -12.9264   20.3422 N   0  0  0  0  0  0
  -25.9290  -11.6435   20.5738 N   0  0  0  0  0  0
  -22.0483  -12.8253   22.0381 N   0  0  0  0  0  0
  -25.4430  -15.1821   20.4321 N   0  0  0  0  0  0
  -31.7932  -14.6428   20.0740 O   0  0  0  0  0  0
  -21.6625   -6.8866   21.4237 O   0  0  0  0  0  0
  -22.3599  -14.5594   20.6732 O   0  0  0  0  0  0
  -24.6154  -31.8701   23.2138 C   0  0  0  0  0  0
  -25.9055  -32.4838   23.8415 C   0  0  1  0  0  0
  -27.2235  -27.4561   20.0668 C   0  0  0  0  0  0
  -25.5938  -33.8645   24.2344 N   0  0  0  0  0  0
  -23.3977  -30.4984   21.5568 C   0  0  2  0  0  0
  -24.8353  -28.9727   20.1184 C   0  0  0  0  0  0
  -22.7381  -29.4705   22.5029 C   0  0  0  0  0  0
  -18.0261  -28.1376   22.8484 C   0  0  0  0  0  0
  -24.1499  -36.7301   23.2635 C   0  0  0  0  0  0
  -25.9279  -30.8459   21.3598 C   0  0  0  0  0  0
  -26.0018  -29.4849   20.6996 C   0  0  0  0  0  0
  -27.2018  -28.7373   20.6628 C   0  0  0  0  0  0
  -26.0248  -26.9539   19.5115 C   0  0  0  0  0  0
  -24.8401  -27.7047   19.5238 C   0  0  0  0  0  0
  -23.5981  -29.8354   20.1712 C   0  0  0  0  0  0
  -25.4129  -36.3127   24.0330 C   0  0  1  0  0  0
  -20.5850  -28.3664   23.1314 C   0  0  2  0  0  0
  -20.6754  -26.9397   22.5411 C   0  0  0  0  0  0
  -19.5736  -26.6379   21.5200 C   0  0  0  0  0  0
  -18.1908  -26.7925   22.1602 C   0  0  0  0  0  0
  -19.1505  -28.8831   23.2895 C   0  0  0  0  0  0
  -18.9435  -30.1441   23.8895 C   0  0  0  0  0  0
  -17.6437  -30.6569   24.0559 C   0  0  0  0  0  0
  -25.9044  -34.9493   23.5123 C   0  0  0  0  0  0
  -16.5331  -29.9067   23.6348 C   0  0  0  0  0  0
  -16.7253  -28.6497   23.0357 C   0  0  0  0  0  0
  -26.4483  -31.6614   25.0734 C   0  0  0  0  0  0
  -25.3742  -31.3670   26.1468 C   0  0  0  0  0  0
  -27.0315  -30.3071   24.6074 C   0  0  0  0  0  0
  -27.6047  -32.4336   25.7497 C   0  0  0  0  0  0
  -27.5586  -37.1822   24.8471 C   0  0  0  0  0  0
  -21.4116  -29.3049   22.3738 N   0  0  0  0  0  0
  -26.4315  -37.3802   23.9402 N   0  0  0  0  0  0
  -24.6664  -31.0833   22.1018 N   0  0  0  0  0  0
  -23.4159  -28.8207   23.3038 O   0  0  0  0  0  0
  -28.4095  -26.7508   20.0154 O   0  0  0  0  0  0
  -26.5561  -34.8935   22.4658 O   0  0  0  0  0  0
  -23.5350  -32.1445   23.7557 O   0  0  0  0  0  0
  -27.5722  -17.8737   19.5101 C   0  0  0  0  0  0
  -26.4222  -18.6178   19.6402 C   0  0  0  0  0  0
  -27.5475  -18.6720   21.5795 C   0  0  0  0  0  0
  -27.8994  -18.9824   22.9998 C   0  0  0  0  0  0
  -29.7280  -24.9598   20.8653 C   0  0  0  0  0  0
  -25.1800  -17.7070   17.7166 C   0  0  0  0  0  0
  -23.9754  -19.0786   19.3786 C   0  0  0  0  0  0
  -24.8399  -20.3583   16.5154 C   0  0  0  0  0  0
  -27.1916  -20.2098   17.3279 C   0  0  0  0  0  0
  -31.4630  -15.4022   22.7854 C   0  0  0  0  0  0
  -25.3940  -23.7063   17.4695 C   0  0  0  0  0  0
  -28.0007  -24.4754   19.0432 C   0  0  0  0  0  0
  -29.5140  -17.2622   21.0130 C   0  0  0  0  0  0
  -29.2782  -15.9736   21.8249 C   0  0  0  0  0  0
  -26.9257  -23.4130   19.3913 C   0  0  0  0  0  0
  -25.4809  -21.5428   18.6643 C   0  0  0  0  0  0
  -28.3612  -25.3439   20.2848 C   0  0  2  0  0  0
  -25.3301  -18.9495   18.6346 C   0  0  0  0  0  0
  -25.7093  -20.2568   17.7964 C   0  0  0  0  0  0
  -28.2418  -17.9288   20.7048 N   0  0  0  0  0  0
  -26.4447  -19.0747   20.9383 N   0  3  0  0  0  0
  -30.4262  -15.0533   21.8118 N   0  0  0  0  0  0
  -26.2424  -22.7554   18.2340 N   0  3  1  0  0  0
  -31.4578  -12.4169   19.0630 H   0  0  0  0  0  0
  -30.3348  -11.2701   19.7273 H   0  0  0  0  0  0
  -29.7057  -11.8377   17.3775 H   0  0  0  0  0  0
  -29.6378  -13.5355   17.7753 H   0  0  0  0  0  0
  -27.8078  -11.3256   18.7742 H   0  0  0  0  0  0
  -27.3439  -12.6881   17.7885 H   0  0  0  0  0  0
  -27.7272  -14.2477   19.6186 H   0  0  0  0  0  0
  -28.6822  -11.8384   21.2425 H   0  0  0  0  0  0
  -28.4684  -13.4006   21.9213 H   0  0  0  0  0  0
  -25.2729   -9.5692   22.4761 H   0  0  0  0  0  0
  -23.9977   -7.4636   22.7471 H   0  0  0  0  0  0
  -21.0816   -8.8762   19.8944 H   0  0  0  0  0  0
  -22.3668  -10.9665   19.6155 H   0  0  0  0  0  0
  -21.2012   -7.6141   23.9712 H   0  0  0  0  0  0
  -21.1476   -6.0516   25.9073 H   0  0  0  0  0  0
  -22.0596   -2.7600   23.2853 H   0  0  0  0  0  0
  -22.4040  -11.9868   22.4728 H   0  0  0  0  0  0
  -21.1115  -13.1323   22.2592 H   0  0  0  0  0  0
  -24.6781  -15.8344   20.5556 H   0  0  0  0  0  0
  -26.2975  -15.6176   20.1181 H   0  0  0  0  0  0
  -26.7127  -32.5541   23.1182 H   0  0  0  0  0  0
  -25.0239  -33.9822   25.0596 H   0  0  0  0  0  0
  -22.6904  -31.3184   21.4221 H   0  0  0  0  0  0
  -23.3774  -35.9616   23.3316 H   0  0  0  0  0  0
  -24.3588  -36.8900   22.2041 H   0  0  0  0  0  0
  -23.7233  -37.6505   23.6638 H   0  0  0  0  0  0
  -26.0387  -31.6177   20.5960 H   0  0  0  0  0  0
  -26.8166  -30.8911   21.9779 H   0  0  0  0  0  0
  -28.1103  -29.1369   21.0924 H   0  0  0  0  0  0
  -25.9667  -25.9929   19.0417 H   0  0  0  0  0  0
  -23.9416  -27.2986   19.0801 H   0  0  0  0  0  0
  -23.6968  -30.6102   19.4116 H   0  0  0  0  0  0
  -22.7213  -29.2531   19.8791 H   0  0  0  0  0  0
  -25.1312  -36.1998   25.0819 H   0  0  0  0  0  0
  -20.9931  -28.3207   24.1437 H   0  0  0  0  0  0
  -20.5652  -26.2255   23.3596 H   0  0  0  0  0  0
  -21.6629  -26.7455   22.1191 H   0  0  0  0  0  0
  -19.6895  -25.6288   21.1230 H   0  0  0  0  0  0
  -19.6691  -27.3197   20.6737 H   0  0  0  0  0  0
  -17.4194  -26.6704   21.3988 H   0  0  0  0  0  0
  -18.0289  -26.0050   22.8972 H   0  0  0  0  0  0
  -19.7909  -30.7253   24.2259 H   0  0  0  0  0  0
  -17.4995  -31.6253   24.5136 H   0  0  0  0  0  0
  -15.5334  -30.2955   23.7675 H   0  0  0  0  0  0
  -15.8658  -28.0803   22.7083 H   0  0  0  0  0  0
  -24.6015  -30.6893   25.7813 H   0  0  0  0  0  0
  -24.8809  -32.2778   26.4861 H   0  0  0  0  0  0
  -25.8124  -30.8930   27.0257 H   0  0  0  0  0  0
  -26.2849  -29.6841   24.1121 H   0  0  0  0  0  0
  -27.4096  -29.7303   25.4524 H   0  0  0  0  0  0
  -27.8680  -30.4415   23.9208 H   0  0  0  0  0  0
  -27.2681  -33.3668   26.2018 H   0  0  0  0  0  0
  -28.3879  -32.6830   25.0329 H   0  0  0  0  0  0
  -28.0672  -31.8480   26.5449 H   0  0  0  0  0  0
  -28.2624  -38.0106   24.7518 H   0  0  0  0  0  0
  -28.1073  -36.2632   24.6331 H   0  0  0  0  0  0
  -27.2276  -37.1495   25.8869 H   0  0  0  0  0  0
  -20.9249  -29.8811   21.7010 H   0  0  0  0  0  0
  -26.0205  -38.2883   24.1401 H   0  0  0  0  0  0
  -27.9591  -17.3327   18.6562 H   0  0  0  0  0  0
  -28.9514  -19.2616   23.0572 H   0  0  0  0  0  0
  -27.7096  -18.0971   23.6067 H   0  0  0  0  0  0
  -27.2825  -19.8104   23.3498 H   0  0  0  0  0  0
  -29.7402  -23.9221   21.1972 H   0  0  0  0  0  0
  -29.9755  -25.5821   21.7245 H   0  0  0  0  0  0
  -30.5239  -25.0851   20.1307 H   0  0  0  0  0  0
  -25.0262  -16.8031   18.3037 H   0  0  0  0  0  0
  -26.0481  -17.5333   17.0829 H   0  0  0  0  0  0
  -24.3091  -17.7793   17.0650 H   0  0  0  0  0  0
  -23.7393  -18.1588   19.9162 H   0  0  0  0  0  0
  -23.1500  -19.2636   18.6907 H   0  0  0  0  0  0
  -23.9580  -19.8789   20.1167 H   0  0  0  0  0  0
  -25.0877  -21.2302   15.9141 H   0  0  0  0  0  0
  -23.7752  -20.4122   16.7438 H   0  0  0  0  0  0
  -24.9907  -19.5125   15.8457 H   0  0  0  0  0  0
  -27.4197  -21.0036   16.6167 H   0  0  0  0  0  0
  -27.4257  -19.2820   16.8079 H   0  0  0  0  0  0
  -27.8974  -20.3043   18.1544 H   0  0  0  0  0  0
  -31.0327  -15.6224   23.7626 H   0  0  0  0  0  0
  -32.0288  -16.2743   22.4555 H   0  0  0  0  0  0
  -32.1675  -14.5793   22.9210 H   0  0  0  0  0  0
  -25.9946  -24.4486   16.9478 H   0  0  0  0  0  0
  -24.7015  -24.2314   18.1293 H   0  0  0  0  0  0
  -24.7889  -23.2067   16.7159 H   0  0  0  0  0  0
  -27.6908  -25.1190   18.2226 H   0  0  0  0  0  0
  -28.8894  -23.9751   18.6602 H   0  0  0  0  0  0
  -30.0044  -17.0517   20.0616 H   0  0  0  0  0  0
  -30.1633  -17.9586   21.5449 H   0  0  0  0  0  0
  -28.3942  -15.4879   21.4219 H   0  0  0  0  0  0
  -29.0144  -16.2213   22.8533 H   0  0  0  0  0  0
  -26.1522  -23.8468   20.0270 H   0  0  0  0  0  0
  -27.4226  -22.6600   20.0068 H   0  0  0  0  0  0
  -25.7583  -21.3140   19.6903 H   0  0  0  0  0  0
  -24.4148  -21.7778   18.7268 H   0  0  0  0  0  0
  -27.6302  -25.1892   21.0800 H   0  0  0  0  0  0
  -25.7109  -19.6149   21.3803 H   0  0  0  0  0  0
  -26.9589  -22.4117   17.6093 H   0  0  0  0  0  0
  1 25  1  0  0  0
  1 30  2  0  0  0
  1 92  1  0  0  0
  2  3  1  0  0  0
  2 25  1  0  0  0
  2 94  1  0  0  0
  2 95  1  0  0  0
  3  4  1  0  0  0
  3 96  1  0  0  0
  3 97  1  0  0  0
  4  5  1  0  0  0
  4 98  1  0  0  0
  4 99  1  0  0  0
  5  6  1  0  0  0
  5 26  1  0  0  0
  5100  1  0  0  0
  6 25  1  0  0  0
  6101  1  0  0  0
  6102  1  0  0  0
  7  8  2  0  0  0
  7 26  1  0  0  0
  7 29  1  0  0  0
  8  9  1  0  0  0
  8 22  1  0  0  0
  9 10  1  0  0  0
  9 27  2  0  0  0
 10 11  2  0  0  0
 10 15  1  0  0  0
 11 12  1  0  0  0
 11103  1  0  0  0
 12 13  2  0  0  0
 12104  1  0  0  0
 13 14  1  0  0  0
 13 31  1  0  0  0
 14 15  2  0  0  0
 14105  1  0  0  0
 15106  1  0  0  0
 16 17  2  0  0  0
 16 21  1  0  0  0
 16 31  1  0  0  0
 17 18  1  0  0  0
 17107  1  0  0  0
 18 19  2  0  0  0
 18108  1  0  0  0
 19 20  1  0  0  0
 19 24  1  0  0  0
 20 21  2  0  0  0
 20109  1  0  0  0
 21 23  1  0  0  0
 22 28  1  0  0  0
 22 32  2  0  0  0
 26 27  1  0  0  0
 28110  1  0  0  0
 28111  1  0  0  0
 29112  1  0  0  0
 29113  1  0  0  0
 33 34  1  0  0  0
 33 66  1  0  0  0
 33 70  2  0  0  0
 34 36  1  0  0  0
 34 59  1  0  0  0
 34114  1  0  0  0
 35 44  2  0  0  0
 35 45  1  0  0  0
 35 68  1  0  0  0
 36 56  1  0  0  0
 36115  1  0  0  0
 37 39  1  0  0  0
 37 47  1  0  0  0
 37 66  1  0  0  0
 37116  1  0  0  0
 38 43  2  0  0  0
 38 46  1  0  0  0
 38 47  1  0  0  0
 39 64  1  0  0  0
 39 67  2  0  0  0
 40 52  1  0  0  0
 40 53  2  0  0  0
 40 58  1  0  0  0
 41117  1  0  0  0
 41118  1  0  0  0
 41119  1  0  0  0
 41 48  1  0  0  0
 42 43  1  0  0  0
 42 66  1  0  0  0
 42120  1  0  0  0
 42121  1  0  0  0
 43 44  1  0  0  0
 44122  1  0  0  0
 45 46  2  0  0  0
 45123  1  0  0  0
 46124  1  0  0  0
 47125  1  0  0  0
 47126  1  0  0  0
 48 56  1  0  0  0
 48 65  1  0  0  0
 48127  1  0  0  0
 49 50  1  0  0  0
 49 53  1  0  0  0
 49 64  1  0  0  0
 49128  1  0  0  0
 50 51  1  0  0  0
 50129  1  0  0  0
 50130  1  0  0  0
 51 52  1  0  0  0
 51131  1  0  0  0
 51132  1  0  0  0
 52133  1  0  0  0
 52134  1  0  0  0
 53 54  1  0  0  0
 54 55  2  0  0  0
 54135  1  0  0  0
 55 57  1  0  0  0
 55136  1  0  0  0
 56 69  2  0  0  0
 57 58  2  0  0  0
 57137  1  0  0  0
 58138  1  0  0  0
 59 60  1  0  0  0
 59 61  1  0  0  0
 59 62  1  0  0  0
 60139  1  0  0  0
 60140  1  0  0  0
 60141  1  0  0  0
 61142  1  0  0  0
 61143  1  0  0  0
 61144  1  0  0  0
 62145  1  0  0  0
 62146  1  0  0  0
 62147  1  0  0  0
 63 65  1  0  0  0
 63148  1  0  0  0
 63149  1  0  0  0
 63150  1  0  0  0
 64151  1  0  0  0
 65152  1  0  0  0
 68 87  1  0  0  0
 71 72  2  0  0  0
 71 90  1  0  0  0
 71153  1  0  0  0
 72 88  1  0  0  0
 72 91  1  0  0  0
 73 74  1  0  0  0
 73 90  1  0  0  0
 73 91  2  0  0  0
 74154  1  0  0  0
 74155  1  0  0  0
 74156  1  0  0  0
 75157  1  0  0  0
 75158  1  0  0  0
 75159  1  0  0  0
 75 87  1  0  0  0
 76160  1  0  0  0
 76161  1  0  0  0
 76162  1  0  0  0
 76 88  1  0  0  0
 77 88  1  0  0  0
 77163  1  0  0  0
 77164  1  0  0  0
 77165  1  0  0  0
 78166  1  0  0  0
 78167  1  0  0  0
 78168  1  0  0  0
 78 89  1  0  0  0
 79 89  1  0  0  0
 79169  1  0  0  0
 79170  1  0  0  0
 79171  1  0  0  0
 80 92  1  0  0  0
 80172  1  0  0  0
 80173  1  0  0  0
 80174  1  0  0  0
 81175  1  0  0  0
 81176  1  0  0  0
 81177  1  0  0  0
 81 93  1  0  0  0
 82 85  1  0  0  0
 82 87  1  0  0  0
 82178  1  0  0  0
 82179  1  0  0  0
 83 84  1  0  0  0
 83 90  1  0  0  0
 83180  1  0  0  0
 83181  1  0  0  0
 84 92  1  0  0  0
 84182  1  0  0  0
 84183  1  0  0  0
 85 93  1  0  0  0
 85184  1  0  0  0
 85185  1  0  0  0
 86 89  1  0  0  0
 86 93  1  0  0  0
 86186  1  0  0  0
 86187  1  0  0  0
 87188  1  0  0  0
 88 89  1  0  0  0
 91189  1  0  0  0
 93190  1  0  0  0
M  CHG  2  91   1  93   1
M  ISO  4   1 100  68 101  87 101  92 100
M  END
> <chiral flag>
0

> <version>
0

> <s_m_source_file>
/data/baiqing/PycharmProjects/Reinvent-master-3.2/result/LINK_invent/BTK/process_docking_weight1_custom_sum_contain_oxygen_bond_distance_aromatic_linkinvent_7_9_3/rearranged_h_0064.sdf

> <i_m_source_file_index>
2

> <r_mmod_Potential_Energy-OPLS-2005>
-8.05429935455322

> <r_mmod_Stretch_Energy-OPLS-2005>
47.0771102905273

> <r_mmod_Bend_Energy-OPLS-2005>
120.274803161621

> <r_mmod_Torsional_Energy-OPLS-2005>
360.294830322266

> <r_mmod_Improper_Torsional_Energy-OPLS-2005>
6.11026859283447

> <r_mmod_Van_der_Waal_Energy-OPLS-2005>
146.010803222656

> <r_mmod_Electrostatic_Energy-OPLS-2005>
181.183547973633

> <r_mmod_Solvation_Energy-OPLS-2005>
-877.416870117188

> <b_mmod_Minimization_Converged-OPLS-2005>
0

> <r_mmod_RMS_Derivative-OPLS-2005>
2.58906722068787

$$$$
2
                    3D
 Structure written by MMmdl.
159167  0  0  1  0            999 V2000
  -30.7255  -14.5043   20.5494 C   0  0  0  0  0  0
  -30.4187  -12.3228   19.4372 C   0  0  0  0  0  0
  -29.4976  -12.4989   18.2135 C   0  0  0  0  0  0
  -28.0213  -12.3531   18.6290 C   0  0  0  0  0  0
  -27.6584  -13.2177   19.8672 C   0  0  2  0  0  0
  -28.7023  -13.0490   20.9960 C   0  0  0  0  0  0
  -25.2557  -13.8177   20.5665 C   0  0  0  0  0  0
  -24.1824  -13.0445   20.9192 C   0  0  0  0  0  0
  -24.6386  -11.6913   20.8727 C   0  0  0  0  0  0
  -23.9055  -10.4290   21.0389 C   0  0  0  0  0  0
  -24.3603   -9.4201   21.9174 C   0  0  0  0  0  0
  -23.6273   -8.2241   22.0745 C   0  0  0  0  0  0
  -22.4251   -8.0291   21.3552 C   0  0  0  0  0  0
  -21.9888   -9.0260   20.4647 C   0  0  0  0  0  0
  -22.7220  -10.2129   20.3046 C   0  0  0  0  0  0
  -21.6856   -6.0737   22.5274 C   0  0  0  0  0  0
  -21.4019   -6.5635   23.8210 C   0  0  0  0  0  0
  -21.3653   -5.6788   24.9175 C   0  0  0  0  0  0
  -21.6032   -4.3051   24.7218 C   0  0  0  0  0  0
  -21.8820   -3.8149   23.4346 C   0  0  0  0  0  0
  -21.9180   -4.6966   22.3399 C   0  0  0  0  0  0
  -22.7833  -13.5243   21.1854 C   0  0  0  0  0  0
  -22.1662   -4.2150   21.0974 F   0  0  0  0  0  0
  -21.5621   -3.4529   25.7730 F   0  0  0  0  0  0
  -30.0326  -13.3376   20.4336 N   0  0  0  0  0  0
  -26.3005  -12.9366   20.3340 N   0  0  0  0  0  0
  -25.9321  -11.6516   20.5749 N   0  0  0  0  0  0
  -22.0461  -12.8245   22.0408 N   0  0  0  0  0  0
  -25.4296  -15.1889   20.4050 N   0  0  0  0  0  0
  -31.8639  -14.6424   20.0939 O   0  0  0  0  0  0
  -21.6637   -6.8877   21.4235 O   0  0  0  0  0  0
  -22.3510  -14.5545   20.6702 O   0  0  0  0  0  0
  -24.6194  -31.8669   23.2093 C   0  0  0  0  0  0
  -25.9070  -32.4810   23.8393 C   0  0  1  0  0  0
  -27.2267  -27.3959   20.0894 C   0  0  0  0  0  0
  -25.5905  -33.8610   24.2318 N   0  0  0  0  0  0
  -23.4078  -30.4947   21.5511 C   0  0  2  0  0  0
  -24.8531  -28.9644   20.1118 C   0  0  0  0  0  0
  -22.7434  -29.4673   22.4966 C   0  0  0  0  0  0
  -18.0286  -28.1394   22.8490 C   0  0  0  0  0  0
  -24.1487  -36.7319   23.2640 C   0  0  0  0  0  0
  -25.9442  -30.8185   21.3717 C   0  0  0  0  0  0
  -26.0195  -29.4526   20.7141 C   0  0  0  0  0  0
  -27.2096  -28.6770   20.7021 C   0  0  0  0  0  0
  -26.0423  -26.9544   19.4524 C   0  0  0  0  0  0
  -24.8624  -27.7151   19.4768 C   0  0  0  0  0  0
  -23.6172  -29.8353   20.1649 C   0  0  0  0  0  0
  -25.4107  -36.3107   24.0335 C   0  0  1  0  0  0
  -20.5878  -28.3688   23.1304 C   0  0  2  0  0  0
  -20.6778  -26.9419   22.5414 C   0  0  0  0  0  0
  -19.5753  -26.6394   21.5219 C   0  0  0  0  0  0
  -18.1931  -26.7943   22.1629 C   0  0  0  0  0  0
  -19.1532  -28.8853   23.2898 C   0  0  0  0  0  0
  -18.9460  -30.1457   23.8913 C   0  0  0  0  0  0
  -17.6461  -30.6590   24.0573 C   0  0  0  0  0  0
  -25.9035  -34.9472   23.5122 C   0  0  0  0  0  0
  -16.5352  -29.9094   23.6331 C   0  0  0  0  0  0
  -16.7276  -28.6515   23.0342 C   0  0  0  0  0  0
  -26.4492  -31.6584   25.0719 C   0  0  0  0  0  0
  -25.3763  -31.3704   26.1469 C   0  0  0  0  0  0
  -27.0326  -30.3014   24.6120 C   0  0  0  0  0  0
  -27.6061  -32.4318   25.7467 C   0  0  0  0  0  0
  -27.5582  -37.1813   24.8467 C   0  0  0  0  0  0
  -21.4153  -29.3050   22.3694 N   0  0  0  0  0  0
  -26.4298  -37.3787   23.9404 N   0  0  0  0  0  0
  -24.6756  -31.0747   22.1012 N   0  0  0  0  0  0
  -23.4190  -28.8208   23.3019 O   0  0  0  0  0  0
  -28.3598  -26.5880   20.1120 O   0  0  0  0  0  0
  -26.5596  -34.8932   22.4690 O   0  0  0  0  0  0
  -23.5378  -32.1439   23.7459 O   0  0  0  0  0  0
  -30.5952  -24.5289   20.4603 C   0  0  0  0  0  0
  -29.2452  -24.1778   20.3689 C   0  0  0  0  0  0
  -31.5330  -23.4754   20.4413 C   0  0  0  0  0  0
  -29.8408  -21.9425   20.2562 C   0  0  0  0  0  0
  -28.2941  -20.3058   19.2483 C   0  0  0  0  0  0
  -28.0937  -25.1951   20.4519 C   0  0  0  0  0  0
  -29.6683  -18.0603   20.5670 C   0  0  0  0  0  0
  -30.5954  -16.9533   21.1508 C   0  0  0  0  0  0
  -30.3382  -19.4751   20.4540 C   0  0  0  0  0  0
  -33.0396  -23.7350   20.5265 C   0  0  0  0  0  0
  -28.8923  -22.8729   20.2613 N   0  0  0  0  0  0
  -31.1356  -22.1820   20.3489 N   0  0  0  0  0  0
  -30.0638  -15.5693   21.0558 N   0  0  0  0  0  0
  -29.4362  -20.6019   20.1156 N   0  0  0  0  0  0
  -33.3108  -25.0431   20.5952 F   0  0  0  0  0  0
  -33.5379  -23.1468   21.6153 F   0  0  0  0  0  0
  -33.6519  -23.2340   19.4510 F   0  0  0  0  0  0
  -31.4667  -12.4020   19.1412 H   0  0  0  0  0  0
  -30.3085  -11.3244   19.8632 H   0  0  0  0  0  0
  -29.7495  -11.7678   17.4433 H   0  0  0  0  0  0
  -29.6544  -13.4814   17.7626 H   0  0  0  0  0  0
  -27.8450  -11.3006   18.8555 H   0  0  0  0  0  0
  -27.3663  -12.5986   17.7936 H   0  0  0  0  0  0
  -27.6897  -14.2565   19.5360 H   0  0  0  0  0  0
  -28.6791  -12.0301   21.3824 H   0  0  0  0  0  0
  -28.4659  -13.6908   21.8456 H   0  0  0  0  0  0
  -25.2746   -9.5693   22.4752 H   0  0  0  0  0  0
  -23.9998   -7.4622   22.7458 H   0  0  0  0  0  0
  -21.0820   -8.8778   19.8933 H   0  0  0  0  0  0
  -22.3687  -10.9679   19.6152 H   0  0  0  0  0  0
  -21.2049   -7.6142   23.9723 H   0  0  0  0  0  0
  -21.1467   -6.0517   25.9082 H   0  0  0  0  0  0
  -22.0607   -2.7608   23.2833 H   0  0  0  0  0  0
  -22.4075  -11.9927   22.4828 H   0  0  0  0  0  0
  -21.1086  -13.1288   22.2589 H   0  0  0  0  0  0
  -24.6689  -15.8507   20.5155 H   0  0  0  0  0  0
  -26.2890  -15.6202   20.0869 H   0  0  0  0  0  0
  -26.7132  -32.5522   23.1148 H   0  0  0  0  0  0
  -25.0058  -33.9765   25.0461 H   0  0  0  0  0  0
  -22.6983  -31.3137   21.4144 H   0  0  0  0  0  0
  -23.3736  -35.9669   23.3325 H   0  0  0  0  0  0
  -24.3577  -36.8915   22.2050 H   0  0  0  0  0  0
  -23.7258  -37.6537   23.6645 H   0  0  0  0  0  0
  -26.0661  -31.5870   20.6065 H   0  0  0  0  0  0
  -26.8284  -30.8659   21.9958 H   0  0  0  0  0  0
  -28.1036  -29.0470   21.1843 H   0  0  0  0  0  0
  -26.0003  -26.0239   18.9073 H   0  0  0  0  0  0
  -23.9723  -27.3394   18.9901 H   0  0  0  0  0  0
  -23.7272  -30.6144   19.4092 H   0  0  0  0  0  0
  -22.7393  -29.2590   19.8662 H   0  0  0  0  0  0
  -25.1286  -36.1972   25.0828 H   0  0  0  0  0  0
  -20.9981  -28.3271   24.1418 H   0  0  0  0  0  0
  -20.5694  -26.2301   23.3607 H   0  0  0  0  0  0
  -21.6650  -26.7471   22.1198 H   0  0  0  0  0  0
  -19.6919  -25.6313   21.1236 H   0  0  0  0  0  0
  -19.6691  -27.3220   20.6760 H   0  0  0  0  0  0
  -17.4200  -26.6694   21.4025 H   0  0  0  0  0  0
  -18.0329  -26.0082   22.9024 H   0  0  0  0  0  0
  -19.7933  -30.7270   24.2286 H   0  0  0  0  0  0
  -17.5016  -31.6269   24.5177 H   0  0  0  0  0  0
  -15.5353  -30.3000   23.7645 H   0  0  0  0  0  0
  -15.8682  -28.0845   22.7042 H   0  0  0  0  0  0
  -24.5918  -30.7065   25.7813 H   0  0  0  0  0  0
  -24.8977  -32.2869   26.4927 H   0  0  0  0  0  0
  -25.8117  -30.8860   27.0217 H   0  0  0  0  0  0
  -26.2875  -29.6749   24.1196 H   0  0  0  0  0  0
  -27.4104  -29.7268   25.4586 H   0  0  0  0  0  0
  -27.8712  -30.4302   23.9274 H   0  0  0  0  0  0
  -27.2667  -33.3619   26.2038 H   0  0  0  0  0  0
  -28.3857  -32.6880   25.0280 H   0  0  0  0  0  0
  -28.0744  -31.8454   26.5379 H   0  0  0  0  0  0
  -28.2610  -38.0098   24.7489 H   0  0  0  0  0  0
  -28.1063  -36.2628   24.6318 H   0  0  0  0  0  0
  -27.2301  -37.1500   25.8871 H   0  0  0  0  0  0
  -20.9309  -29.8765   21.6911 H   0  0  0  0  0  0
  -26.0189  -38.2870   24.1388 H   0  0  0  0  0  0
  -30.9017  -25.5621   20.5525 H   0  0  0  0  0  0
  -27.8656  -21.1947   18.7842 H   0  0  0  0  0  0
  -27.5011  -19.8229   19.8201 H   0  0  0  0  0  0
  -28.5879  -19.6378   18.4366 H   0  0  0  0  0  0
  -27.7056  -25.1618   21.4704 H   0  0  0  0  0  0
  -27.3197  -24.7648   19.8224 H   0  0  0  0  0  0
  -28.7679  -18.1242   21.1802 H   0  0  0  0  0  0
  -29.3485  -17.7420   19.5740 H   0  0  0  0  0  0
  -30.7962  -17.1733   22.2010 H   0  0  0  0  0  0
  -31.5639  -17.0248   20.6516 H   0  0  0  0  0  0
  -31.1377  -19.4390   19.7135 H   0  0  0  0  0  0
  -30.8224  -19.7087   21.4049 H   0  0  0  0  0  0
  -29.1271  -15.4017   21.3936 H   0  0  0  0  0  0
  1 25  1  0  0  0
  1 30  2  0  0  0
  1 83  1  0  0  0
  2  3  1  0  0  0
  2 25  1  0  0  0
  2 88  1  0  0  0
  2 89  1  0  0  0
  3  4  1  0  0  0
  3 90  1  0  0  0
  3 91  1  0  0  0
  4  5  1  0  0  0
  4 92  1  0  0  0
  4 93  1  0  0  0
  5  6  1  0  0  0
  5 26  1  0  0  0
  5 94  1  0  0  0
  6 25  1  0  0  0
  6 95  1  0  0  0
  6 96  1  0  0  0
  7  8  2  0  0  0
  7 26  1  0  0  0
  7 29  1  0  0  0
  8  9  1  0  0  0
  8 22  1  0  0  0
  9 10  1  0  0  0
  9 27  2  0  0  0
 10 11  2  0  0  0
 10 15  1  0  0  0
 11 12  1  0  0  0
 11 97  1  0  0  0
 12 13  2  0  0  0
 12 98  1  0  0  0
 13 14  1  0  0  0
 13 31  1  0  0  0
 14 15  2  0  0  0
 14 99  1  0  0  0
 15100  1  0  0  0
 16 17  2  0  0  0
 16 21  1  0  0  0
 16 31  1  0  0  0
 17 18  1  0  0  0
 17101  1  0  0  0
 18 19  2  0  0  0
 18102  1  0  0  0
 19 20  1  0  0  0
 19 24  1  0  0  0
 20 21  2  0  0  0
 20103  1  0  0  0
 21 23  1  0  0  0
 22 28  1  0  0  0
 22 32  2  0  0  0
 26 27  1  0  0  0
 28104  1  0  0  0
 28105  1  0  0  0
 29106  1  0  0  0
 29107  1  0  0  0
 33 34  1  0  0  0
 33 66  1  0  0  0
 33 70  2  0  0  0
 34 36  1  0  0  0
 34 59  1  0  0  0
 34108  1  0  0  0
 35 44  2  0  0  0
 35 45  1  0  0  0
 35 68  1  0  0  0
 36 56  1  0  0  0
 36109  1  0  0  0
 37 39  1  0  0  0
 37 47  1  0  0  0
 37 66  1  0  0  0
 37110  1  0  0  0
 38 43  2  0  0  0
 38 46  1  0  0  0
 38 47  1  0  0  0
 39 64  1  0  0  0
 39 67  2  0  0  0
 40 52  1  0  0  0
 40 53  2  0  0  0
 40 58  1  0  0  0
 41111  1  0  0  0
 41112  1  0  0  0
 41113  1  0  0  0
 41 48  1  0  0  0
 42 43  1  0  0  0
 42 66  1  0  0  0
 42114  1  0  0  0
 42115  1  0  0  0
 43 44  1  0  0  0
 44116  1  0  0  0
 45 46  2  0  0  0
 45117  1  0  0  0
 46118  1  0  0  0
 47119  1  0  0  0
 47120  1  0  0  0
 48 56  1  0  0  0
 48 65  1  0  0  0
 48121  1  0  0  0
 49 50  1  0  0  0
 49 53  1  0  0  0
 49 64  1  0  0  0
 49122  1  0  0  0
 50 51  1  0  0  0
 50123  1  0  0  0
 50124  1  0  0  0
 51 52  1  0  0  0
 51125  1  0  0  0
 51126  1  0  0  0
 52127  1  0  0  0
 52128  1  0  0  0
 53 54  1  0  0  0
 54 55  2  0  0  0
 54129  1  0  0  0
 55 57  1  0  0  0
 55130  1  0  0  0
 56 69  2  0  0  0
 57 58  2  0  0  0
 57131  1  0  0  0
 58132  1  0  0  0
 59 60  1  0  0  0
 59 61  1  0  0  0
 59 62  1  0  0  0
 60133  1  0  0  0
 60134  1  0  0  0
 60135  1  0  0  0
 61136  1  0  0  0
 61137  1  0  0  0
 61138  1  0  0  0
 62139  1  0  0  0
 62140  1  0  0  0
 62141  1  0  0  0
 63 65  1  0  0  0
 63142  1  0  0  0
 63143  1  0  0  0
 63144  1  0  0  0
 64145  1  0  0  0
 65146  1  0  0  0
 68 76  1  0  0  0
 71 72  2  0  0  0
 71 73  1  0  0  0
 71147  1  0  0  0
 72 76  1  0  0  0
 72 81  1  0  0  0
 73 80  1  0  0  0
 73 82  2  0  0  0
 74 81  2  0  0  0
 74 82  1  0  0  0
 74 84  1  0  0  0
 75 84  1  0  0  0
 75148  1  0  0  0
 75149  1  0  0  0
 75150  1  0  0  0
 76151  1  0  0  0
 76152  1  0  0  0
 77 78  1  0  0  0
 77 79  1  0  0  0
 77153  1  0  0  0
 77154  1  0  0  0
 78 83  1  0  0  0
 78155  1  0  0  0
 78156  1  0  0  0
 79 84  1  0  0  0
 79157  1  0  0  0
 79158  1  0  0  0
 80 85  1  0  0  0
 80 86  1  0  0  0
 80 87  1  0  0  0
 83159  1  0  0  0
M  ISO  4   1 100  68 101  76 101  83 100
M  END
> <chiral flag>
0

> <version>
0

> <s_m_source_file>
/data/baiqing/PycharmProjects/Reinvent-master-3.2/result/LINK_invent/BTK/process_docking_weight1_custom_sum_contain_oxygen_bond_distance_aromatic_linkinvent_7_9_3/rearranged_h_0064.sdf

> <i_m_source_file_index>
3

> <r_mmod_Potential_Energy-OPLS-2005>
-496.467498779297

> <r_mmod_Stretch_Energy-OPLS-2005>
47.8323631286621

> <r_mmod_Bend_Energy-OPLS-2005>
108.137268066406

> <r_mmod_Torsional_Energy-OPLS-2005>
209.19889831543

> <r_mmod_Improper_Torsional_Energy-OPLS-2005>
4.09530544281006

> <r_mmod_Van_der_Waal_Energy-OPLS-2005>
177.562271118164

> <r_mmod_Electrostatic_Energy-OPLS-2005>
-830.208251953125

> <r_mmod_Solvation_Energy-OPLS-2005>
-234.49462890625

> <b_mmod_Minimization_Converged-OPLS-2005>
0

> <r_mmod_RMS_Derivative-OPLS-2005>
3.13782811164856

$$$$
3
                    3D
 Structure written by MMmdl.
178186  0  0  1  0            999 V2000
  -30.7876  -14.5507   20.6993 C   0  0  0  0  0  0
  -30.4029  -12.3577   19.5481 C   0  0  0  0  0  0
  -29.5428  -12.4944   18.2779 C   0  0  0  0  0  0
  -28.0500  -12.3478   18.6415 C   0  0  0  0  0  0
  -27.6469  -13.2208   19.8596 C   0  0  2  0  0  0
  -28.6706  -13.1465   21.0249 C   0  0  0  0  0  0
  -25.2500  -13.8183   20.5612 C   0  0  0  0  0  0
  -24.1759  -13.0447   20.9201 C   0  0  0  0  0  0
  -24.6313  -11.6932   20.8730 C   0  0  0  0  0  0
  -23.8932  -10.4325   21.0352 C   0  0  0  0  0  0
  -24.3475   -9.4266   21.9160 C   0  0  0  0  0  0
  -23.6193   -8.2256   22.0763 C   0  0  0  0  0  0
  -22.4206   -8.0246   21.3536 C   0  0  0  0  0  0
  -21.9781   -9.0208   20.4667 C   0  0  0  0  0  0
  -22.7066  -10.2129   20.3043 C   0  0  0  0  0  0
  -21.6866   -6.0686   22.5277 C   0  0  0  0  0  0
  -21.4035   -6.5605   23.8201 C   0  0  0  0  0  0
  -21.3624   -5.6760   24.9148 C   0  0  0  0  0  0
  -21.6027   -4.3025   24.7234 C   0  0  0  0  0  0
  -21.8842   -3.8115   23.4355 C   0  0  0  0  0  0
  -21.9242   -4.6927   22.3401 C   0  0  0  0  0  0
  -22.7799  -13.5295   21.1766 C   0  0  0  0  0  0
  -22.1680   -4.2079   21.0991 F   0  0  0  0  0  0
  -21.5578   -3.4548   25.7752 F   0  0  0  0  0  0
  -30.0117  -13.4294   20.4985 N   0  0  0  0  0  0
  -26.2914  -12.9342   20.3252 N   0  0  0  0  0  0
  -25.9267  -11.6514   20.5790 N   0  0  0  0  0  0
  -22.0349  -12.8418   22.0377 N   0  0  0  0  0  0
  -25.4072  -15.1878   20.3954 N   0  0  0  0  0  0
  -31.9336  -14.5615   20.2490 O   0  0  0  0  0  0
  -21.6630   -6.8800   21.4219 O   0  0  0  0  0  0
  -22.3526  -14.5550   20.6537 O   0  0  0  0  0  0
  -24.6237  -31.8674   23.2079 C   0  0  0  0  0  0
  -25.9109  -32.4813   23.8417 C   0  0  1  0  0  0
  -27.2586  -27.4301   20.0432 C   0  0  0  0  0  0
  -25.5983  -33.8623   24.2324 N   0  0  0  0  0  0
  -23.4083  -30.4927   21.5534 C   0  0  2  0  0  0
  -24.8542  -28.9632   20.1147 C   0  0  0  0  0  0
  -22.7420  -29.4676   22.4964 C   0  0  0  0  0  0
  -18.0297  -28.1388   22.8505 C   0  0  0  0  0  0
  -24.1498  -36.7229   23.2641 C   0  0  0  0  0  0
  -25.9452  -30.8223   21.3738 C   0  0  0  0  0  0
  -26.0198  -29.4596   20.7069 C   0  0  0  0  0  0
  -27.2193  -28.7024   20.6746 C   0  0  0  0  0  0
  -26.0658  -26.9658   19.4348 C   0  0  0  0  0  0
  -24.8715  -27.7117   19.4793 C   0  0  0  0  0  0
  -23.6158  -29.8329   20.1686 C   0  0  0  0  0  0
  -25.4145  -36.3075   24.0295 C   0  0  1  0  0  0
  -20.5894  -28.3699   23.1306 C   0  0  2  0  0  0
  -20.6751  -26.9426   22.5398 C   0  0  0  0  0  0
  -19.5699  -26.6384   21.5233 C   0  0  0  0  0  0
  -18.1914  -26.7921   22.1664 C   0  0  0  0  0  0
  -19.1546  -28.8858   23.2908 C   0  0  0  0  0  0
  -18.9460  -30.1486   23.8902 C   0  0  0  0  0  0
  -17.6448  -30.6583   24.0604 C   0  0  0  0  0  0
  -25.9084  -34.9480   23.5085 C   0  0  0  0  0  0
  -16.5349  -29.9088   23.6357 C   0  0  0  0  0  0
  -16.7285  -28.6508   23.0371 C   0  0  0  0  0  0
  -26.4504  -31.6604   25.0761 C   0  0  0  0  0  0
  -25.3744  -31.3697   26.1455 C   0  0  0  0  0  0
  -27.0360  -30.3062   24.6179 C   0  0  0  0  0  0
  -27.6075  -32.4333   25.7490 C   0  0  0  0  0  0
  -27.5577  -37.1776   24.8481 C   0  0  0  0  0  0
  -21.4137  -29.3092   22.3716 N   0  0  0  0  0  0
  -26.4302  -37.3783   23.9399 N   0  0  0  0  0  0
  -24.6757  -31.0771   22.0979 N   0  0  0  0  0  0
  -23.4179  -28.8205   23.3020 O   0  0  0  0  0  0
  -28.4417  -26.6870   20.0279 O   0  0  0  0  0  0
  -26.5592  -34.8892   22.4619 O   0  0  0  0  0  0
  -23.5413  -32.1433   23.7437 O   0  0  0  0  0  0
  -30.6835  -21.0915   19.4854 C   0  0  0  0  0  0
  -29.5491  -21.7598   18.9756 C   0  0  0  0  0  0
  -28.4176  -20.9208   18.8083 C   0  0  0  0  0  0
  -29.5993  -19.0444   19.4904 C   0  0  0  0  0  0
  -26.3753  -22.4769   18.9121 C   0  0  0  0  0  0
  -30.6560  -15.8509   23.9053 C   0  0  0  0  0  0
  -32.5748  -16.4824   22.3886 C   0  0  0  0  0  0
  -28.3179  -17.2930   21.6737 C   0  0  0  0  0  0
  -31.1565  -17.1845   18.8606 C   0  0  0  0  0  0
  -28.8260  -16.9646   18.2435 C   0  0  0  0  0  0
  -29.6476  -23.2368   18.4950 C   0  0  0  0  0  0
  -27.0973  -21.3516   18.1842 C   0  0  0  0  0  0
  -29.5962  -24.4048   19.5462 C   0  0  0  0  0  0
  -28.4187  -25.4103   19.3529 C   0  0  0  0  0  0
  -31.0328  -16.3736   22.4944 C   0  0  0  0  0  0
  -29.2964  -16.5893   20.6926 C   0  0  1  0  0  0
  -29.7326  -17.4695   19.4063 C   0  0  0  0  0  0
  -30.6929  -19.7668   19.7531 N   0  0  0  0  0  0
  -28.4551  -19.6018   19.1000 N   0  0  0  0  0  0
  -30.3019  -15.6738   21.3643 N   0  0  0  0  0  0
  -31.4674  -12.3841   19.2997 H   0  0  0  0  0  0
  -30.2357  -11.3732   19.9966 H   0  0  0  0  0  0
  -29.8251  -11.7225   17.5600 H   0  0  0  0  0  0
  -29.7498  -13.4620   17.8119 H   0  0  0  0  0  0
  -27.8546  -11.2982   18.8547 H   0  0  0  0  0  0
  -27.4295  -12.6002   17.7790 H   0  0  0  0  0  0
  -27.6333  -14.2277   19.4609 H   0  0  0  0  0  0
  -28.6547  -12.1569   21.4866 H   0  0  0  0  0  0
  -28.3998  -13.8574   21.8070 H   0  0  0  0  0  0
  -25.2580   -9.5840   22.4765 H   0  0  0  0  0  0
  -23.9984   -7.4658   22.7461 H   0  0  0  0  0  0
  -21.0707   -8.8612   19.8942 H   0  0  0  0  0  0
  -22.3378  -10.9630   19.6168 H   0  0  0  0  0  0
  -21.1990   -7.6108   23.9692 H   0  0  0  0  0  0
  -21.1420   -6.0474   25.9036 H   0  0  0  0  0  0
  -22.0661   -2.7587   23.2890 H   0  0  0  0  0  0
  -22.3808  -12.0210   22.5097 H   0  0  0  0  0  0
  -21.0993  -13.1686   22.2386 H   0  0  0  0  0  0
  -24.6147  -15.8155   20.4788 H   0  0  0  0  0  0
  -26.2341  -15.6619   20.0599 H   0  0  0  0  0  0
  -26.7187  -32.5493   23.1181 H   0  0  0  0  0  0
  -25.0249  -33.9816   25.0546 H   0  0  0  0  0  0
  -22.7059  -31.3168   21.4173 H   0  0  0  0  0  0
  -23.3792  -35.9532   23.3318 H   0  0  0  0  0  0
  -24.3599  -36.8839   22.2059 H   0  0  0  0  0  0
  -23.7158  -37.6380   23.6664 H   0  0  0  0  0  0
  -26.0914  -31.5993   20.6222 H   0  0  0  0  0  0
  -26.8135  -30.8422   22.0158 H   0  0  0  0  0  0
  -28.1207  -29.0976   21.1202 H   0  0  0  0  0  0
  -26.0134  -26.0354   18.8945 H   0  0  0  0  0  0
  -23.9810  -27.3144   19.0176 H   0  0  0  0  0  0
  -23.7361  -30.6117   19.4189 H   0  0  0  0  0  0
  -22.7385  -29.2666   19.8594 H   0  0  0  0  0  0
  -25.1344  -36.1912   25.0775 H   0  0  0  0  0  0
  -21.0068  -28.3236   24.1389 H   0  0  0  0  0  0
  -20.5714  -26.2291   23.3579 H   0  0  0  0  0  0
  -21.6607  -26.7429   22.1163 H   0  0  0  0  0  0
  -19.6819  -25.6316   21.1214 H   0  0  0  0  0  0
  -19.6607  -27.3235   20.6805 H   0  0  0  0  0  0
  -17.4176  -26.6787   21.4062 H   0  0  0  0  0  0
  -18.0278  -26.0046   22.9042 H   0  0  0  0  0  0
  -19.7949  -30.7368   24.2185 H   0  0  0  0  0  0
  -17.4991  -31.6251   24.5246 H   0  0  0  0  0  0
  -15.5355  -30.3002   23.7607 H   0  0  0  0  0  0
  -15.8688  -28.0815   22.7056 H   0  0  0  0  0  0
  -24.5943  -30.7041   25.7703 H   0  0  0  0  0  0
  -24.8933  -32.2887   26.4871 H   0  0  0  0  0  0
  -25.8060  -30.8831   27.0229 H   0  0  0  0  0  0
  -26.2937  -29.6768   24.1255 H   0  0  0  0  0  0
  -27.4143  -29.7327   25.4656 H   0  0  0  0  0  0
  -27.8778  -30.4354   23.9350 H   0  0  0  0  0  0
  -27.2724  -33.3708   26.1940 H   0  0  0  0  0  0
  -28.3913  -32.6767   25.0296 H   0  0  0  0  0  0
  -28.0692  -31.8528   26.5485 H   0  0  0  0  0  0
  -28.2595  -38.0100   24.7590 H   0  0  0  0  0  0
  -28.1072  -36.2599   24.6269 H   0  0  0  0  0  0
  -27.2277  -37.1354   25.8895 H   0  0  0  0  0  0
  -20.9248  -29.8908   21.7039 H   0  0  0  0  0  0
  -26.0163  -38.2830   24.1486 H   0  0  0  0  0  0
  -31.6304  -21.6108   19.5797 H   0  0  0  0  0  0
  -25.3095  -22.4663   18.6774 H   0  0  0  0  0  0
  -26.7564  -23.4299   18.5633 H   0  0  0  0  0  0
  -26.4913  -22.3976   19.9932 H   0  0  0  0  0  0
  -31.0302  -16.5158   24.6899 H   0  0  0  0  0  0
  -31.0984  -14.8787   24.1190 H   0  0  0  0  0  0
  -29.5798  -15.7750   24.0662 H   0  0  0  0  0  0
  -32.9713  -17.2726   23.0430 H   0  0  0  0  0  0
  -32.9038  -16.7256   21.3802 H   0  0  0  0  0  0
  -33.0762  -15.5572   22.6823 H   0  0  0  0  0  0
  -27.3792  -17.5390   21.1741 H   0  0  0  0  0  0
  -28.7035  -18.2286   22.0736 H   0  0  0  0  0  0
  -28.0670  -16.6578   22.5243 H   0  0  0  0  0  0
  -31.3296  -17.7531   17.9443 H   0  0  0  0  0  0
  -31.3191  -16.1511   18.5778 H   0  0  0  0  0  0
  -31.9300  -17.4791   19.5677 H   0  0  0  0  0  0
  -28.9707  -17.5506   17.3334 H   0  0  0  0  0  0
  -27.7669  -17.0380   18.4982 H   0  0  0  0  0  0
  -29.0179  -15.9161   17.9937 H   0  0  0  0  0  0
  -28.9152  -23.4128   17.7043 H   0  0  0  0  0  0
  -30.6032  -23.3335   17.9759 H   0  0  0  0  0  0
  -26.4197  -20.4982   18.1688 H   0  0  0  0  0  0
  -27.2577  -21.6306   17.1455 H   0  0  0  0  0  0
  -30.5195  -24.9753   19.4487 H   0  0  0  0  0  0
  -29.5833  -24.0038   20.5559 H   0  0  0  0  0  0
  -27.5448  -24.8859   19.7184 H   0  0  0  0  0  0
  -28.3013  -25.6184   18.2889 H   0  0  0  0  0  0
  -30.7342  -17.4206   22.4890 H   0  0  0  0  0  0
  -28.6218  -15.8398   20.2977 H   0  0  0  0  0  0
  1 25  1  0  0  0
  1 30  2  0  0  0
  1 90  1  0  0  0
  2  3  1  0  0  0
  2 25  1  0  0  0
  2 91  1  0  0  0
  2 92  1  0  0  0
  3  4  1  0  0  0
  3 93  1  0  0  0
  3 94  1  0  0  0
  4  5  1  0  0  0
  4 95  1  0  0  0
  4 96  1  0  0  0
  5  6  1  0  0  0
  5 26  1  0  0  0
  5 97  1  0  0  0
  6 25  1  0  0  0
  6 98  1  0  0  0
  6 99  1  0  0  0
  7  8  2  0  0  0
  7 26  1  0  0  0
  7 29  1  0  0  0
  8  9  1  0  0  0
  8 22  1  0  0  0
  9 10  1  0  0  0
  9 27  2  0  0  0
 10 11  2  0  0  0
 10 15  1  0  0  0
 11 12  1  0  0  0
 11100  1  0  0  0
 12 13  2  0  0  0
 12101  1  0  0  0
 13 14  1  0  0  0
 13 31  1  0  0  0
 14 15  2  0  0  0
 14102  1  0  0  0
 15103  1  0  0  0
 16 17  2  0  0  0
 16 21  1  0  0  0
 16 31  1  0  0  0
 17 18  1  0  0  0
 17104  1  0  0  0
 18 19  2  0  0  0
 18105  1  0  0  0
 19 20  1  0  0  0
 19 24  1  0  0  0
 20 21  2  0  0  0
 20106  1  0  0  0
 21 23  1  0  0  0
 22 28  1  0  0  0
 22 32  2  0  0  0
 26 27  1  0  0  0
 28107  1  0  0  0
 28108  1  0  0  0
 29109  1  0  0  0
 29110  1  0  0  0
 33 34  1  0  0  0
 33 66  1  0  0  0
 33 70  2  0  0  0
 34 36  1  0  0  0
 34 59  1  0  0  0
 34111  1  0  0  0
 35 44  2  0  0  0
 35 45  1  0  0  0
 35 68  1  0  0  0
 36 56  1  0  0  0
 36112  1  0  0  0
 37 39  1  0  0  0
 37 47  1  0  0  0
 37 66  1  0  0  0
 37113  1  0  0  0
 38 43  2  0  0  0
 38 46  1  0  0  0
 38 47  1  0  0  0
 39 64  1  0  0  0
 39 67  2  0  0  0
 40 52  1  0  0  0
 40 53  2  0  0  0
 40 58  1  0  0  0
 41114  1  0  0  0
 41115  1  0  0  0
 41116  1  0  0  0
 41 48  1  0  0  0
 42 43  1  0  0  0
 42 66  1  0  0  0
 42117  1  0  0  0
 42118  1  0  0  0
 43 44  1  0  0  0
 44119  1  0  0  0
 45 46  2  0  0  0
 45120  1  0  0  0
 46121  1  0  0  0
 47122  1  0  0  0
 47123  1  0  0  0
 48 56  1  0  0  0
 48 65  1  0  0  0
 48124  1  0  0  0
 49 50  1  0  0  0
 49 53  1  0  0  0
 49 64  1  0  0  0
 49125  1  0  0  0
 50 51  1  0  0  0
 50126  1  0  0  0
 50127  1  0  0  0
 51 52  1  0  0  0
 51128  1  0  0  0
 51129  1  0  0  0
 52130  1  0  0  0
 52131  1  0  0  0
 53 54  1  0  0  0
 54 55  2  0  0  0
 54132  1  0  0  0
 55 57  1  0  0  0
 55133  1  0  0  0
 56 69  2  0  0  0
 57 58  2  0  0  0
 57134  1  0  0  0
 58135  1  0  0  0
 59 60  1  0  0  0
 59 61  1  0  0  0
 59 62  1  0  0  0
 60136  1  0  0  0
 60137  1  0  0  0
 60138  1  0  0  0
 61139  1  0  0  0
 61140  1  0  0  0
 61141  1  0  0  0
 62142  1  0  0  0
 62143  1  0  0  0
 62144  1  0  0  0
 63 65  1  0  0  0
 63145  1  0  0  0
 63146  1  0  0  0
 63147  1  0  0  0
 64148  1  0  0  0
 65149  1  0  0  0
 68 84  1  0  0  0
 71 72  2  0  0  0
 71 88  1  0  0  0
 71150  1  0  0  0
 72 73  1  0  0  0
 72 81  1  0  0  0
 73 82  1  0  0  0
 73 89  2  0  0  0
 74 87  1  0  0  0
 74 88  2  0  0  0
 74 89  1  0  0  0
 75 82  1  0  0  0
 75151  1  0  0  0
 75152  1  0  0  0
 75153  1  0  0  0
 76154  1  0  0  0
 76155  1  0  0  0
 76156  1  0  0  0
 76 85  1  0  0  0
 77 85  1  0  0  0
 77157  1  0  0  0
 77158  1  0  0  0
 77159  1  0  0  0
 78160  1  0  0  0
 78161  1  0  0  0
 78162  1  0  0  0
 78 86  1  0  0  0
 79163  1  0  0  0
 79164  1  0  0  0
 79165  1  0  0  0
 79 87  1  0  0  0
 80 87  1  0  0  0
 80166  1  0  0  0
 80167  1  0  0  0
 80168  1  0  0  0
 81 83  1  0  0  0
 81169  1  0  0  0
 81170  1  0  0  0
 82171  1  0  0  0
 82172  1  0  0  0
 83 84  1  0  0  0
 83173  1  0  0  0
 83174  1  0  0  0
 84175  1  0  0  0
 84176  1  0  0  0
 85 90  1  0  0  0
 85177  1  0  0  0
 86 87  1  0  0  0
 86 90  1  0  0  0
 86178  1  0  0  0
M  ISO  4   1 100  68 101  84 101  90 100
M  END
> <chiral flag>
0

> <version>
0

> <s_m_source_file>
/data/baiqing/PycharmProjects/Reinvent-master-3.2/result/LINK_invent/BTK/process_docking_weight1_custom_sum_contain_oxygen_bond_distance_aromatic_linkinvent_7_9_3/rearranged_h_0064.sdf

> <i_m_source_file_index>
4

> <r_mmod_Potential_Energy-OPLS-2005>
12.4193916320801

> <r_mmod_Stretch_Energy-OPLS-2005>
85.2622146606445

> <r_mmod_Bend_Energy-OPLS-2005>
196.590515136719

> <r_mmod_Torsional_Energy-OPLS-2005>
345.788513183594

> <r_mmod_Improper_Torsional_Energy-OPLS-2005>
5.04403018951416

> <r_mmod_Van_der_Waal_Energy-OPLS-2005>
177.922271728516

> <r_mmod_Electrostatic_Energy-OPLS-2005>
-639.79443359375

> <r_mmod_Solvation_Energy-OPLS-2005>
-194.580856323242

> <b_mmod_Minimization_Converged-OPLS-2005>
0

> <r_mmod_RMS_Derivative-OPLS-2005>
10.5055141448975

$$$$
4
                    3D
 Structure written by MMmdl.
166175  0  0  1  0            999 V2000
  -30.8390  -14.2937   20.8329 C   0  0  0  0  0  0
  -30.4052  -12.3277   19.3958 C   0  0  0  0  0  0
  -29.4763  -12.5422   18.1901 C   0  0  0  0  0  0
  -28.0103  -12.3451   18.6000 C   0  0  0  0  0  0
  -27.6508  -13.1885   19.8415 C   0  0  2  0  0  0
  -28.6720  -12.9909   20.9766 C   0  0  0  0  0  0
  -25.2585  -13.8133   20.5609 C   0  0  0  0  0  0
  -24.1827  -13.0433   20.9152 C   0  0  0  0  0  0
  -24.6350  -11.6889   20.8679 C   0  0  0  0  0  0
  -23.9013  -10.4290   21.0380 C   0  0  0  0  0  0
  -24.3597   -9.4216   21.9155 C   0  0  0  0  0  0
  -23.6295   -8.2238   22.0741 C   0  0  0  0  0  0
  -22.4271   -8.0268   21.3540 C   0  0  0  0  0  0
  -21.9881   -9.0232   20.4644 C   0  0  0  0  0  0
  -22.7182  -10.2122   20.3040 C   0  0  0  0  0  0
  -21.6854   -6.0723   22.5279 C   0  0  0  0  0  0
  -21.4011   -6.5637   23.8209 C   0  0  0  0  0  0
  -21.3657   -5.6799   24.9171 C   0  0  0  0  0  0
  -21.6043   -4.3063   24.7226 C   0  0  0  0  0  0
  -21.8826   -3.8143   23.4355 C   0  0  0  0  0  0
  -21.9201   -4.6949   22.3403 C   0  0  0  0  0  0
  -22.7873  -13.5251   21.1876 C   0  0  0  0  0  0
  -22.1667   -4.2142   21.0980 F   0  0  0  0  0  0
  -21.5633   -3.4547   25.7736 F   0  0  0  0  0  0
  -30.0325  -13.2527   20.4816 N   0  0  0  0  0  0
  -26.2940  -12.9244   20.3127 N   0  0  0  0  0  0
  -25.9243  -11.6431   20.5615 N   0  0  0  0  0  0
  -22.0542  -12.8222   22.0437 N   0  0  0  0  0  0
  -25.4417  -15.1846   20.4064 N   0  0  0  0  0  0
  -31.7037  -14.6962   20.0443 O   0  0  0  0  0  0
  -21.6646   -6.8855   21.4238 O   0  0  0  0  0  0
  -22.3536  -14.5565   20.6751 O   0  0  0  0  0  0
  -24.6111  -31.8742   23.2100 C   0  0  0  0  0  0
  -25.9035  -32.4855   23.8386 C   0  0  1  0  0  0
  -27.2227  -27.4541   20.0892 C   0  0  0  0  0  0
  -25.5923  -33.8637   24.2350 N   0  0  0  0  0  0
  -23.3983  -30.4924   21.5544 C   0  0  2  0  0  0
  -24.8429  -28.9625   20.1130 C   0  0  0  0  0  0
  -22.7387  -29.4667   22.5029 C   0  0  0  0  0  0
  -18.0237  -28.1389   22.8470 C   0  0  0  0  0  0
  -24.1470  -36.7313   23.2632 C   0  0  0  0  0  0
  -25.9228  -30.8441   21.3601 C   0  0  0  0  0  0
  -26.0009  -29.4762   20.7125 C   0  0  0  0  0  0
  -27.1964  -28.7235   20.7069 C   0  0  0  0  0  0
  -26.0597  -26.9582   19.4682 C   0  0  0  0  0  0
  -24.8613  -27.7025   19.4897 C   0  0  0  0  0  0
  -23.6041  -29.8269   20.1662 C   0  0  0  0  0  0
  -25.4095  -36.3109   24.0336 C   0  0  1  0  0  0
  -20.5818  -28.3680   23.1307 C   0  0  2  0  0  0
  -20.6712  -26.9411   22.5406 C   0  0  0  0  0  0
  -19.5722  -26.6383   21.5188 C   0  0  0  0  0  0
  -18.1895  -26.7935   22.1595 C   0  0  0  0  0  0
  -19.1484  -28.8846   23.2892 C   0  0  0  0  0  0
  -18.9448  -30.1448   23.8926 C   0  0  0  0  0  0
  -17.6457  -30.6611   24.0553 C   0  0  0  0  0  0
  -25.9020  -34.9486   23.5112 C   0  0  0  0  0  0
  -16.5338  -29.9110   23.6324 C   0  0  0  0  0  0
  -16.7233  -28.6514   23.0353 C   0  0  0  0  0  0
  -26.4484  -31.6604   25.0690 C   0  0  0  0  0  0
  -25.3764  -31.3735   26.1453 C   0  0  0  0  0  0
  -27.0304  -30.3033   24.6074 C   0  0  0  0  0  0
  -27.6098  -32.4281   25.7446 C   0  0  0  0  0  0
  -27.5567  -37.1782   24.8461 C   0  0  0  0  0  0
  -21.4124  -29.3055   22.3766 N   0  0  0  0  0  0
  -26.4304  -37.3767   23.9403 N   0  0  0  0  0  0
  -24.6636  -31.0827   22.1021 N   0  0  0  0  0  0
  -23.4176  -28.8208   23.3076 O   0  0  0  0  0  0
  -28.3788  -26.7110   20.0758 O   0  0  0  0  0  0
  -26.5571  -34.8939   22.4675 O   0  0  0  0  0  0
  -23.5311  -32.1475   23.7509 O   0  0  0  0  0  0
  -29.7038  -18.5999   23.1157 C   0  0  0  0  0  0
  -29.0835  -16.5874   21.3916 C   0  0  0  0  0  0
  -27.6899  -24.4779   20.8587 C   0  0  0  0  0  0
  -29.0481  -24.4309   22.5555 C   0  0  0  0  0  0
  -30.4857  -17.4292   23.1689 C   0  0  0  0  0  0
  -30.1678  -16.3532   22.2809 C   0  0  0  0  0  0
  -28.6266  -18.6932   22.2262 C   0  0  0  0  0  0
  -28.4250  -25.6450   20.9088 C   0  0  0  0  0  0
  -31.5727  -17.4123   24.2334 C   0  0  0  0  0  0
  -30.1807  -14.0775   23.3943 C   0  0  0  0  0  0
  -32.3507  -14.9522   22.6693 C   0  0  0  0  0  0
  -27.6739  -19.8781   22.3060 C   0  0  0  0  0  0
  -28.2179  -21.1982   21.7179 C   0  0  0  0  0  0
  -27.5537  -22.4264   22.3822 C   0  0  0  0  0  0
  -30.8422  -14.9387   22.2811 C   0  0  0  0  0  0
  -28.3384  -17.7122   21.3531 N   0  0  0  0  0  0
  -29.3093  -25.6029   21.9823 N   0  0  0  0  0  0
  -28.0936  -23.7091   21.9484 N   0  0  0  0  0  0
  -31.4447  -12.4423   19.0827 H   0  0  0  0  0  0
  -30.3219  -11.3053   19.7673 H   0  0  0  0  0  0
  -29.7407  -11.8513   17.3889 H   0  0  0  0  0  0
  -29.6162  -13.5479   17.7896 H   0  0  0  0  0  0
  -27.8526  -11.2854   18.8070 H   0  0  0  0  0  0
  -27.3515  -12.5926   17.7681 H   0  0  0  0  0  0
  -27.6935  -14.2310   19.5278 H   0  0  0  0  0  0
  -28.6175  -11.9855   21.3966 H   0  0  0  0  0  0
  -28.3528  -13.6808   21.7466 H   0  0  0  0  0  0
  -25.2749   -9.5718   22.4705 H   0  0  0  0  0  0
  -24.0040   -7.4625   22.7442 H   0  0  0  0  0  0
  -21.0817   -8.8707   19.8950 H   0  0  0  0  0  0
  -22.3609  -10.9646   19.6154 H   0  0  0  0  0  0
  -21.1993   -7.6150   23.9703 H   0  0  0  0  0  0
  -21.1479   -6.0532   25.9075 H   0  0  0  0  0  0
  -22.0615   -2.7607   23.2855 H   0  0  0  0  0  0
  -22.4204  -11.9882   22.4781 H   0  0  0  0  0  0
  -21.1164  -13.1219   22.2683 H   0  0  0  0  0  0
  -24.6959  -15.8576   20.5427 H   0  0  0  0  0  0
  -26.3138  -15.6211   20.1333 H   0  0  0  0  0  0
  -26.7102  -32.5593   23.1163 H   0  0  0  0  0  0
  -25.0139  -33.9795   25.0537 H   0  0  0  0  0  0
  -22.6845  -31.3064   21.4164 H   0  0  0  0  0  0
  -23.3728  -35.9643   23.3320 H   0  0  0  0  0  0
  -24.3565  -36.8907   22.2037 H   0  0  0  0  0  0
  -23.7225  -37.6526   23.6643 H   0  0  0  0  0  0
  -26.0143  -31.6136   20.5897 H   0  0  0  0  0  0
  -26.8159  -30.9103   21.9687 H   0  0  0  0  0  0
  -28.0934  -29.1102   21.1706 H   0  0  0  0  0  0
  -26.0709  -26.0007   18.9681 H   0  0  0  0  0  0
  -23.9704  -27.3107   19.0203 H   0  0  0  0  0  0
  -23.7138  -30.6070   19.4120 H   0  0  0  0  0  0
  -22.7250  -29.2484   19.8740 H   0  0  0  0  0  0
  -25.1231  -36.1983   25.0820 H   0  0  0  0  0  0
  -20.9871  -28.3285   24.1446 H   0  0  0  0  0  0
  -20.5578  -26.2314   23.3615 H   0  0  0  0  0  0
  -21.6604  -26.7462   22.1229 H   0  0  0  0  0  0
  -19.6930  -25.6287   21.1245 H   0  0  0  0  0  0
  -19.6679  -27.3202   20.6720 H   0  0  0  0  0  0
  -17.4135  -26.6660   21.4018 H   0  0  0  0  0  0
  -18.0342  -26.0108   22.9015 H   0  0  0  0  0  0
  -19.7957  -30.7209   24.2347 H   0  0  0  0  0  0
  -17.5038  -31.6307   24.5141 H   0  0  0  0  0  0
  -15.5342  -30.3023   23.7631 H   0  0  0  0  0  0
  -15.8634  -28.0821   22.7087 H   0  0  0  0  0  0
  -24.5937  -30.7092   25.7788 H   0  0  0  0  0  0
  -24.8977  -32.2914   26.4874 H   0  0  0  0  0  0
  -25.8106  -30.8923   27.0227 H   0  0  0  0  0  0
  -26.2865  -29.6766   24.1174 H   0  0  0  0  0  0
  -27.4093  -29.7271   25.4522 H   0  0  0  0  0  0
  -27.8653  -30.4275   23.9184 H   0  0  0  0  0  0
  -27.2789  -33.3570   26.2093 H   0  0  0  0  0  0
  -28.3908  -32.6865   25.0286 H   0  0  0  0  0  0
  -28.0812  -31.8388   26.5313 H   0  0  0  0  0  0
  -28.2556  -38.0078   24.7475 H   0  0  0  0  0  0
  -28.1061  -36.2614   24.6309 H   0  0  0  0  0  0
  -27.2295  -37.1472   25.8858 H   0  0  0  0  0  0
  -20.9312  -29.8780   21.6966 H   0  0  0  0  0  0
  -26.0193  -38.2816   24.1493 H   0  0  0  0  0  0
  -29.8911  -19.4202   23.7931 H   0  0  0  0  0  0
  -28.7432  -15.8349   20.7002 H   0  0  0  0  0  0
  -26.9159  -24.1483   20.1785 H   0  0  0  0  0  0
  -29.5530  -24.0974   23.4534 H   0  0  0  0  0  0
  -31.5588  -18.3273   24.8290 H   0  0  0  0  0  0
  -32.5633  -17.3613   23.7850 H   0  0  0  0  0  0
  -31.4282  -16.5888   24.9328 H   0  0  0  0  0  0
  -30.6189  -14.2589   24.3741 H   0  0  0  0  0  0
  -30.2771  -13.0062   23.2079 H   0  0  0  0  0  0
  -29.1264  -14.3164   23.5341 H   0  0  0  0  0  0
  -32.5280  -15.0946   23.7332 H   0  0  0  0  0  0
  -32.9160  -15.7051   22.1200 H   0  0  0  0  0  0
  -32.8141  -13.9853   22.4571 H   0  0  0  0  0  0
  -27.4358  -20.0147   23.3630 H   0  0  0  0  0  0
  -26.7270  -19.6240   21.8292 H   0  0  0  0  0  0
  -28.0863  -21.2064   20.6344 H   0  0  0  0  0  0
  -29.2904  -21.2522   21.8995 H   0  0  0  0  0  0
  -27.6856  -22.3661   23.4632 H   0  0  0  0  0  0
  -26.4754  -22.4219   22.2136 H   0  0  0  0  0  0
  1 25  1  0  0  0
  1 30  2  0  0  0
  1 85  1  0  0  0
  2  3  1  0  0  0
  2 25  1  0  0  0
  2 89  1  0  0  0
  2 90  1  0  0  0
  3  4  1  0  0  0
  3 91  1  0  0  0
  3 92  1  0  0  0
  4  5  1  0  0  0
  4 93  1  0  0  0
  4 94  1  0  0  0
  5  6  1  0  0  0
  5 26  1  0  0  0
  5 95  1  0  0  0
  6 25  1  0  0  0
  6 96  1  0  0  0
  6 97  1  0  0  0
  7  8  2  0  0  0
  7 26  1  0  0  0
  7 29  1  0  0  0
  8  9  1  0  0  0
  8 22  1  0  0  0
  9 10  1  0  0  0
  9 27  2  0  0  0
 10 11  2  0  0  0
 10 15  1  0  0  0
 11 12  1  0  0  0
 11 98  1  0  0  0
 12 13  2  0  0  0
 12 99  1  0  0  0
 13 14  1  0  0  0
 13 31  1  0  0  0
 14 15  2  0  0  0
 14100  1  0  0  0
 15101  1  0  0  0
 16 17  2  0  0  0
 16 21  1  0  0  0
 16 31  1  0  0  0
 17 18  1  0  0  0
 17102  1  0  0  0
 18 19  2  0  0  0
 18103  1  0  0  0
 19 20  1  0  0  0
 19 24  1  0  0  0
 20 21  2  0  0  0
 20104  1  0  0  0
 21 23  1  0  0  0
 22 28  1  0  0  0
 22 32  2  0  0  0
 26 27  1  0  0  0
 28105  1  0  0  0
 28106  1  0  0  0
 29107  1  0  0  0
 29108  1  0  0  0
 33 34  1  0  0  0
 33 66  1  0  0  0
 33 70  2  0  0  0
 34 36  1  0  0  0
 34 59  1  0  0  0
 34109  1  0  0  0
 35 44  2  0  0  0
 35 45  1  0  0  0
 35 68  1  0  0  0
 36 56  1  0  0  0
 36110  1  0  0  0
 37 39  1  0  0  0
 37 47  1  0  0  0
 37 66  1  0  0  0
 37111  1  0  0  0
 38 43  2  0  0  0
 38 46  1  0  0  0
 38 47  1  0  0  0
 39 64  1  0  0  0
 39 67  2  0  0  0
 40 52  1  0  0  0
 40 53  2  0  0  0
 40 58  1  0  0  0
 41112  1  0  0  0
 41113  1  0  0  0
 41114  1  0  0  0
 41 48  1  0  0  0
 42 43  1  0  0  0
 42 66  1  0  0  0
 42115  1  0  0  0
 42116  1  0  0  0
 43 44  1  0  0  0
 44117  1  0  0  0
 45 46  2  0  0  0
 45118  1  0  0  0
 46119  1  0  0  0
 47120  1  0  0  0
 47121  1  0  0  0
 48 56  1  0  0  0
 48 65  1  0  0  0
 48122  1  0  0  0
 49 50  1  0  0  0
 49 53  1  0  0  0
 49 64  1  0  0  0
 49123  1  0  0  0
 50 51  1  0  0  0
 50124  1  0  0  0
 50125  1  0  0  0
 51 52  1  0  0  0
 51126  1  0  0  0
 51127  1  0  0  0
 52128  1  0  0  0
 52129  1  0  0  0
 53 54  1  0  0  0
 54 55  2  0  0  0
 54130  1  0  0  0
 55 57  1  0  0  0
 55131  1  0  0  0
 56 69  2  0  0  0
 57 58  2  0  0  0
 57132  1  0  0  0
 58133  1  0  0  0
 59 60  1  0  0  0
 59 61  1  0  0  0
 59 62  1  0  0  0
 60134  1  0  0  0
 60135  1  0  0  0
 60136  1  0  0  0
 61137  1  0  0  0
 61138  1  0  0  0
 61139  1  0  0  0
 62140  1  0  0  0
 62141  1  0  0  0
 62142  1  0  0  0
 63 65  1  0  0  0
 63143  1  0  0  0
 63144  1  0  0  0
 63145  1  0  0  0
 64146  1  0  0  0
 65147  1  0  0  0
 68 78  1  0  0  0
 71 75  2  0  0  0
 71 77  1  0  0  0
 71148  1  0  0  0
 72 76  2  0  0  0
 72 86  1  0  0  0
 72149  1  0  0  0
 73 78  2  0  0  0
 73 88  1  0  0  0
 73150  1  0  0  0
 74 87  2  0  0  0
 74 88  1  0  0  0
 74151  1  0  0  0
 75 76  1  0  0  0
 75 79  1  0  0  0
 76 85  1  0  0  0
 77 82  1  0  0  0
 77 86  2  0  0  0
 78 87  1  0  0  0
 79152  1  0  0  0
 79153  1  0  0  0
 79154  1  0  0  0
 80155  1  0  0  0
 80156  1  0  0  0
 80157  1  0  0  0
 80 85  1  0  0  0
 81 85  1  0  0  0
 81158  1  0  0  0
 81159  1  0  0  0
 81160  1  0  0  0
 82 83  1  0  0  0
 82161  1  0  0  0
 82162  1  0  0  0
 83 84  1  0  0  0
 83163  1  0  0  0
 83164  1  0  0  0
 84 88  1  0  0  0
 84165  1  0  0  0
 84166  1  0  0  0
M  ISO  4   1 100  68 101  78 101  85 100
M  END
> <chiral flag>
0

> <version>
0

> <s_m_source_file>
/data/baiqing/PycharmProjects/Reinvent-master-3.2/result/LINK_invent/BTK/process_docking_weight1_custom_sum_contain_oxygen_bond_distance_aromatic_linkinvent_7_9_3/rearranged_h_0064.sdf

> <i_m_source_file_index>
5

> <r_mmod_Potential_Energy-OPLS-2005>
-93.2064971923828

> <r_mmod_Stretch_Energy-OPLS-2005>
45.1539878845215

> <r_mmod_Bend_Energy-OPLS-2005>
124.440254211426

> <r_mmod_Torsional_Energy-OPLS-2005>
229.281356811523

> <r_mmod_Improper_Torsional_Energy-OPLS-2005>
3.09232139587402

> <r_mmod_Van_der_Waal_Energy-OPLS-2005>
166.883193969727

> <r_mmod_Electrostatic_Energy-OPLS-2005>
-462.070159912109

> <r_mmod_Solvation_Energy-OPLS-2005>
-213.650360107422

> <b_mmod_Minimization_Converged-OPLS-2005>
0

> <r_mmod_RMS_Derivative-OPLS-2005>
4.77790117263794

$$$$
5
                    3D
 Structure written by MMmdl.
166174  0  0  1  0            999 V2000
  -30.5869  -14.7205   20.4685 C   0  0  0  0  0  0
  -30.4508  -12.4516   19.4370 C   0  0  0  0  0  0
  -29.5077  -12.5002   18.2139 C   0  0  0  0  0  0
  -28.0319  -12.3216   18.6344 C   0  0  0  0  0  0
  -27.6428  -13.2185   19.8399 C   0  0  2  0  0  0
  -28.6914  -13.1182   20.9671 C   0  0  0  0  0  0
  -25.2524  -13.8177   20.5661 C   0  0  0  0  0  0
  -24.1800  -13.0441   20.9217 C   0  0  0  0  0  0
  -24.6378  -11.6919   20.8761 C   0  0  0  0  0  0
  -23.9048  -10.4298   21.0420 C   0  0  0  0  0  0
  -24.3607   -9.4209   21.9191 C   0  0  0  0  0  0
  -23.6285   -8.2244   22.0756 C   0  0  0  0  0  0
  -22.4269   -8.0272   21.3550 C   0  0  0  0  0  0
  -21.9917   -9.0242   20.4651 C   0  0  0  0  0  0
  -22.7238  -10.2123   20.3058 C   0  0  0  0  0  0
  -21.6850   -6.0739   22.5298 C   0  0  0  0  0  0
  -21.3997   -6.5636   23.8232 C   0  0  0  0  0  0
  -21.3658   -5.6790   24.9198 C   0  0  0  0  0  0
  -21.6051   -4.3057   24.7246 C   0  0  0  0  0  0
  -21.8827   -3.8149   23.4365 C   0  0  0  0  0  0
  -21.9185   -4.6966   22.3421 C   0  0  0  0  0  0
  -22.7813  -13.5214   21.1870 C   0  0  0  0  0  0
  -22.1667   -4.2153   21.1007 F   0  0  0  0  0  0
  -21.5625   -3.4540   25.7757 F   0  0  0  0  0  0
  -29.9927  -13.4858   20.3869 N   0  0  0  0  0  0
  -26.2932  -12.9342   20.3226 N   0  0  0  0  0  0
  -25.9293  -11.6506   20.5740 N   0  0  0  0  0  0
  -22.0434  -12.8220   22.0419 N   0  0  0  0  0  0
  -25.4232  -15.1910   20.4035 N   0  0  0  0  0  0
  -31.7822  -14.8709   20.1989 O   0  0  0  0  0  0
  -21.6639   -6.8870   21.4246 O   0  0  0  0  0  0
  -22.3518  -14.5526   20.6713 O   0  0  0  0  0  0
  -24.6330  -31.8542   23.2016 C   0  0  0  0  0  0
  -25.9149  -32.4757   23.8357 C   0  0  1  0  0  0
  -27.2042  -27.2623   20.1094 C   0  0  0  0  0  0
  -25.5953  -33.8564   24.2290 N   0  0  0  0  0  0
  -23.4294  -30.4800   21.5457 C   0  0  2  0  0  0
  -24.8699  -28.9354   20.1079 C   0  0  0  0  0  0
  -22.7523  -29.4570   22.4911 C   0  0  0  0  0  0
  -18.0298  -28.1390   22.8464 C   0  0  0  0  0  0
  -24.1499  -36.7277   23.2632 C   0  0  0  0  0  0
  -25.9774  -30.7644   21.3833 C   0  0  0  0  0  0
  -26.0456  -29.3904   20.7192 C   0  0  0  0  0  0
  -27.2180  -28.5670   20.7093 C   0  0  0  0  0  0
  -26.0093  -26.8919   19.4496 C   0  0  0  0  0  0
  -24.8577  -27.6942   19.4604 C   0  0  0  0  0  0
  -23.6441  -29.8240   20.1596 C   0  0  0  0  0  0
  -25.4124  -36.3069   24.0331 C   0  0  1  0  0  0
  -20.5898  -28.3672   23.1261 C   0  0  2  0  0  0
  -20.6774  -26.9396   22.5395 C   0  0  0  0  0  0
  -19.5759  -26.6371   21.5183 C   0  0  0  0  0  0
  -18.1934  -26.7935   22.1595 C   0  0  0  0  0  0
  -19.1551  -28.8855   23.2855 C   0  0  0  0  0  0
  -18.9476  -30.1453   23.8869 C   0  0  0  0  0  0
  -17.6474  -30.6584   24.0542 C   0  0  0  0  0  0
  -25.9063  -34.9443   23.5114 C   0  0  0  0  0  0
  -16.5361  -29.9070   23.6327 C   0  0  0  0  0  0
  -16.7283  -28.6492   23.0345 C   0  0  0  0  0  0
  -26.4514  -31.6574   25.0751 C   0  0  0  0  0  0
  -25.3763  -31.3705   26.1489 C   0  0  0  0  0  0
  -27.0353  -30.2998   24.6235 C   0  0  0  0  0  0
  -27.6069  -32.4302   25.7528 C   0  0  0  0  0  0
  -27.5587  -37.1794   24.8469 C   0  0  0  0  0  0
  -21.4227  -29.3016   22.3671 N   0  0  0  0  0  0
  -26.4293  -37.3775   23.9422 N   0  0  0  0  0  0
  -24.6998  -31.0502   22.1003 N   0  0  0  0  0  0
  -23.4220  -28.8075   23.2995 O   0  0  0  0  0  0
  -28.2728  -26.3325   20.1760 O   0  0  0  0  0  0
  -26.5623  -34.8895   22.4676 O   0  0  0  0  0  0
  -23.5481  -32.1360   23.7297 O   0  0  0  0  0  0
  -27.1171  -21.8634   20.2735 C   0  0  0  0  0  0
  -26.6866  -20.5318   20.2696 C   0  0  0  0  0  0
  -28.4961  -22.1326   20.2398 C   0  0  0  0  0  0
  -28.8519  -19.7500   20.1538 C   0  0  0  0  0  0
  -25.2131  -20.1809   20.2661 C   0  0  0  0  0  0
  -31.0254  -18.7177   19.1376 C   0  0  0  0  0  0
  -27.3381  -24.8426   21.8486 C   0  0  0  0  0  0
  -29.5826  -23.8897   18.7561 C   0  0  0  0  0  0
  -30.1544  -23.8225   21.2004 C   0  0  0  0  0  0
  -29.9307  -17.2803   20.9718 C   0  0  0  0  0  0
  -29.6973  -18.4162   19.8487 C   0  0  1  0  0  0
  -27.9419  -24.8736   20.4213 C   0  0  2  0  0  0
  -29.0199  -23.6611   20.1710 C   0  0  0  0  0  0
  -27.5481  -19.5052   20.2238 N   0  0  0  0  0  0
  -29.3535  -21.0311   20.1708 N   0  0  0  0  0  0
  -29.7410  -15.7920   20.6632 N   0  0  0  0  0  0
  -31.4779  -12.6267   19.1141 H   0  0  0  0  0  0
  -30.4400  -11.4655   19.9078 H   0  0  0  0  0  0
  -29.7885  -11.7316   17.4937 H   0  0  0  0  0  0
  -29.6297  -13.4542   17.6975 H   0  0  0  0  0  0
  -27.8832  -11.2698   18.8869 H   0  0  0  0  0  0
  -27.3728  -12.5247   17.7881 H   0  0  0  0  0  0
  -27.6443  -14.2440   19.4670 H   0  0  0  0  0  0
  -28.7287  -12.1037   21.3654 H   0  0  0  0  0  0
  -28.4263  -13.7630   21.8068 H   0  0  0  0  0  0
  -25.2751   -9.5697   22.4761 H   0  0  0  0  0  0
  -24.0015   -7.4641   22.7462 H   0  0  0  0  0  0
  -21.0863   -8.8736   19.8944 H   0  0  0  0  0  0
  -22.3690  -10.9643   19.6160 H   0  0  0  0  0  0
  -21.1980   -7.6144   23.9744 H   0  0  0  0  0  0
  -21.1472   -6.0517   25.9107 H   0  0  0  0  0  0
  -22.0607   -2.7603   23.2883 H   0  0  0  0  0  0
  -22.4018  -11.9896   22.4844 H   0  0  0  0  0  0
  -21.1029  -13.1239   22.2552 H   0  0  0  0  0  0
  -24.6532  -15.8408   20.5141 H   0  0  0  0  0  0
  -26.2604  -15.6357   20.0490 H   0  0  0  0  0  0
  -26.7211  -32.5375   23.1079 H   0  0  0  0  0  0
  -25.0146  -33.9738   25.0469 H   0  0  0  0  0  0
  -22.7263  -31.3018   21.4031 H   0  0  0  0  0  0
  -23.3777  -35.9589   23.3292 H   0  0  0  0  0  0
  -24.3588  -36.8918   22.2049 H   0  0  0  0  0  0
  -23.7241  -37.6470   23.6662 H   0  0  0  0  0  0
  -26.1242  -31.5246   20.6155 H   0  0  0  0  0  0
  -26.8570  -30.8085   22.0157 H   0  0  0  0  0  0
  -28.1136  -28.9069   21.2115 H   0  0  0  0  0  0
  -25.9205  -25.9626   18.9138 H   0  0  0  0  0  0
  -23.9628  -27.3468   18.9611 H   0  0  0  0  0  0
  -23.7751  -30.6044   19.4092 H   0  0  0  0  0  0
  -22.7615  -29.2633   19.8460 H   0  0  0  0  0  0
  -25.1307  -36.1901   25.0824 H   0  0  0  0  0  0
  -20.9965  -28.3212   24.1390 H   0  0  0  0  0  0
  -20.5634  -26.2284   23.3594 H   0  0  0  0  0  0
  -21.6645  -26.7398   22.1204 H   0  0  0  0  0  0
  -19.6913  -25.6274   21.1238 H   0  0  0  0  0  0
  -19.6703  -27.3148   20.6689 H   0  0  0  0  0  0
  -17.4207  -26.6664   21.3999 H   0  0  0  0  0  0
  -18.0329  -26.0102   22.9020 H   0  0  0  0  0  0
  -19.7959  -30.7276   24.2211 H   0  0  0  0  0  0
  -17.5035  -31.6250   24.5164 H   0  0  0  0  0  0
  -15.5362  -30.2956   23.7693 H   0  0  0  0  0  0
  -15.8682  -28.0797   22.7077 H   0  0  0  0  0  0
  -24.5965  -30.7009   25.7841 H   0  0  0  0  0  0
  -24.8901  -32.2852   26.4884 H   0  0  0  0  0  0
  -25.8110  -30.8928   27.0281 H   0  0  0  0  0  0
  -26.2919  -29.6753   24.1263 H   0  0  0  0  0  0
  -27.4062  -29.7245   25.4719 H   0  0  0  0  0  0
  -27.8792  -30.4307   23.9463 H   0  0  0  0  0  0
  -27.2713  -33.3643   26.2047 H   0  0  0  0  0  0
  -28.3921  -32.6797   25.0381 H   0  0  0  0  0  0
  -28.0705  -31.8466   26.5502 H   0  0  0  0  0  0
  -28.2583  -38.0101   24.7528 H   0  0  0  0  0  0
  -28.1113  -36.2643   24.6290 H   0  0  0  0  0  0
  -27.2314  -37.1435   25.8869 H   0  0  0  0  0  0
  -20.9421  -29.8807   21.6941 H   0  0  0  0  0  0
  -26.0177  -38.2852   24.1422 H   0  0  0  0  0  0
  -26.3800  -22.6526   20.2898 H   0  0  0  0  0  0
  -24.7894  -20.2814   21.2649 H   0  0  0  0  0  0
  -25.0482  -19.1567   19.9257 H   0  0  0  0  0  0
  -24.6640  -20.8421   19.5972 H   0  0  0  0  0  0
  -31.6941  -19.2828   19.7871 H   0  0  0  0  0  0
  -30.8638  -19.3002   18.2321 H   0  0  0  0  0  0
  -31.5302  -17.7932   18.8562 H   0  0  0  0  0  0
  -27.0386  -23.8432   22.1567 H   0  0  0  0  0  0
  -26.4452  -25.4613   21.9192 H   0  0  0  0  0  0
  -28.0490  -25.2210   22.5825 H   0  0  0  0  0  0
  -28.8054  -23.7549   18.0032 H   0  0  0  0  0  0
  -30.3902  -23.1927   18.5328 H   0  0  0  0  0  0
  -29.9761  -24.9014   18.6447 H   0  0  0  0  0  0
  -30.9918  -23.1646   20.9708 H   0  0  0  0  0  0
  -29.8099  -23.5714   22.2034 H   0  0  0  0  0  0
  -30.5356  -24.8426   21.2161 H   0  0  0  0  0  0
  -29.2156  -17.4874   21.7668 H   0  0  0  0  0  0
  -30.9084  -17.4208   21.4371 H   0  0  0  0  0  0
  -29.0970  -17.9186   19.0871 H   0  0  0  0  0  0
  -27.1525  -24.6052   19.7295 H   0  0  0  0  0  0
  -28.7842  -15.4850   20.7586 H   0  0  0  0  0  0
  1 25  1  0  0  0
  1 30  2  0  0  0
  1 86  1  0  0  0
  2  3  1  0  0  0
  2 25  1  0  0  0
  2 87  1  0  0  0
  2 88  1  0  0  0
  3  4  1  0  0  0
  3 89  1  0  0  0
  3 90  1  0  0  0
  4  5  1  0  0  0
  4 91  1  0  0  0
  4 92  1  0  0  0
  5  6  1  0  0  0
  5 26  1  0  0  0
  5 93  1  0  0  0
  6 25  1  0  0  0
  6 94  1  0  0  0
  6 95  1  0  0  0
  7  8  2  0  0  0
  7 26  1  0  0  0
  7 29  1  0  0  0
  8  9  1  0  0  0
  8 22  1  0  0  0
  9 10  1  0  0  0
  9 27  2  0  0  0
 10 11  2  0  0  0
 10 15  1  0  0  0
 11 12  1  0  0  0
 11 96  1  0  0  0
 12 13  2  0  0  0
 12 97  1  0  0  0
 13 14  1  0  0  0
 13 31  1  0  0  0
 14 15  2  0  0  0
 14 98  1  0  0  0
 15 99  1  0  0  0
 16 17  2  0  0  0
 16 21  1  0  0  0
 16 31  1  0  0  0
 17 18  1  0  0  0
 17100  1  0  0  0
 18 19  2  0  0  0
 18101  1  0  0  0
 19 20  1  0  0  0
 19 24  1  0  0  0
 20 21  2  0  0  0
 20102  1  0  0  0
 21 23  1  0  0  0
 22 28  1  0  0  0
 22 32  2  0  0  0
 26 27  1  0  0  0
 28103  1  0  0  0
 28104  1  0  0  0
 29105  1  0  0  0
 29106  1  0  0  0
 33 34  1  0  0  0
 33 66  1  0  0  0
 33 70  2  0  0  0
 34 36  1  0  0  0
 34 59  1  0  0  0
 34107  1  0  0  0
 35 44  2  0  0  0
 35 45  1  0  0  0
 35 68  1  0  0  0
 36 56  1  0  0  0
 36108  1  0  0  0
 37 39  1  0  0  0
 37 47  1  0  0  0
 37 66  1  0  0  0
 37109  1  0  0  0
 38 43  2  0  0  0
 38 46  1  0  0  0
 38 47  1  0  0  0
 39 64  1  0  0  0
 39 67  2  0  0  0
 40 52  1  0  0  0
 40 53  2  0  0  0
 40 58  1  0  0  0
 41110  1  0  0  0
 41111  1  0  0  0
 41112  1  0  0  0
 41 48  1  0  0  0
 42 43  1  0  0  0
 42 66  1  0  0  0
 42113  1  0  0  0
 42114  1  0  0  0
 43 44  1  0  0  0
 44115  1  0  0  0
 45 46  2  0  0  0
 45116  1  0  0  0
 46117  1  0  0  0
 47118  1  0  0  0
 47119  1  0  0  0
 48 56  1  0  0  0
 48 65  1  0  0  0
 48120  1  0  0  0
 49 50  1  0  0  0
 49 53  1  0  0  0
 49 64  1  0  0  0
 49121  1  0  0  0
 50 51  1  0  0  0
 50122  1  0  0  0
 50123  1  0  0  0
 51 52  1  0  0  0
 51124  1  0  0  0
 51125  1  0  0  0
 52126  1  0  0  0
 52127  1  0  0  0
 53 54  1  0  0  0
 54 55  2  0  0  0
 54128  1  0  0  0
 55 57  1  0  0  0
 55129  1  0  0  0
 56 69  2  0  0  0
 57 58  2  0  0  0
 57130  1  0  0  0
 58131  1  0  0  0
 59 60  1  0  0  0
 59 61  1  0  0  0
 59 62  1  0  0  0
 60132  1  0  0  0
 60133  1  0  0  0
 60134  1  0  0  0
 61135  1  0  0  0
 61136  1  0  0  0
 61137  1  0  0  0
 62138  1  0  0  0
 62139  1  0  0  0
 62140  1  0  0  0
 63 65  1  0  0  0
 63141  1  0  0  0
 63142  1  0  0  0
 63143  1  0  0  0
 64144  1  0  0  0
 65145  1  0  0  0
 68 82  1  0  0  0
 71 72  2  0  0  0
 71 73  1  0  0  0
 71146  1  0  0  0
 72 75  1  0  0  0
 72 84  1  0  0  0
 73 83  1  0  0  0
 73 85  2  0  0  0
 74 81  1  0  0  0
 74 84  2  0  0  0
 74 85  1  0  0  0
 75147  1  0  0  0
 75148  1  0  0  0
 75149  1  0  0  0
 76150  1  0  0  0
 76151  1  0  0  0
 76152  1  0  0  0
 76 81  1  0  0  0
 77153  1  0  0  0
 77154  1  0  0  0
 77155  1  0  0  0
 77 82  1  0  0  0
 78156  1  0  0  0
 78157  1  0  0  0
 78158  1  0  0  0
 78 83  1  0  0  0
 79 83  1  0  0  0
 79159  1  0  0  0
 79160  1  0  0  0
 79161  1  0  0  0
 80 81  1  0  0  0
 80 86  1  0  0  0
 80162  1  0  0  0
 80163  1  0  0  0
 81164  1  0  0  0
 82 83  1  0  0  0
 82165  1  0  0  0
 86166  1  0  0  0
M  ISO  4   1 100  68 101  82 101  86 100
M  END
> <chiral flag>
0

> <version>
0

> <s_m_source_file>
/data/baiqing/PycharmProjects/Reinvent-master-3.2/result/LINK_invent/BTK/process_docking_weight1_custom_sum_contain_oxygen_bond_distance_aromatic_linkinvent_7_9_3/rearranged_h_0064.sdf

> <i_m_source_file_index>
6

> <r_mmod_Potential_Energy-OPLS-2005>
-205.252731323242

> <r_mmod_Stretch_Energy-OPLS-2005>
135.086990356445

> <r_mmod_Bend_Energy-OPLS-2005>
191.274993896484

> <r_mmod_Torsional_Energy-OPLS-2005>
226.274078369141

> <r_mmod_Improper_Torsional_Energy-OPLS-2005>
5.79192113876343

> <r_mmod_Van_der_Waal_Energy-OPLS-2005>
146.507614135742

> <r_mmod_Electrostatic_Energy-OPLS-2005>
-779.154907226562

> <r_mmod_Solvation_Energy-OPLS-2005>
-217.422698974609

> <b_mmod_Minimization_Converged-OPLS-2005>
0

> <r_mmod_RMS_Derivative-OPLS-2005>
3.23448848724365

$$$$
6
                    3D
 Structure written by MMmdl.
171179  0  0  1  0            999 V2000
  -30.6469  -14.8088   20.4075 C   0  0  0  0  0  0
  -30.4210  -12.5102   19.4579 C   0  0  0  0  0  0
  -29.5001  -12.5012   18.2228 C   0  0  0  0  0  0
  -28.0326  -12.3185   18.6497 C   0  0  0  0  0  0
  -27.6265  -13.2491   19.8239 C   0  0  2  0  0  0
  -28.6786  -13.2683   20.9504 C   0  0  0  0  0  0
  -25.2466  -13.8244   20.5676 C   0  0  0  0  0  0
  -24.1788  -13.0466   20.9237 C   0  0  0  0  0  0
  -24.6405  -11.6934   20.8771 C   0  0  0  0  0  0
  -23.9086  -10.4299   21.0422 C   0  0  0  0  0  0
  -24.3636   -9.4204   21.9195 C   0  0  0  0  0  0
  -23.6299   -8.2238   22.0740 C   0  0  0  0  0  0
  -22.4282   -8.0298   21.3534 C   0  0  0  0  0  0
  -21.9935   -9.0271   20.4644 C   0  0  0  0  0  0
  -22.7258  -10.2148   20.3061 C   0  0  0  0  0  0
  -21.6863   -6.0733   22.5282 C   0  0  0  0  0  0
  -21.4019   -6.5639   23.8207 C   0  0  0  0  0  0
  -21.3652   -5.6797   24.9175 C   0  0  0  0  0  0
  -21.6039   -4.3051   24.7231 C   0  0  0  0  0  0
  -21.8820   -3.8145   23.4347 C   0  0  0  0  0  0
  -21.9192   -4.6966   22.3406 C   0  0  0  0  0  0
  -22.7802  -13.5212   21.1900 C   0  0  0  0  0  0
  -22.1660   -4.2153   21.0982 F   0  0  0  0  0  0
  -21.5626   -3.4534   25.7735 F   0  0  0  0  0  0
  -29.9567  -13.6193   20.3234 N   0  0  0  0  0  0
  -26.2881  -12.9457   20.3191 N   0  0  0  0  0  0
  -25.9349  -11.6588   20.5752 N   0  0  0  0  0  0
  -22.0440  -12.8207   22.0458 N   0  0  0  0  0  0
  -25.4183  -15.1956   20.4050 N   0  0  0  0  0  0
  -31.8785  -14.7492   20.3194 O   0  0  0  0  0  0
  -21.6635   -6.8893   21.4240 O   0  0  0  0  0  0
  -22.3483  -14.5503   20.6751 O   0  0  0  0  0  0
  -24.6355  -31.8468   23.1989 C   0  0  0  0  0  0
  -25.9190  -32.4705   23.8321 C   0  0  1  0  0  0
  -27.2024  -27.2220   20.1292 C   0  0  0  0  0  0
  -25.6008  -33.8502   24.2281 N   0  0  0  0  0  0
  -23.4334  -30.4783   21.5354 C   0  0  2  0  0  0
  -24.8819  -28.9210   20.1030 C   0  0  0  0  0  0
  -22.7506  -29.4580   22.4813 C   0  0  0  0  0  0
  -18.0253  -28.1380   22.8428 C   0  0  0  0  0  0
  -24.1517  -36.7243   23.2644 C   0  0  0  0  0  0
  -25.9859  -30.7487   21.3896 C   0  0  0  0  0  0
  -26.0534  -29.3750   20.7171 C   0  0  0  0  0  0
  -27.2180  -28.5350   20.7214 C   0  0  0  0  0  0
  -26.0148  -26.8535   19.4644 C   0  0  0  0  0  0
  -24.8665  -27.6676   19.4719 C   0  0  0  0  0  0
  -23.6634  -29.8231   20.1469 C   0  0  0  0  0  0
  -25.4125  -36.3002   24.0339 C   0  0  1  0  0  0
  -20.5880  -28.3678   23.1181 C   0  0  2  0  0  0
  -20.6830  -26.9455   22.5123 C   0  0  0  0  0  0
  -19.5616  -26.6229   21.5182 C   0  0  0  0  0  0
  -18.1815  -26.7910   22.1583 C   0  0  0  0  0  0
  -19.1510  -28.8792   23.2847 C   0  0  0  0  0  0
  -18.9457  -30.1334   23.8980 C   0  0  0  0  0  0
  -17.6470  -30.6471   24.0756 C   0  0  0  0  0  0
  -25.9074  -34.9393   23.5092 C   0  0  0  0  0  0
  -16.5341  -29.9044   23.6469 C   0  0  0  0  0  0
  -16.7263  -28.6525   23.0339 C   0  0  0  0  0  0
  -26.4577  -31.6558   25.0723 C   0  0  0  0  0  0
  -25.3807  -31.3794   26.1471 C   0  0  0  0  0  0
  -27.0407  -30.2937   24.6299 C   0  0  0  0  0  0
  -27.6152  -32.4306   25.7450 C   0  0  0  0  0  0
  -27.5562  -37.1781   24.8459 C   0  0  0  0  0  0
  -21.4166  -29.3185   22.3745 N   0  0  0  0  0  0
  -26.4281  -37.3702   23.9412 N   0  0  0  0  0  0
  -24.7021  -31.0442   22.0957 N   0  0  0  0  0  0
  -23.4214  -28.7964   23.2774 O   0  0  0  0  0  0
  -28.2809  -26.3039   20.2234 O   0  0  0  0  0  0
  -26.5584  -34.8873   22.4624 O   0  0  0  0  0  0
  -23.5505  -32.1289   23.7267 O   0  0  0  0  0  0
  -28.2847  -19.0892   19.3122 C   0  0  0  0  0  0
  -29.0132  -18.6167   20.4001 C   0  0  0  0  0  0
  -28.4630  -20.8936   20.6034 C   0  0  0  0  0  0
  -28.8601  -19.2434   23.6070 C   0  0  0  0  0  0
  -26.4901  -21.4992   21.9255 C   0  0  0  0  0  0
  -28.5299  -24.3886   22.4634 C   0  0  0  0  0  0
  -26.2607  -24.2343   21.5080 C   0  0  0  0  0  0
  -30.7197  -16.6257   18.8357 C   0  0  0  0  0  0
  -29.4580  -17.1324   20.8796 C   0  0  0  0  0  0
  -29.7659  -19.8185   22.5069 C   0  0  0  0  0  0
  -28.1801  -24.7854   20.0351 C   0  0  0  0  0  0
  -27.8394  -22.1062   21.4413 C   0  0  2  0  0  0
  -27.6986  -18.3144   18.1512 C   0  0  0  0  0  0
  -27.7353  -23.8071   21.2652 C   0  0  0  0  0  0
  -28.0099  -20.4784   19.4211 N   0  0  0  0  0  0
  -29.1249  -19.8143   21.1957 N   0  0  0  0  0  0
  -30.0325  -16.0138   19.9883 N   0  0  0  0  0  0
  -27.6665  -17.0001   18.3855 F   0  0  0  0  0  0
  -26.4427  -18.6858   17.9070 F   0  0  0  0  0  0
  -28.3874  -18.5163   17.0278 F   0  0  0  0  0  0
  -31.4600  -12.6306   19.1443 H   0  0  0  0  0  0
  -30.3777  -11.5597   19.9894 H   0  0  0  0  0  0
  -29.7944  -11.7109   17.5314 H   0  0  0  0  0  0
  -29.6102  -13.4405   17.6788 H   0  0  0  0  0  0
  -27.9053  -11.2765   18.9422 H   0  0  0  0  0  0
  -27.3707  -12.4814   17.7972 H   0  0  0  0  0  0
  -27.5944  -14.2531   19.4022 H   0  0  0  0  0  0
  -28.7422  -12.3044   21.4556 H   0  0  0  0  0  0
  -28.4094  -14.0093   21.7060 H   0  0  0  0  0  0
  -25.2781   -9.5670   22.4759 H   0  0  0  0  0  0
  -24.0013   -7.4620   22.7455 H   0  0  0  0  0  0
  -21.0857   -8.8803   19.8941 H   0  0  0  0  0  0
  -22.3732  -10.9695   19.6168 H   0  0  0  0  0  0
  -21.2011   -7.6150   23.9725 H   0  0  0  0  0  0
  -21.1472   -6.0516   25.9082 H   0  0  0  0  0  0
  -22.0607   -2.7610   23.2847 H   0  0  0  0  0  0
  -22.4096  -11.9883   22.4848 H   0  0  0  0  0  0
  -21.1063  -13.1218   22.2641 H   0  0  0  0  0  0
  -24.6444  -15.8459   20.4800 H   0  0  0  0  0  0
  -26.2555  -15.6169   20.0237 H   0  0  0  0  0  0
  -26.7234  -32.5349   23.1032 H   0  0  0  0  0  0
  -25.0272  -33.9612   25.0509 H   0  0  0  0  0  0
  -22.7333  -31.3020   21.3889 H   0  0  0  0  0  0
  -23.3737  -35.9600   23.3257 H   0  0  0  0  0  0
  -24.3639  -36.8899   22.2064 H   0  0  0  0  0  0
  -23.7322  -37.6467   23.6683 H   0  0  0  0  0  0
  -26.1518  -31.5172   20.6332 H   0  0  0  0  0  0
  -26.8488  -30.7790   22.0406 H   0  0  0  0  0  0
  -28.1101  -28.8646   21.2338 H   0  0  0  0  0  0
  -25.9362  -25.8966   18.9751 H   0  0  0  0  0  0
  -23.9635  -27.3110   18.9989 H   0  0  0  0  0  0
  -23.8192  -30.6075   19.4070 H   0  0  0  0  0  0
  -22.7741  -29.2860   19.8179 H   0  0  0  0  0  0
  -25.1311  -36.1807   25.0825 H   0  0  0  0  0  0
  -20.9990  -28.3104   24.1297 H   0  0  0  0  0  0
  -20.6142  -26.2188   23.3214 H   0  0  0  0  0  0
  -21.6579  -26.7780   22.0508 H   0  0  0  0  0  0
  -19.6653  -25.6031   21.1499 H   0  0  0  0  0  0
  -19.6528  -27.2889   20.6581 H   0  0  0  0  0  0
  -17.4053  -26.6673   21.3983 H   0  0  0  0  0  0
  -18.0128  -26.0074   22.8971 H   0  0  0  0  0  0
  -19.8017  -30.6999   24.2416 H   0  0  0  0  0  0
  -17.5028  -31.6045   24.5548 H   0  0  0  0  0  0
  -15.5309  -30.2837   23.7877 H   0  0  0  0  0  0
  -15.8650  -28.0907   22.7025 H   0  0  0  0  0  0
  -24.6122  -30.6900   25.7961 H   0  0  0  0  0  0
  -24.8815  -32.2975   26.4577 H   0  0  0  0  0  0
  -25.8161  -30.9358   27.0441 H   0  0  0  0  0  0
  -26.3053  -29.6681   24.1213 H   0  0  0  0  0  0
  -27.3914  -29.7198   25.4896 H   0  0  0  0  0  0
  -27.9029  -30.4190   23.9732 H   0  0  0  0  0  0
  -27.2798  -33.3576   26.2098 H   0  0  0  0  0  0
  -28.3883  -32.6944   25.0227 H   0  0  0  0  0  0
  -28.0918  -31.8407   26.5296 H   0  0  0  0  0  0
  -28.2537  -38.0110   24.7452 H   0  0  0  0  0  0
  -28.1108  -36.2626   24.6320 H   0  0  0  0  0  0
  -27.2288  -37.1450   25.8870 H   0  0  0  0  0  0
  -20.9292  -29.9352   21.7393 H   0  0  0  0  0  0
  -26.0110  -38.2760   24.1396 H   0  0  0  0  0  0
  -28.0349  -19.9097   23.8543 H   0  0  0  0  0  0
  -29.4283  -19.0896   24.5226 H   0  0  0  0  0  0
  -28.4412  -18.2764   23.3273 H   0  0  0  0  0  0
  -26.5872  -20.4402   22.1633 H   0  0  0  0  0  0
  -25.7124  -21.5599   21.1633 H   0  0  0  0  0  0
  -26.1225  -21.9480   22.8436 H   0  0  0  0  0  0
  -28.3498  -25.4546   22.5999 H   0  0  0  0  0  0
  -29.6050  -24.2518   22.3347 H   0  0  0  0  0  0
  -28.2482  -23.9252   23.4098 H   0  0  0  0  0  0
  -26.1253  -25.3075   21.5075 H   0  0  0  0  0  0
  -25.8851  -23.9698   22.4923 H   0  0  0  0  0  0
  -25.5879  -23.8324   20.7479 H   0  0  0  0  0  0
  -31.0348  -15.8775   18.1049 H   0  0  0  0  0  0
  -31.6168  -17.1601   19.1566 H   0  0  0  0  0  0
  -30.1080  -17.3292   18.2868 H   0  0  0  0  0  0
  -30.1901  -17.2384   21.6788 H   0  0  0  0  0  0
  -28.5917  -16.6852   21.3662 H   0  0  0  0  0  0
  -30.6799  -19.2334   22.4430 H   0  0  0  0  0  0
  -30.1112  -20.8198   22.7650 H   0  0  0  0  0  0
  -27.5811  -24.5624   19.1560 H   0  0  0  0  0  0
  -29.1848  -24.4752   19.7443 H   0  0  0  0  0  0
  -28.4338  -22.0366   22.3445 H   0  0  0  0  0  0
  1 25  1  0  0  0
  1 30  2  0  0  0
  1 87  1  0  0  0
  2  3  1  0  0  0
  2 25  1  0  0  0
  2 91  1  0  0  0
  2 92  1  0  0  0
  3  4  1  0  0  0
  3 93  1  0  0  0
  3 94  1  0  0  0
  4  5  1  0  0  0
  4 95  1  0  0  0
  4 96  1  0  0  0
  5  6  1  0  0  0
  5 26  1  0  0  0
  5 97  1  0  0  0
  6 25  1  0  0  0
  6 98  1  0  0  0
  6 99  1  0  0  0
  7  8  2  0  0  0
  7 26  1  0  0  0
  7 29  1  0  0  0
  8  9  1  0  0  0
  8 22  1  0  0  0
  9 10  1  0  0  0
  9 27  2  0  0  0
 10 11  2  0  0  0
 10 15  1  0  0  0
 11 12  1  0  0  0
 11100  1  0  0  0
 12 13  2  0  0  0
 12101  1  0  0  0
 13 14  1  0  0  0
 13 31  1  0  0  0
 14 15  2  0  0  0
 14102  1  0  0  0
 15103  1  0  0  0
 16 17  2  0  0  0
 16 21  1  0  0  0
 16 31  1  0  0  0
 17 18  1  0  0  0
 17104  1  0  0  0
 18 19  2  0  0  0
 18105  1  0  0  0
 19 20  1  0  0  0
 19 24  1  0  0  0
 20 21  2  0  0  0
 20106  1  0  0  0
 21 23  1  0  0  0
 22 28  1  0  0  0
 22 32  2  0  0  0
 26 27  1  0  0  0
 28107  1  0  0  0
 28108  1  0  0  0
 29109  1  0  0  0
 29110  1  0  0  0
 33 34  1  0  0  0
 33 66  1  0  0  0
 33 70  2  0  0  0
 34 36  1  0  0  0
 34 59  1  0  0  0
 34111  1  0  0  0
 35 44  2  0  0  0
 35 45  1  0  0  0
 35 68  1  0  0  0
 36 56  1  0  0  0
 36112  1  0  0  0
 37 39  1  0  0  0
 37 47  1  0  0  0
 37 66  1  0  0  0
 37113  1  0  0  0
 38 43  2  0  0  0
 38 46  1  0  0  0
 38 47  1  0  0  0
 39 64  1  0  0  0
 39 67  2  0  0  0
 40 52  1  0  0  0
 40 53  2  0  0  0
 40 58  1  0  0  0
 41114  1  0  0  0
 41115  1  0  0  0
 41116  1  0  0  0
 41 48  1  0  0  0
 42 43  1  0  0  0
 42 66  1  0  0  0
 42117  1  0  0  0
 42118  1  0  0  0
 43 44  1  0  0  0
 44119  1  0  0  0
 45 46  2  0  0  0
 45120  1  0  0  0
 46121  1  0  0  0
 47122  1  0  0  0
 47123  1  0  0  0
 48 56  1  0  0  0
 48 65  1  0  0  0
 48124  1  0  0  0
 49 50  1  0  0  0
 49 53  1  0  0  0
 49 64  1  0  0  0
 49125  1  0  0  0
 50 51  1  0  0  0
 50126  1  0  0  0
 50127  1  0  0  0
 51 52  1  0  0  0
 51128  1  0  0  0
 51129  1  0  0  0
 52130  1  0  0  0
 52131  1  0  0  0
 53 54  1  0  0  0
 54 55  2  0  0  0
 54132  1  0  0  0
 55 57  1  0  0  0
 55133  1  0  0  0
 56 69  2  0  0  0
 57 58  2  0  0  0
 57134  1  0  0  0
 58135  1  0  0  0
 59 60  1  0  0  0
 59 61  1  0  0  0
 59 62  1  0  0  0
 60136  1  0  0  0
 60137  1  0  0  0
 60138  1  0  0  0
 61139  1  0  0  0
 61140  1  0  0  0
 61141  1  0  0  0
 62142  1  0  0  0
 62143  1  0  0  0
 62144  1  0  0  0
 63 65  1  0  0  0
 63145  1  0  0  0
 63146  1  0  0  0
 63147  1  0  0  0
 64148  1  0  0  0
 65149  1  0  0  0
 68 81  1  0  0  0
 71 72  2  0  0  0
 71 83  1  0  0  0
 71 85  1  0  0  0
 72 79  1  0  0  0
 72 86  1  0  0  0
 73 82  1  0  0  0
 73 85  2  0  0  0
 73 86  1  0  0  0
 74 80  1  0  0  0
 74150  1  0  0  0
 74151  1  0  0  0
 74152  1  0  0  0
 75153  1  0  0  0
 75154  1  0  0  0
 75155  1  0  0  0
 75 82  1  0  0  0
 76156  1  0  0  0
 76157  1  0  0  0
 76158  1  0  0  0
 76 84  1  0  0  0
 77 84  1  0  0  0
 77159  1  0  0  0
 77160  1  0  0  0
 77161  1  0  0  0
 78 87  1  0  0  0
 78162  1  0  0  0
 78163  1  0  0  0
 78164  1  0  0  0
 79 87  1  0  0  0
 79165  1  0  0  0
 79166  1  0  0  0
 80 86  1  0  0  0
 80167  1  0  0  0
 80168  1  0  0  0
 81 84  1  0  0  0
 81169  1  0  0  0
 81170  1  0  0  0
 82 84  1  0  0  0
 82171  1  0  0  0
 83 88  1  0  0  0
 83 89  1  0  0  0
 83 90  1  0  0  0
M  ISO  4   1 100  68 101  81 101  87 100
M  END
> <chiral flag>
0

> <version>
0

> <s_m_source_file>
/data/baiqing/PycharmProjects/Reinvent-master-3.2/result/LINK_invent/BTK/process_docking_weight1_custom_sum_contain_oxygen_bond_distance_aromatic_linkinvent_7_9_3/rearranged_h_0064.sdf

> <i_m_source_file_index>
7

> <r_mmod_Potential_Energy-OPLS-2005>
725.408996582031

> <r_mmod_Stretch_Energy-OPLS-2005>
197.996490478516

> <r_mmod_Bend_Energy-OPLS-2005>
322.845062255859

> <r_mmod_Torsional_Energy-OPLS-2005>
314.057647705078

> <r_mmod_Improper_Torsional_Energy-OPLS-2005>
32.0445861816406

> <r_mmod_Van_der_Waal_Energy-OPLS-2005>
139.065292358398

> <r_mmod_Electrostatic_Energy-OPLS-2005>
-223.677505493164

> <r_mmod_Solvation_Energy-OPLS-2005>
-186.115051269531

> <b_mmod_Minimization_Converged-OPLS-2005>
0

> <r_mmod_RMS_Derivative-OPLS-2005>
5.4644513130188

$$$$
7
                    3D
 Structure written by MMmdl.
177185  0  0  1  0            999 V2000
  -30.5567  -14.7538   20.4962 C   0  0  0  0  0  0
  -30.4506  -12.4785   19.4365 C   0  0  0  0  0  0
  -29.5066  -12.5332   18.2137 C   0  0  0  0  0  0
  -28.0291  -12.3567   18.6287 C   0  0  0  0  0  0
  -27.6440  -13.2254   19.8562 C   0  0  2  0  0  0
  -28.7017  -13.0858   20.9710 C   0  0  0  0  0  0
  -25.2478  -13.8126   20.5643 C   0  0  0  0  0  0
  -24.1792  -13.0387   20.9214 C   0  0  0  0  0  0
  -24.6395  -11.6882   20.8753 C   0  0  0  0  0  0
  -23.9058  -10.4270   21.0388 C   0  0  0  0  0  0
  -24.3601   -9.4196   21.9165 C   0  0  0  0  0  0
  -23.6282   -8.2233   22.0743 C   0  0  0  0  0  0
  -22.4274   -8.0258   21.3525 C   0  0  0  0  0  0
  -21.9897   -9.0238   20.4633 C   0  0  0  0  0  0
  -22.7225  -10.2112   20.3047 C   0  0  0  0  0  0
  -21.6866   -6.0725   22.5261 C   0  0  0  0  0  0
  -21.4032   -6.5624   23.8197 C   0  0  0  0  0  0
  -21.3664   -5.6771   24.9154 C   0  0  0  0  0  0
  -21.6043   -4.3045   24.7205 C   0  0  0  0  0  0
  -21.8833   -3.8124   23.4322 C   0  0  0  0  0  0
  -21.9202   -4.6951   22.3383 C   0  0  0  0  0  0
  -22.7809  -13.5174   21.1858 C   0  0  0  0  0  0
  -22.1652   -4.2134   21.0965 F   0  0  0  0  0  0
  -21.5631   -3.4526   25.7710 F   0  0  0  0  0  0
  -29.9854  -13.5039   20.3945 N   0  0  0  0  0  0
  -26.2948  -12.9354   20.3315 N   0  0  0  0  0  0
  -25.9336  -11.6501   20.5775 N   0  0  0  0  0  0
  -22.0451  -12.8213   22.0441 N   0  0  0  0  0  0
  -25.4021  -15.1822   20.3913 N   0  0  0  0  0  0
  -31.7558  -14.9056   20.2447 O   0  0  0  0  0  0
  -21.6629   -6.8867   21.4226 O   0  0  0  0  0  0
  -22.3483  -14.5462   20.6674 O   0  0  0  0  0  0
  -24.6308  -31.8522   23.1948 C   0  0  0  0  0  0
  -25.9122  -32.4738   23.8308 C   0  0  1  0  0  0
  -27.2349  -27.2644   20.1376 C   0  0  0  0  0  0
  -25.5926  -33.8543   24.2214 N   0  0  0  0  0  0
  -23.4309  -30.4716   21.5362 C   0  0  2  0  0  0
  -24.8805  -28.9110   20.1145 C   0  0  0  0  0  0
  -22.7506  -29.4576   22.4894 C   0  0  0  0  0  0
  -18.0279  -28.1399   22.8466 C   0  0  0  0  0  0
  -24.1491  -36.7273   23.2642 C   0  0  0  0  0  0
  -25.9741  -30.7707   21.3699 C   0  0  0  0  0  0
  -26.0513  -29.3893   20.7175 C   0  0  0  0  0  0
  -27.2326  -28.5809   20.7090 C   0  0  0  0  0  0
  -26.0397  -26.8415   19.5194 C   0  0  0  0  0  0
  -24.8782  -27.6451   19.5046 C   0  0  0  0  0  0
  -23.6506  -29.7984   20.1550 C   0  0  0  0  0  0
  -25.4124  -36.3055   24.0315 C   0  0  1  0  0  0
  -20.5888  -28.3702   23.1262 C   0  0  2  0  0  0
  -20.6772  -26.9417   22.5408 C   0  0  0  0  0  0
  -19.5757  -26.6386   21.5202 C   0  0  0  0  0  0
  -18.1931  -26.7942   22.1602 C   0  0  0  0  0  0
  -19.1539  -28.8868   23.2862 C   0  0  0  0  0  0
  -18.9457  -30.1462   23.8888 C   0  0  0  0  0  0
  -17.6458  -30.6601   24.0554 C   0  0  0  0  0  0
  -25.9060  -34.9428   23.5066 C   0  0  0  0  0  0
  -16.5345  -29.9093   23.6326 C   0  0  0  0  0  0
  -16.7269  -28.6515   23.0342 C   0  0  0  0  0  0
  -26.4510  -31.6572   25.0696 C   0  0  0  0  0  0
  -25.3750  -31.3691   26.1418 C   0  0  0  0  0  0
  -27.0353  -30.2995   24.6164 C   0  0  0  0  0  0
  -27.6067  -32.4310   25.7480 C   0  0  0  0  0  0
  -27.5570  -37.1790   24.8461 C   0  0  0  0  0  0
  -21.4210  -29.3042   22.3643 N   0  0  0  0  0  0
  -26.4286  -37.3764   23.9404 N   0  0  0  0  0  0
  -24.6973  -31.0498   22.0905 N   0  0  0  0  0  0
  -23.4198  -28.8109   23.2995 O   0  0  0  0  0  0
  -28.3643  -26.4151   20.1292 O   0  0  0  0  0  0
  -26.5638  -34.8912   22.4631 O   0  0  0  0  0  0
  -23.5446  -32.1320   23.7235 O   0  0  0  0  0  0
  -29.0168  -21.0150   19.6440 C   0  0  0  0  0  0
  -29.2644  -22.3411   20.1989 C   0  0  0  0  0  0
  -29.7495  -20.0452   20.3417 C   0  0  0  0  0  0
  -28.1599  -23.6665   18.3353 C   0  0  0  0  0  0
  -30.3774  -24.3684   19.1941 C   0  0  0  0  0  0
  -31.5125  -18.3541   19.6316 C   0  0  0  0  0  0
  -29.2560  -18.1060   18.7436 C   0  0  0  0  0  0
  -28.8387  -18.6255   23.2070 C   0  0  0  0  0  0
  -27.2724  -17.9819   21.3758 C   0  0  0  0  0  0
  -28.1609  -16.2874   22.9344 C   0  0  0  0  0  0
  -31.3516  -20.4689   22.3302 C   0  0  0  0  0  0
  -28.2635  -24.9574   20.5064 C   0  0  0  0  0  0
  -29.7665  -17.2936   21.1490 C   0  0  1  0  0  0
  -29.0010  -23.8155   19.6151 C   0  0  0  0  0  0
  -30.0268  -18.4862   20.0355 C   0  0  0  0  0  0
  -28.5433  -17.5553   22.1352 C   0  0  0  0  0  0
  -30.0532  -22.1638   21.2525 N   0  0  0  0  0  0
  -30.3780  -20.8334   21.3154 N   0  0  0  0  0  0
  -29.6869  -15.8195   20.6879 N   0  0  0  0  0  0
  -31.4794  -12.6570   19.1188 H   0  0  0  0  0  0
  -30.4438  -11.4868   19.8889 H   0  0  0  0  0  0
  -29.7857  -11.7702   17.4869 H   0  0  0  0  0  0
  -29.6270  -13.4914   17.7083 H   0  0  0  0  0  0
  -27.8761  -11.3019   18.8584 H   0  0  0  0  0  0
  -27.3733  -12.5819   17.7875 H   0  0  0  0  0  0
  -27.6493  -14.2624   19.5184 H   0  0  0  0  0  0
  -28.7552  -12.0525   21.3155 H   0  0  0  0  0  0
  -28.4559  -13.6675   21.8547 H   0  0  0  0  0  0
  -25.2747   -9.5706   22.4730 H   0  0  0  0  0  0
  -24.0001   -7.4656   22.7485 H   0  0  0  0  0  0
  -21.0820   -8.8773   19.8949 H   0  0  0  0  0  0
  -22.3682  -10.9658   19.6158 H   0  0  0  0  0  0
  -21.2032   -7.6127   23.9712 H   0  0  0  0  0  0
  -21.1461   -6.0483   25.9067 H   0  0  0  0  0  0
  -22.0612   -2.7585   23.2819 H   0  0  0  0  0  0
  -22.4040  -11.9906   22.4905 H   0  0  0  0  0  0
  -21.1059  -13.1277   22.2577 H   0  0  0  0  0  0
  -24.6175  -15.8148   20.4950 H   0  0  0  0  0  0
  -26.2151  -15.6278   19.9923 H   0  0  0  0  0  0
  -26.7200  -32.5401   23.1065 H   0  0  0  0  0  0
  -25.0081  -33.9677   25.0364 H   0  0  0  0  0  0
  -22.7291  -31.2946   21.3837 H   0  0  0  0  0  0
  -23.3754  -35.9604   23.3289 H   0  0  0  0  0  0
  -24.3588  -36.8905   22.2059 H   0  0  0  0  0  0
  -23.7235  -37.6465   23.6682 H   0  0  0  0  0  0
  -26.1090  -31.5311   20.5989 H   0  0  0  0  0  0
  -26.8523  -30.8278   22.0013 H   0  0  0  0  0  0
  -28.1379  -28.9473   21.1726 H   0  0  0  0  0  0
  -25.9981  -25.8732   19.0426 H   0  0  0  0  0  0
  -23.9813  -27.2748   19.0268 H   0  0  0  0  0  0
  -23.7770  -30.5696   19.3941 H   0  0  0  0  0  0
  -22.7706  -29.2290   19.8512 H   0  0  0  0  0  0
  -25.1313  -36.1901   25.0811 H   0  0  0  0  0  0
  -20.9989  -28.3281   24.1380 H   0  0  0  0  0  0
  -20.5648  -26.2315   23.3614 H   0  0  0  0  0  0
  -21.6643  -26.7424   22.1216 H   0  0  0  0  0  0
  -19.6918  -25.6289   21.1248 H   0  0  0  0  0  0
  -19.6717  -27.3177   20.6721 H   0  0  0  0  0  0
  -17.4206  -26.6667   21.4001 H   0  0  0  0  0  0
  -18.0327  -26.0096   22.9008 H   0  0  0  0  0  0
  -19.7943  -30.7265   24.2264 H   0  0  0  0  0  0
  -17.5020  -31.6291   24.5140 H   0  0  0  0  0  0
  -15.5341  -30.2990   23.7681 H   0  0  0  0  0  0
  -15.8664  -28.0837   22.7057 H   0  0  0  0  0  0
  -24.5986  -30.6966   25.7740 H   0  0  0  0  0  0
  -24.8879  -32.2839   26.4812 H   0  0  0  0  0  0
  -25.8107  -30.8919   27.0206 H   0  0  0  0  0  0
  -26.2907  -29.6736   24.1227 H   0  0  0  0  0  0
  -27.4071  -29.7273   25.4671 H   0  0  0  0  0  0
  -27.8780  -30.4253   23.9363 H   0  0  0  0  0  0
  -27.2691  -33.3631   26.2026 H   0  0  0  0  0  0
  -28.3923  -32.6820   25.0339 H   0  0  0  0  0  0
  -28.0696  -31.8447   26.5426 H   0  0  0  0  0  0
  -28.2587  -38.0085   24.7512 H   0  0  0  0  0  0
  -28.1067  -36.2616   24.6300 H   0  0  0  0  0  0
  -27.2288  -37.1447   25.8862 H   0  0  0  0  0  0
  -20.9379  -29.8803   21.6888 H   0  0  0  0  0  0
  -26.0153  -38.2827   24.1436 H   0  0  0  0  0  0
  -28.4435  -20.8139   18.7505 H   0  0  0  0  0  0
  -28.6278  -22.9847   17.6244 H   0  0  0  0  0  0
  -28.0397  -24.6249   17.8294 H   0  0  0  0  0  0
  -27.1660  -23.2786   18.5595 H   0  0  0  0  0  0
  -30.8695  -23.7084   18.4781 H   0  0  0  0  0  0
  -31.0454  -24.4715   20.0493 H   0  0  0  0  0  0
  -30.2894  -25.3499   18.7290 H   0  0  0  0  0  0
  -31.7762  -19.0534   18.8374 H   0  0  0  0  0  0
  -31.7408  -17.3538   19.2657 H   0  0  0  0  0  0
  -32.1871  -18.5474   20.4630 H   0  0  0  0  0  0
  -29.5518  -18.7373   17.9047 H   0  0  0  0  0  0
  -28.1782  -18.2185   18.8456 H   0  0  0  0  0  0
  -29.4510  -17.0810   18.4289 H   0  0  0  0  0  0
  -28.1272  -18.5825   24.0318 H   0  0  0  0  0  0
  -28.7437  -19.6386   22.8268 H   0  0  0  0  0  0
  -29.8253  -18.4946   23.6492 H   0  0  0  0  0  0
  -26.4067  -18.0158   22.0373 H   0  0  0  0  0  0
  -27.0406  -17.2915   20.5691 H   0  0  0  0  0  0
  -27.3598  -18.9746   20.9388 H   0  0  0  0  0  0
  -27.4582  -16.5108   23.7384 H   0  0  0  0  0  0
  -29.0274  -15.8114   23.3921 H   0  0  0  0  0  0
  -27.6394  -15.5671   22.3101 H   0  0  0  0  0  0
  -31.4701  -19.3909   22.4013 H   0  0  0  0  0  0
  -31.0326  -20.8431   23.3036 H   0  0  0  0  0  0
  -32.3174  -20.9109   22.0841 H   0  0  0  0  0  0
  -28.6916  -24.8970   21.5069 H   0  0  0  0  0  0
  -27.2197  -24.6714   20.6421 H   0  0  0  0  0  0
  -30.6461  -17.2943   21.7928 H   0  0  0  0  0  0
  -28.7362  -15.4936   20.7140 H   0  0  0  0  0  0
  1 25  1  0  0  0
  1 30  2  0  0  0
  1 89  1  0  0  0
  2  3  1  0  0  0
  2 25  1  0  0  0
  2 90  1  0  0  0
  2 91  1  0  0  0
  3  4  1  0  0  0
  3 92  1  0  0  0
  3 93  1  0  0  0
  4  5  1  0  0  0
  4 94  1  0  0  0
  4 95  1  0  0  0
  5  6  1  0  0  0
  5 26  1  0  0  0
  5 96  1  0  0  0
  6 25  1  0  0  0
  6 97  1  0  0  0
  6 98  1  0  0  0
  7  8  2  0  0  0
  7 26  1  0  0  0
  7 29  1  0  0  0
  8  9  1  0  0  0
  8 22  1  0  0  0
  9 10  1  0  0  0
  9 27  2  0  0  0
 10 11  2  0  0  0
 10 15  1  0  0  0
 11 12  1  0  0  0
 11 99  1  0  0  0
 12 13  2  0  0  0
 12100  1  0  0  0
 13 14  1  0  0  0
 13 31  1  0  0  0
 14 15  2  0  0  0
 14101  1  0  0  0
 15102  1  0  0  0
 16 17  2  0  0  0
 16 21  1  0  0  0
 16 31  1  0  0  0
 17 18  1  0  0  0
 17103  1  0  0  0
 18 19  2  0  0  0
 18104  1  0  0  0
 19 20  1  0  0  0
 19 24  1  0  0  0
 20 21  2  0  0  0
 20105  1  0  0  0
 21 23  1  0  0  0
 22 28  1  0  0  0
 22 32  2  0  0  0
 26 27  1  0  0  0
 28106  1  0  0  0
 28107  1  0  0  0
 29108  1  0  0  0
 29109  1  0  0  0
 33 34  1  0  0  0
 33 66  1  0  0  0
 33 70  2  0  0  0
 34 36  1  0  0  0
 34 59  1  0  0  0
 34110  1  0  0  0
 35 44  2  0  0  0
 35 45  1  0  0  0
 35 68  1  0  0  0
 36 56  1  0  0  0
 36111  1  0  0  0
 37 39  1  0  0  0
 37 47  1  0  0  0
 37 66  1  0  0  0
 37112  1  0  0  0
 38 43  2  0  0  0
 38 46  1  0  0  0
 38 47  1  0  0  0
 39 64  1  0  0  0
 39 67  2  0  0  0
 40 52  1  0  0  0
 40 53  2  0  0  0
 40 58  1  0  0  0
 41113  1  0  0  0
 41114  1  0  0  0
 41115  1  0  0  0
 41 48  1  0  0  0
 42 43  1  0  0  0
 42 66  1  0  0  0
 42116  1  0  0  0
 42117  1  0  0  0
 43 44  1  0  0  0
 44118  1  0  0  0
 45 46  2  0  0  0
 45119  1  0  0  0
 46120  1  0  0  0
 47121  1  0  0  0
 47122  1  0  0  0
 48 56  1  0  0  0
 48 65  1  0  0  0
 48123  1  0  0  0
 49 50  1  0  0  0
 49 53  1  0  0  0
 49 64  1  0  0  0
 49124  1  0  0  0
 50 51  1  0  0  0
 50125  1  0  0  0
 50126  1  0  0  0
 51 52  1  0  0  0
 51127  1  0  0  0
 51128  1  0  0  0
 52129  1  0  0  0
 52130  1  0  0  0
 53 54  1  0  0  0
 54 55  2  0  0  0
 54131  1  0  0  0
 55 57  1  0  0  0
 55132  1  0  0  0
 56 69  2  0  0  0
 57 58  2  0  0  0
 57133  1  0  0  0
 58134  1  0  0  0
 59 60  1  0  0  0
 59 61  1  0  0  0
 59 62  1  0  0  0
 60135  1  0  0  0
 60136  1  0  0  0
 60137  1  0  0  0
 61138  1  0  0  0
 61139  1  0  0  0
 61140  1  0  0  0
 62141  1  0  0  0
 62142  1  0  0  0
 62143  1  0  0  0
 63 65  1  0  0  0
 63144  1  0  0  0
 63145  1  0  0  0
 63146  1  0  0  0
 64147  1  0  0  0
 65148  1  0  0  0
 68 82  1  0  0  0
 71 72  1  0  0  0
 71 73  2  0  0  0
 71149  1  0  0  0
 72 84  1  0  0  0
 72 87  2  0  0  0
 73 85  1  0  0  0
 73 88  1  0  0  0
 74150  1  0  0  0
 74151  1  0  0  0
 74152  1  0  0  0
 74 84  1  0  0  0
 75 84  1  0  0  0
 75153  1  0  0  0
 75154  1  0  0  0
 75155  1  0  0  0
 76156  1  0  0  0
 76157  1  0  0  0
 76158  1  0  0  0
 76 85  1  0  0  0
 77 85  1  0  0  0
 77159  1  0  0  0
 77160  1  0  0  0
 77161  1  0  0  0
 78162  1  0  0  0
 78163  1  0  0  0
 78164  1  0  0  0
 78 86  1  0  0  0
 79 86  1  0  0  0
 79165  1  0  0  0
 79166  1  0  0  0
 79167  1  0  0  0
 80 86  1  0  0  0
 80168  1  0  0  0
 80169  1  0  0  0
 80170  1  0  0  0
 81 88  1  0  0  0
 81171  1  0  0  0
 81172  1  0  0  0
 81173  1  0  0  0
 82 84  1  0  0  0
 82174  1  0  0  0
 82175  1  0  0  0
 83 85  1  0  0  0
 83 86  1  0  0  0
 83 89  1  0  0  0
 83176  1  0  0  0
 87 88  1  0  0  0
 89177  1  0  0  0
M  ISO  4   1 100  68 101  82 101  89 100
M  END
> <chiral flag>
0

> <version>
0

> <s_m_source_file>
/data/baiqing/PycharmProjects/Reinvent-master-3.2/result/LINK_invent/BTK/process_docking_weight1_custom_sum_contain_oxygen_bond_distance_aromatic_linkinvent_7_9_3/rearranged_h_0064.sdf

> <i_m_source_file_index>
8

> <r_mmod_Potential_Energy-OPLS-2005>
162.501876831055

> <r_mmod_Stretch_Energy-OPLS-2005>
150.041290283203

> <r_mmod_Bend_Energy-OPLS-2005>
219.064208984375

> <r_mmod_Torsional_Energy-OPLS-2005>
270.794677734375

> <r_mmod_Improper_Torsional_Energy-OPLS-2005>
7.33909749984741

> <r_mmod_Van_der_Waal_Energy-OPLS-2005>
119.954277038574

> <r_mmod_Electrostatic_Energy-OPLS-2005>
-494.635406494141

> <r_mmod_Solvation_Energy-OPLS-2005>
-193.458618164062

> <b_mmod_Minimization_Converged-OPLS-2005>
0

> <r_mmod_RMS_Derivative-OPLS-2005>
3.0754120349884

$$$$
8
                    3D
 Structure written by MMmdl.
169177  0  0  1  0            999 V2000
  -30.7767  -14.3426   20.7131 C   0  0  0  0  0  0
  -30.4198  -12.2970   19.3750 C   0  0  0  0  0  0
  -29.4764  -12.5310   18.1818 C   0  0  0  0  0  0
  -28.0046  -12.3787   18.6088 C   0  0  0  0  0  0
  -27.6658  -13.1988   19.8796 C   0  0  2  0  0  0
  -28.7055  -12.9278   20.9881 C   0  0  0  0  0  0
  -25.2611  -13.8159   20.5678 C   0  0  0  0  0  0
  -24.1853  -13.0441   20.9182 C   0  0  0  0  0  0
  -24.6399  -11.6907   20.8750 C   0  0  0  0  0  0
  -23.9063  -10.4291   21.0421 C   0  0  0  0  0  0
  -24.3614   -9.4202   21.9200 C   0  0  0  0  0  0
  -23.6284   -8.2242   22.0765 C   0  0  0  0  0  0
  -22.4268   -8.0280   21.3547 C   0  0  0  0  0  0
  -21.9912   -9.0261   20.4652 C   0  0  0  0  0  0
  -22.7245  -10.2137   20.3065 C   0  0  0  0  0  0
  -21.6847   -6.0733   22.5275 C   0  0  0  0  0  0
  -21.4012   -6.5639   23.8213 C   0  0  0  0  0  0
  -21.3657   -5.6790   24.9181 C   0  0  0  0  0  0
  -21.6046   -4.3054   24.7228 C   0  0  0  0  0  0
  -21.8820   -3.8144   23.4349 C   0  0  0  0  0  0
  -21.9190   -4.6957   22.3401 C   0  0  0  0  0  0
  -22.7876  -13.5239   21.1841 C   0  0  0  0  0  0
  -22.1658   -4.2146   21.0976 F   0  0  0  0  0  0
  -21.5635   -3.4534   25.7744 F   0  0  0  0  0  0
  -30.0485  -13.2257   20.4509 N   0  0  0  0  0  0
  -26.3045  -12.9313   20.3384 N   0  0  0  0  0  0
  -25.9317  -11.6480   20.5764 N   0  0  0  0  0  0
  -22.0507  -12.8225   22.0395 N   0  0  0  0  0  0
  -25.4343  -15.1873   20.4057 N   0  0  0  0  0  0
  -31.7911  -14.6631   20.0839 O   0  0  0  0  0  0
  -21.6629   -6.8879   21.4237 O   0  0  0  0  0  0
  -22.3565  -14.5547   20.6696 O   0  0  0  0  0  0
  -24.6120  -31.8698   23.2137 C   0  0  0  0  0  0
  -25.9018  -32.4835   23.8428 C   0  0  1  0  0  0
  -27.2318  -27.4703   20.0823 C   0  0  0  0  0  0
  -25.5880  -33.8634   24.2352 N   0  0  0  0  0  0
  -23.3990  -30.4927   21.5563 C   0  0  2  0  0  0
  -24.8411  -28.9623   20.1191 C   0  0  0  0  0  0
  -22.7397  -29.4659   22.5045 C   0  0  0  0  0  0
  -18.0262  -28.1381   22.8504 C   0  0  0  0  0  0
  -24.1475  -36.7333   23.2640 C   0  0  0  0  0  0
  -25.9223  -30.8478   21.3578 C   0  0  0  0  0  0
  -26.0010  -29.4846   20.7051 C   0  0  0  0  0  0
  -27.2036  -28.7466   20.6794 C   0  0  0  0  0  0
  -26.0553  -26.9491   19.5030 C   0  0  0  0  0  0
  -24.8605  -27.6914   19.5175 C   0  0  0  0  0  0
  -23.6021  -29.8250   20.1705 C   0  0  0  0  0  0
  -25.4101  -36.3123   24.0337 C   0  0  1  0  0  0
  -20.5847  -28.3665   23.1342 C   0  0  2  0  0  0
  -20.6749  -26.9407   22.5427 C   0  0  0  0  0  0
  -19.5724  -26.6394   21.5225 C   0  0  0  0  0  0
  -18.1900  -26.7932   22.1632 C   0  0  0  0  0  0
  -19.1508  -28.8844   23.2913 C   0  0  0  0  0  0
  -18.9430  -30.1452   23.8916 C   0  0  0  0  0  0
  -17.6434  -30.6590   24.0574 C   0  0  0  0  0  0
  -25.9027  -34.9481   23.5142 C   0  0  0  0  0  0
  -16.5326  -29.9092   23.6323 C   0  0  0  0  0  0
  -16.7246  -28.6508   23.0351 C   0  0  0  0  0  0
  -26.4458  -31.6609   25.0748 C   0  0  0  0  0  0
  -25.3735  -31.3644   26.1496 C   0  0  0  0  0  0
  -27.0324  -30.3080   24.6089 C   0  0  0  0  0  0
  -27.6025  -32.4343   25.7503 C   0  0  0  0  0  0
  -27.5575  -37.1820   24.8466 C   0  0  0  0  0  0
  -21.4133  -29.3027   22.3759 N   0  0  0  0  0  0
  -26.4292  -37.3803   23.9402 N   0  0  0  0  0  0
  -24.6636  -31.0821   22.1023 N   0  0  0  0  0  0
  -23.4170  -28.8205   23.3093 O   0  0  0  0  0  0
  -28.4019  -26.7542   20.0679 O   0  0  0  0  0  0
  -26.5599  -34.8925   22.4710 O   0  0  0  0  0  0
  -23.5316  -32.1429   23.7543 O   0  0  0  0  0  0
  -29.4288  -19.5295   20.4238 C   0  0  0  0  0  0
  -28.5038  -20.5225   20.6236 C   0  0  0  0  0  0
  -28.4357  -19.1334   22.3746 C   0  0  0  0  0  0
  -26.4204  -20.2615   18.5106 C   0  0  0  0  0  0
  -31.2112  -14.9607   23.0258 C   0  0  0  0  0  0
  -26.7038  -21.5882   19.2362 C   0  0  0  0  0  0
  -28.3523  -24.3115   19.8406 C   0  0  0  0  0  0
  -28.3250  -22.9988   20.6399 C   0  0  0  0  0  0
  -30.2338  -17.5159   21.7219 C   0  0  0  0  0  0
  -29.4826  -16.1654   21.7101 C   0  0  0  0  0  0
  -28.3481  -25.5240   20.7834 C   0  0  0  0  0  0
  -28.1373  -21.7200   19.7982 C   0  0  1  0  0  0
  -27.9896  -18.5627   23.6920 C   0  0  0  0  0  0
  -29.3667  -18.6867   21.5077 N   0  0  0  0  0  0
  -27.9055  -20.2278   21.8212 N   0  3  0  0  0  0
  -30.3939  -15.0196   21.8126 N   0  0  0  0  0  0
  -29.0170  -18.0819   24.3926 F   0  0  0  0  0  0
  -27.3995  -19.5205   24.4098 F   0  0  0  0  0  0
  -27.1025  -17.5899   23.4845 F   0  0  0  0  0  0
  -31.4587  -12.4160   19.0610 H   0  0  0  0  0  0
  -30.3356  -11.2692   19.7317 H   0  0  0  0  0  0
  -29.7044  -11.8281   17.3795 H   0  0  0  0  0  0
  -29.6405  -13.5276   17.7693 H   0  0  0  0  0  0
  -27.8211  -11.3199   18.7937 H   0  0  0  0  0  0
  -27.3421  -12.6625   17.7900 H   0  0  0  0  0  0
  -27.7267  -14.2533   19.6114 H   0  0  0  0  0  0
  -28.6691  -11.8806   21.2933 H   0  0  0  0  0  0
  -28.4502  -13.4938   21.8849 H   0  0  0  0  0  0
  -25.2761   -9.5672   22.4780 H   0  0  0  0  0  0
  -23.9989   -7.4633   22.7486 H   0  0  0  0  0  0
  -21.0850   -8.8785   19.8953 H   0  0  0  0  0  0
  -22.3715  -10.9681   19.6171 H   0  0  0  0  0  0
  -21.2003   -7.6147   23.9717 H   0  0  0  0  0  0
  -21.1480   -6.0522   25.9087 H   0  0  0  0  0  0
  -22.0603   -2.7606   23.2848 H   0  0  0  0  0  0
  -22.4104  -11.9866   22.4758 H   0  0  0  0  0  0
  -21.1129  -13.1255   22.2598 H   0  0  0  0  0  0
  -24.6651  -15.8410   20.5026 H   0  0  0  0  0  0
  -26.2816  -15.6185   20.0609 H   0  0  0  0  0  0
  -26.7102  -32.5554   23.1210 H   0  0  0  0  0  0
  -25.0011  -33.9799   25.0486 H   0  0  0  0  0  0
  -22.6863  -31.3095   21.4205 H   0  0  0  0  0  0
  -23.3734  -35.9667   23.3301 H   0  0  0  0  0  0
  -24.3555  -36.8969   22.2055 H   0  0  0  0  0  0
  -23.7232  -37.6532   23.6679 H   0  0  0  0  0  0
  -26.0226  -31.6149   20.5888 H   0  0  0  0  0  0
  -26.8139  -30.9053   21.9703 H   0  0  0  0  0  0
  -28.1046  -29.1453   21.1250 H   0  0  0  0  0  0
  -26.0538  -25.9797   19.0302 H   0  0  0  0  0  0
  -23.9658  -27.2831   19.0667 H   0  0  0  0  0  0
  -23.7059  -30.5992   19.4093 H   0  0  0  0  0  0
  -22.7269  -29.2424   19.8796 H   0  0  0  0  0  0
  -25.1263  -36.2000   25.0827 H   0  0  0  0  0  0
  -20.9922  -28.3224   24.1471 H   0  0  0  0  0  0
  -20.5690  -26.2256   23.3600 H   0  0  0  0  0  0
  -21.6616  -26.7470   22.1206 H   0  0  0  0  0  0
  -19.6885  -25.6317   21.1229 H   0  0  0  0  0  0
  -19.6654  -27.3215   20.6768 H   0  0  0  0  0  0
  -17.4176  -26.6700   21.4019 H   0  0  0  0  0  0
  -18.0266  -26.0064   22.9009 H   0  0  0  0  0  0
  -19.7909  -30.7261   24.2282 H   0  0  0  0  0  0
  -17.4993  -31.6265   24.5195 H   0  0  0  0  0  0
  -15.5330  -30.3003   23.7644 H   0  0  0  0  0  0
  -15.8644  -28.0836   22.7056 H   0  0  0  0  0  0
  -24.5939  -30.6963   25.7815 H   0  0  0  0  0  0
  -24.8879  -32.2755   26.4992 H   0  0  0  0  0  0
  -25.8109  -30.8790   27.0233 H   0  0  0  0  0  0
  -26.2866  -29.6800   24.1204 H   0  0  0  0  0  0
  -27.4197  -29.7347   25.4522 H   0  0  0  0  0  0
  -27.8644  -30.4447   23.9177 H   0  0  0  0  0  0
  -27.2650  -33.3655   26.2066 H   0  0  0  0  0  0
  -28.3828  -32.6884   25.0317 H   0  0  0  0  0  0
  -28.0706  -31.8488   26.5428 H   0  0  0  0  0  0
  -28.2592  -38.0119   24.7526 H   0  0  0  0  0  0
  -28.1072  -36.2647   24.6295 H   0  0  0  0  0  0
  -27.2279  -37.1475   25.8865 H   0  0  0  0  0  0
  -20.9304  -29.8745   21.6971 H   0  0  0  0  0  0
  -26.0184  -38.2879   24.1420 H   0  0  0  0  0  0
  -30.1214  -19.3760   19.6070 H   0  0  0  0  0  0
  -25.4446  -20.2873   18.0261 H   0  0  0  0  0  0
  -26.4187  -19.4169   19.2001 H   0  0  0  0  0  0
  -27.1665  -20.0654   17.7393 H   0  0  0  0  0  0
  -30.6610  -15.3250   23.8939 H   0  0  0  0  0  0
  -32.1137  -15.5635   22.9135 H   0  0  0  0  0  0
  -31.5191  -13.9358   23.2398 H   0  0  0  0  0  0
  -25.9813  -21.6970   20.0458 H   0  0  0  0  0  0
  -26.5076  -22.4094   18.5478 H   0  0  0  0  0  0
  -27.4982  -24.3621   19.1701 H   0  0  0  0  0  0
  -29.2401  -24.3417   19.2082 H   0  0  0  0  0  0
  -27.5440  -23.0470   21.4007 H   0  0  0  0  0  0
  -29.2698  -22.9306   21.1829 H   0  0  0  0  0  0
  -30.9921  -17.5212   20.9374 H   0  0  0  0  0  0
  -30.7707  -17.6707   22.6584 H   0  0  0  0  0  0
  -28.8926  -16.0896   20.7947 H   0  0  0  0  0  0
  -28.7716  -16.0944   22.5297 H   0  0  0  0  0  0
  -29.2206  -25.4778   21.4347 H   0  0  0  0  0  0
  -27.4806  -25.4822   21.4479 H   0  0  0  0  0  0
  -28.8350  -21.7572   18.9593 H   0  0  0  0  0  0
  -27.1703  -20.7656   22.2662 H   0  0  0  0  0  0
  1 25  1  0  0  0
  1 30  2  0  0  0
  1 86  1  0  0  0
  2  3  1  0  0  0
  2 25  1  0  0  0
  2 90  1  0  0  0
  2 91  1  0  0  0
  3  4  1  0  0  0
  3 92  1  0  0  0
  3 93  1  0  0  0
  4  5  1  0  0  0
  4 94  1  0  0  0
  4 95  1  0  0  0
  5  6  1  0  0  0
  5 26  1  0  0  0
  5 96  1  0  0  0
  6 25  1  0  0  0
  6 97  1  0  0  0
  6 98  1  0  0  0
  7  8  2  0  0  0
  7 26  1  0  0  0
  7 29  1  0  0  0
  8  9  1  0  0  0
  8 22  1  0  0  0
  9 10  1  0  0  0
  9 27  2  0  0  0
 10 11  2  0  0  0
 10 15  1  0  0  0
 11 12  1  0  0  0
 11 99  1  0  0  0
 12 13  2  0  0  0
 12100  1  0  0  0
 13 14  1  0  0  0
 13 31  1  0  0  0
 14 15  2  0  0  0
 14101  1  0  0  0
 15102  1  0  0  0
 16 17  2  0  0  0
 16 21  1  0  0  0
 16 31  1  0  0  0
 17 18  1  0  0  0
 17103  1  0  0  0
 18 19  2  0  0  0
 18104  1  0  0  0
 19 20  1  0  0  0
 19 24  1  0  0  0
 20 21  2  0  0  0
 20105  1  0  0  0
 21 23  1  0  0  0
 22 28  1  0  0  0
 22 32  2  0  0  0
 26 27  1  0  0  0
 28106  1  0  0  0
 28107  1  0  0  0
 29108  1  0  0  0
 29109  1  0  0  0
 33 34  1  0  0  0
 33 66  1  0  0  0
 33 70  2  0  0  0
 34 36  1  0  0  0
 34 59  1  0  0  0
 34110  1  0  0  0
 35 44  2  0  0  0
 35 45  1  0  0  0
 35 68  1  0  0  0
 36 56  1  0  0  0
 36111  1  0  0  0
 37 39  1  0  0  0
 37 47  1  0  0  0
 37 66  1  0  0  0
 37112  1  0  0  0
 38 43  2  0  0  0
 38 46  1  0  0  0
 38 47  1  0  0  0
 39 64  1  0  0  0
 39 67  2  0  0  0
 40 52  1  0  0  0
 40 53  2  0  0  0
 40 58  1  0  0  0
 41113  1  0  0  0
 41114  1  0  0  0
 41115  1  0  0  0
 41 48  1  0  0  0
 42 43  1  0  0  0
 42 66  1  0  0  0
 42116  1  0  0  0
 42117  1  0  0  0
 43 44  1  0  0  0
 44118  1  0  0  0
 45 46  2  0  0  0
 45119  1  0  0  0
 46120  1  0  0  0
 47121  1  0  0  0
 47122  1  0  0  0
 48 56  1  0  0  0
 48 65  1  0  0  0
 48123  1  0  0  0
 49 50  1  0  0  0
 49 53  1  0  0  0
 49 64  1  0  0  0
 49124  1  0  0  0
 50 51  1  0  0  0
 50125  1  0  0  0
 50126  1  0  0  0
 51 52  1  0  0  0
 51127  1  0  0  0
 51128  1  0  0  0
 52129  1  0  0  0
 52130  1  0  0  0
 53 54  1  0  0  0
 54 55  2  0  0  0
 54131  1  0  0  0
 55 57  1  0  0  0
 55132  1  0  0  0
 56 69  2  0  0  0
 57 58  2  0  0  0
 57133  1  0  0  0
 58134  1  0  0  0
 59 60  1  0  0  0
 59 61  1  0  0  0
 59 62  1  0  0  0
 60135  1  0  0  0
 60136  1  0  0  0
 60137  1  0  0  0
 61138  1  0  0  0
 61139  1  0  0  0
 61140  1  0  0  0
 62141  1  0  0  0
 62142  1  0  0  0
 62143  1  0  0  0
 63 65  1  0  0  0
 63144  1  0  0  0
 63145  1  0  0  0
 63146  1  0  0  0
 64147  1  0  0  0
 65148  1  0  0  0
 68 81  1  0  0  0
 71 72  2  0  0  0
 71 84  1  0  0  0
 71149  1  0  0  0
 72 82  1  0  0  0
 72 85  1  0  0  0
 73 83  1  0  0  0
 73 84  1  0  0  0
 73 85  2  0  0  0
 74 76  1  0  0  0
 74150  1  0  0  0
 74151  1  0  0  0
 74152  1  0  0  0
 75 86  1  0  0  0
 75153  1  0  0  0
 75154  1  0  0  0
 75155  1  0  0  0
 76156  1  0  0  0
 76157  1  0  0  0
 76 82  1  0  0  0
 77 78  1  0  0  0
 77 81  1  0  0  0
 77158  1  0  0  0
 77159  1  0  0  0
 78 82  1  0  0  0
 78160  1  0  0  0
 78161  1  0  0  0
 79 80  1  0  0  0
 79 84  1  0  0  0
 79162  1  0  0  0
 79163  1  0  0  0
 80 86  1  0  0  0
 80164  1  0  0  0
 80165  1  0  0  0
 81166  1  0  0  0
 81167  1  0  0  0
 82168  1  0  0  0
 83 87  1  0  0  0
 83 88  1  0  0  0
 83 89  1  0  0  0
 85169  1  0  0  0
M  CHG  1  85   1
M  ISO  4   1 100  68 101  81 101  86 100
M  END
> <chiral flag>
0

> <version>
0

> <s_m_source_file>
/data/baiqing/PycharmProjects/Reinvent-master-3.2/result/LINK_invent/BTK/process_docking_weight1_custom_sum_contain_oxygen_bond_distance_aromatic_linkinvent_7_9_3/rearranged_h_0064.sdf

> <i_m_source_file_index>
9

> <r_mmod_Potential_Energy-OPLS-2005>
49.0194358825684

> <r_mmod_Stretch_Energy-OPLS-2005>
31.7506618499756

> <r_mmod_Bend_Energy-OPLS-2005>
88.667610168457

> <r_mmod_Torsional_Energy-OPLS-2005>
333.298034667969

> <r_mmod_Improper_Torsional_Energy-OPLS-2005>
4.11515045166016

> <r_mmod_Van_der_Waal_Energy-OPLS-2005>
123.002632141113

> <r_mmod_Electrostatic_Energy-OPLS-2005>
-141.796340942383

> <r_mmod_Solvation_Energy-OPLS-2005>
-397.158782958984

> <b_mmod_Minimization_Converged-OPLS-2005>
0

> <r_mmod_RMS_Derivative-OPLS-2005>
1.78930878639221

$$$$
9
                    3D
 Structure written by MMmdl.
183192  0  0  1  0            999 V2000
  -30.7157  -14.4607   20.5699 C   0  0  0  0  0  0
  -30.4176  -12.3079   19.4143 C   0  0  0  0  0  0
  -29.4895  -12.5045   18.1997 C   0  0  0  0  0  0
  -28.0112  -12.3695   18.6149 C   0  0  0  0  0  0
  -27.6570  -13.2130   19.8684 C   0  0  2  0  0  0
  -28.6993  -13.0069   20.9885 C   0  0  0  0  0  0
  -25.2584  -13.8177   20.5703 C   0  0  0  0  0  0
  -24.1832  -13.0441   20.9172 C   0  0  0  0  0  0
  -24.6387  -11.6916   20.8722 C   0  0  0  0  0  0
  -23.9054  -10.4297   21.0399 C   0  0  0  0  0  0
  -24.3611   -9.4216   21.9177 C   0  0  0  0  0  0
  -23.6291   -8.2246   22.0754 C   0  0  0  0  0  0
  -22.4270   -8.0282   21.3543 C   0  0  0  0  0  0
  -21.9907   -9.0250   20.4642 C   0  0  0  0  0  0
  -22.7230  -10.2131   20.3048 C   0  0  0  0  0  0
  -21.6853   -6.0734   22.5279 C   0  0  0  0  0  0
  -21.4010   -6.5638   23.8212 C   0  0  0  0  0  0
  -21.3659   -5.6790   24.9174 C   0  0  0  0  0  0
  -21.6045   -4.3052   24.7223 C   0  0  0  0  0  0
  -21.8820   -3.8146   23.4344 C   0  0  0  0  0  0
  -21.9191   -4.6962   22.3399 C   0  0  0  0  0  0
  -22.7856  -13.5247   21.1838 C   0  0  0  0  0  0
  -22.1666   -4.2149   21.0977 F   0  0  0  0  0  0
  -21.5628   -3.4535   25.7734 F   0  0  0  0  0  0
  -30.0263  -13.2991   20.4265 N   0  0  0  0  0  0
  -26.3006  -12.9357   20.3338 N   0  0  0  0  0  0
  -25.9312  -11.6511   20.5740 N   0  0  0  0  0  0
  -22.0493  -12.8232   22.0391 N   0  0  0  0  0  0
  -25.4314  -15.1889   20.4193 N   0  0  0  0  0  0
  -31.8699  -14.6024   20.1639 O   0  0  0  0  0  0
  -21.6641   -6.8877   21.4241 O   0  0  0  0  0  0
  -22.3548  -14.5555   20.6702 O   0  0  0  0  0  0
  -24.6168  -31.8665   23.2095 C   0  0  0  0  0  0
  -25.9062  -32.4815   23.8380 C   0  0  1  0  0  0
  -27.2337  -27.4333   20.0818 C   0  0  0  0  0  0
  -25.5903  -33.8607   24.2320 N   0  0  0  0  0  0
  -23.4017  -30.4913   21.5526 C   0  0  2  0  0  0
  -24.8459  -28.9597   20.1084 C   0  0  0  0  0  0
  -22.7423  -29.4645   22.5011 C   0  0  0  0  0  0
  -18.0244  -28.1372   22.8492 C   0  0  0  0  0  0
  -24.1480  -36.7324   23.2642 C   0  0  0  0  0  0
  -25.9311  -30.8293   21.3625 C   0  0  0  0  0  0
  -26.0054  -29.4642   20.7094 C   0  0  0  0  0  0
  -27.1972  -28.7049   20.6980 C   0  0  0  0  0  0
  -26.0537  -26.9473   19.4698 C   0  0  0  0  0  0
  -24.8648  -27.6995   19.4883 C   0  0  0  0  0  0
  -23.6072  -29.8263   20.1656 C   0  0  0  0  0  0
  -25.4094  -36.3111   24.0344 C   0  0  1  0  0  0
  -20.5845  -28.3654   23.1336 C   0  0  2  0  0  0
  -20.6750  -26.9396   22.5427 C   0  0  0  0  0  0
  -19.5722  -26.6383   21.5224 C   0  0  0  0  0  0
  -18.1892  -26.7916   22.1629 C   0  0  0  0  0  0
  -19.1502  -28.8829   23.2894 C   0  0  0  0  0  0
  -18.9442  -30.1440   23.8899 C   0  0  0  0  0  0
  -17.6451  -30.6590   24.0571 C   0  0  0  0  0  0
  -25.9029  -34.9475   23.5137 C   0  0  0  0  0  0
  -16.5331  -29.9107   23.6329 C   0  0  0  0  0  0
  -16.7237  -28.6516   23.0352 C   0  0  0  0  0  0
  -26.4468  -31.6597   25.0721 C   0  0  0  0  0  0
  -25.3738  -31.3708   26.1483 C   0  0  0  0  0  0
  -27.0333  -30.3052   24.6095 C   0  0  0  0  0  0
  -27.6006  -32.4347   25.7496 C   0  0  0  0  0  0
  -27.5576  -37.1807   24.8461 C   0  0  0  0  0  0
  -21.4149  -29.3028   22.3763 N   0  0  0  0  0  0
  -26.4275  -37.3805   23.9424 N   0  0  0  0  0  0
  -24.6686  -31.0770   22.0994 N   0  0  0  0  0  0
  -23.4190  -28.8183   23.3050 O   0  0  0  0  0  0
  -28.4253  -26.7324   20.1072 O   0  0  0  0  0  0
  -26.5604  -34.8940   22.4707 O   0  0  0  0  0  0
  -23.5368  -32.1406   23.7510 O   0  0  0  0  0  0
  -27.0038  -22.2398   22.0438 C   0  0  0  0  0  0
  -28.6919  -23.0215   20.5050 C   0  0  0  0  0  0
  -28.2622  -17.9131   19.0306 C   0  0  0  0  0  0
  -28.1863  -21.9760   21.3147 C   0  0  0  0  0  0
  -26.3996  -23.5036   21.9425 C   0  0  0  0  0  0
  -28.0204  -24.2642   20.4602 C   0  0  0  0  0  0
  -27.1433  -18.7833   19.0004 C   0  0  0  0  0  0
  -29.1483  -18.4595   19.9263 C   0  0  0  0  0  0
  -25.1337  -23.8362   22.7035 C   0  0  0  0  0  0
  -28.8756  -20.0688   22.8675 C   0  0  0  0  0  0
  -25.9741  -17.5293   17.1620 C   0  0  0  0  0  0
  -25.9395  -20.0268   17.2024 C   0  0  0  0  0  0
  -24.6323  -18.7087   18.9142 C   0  0  0  0  0  0
  -31.5684  -19.0011   20.6295 C   0  0  0  0  0  0
  -31.1376  -17.3220   18.9186 C   0  0  0  0  0  0
  -28.5211  -25.4041   19.5584 C   0  0  0  0  0  0
  -30.5650  -16.8357   21.3650 C   0  0  0  0  0  0
  -28.9283  -20.6253   21.4313 C   0  0  1  0  0  0
  -25.9295  -18.7626   18.0853 C   0  0  0  0  0  0
  -30.5513  -17.9131   20.2252 C   0  0  0  0  0  0
  -26.8999  -24.4910   21.1785 N   0  0  0  0  0  0
  -27.2784  -19.7465   19.8881 N   0  0  0  0  0  0
  -28.5080  -19.6052   20.4444 N   0  0  0  0  0  0
  -30.0169  -15.5026   21.0562 N   0  0  0  0  0  0
  -31.4606  -12.4067   19.1080 H   0  0  0  0  0  0
  -30.3187  -11.3001   19.8185 H   0  0  0  0  0  0
  -29.7269  -11.7773   17.4220 H   0  0  0  0  0  0
  -29.6614  -13.4892   17.7614 H   0  0  0  0  0  0
  -27.8192  -11.3145   18.8131 H   0  0  0  0  0  0
  -27.3624  -12.6449   17.7822 H   0  0  0  0  0  0
  -27.6965  -14.2591   19.5642 H   0  0  0  0  0  0
  -28.6738  -11.9784   21.3492 H   0  0  0  0  0  0
  -28.4676  -13.6283   21.8539 H   0  0  0  0  0  0
  -25.2754   -9.5691   22.4752 H   0  0  0  0  0  0
  -23.9993   -7.4645   22.7482 H   0  0  0  0  0  0
  -21.0838   -8.8770   19.8949 H   0  0  0  0  0  0
  -22.3691  -10.9670   19.6160 H   0  0  0  0  0  0
  -21.2003   -7.6149   23.9712 H   0  0  0  0  0  0
  -21.1484   -6.0524   25.9077 H   0  0  0  0  0  0
  -22.0598   -2.7608   23.2847 H   0  0  0  0  0  0
  -22.4099  -11.9889   22.4773 H   0  0  0  0  0  0
  -21.1107  -13.1268   22.2586 H   0  0  0  0  0  0
  -24.6673  -15.8425   20.5447 H   0  0  0  0  0  0
  -26.2911  -15.6366   20.1293 H   0  0  0  0  0  0
  -26.7135  -32.5530   23.1140 H   0  0  0  0  0  0
  -25.0070  -33.9709   25.0481 H   0  0  0  0  0  0
  -22.6902  -31.3084   21.4184 H   0  0  0  0  0  0
  -23.3744  -35.9658   23.3290 H   0  0  0  0  0  0
  -24.3565  -36.8950   22.2057 H   0  0  0  0  0  0
  -23.7228  -37.6527   23.6661 H   0  0  0  0  0  0
  -26.0438  -31.5909   20.5891 H   0  0  0  0  0  0
  -26.8203  -30.8820   21.9790 H   0  0  0  0  0  0
  -28.0936  -29.0872   21.1663 H   0  0  0  0  0  0
  -26.0172  -25.9802   18.9907 H   0  0  0  0  0  0
  -23.9734  -27.3018   19.0220 H   0  0  0  0  0  0
  -23.7116  -30.6027   19.4064 H   0  0  0  0  0  0
  -22.7299  -29.2472   19.8726 H   0  0  0  0  0  0
  -25.1258  -36.1969   25.0833 H   0  0  0  0  0  0
  -20.9885  -28.3222   24.1480 H   0  0  0  0  0  0
  -20.5691  -26.2252   23.3609 H   0  0  0  0  0  0
  -21.6621  -26.7484   22.1196 H   0  0  0  0  0  0
  -19.6893  -25.6304   21.1232 H   0  0  0  0  0  0
  -19.6665  -27.3224   20.6778 H   0  0  0  0  0  0
  -17.4175  -26.6670   21.4015 H   0  0  0  0  0  0
  -18.0270  -26.0052   22.9014 H   0  0  0  0  0  0
  -19.7925  -30.7236   24.2282 H   0  0  0  0  0  0
  -17.5023  -31.6267   24.5192 H   0  0  0  0  0  0
  -15.5340  -30.3027   23.7664 H   0  0  0  0  0  0
  -15.8616  -28.0860   22.7077 H   0  0  0  0  0  0
  -24.5882  -30.7075   25.7842 H   0  0  0  0  0  0
  -24.8971  -32.2881   26.4953 H   0  0  0  0  0  0
  -25.8095  -30.8869   27.0236 H   0  0  0  0  0  0
  -26.2903  -29.6778   24.1161 H   0  0  0  0  0  0
  -27.4152  -29.7290   25.4532 H   0  0  0  0  0  0
  -27.8690  -30.4392   23.9222 H   0  0  0  0  0  0
  -27.2577  -33.3632   26.2068 H   0  0  0  0  0  0
  -28.3811  -32.6934   25.0334 H   0  0  0  0  0  0
  -28.0681  -31.8501   26.5427 H   0  0  0  0  0  0
  -28.2577  -38.0124   24.7550 H   0  0  0  0  0  0
  -28.1084  -36.2658   24.6226 H   0  0  0  0  0  0
  -27.2295  -37.1380   25.8862 H   0  0  0  0  0  0
  -20.9327  -29.8796   21.7013 H   0  0  0  0  0  0
  -26.0171  -38.2888   24.1430 H   0  0  0  0  0  0
  -26.5564  -21.4785   22.6656 H   0  0  0  0  0  0
  -29.5901  -22.8722   19.9217 H   0  0  0  0  0  0
  -28.4148  -17.0337   18.4230 H   0  0  0  0  0  0
  -24.6407  -22.9336   23.0653 H   0  0  0  0  0  0
  -24.4280  -24.3658   22.0622 H   0  0  0  0  0  0
  -25.3611  -24.4746   23.5584 H   0  0  0  0  0  0
  -29.1736  -20.8345   23.5839 H   0  0  0  0  0  0
  -29.5487  -19.2274   23.0019 H   0  0  0  0  0  0
  -27.8760  -19.7281   23.1355 H   0  0  0  0  0  0
  -26.8652  -17.5338   16.5335 H   0  0  0  0  0  0
  -25.1102  -17.4974   16.4978 H   0  0  0  0  0  0
  -25.9793  -16.6021   17.7356 H   0  0  0  0  0  0
  -26.8583  -20.0902   16.6179 H   0  0  0  0  0  0
  -25.8782  -20.9333   17.8061 H   0  0  0  0  0  0
  -25.1023  -20.0425   16.5047 H   0  0  0  0  0  0
  -24.6105  -17.8276   19.5548 H   0  0  0  0  0  0
  -23.7494  -18.6775   18.2750 H   0  0  0  0  0  0
  -24.5367  -19.5836   19.5586 H   0  0  0  0  0  0
  -31.5753  -19.8333   19.9245 H   0  0  0  0  0  0
  -32.5827  -18.6004   20.6522 H   0  0  0  0  0  0
  -31.3967  -19.3831   21.6329 H   0  0  0  0  0  0
  -31.1739  -18.0739   18.1298 H   0  0  0  0  0  0
  -30.5576  -16.4852   18.5325 H   0  0  0  0  0  0
  -32.1562  -16.9604   19.0605 H   0  0  0  0  0  0
  -28.0492  -25.3433   18.5781 H   0  0  0  0  0  0
  -29.5799  -25.2335   19.3620 H   0  0  0  0  0  0
  -30.0247  -17.2138   22.2302 H   0  0  0  0  0  0
  -31.5892  -16.6948   21.7172 H   0  0  0  0  0  0
  -29.9557  -20.8937   21.2110 H   0  0  0  0  0  0
  -29.0548  -15.3337   21.3065 H   0  0  0  0  0  0
  1 25  1  0  0  0
  1 30  2  0  0  0
  1 94  1  0  0  0
  2  3  1  0  0  0
  2 25  1  0  0  0
  2 95  1  0  0  0
  2 96  1  0  0  0
  3  4  1  0  0  0
  3 97  1  0  0  0
  3 98  1  0  0  0
  4  5  1  0  0  0
  4 99  1  0  0  0
  4100  1  0  0  0
  5  6  1  0  0  0
  5 26  1  0  0  0
  5101  1  0  0  0
  6 25  1  0  0  0
  6102  1  0  0  0
  6103  1  0  0  0
  7  8  2  0  0  0
  7 26  1  0  0  0
  7 29  1  0  0  0
  8  9  1  0  0  0
  8 22  1  0  0  0
  9 10  1  0  0  0
  9 27  2  0  0  0
 10 11  2  0  0  0
 10 15  1  0  0  0
 11 12  1  0  0  0
 11104  1  0  0  0
 12 13  2  0  0  0
 12105  1  0  0  0
 13 14  1  0  0  0
 13 31  1  0  0  0
 14 15  2  0  0  0
 14106  1  0  0  0
 15107  1  0  0  0
 16 17  2  0  0  0
 16 21  1  0  0  0
 16 31  1  0  0  0
 17 18  1  0  0  0
 17108  1  0  0  0
 18 19  2  0  0  0
 18109  1  0  0  0
 19 20  1  0  0  0
 19 24  1  0  0  0
 20 21  2  0  0  0
 20110  1  0  0  0
 21 23  1  0  0  0
 22 28  1  0  0  0
 22 32  2  0  0  0
 26 27  1  0  0  0
 28111  1  0  0  0
 28112  1  0  0  0
 29113  1  0  0  0
 29114  1  0  0  0
 33 34  1  0  0  0
 33 66  1  0  0  0
 33 70  2  0  0  0
 34 36  1  0  0  0
 34 59  1  0  0  0
 34115  1  0  0  0
 35 44  2  0  0  0
 35 45  1  0  0  0
 35 68  1  0  0  0
 36 56  1  0  0  0
 36116  1  0  0  0
 37 39  1  0  0  0
 37 47  1  0  0  0
 37 66  1  0  0  0
 37117  1  0  0  0
 38 43  2  0  0  0
 38 46  1  0  0  0
 38 47  1  0  0  0
 39 64  1  0  0  0
 39 67  2  0  0  0
 40 52  1  0  0  0
 40 53  2  0  0  0
 40 58  1  0  0  0
 41118  1  0  0  0
 41119  1  0  0  0
 41120  1  0  0  0
 41 48  1  0  0  0
 42 43  1  0  0  0
 42 66  1  0  0  0
 42121  1  0  0  0
 42122  1  0  0  0
 43 44  1  0  0  0
 44123  1  0  0  0
 45 46  2  0  0  0
 45124  1  0  0  0
 46125  1  0  0  0
 47126  1  0  0  0
 47127  1  0  0  0
 48 56  1  0  0  0
 48 65  1  0  0  0
 48128  1  0  0  0
 49 50  1  0  0  0
 49 53  1  0  0  0
 49 64  1  0  0  0
 49129  1  0  0  0
 50 51  1  0  0  0
 50130  1  0  0  0
 50131  1  0  0  0
 51 52  1  0  0  0
 51132  1  0  0  0
 51133  1  0  0  0
 52134  1  0  0  0
 52135  1  0  0  0
 53 54  1  0  0  0
 54 55  2  0  0  0
 54136  1  0  0  0
 55 57  1  0  0  0
 55137  1  0  0  0
 56 69  2  0  0  0
 57 58  2  0  0  0
 57138  1  0  0  0
 58139  1  0  0  0
 59 60  1  0  0  0
 59 61  1  0  0  0
 59 62  1  0  0  0
 60140  1  0  0  0
 60141  1  0  0  0
 60142  1  0  0  0
 61143  1  0  0  0
 61144  1  0  0  0
 61145  1  0  0  0
 62146  1  0  0  0
 62147  1  0  0  0
 62148  1  0  0  0
 63 65  1  0  0  0
 63149  1  0  0  0
 63150  1  0  0  0
 63151  1  0  0  0
 64152  1  0  0  0
 65153  1  0  0  0
 68 86  1  0  0  0
 71 74  2  0  0  0
 71 75  1  0  0  0
 71154  1  0  0  0
 72 74  1  0  0  0
 72 76  2  0  0  0
 72155  1  0  0  0
 73 77  1  0  0  0
 73 78  2  0  0  0
 73156  1  0  0  0
 74 88  1  0  0  0
 75 79  1  0  0  0
 75 91  2  0  0  0
 76 86  1  0  0  0
 76 91  1  0  0  0
 77 89  1  0  0  0
 77 92  2  0  0  0
 78 90  1  0  0  0
 78 93  1  0  0  0
 79157  1  0  0  0
 79158  1  0  0  0
 79159  1  0  0  0
 80160  1  0  0  0
 80161  1  0  0  0
 80162  1  0  0  0
 80 88  1  0  0  0
 81163  1  0  0  0
 81164  1  0  0  0
 81165  1  0  0  0
 81 89  1  0  0  0
 82 89  1  0  0  0
 82166  1  0  0  0
 82167  1  0  0  0
 82168  1  0  0  0
 83 89  1  0  0  0
 83169  1  0  0  0
 83170  1  0  0  0
 83171  1  0  0  0
 84172  1  0  0  0
 84173  1  0  0  0
 84174  1  0  0  0
 84 90  1  0  0  0
 85 90  1  0  0  0
 85175  1  0  0  0
 85176  1  0  0  0
 85177  1  0  0  0
 86178  1  0  0  0
 86179  1  0  0  0
 87 90  1  0  0  0
 87 94  1  0  0  0
 87180  1  0  0  0
 87181  1  0  0  0
 88 93  1  0  0  0
 88182  1  0  0  0
 92 93  1  0  0  0
 94183  1  0  0  0
M  ISO  4   1 100  68 101  86 101  94 100
M  END
> <chiral flag>
0

> <version>
0

> <s_m_source_file>
/data/baiqing/PycharmProjects/Reinvent-master-3.2/result/LINK_invent/BTK/process_docking_weight1_custom_sum_contain_oxygen_bond_distance_aromatic_linkinvent_7_9_3/rearranged_h_0064.sdf

> <i_m_source_file_index>
10

> <r_mmod_Potential_Energy-OPLS-2005>
-203.404586791992

> <r_mmod_Stretch_Energy-OPLS-2005>
45.9278297424316

> <r_mmod_Bend_Energy-OPLS-2005>
134.447143554688

> <r_mmod_Torsional_Energy-OPLS-2005>
226.982421875

> <r_mmod_Improper_Torsional_Energy-OPLS-2005>
3.12182426452637

> <r_mmod_Van_der_Waal_Energy-OPLS-2005>
153.62922668457

> <r_mmod_Electrostatic_Energy-OPLS-2005>
-571.168090820312

> <r_mmod_Solvation_Energy-OPLS-2005>
-211.230972290039

> <b_mmod_Minimization_Converged-OPLS-2005>
0

> <r_mmod_RMS_Derivative-OPLS-2005>
1.841423869133

$$$$
10
                    3D
 Structure written by MMmdl.
172180  0  0  1  0            999 V2000
  -30.6424  -14.6861   20.5137 C   0  0  0  0  0  0
  -30.4285  -12.4260   19.4708 C   0  0  0  0  0  0
  -29.5083  -12.5157   18.2327 C   0  0  0  0  0  0
  -28.0306  -12.3516   18.6380 C   0  0  0  0  0  0
  -27.6465  -13.2273   19.8585 C   0  0  2  0  0  0
  -28.6851  -13.1028   20.9908 C   0  0  0  0  0  0
  -25.2529  -13.8194   20.5704 C   0  0  0  0  0  0
  -24.1810  -13.0451   20.9205 C   0  0  0  0  0  0
  -24.6409  -11.6925   20.8778 C   0  0  0  0  0  0
  -23.9101  -10.4307   21.0450 C   0  0  0  0  0  0
  -24.3653   -9.4202   21.9209 C   0  0  0  0  0  0
  -23.6322   -8.2243   22.0758 C   0  0  0  0  0  0
  -22.4290   -8.0302   21.3555 C   0  0  0  0  0  0
  -21.9954   -9.0282   20.4644 C   0  0  0  0  0  0
  -22.7289  -10.2162   20.3076 C   0  0  0  0  0  0
  -21.6857   -6.0763   22.5288 C   0  0  0  0  0  0
  -21.4017   -6.5659   23.8224 C   0  0  0  0  0  0
  -21.3653   -5.6805   24.9184 C   0  0  0  0  0  0
  -21.6046   -4.3074   24.7235 C   0  0  0  0  0  0
  -21.8822   -3.8165   23.4352 C   0  0  0  0  0  0
  -21.9196   -4.6986   22.3413 C   0  0  0  0  0  0
  -22.7824  -13.5218   21.1877 C   0  0  0  0  0  0
  -22.1661   -4.2166   21.0995 F   0  0  0  0  0  0
  -21.5626   -3.4559   25.7746 F   0  0  0  0  0  0
  -29.9949  -13.4701   20.4289 N   0  0  0  0  0  0
  -26.2955  -12.9398   20.3294 N   0  0  0  0  0  0
  -25.9328  -11.6549   20.5754 N   0  0  0  0  0  0
  -22.0476  -12.8188   22.0417 N   0  0  0  0  0  0
  -25.4306  -15.1924   20.4169 N   0  0  0  0  0  0
  -31.7962  -14.7893   20.0829 O   0  0  0  0  0  0
  -21.6638   -6.8907   21.4249 O   0  0  0  0  0  0
  -22.3494  -14.5526   20.6726 O   0  0  0  0  0  0
  -24.6274  -31.8606   23.2013 C   0  0  0  0  0  0
  -25.9118  -32.4765   23.8340 C   0  0  1  0  0  0
  -27.2098  -27.2822   20.1399 C   0  0  0  0  0  0
  -25.5946  -33.8570   24.2245 N   0  0  0  0  0  0
  -23.4201  -30.4864   21.5454 C   0  0  2  0  0  0
  -24.8659  -28.9439   20.1091 C   0  0  0  0  0  0
  -22.7462  -29.4648   22.4917 C   0  0  0  0  0  0
  -18.0306  -28.1377   22.8487 C   0  0  0  0  0  0
  -24.1485  -36.7283   23.2625 C   0  0  0  0  0  0
  -25.9652  -30.7814   21.3795 C   0  0  0  0  0  0
  -26.0378  -29.4078   20.7198 C   0  0  0  0  0  0
  -27.2117  -28.5888   20.7285 C   0  0  0  0  0  0
  -26.0173  -26.8969   19.4791 C   0  0  0  0  0  0
  -24.8590  -27.6925   19.4794 C   0  0  0  0  0  0
  -23.6331  -29.8238   20.1609 C   0  0  0  0  0  0
  -25.4104  -36.3064   24.0311 C   0  0  1  0  0  0
  -20.5900  -28.3689   23.1272 C   0  0  2  0  0  0
  -20.6787  -26.9406   22.5419 C   0  0  0  0  0  0
  -19.5767  -26.6374   21.5213 C   0  0  0  0  0  0
  -18.1941  -26.7924   22.1613 C   0  0  0  0  0  0
  -19.1555  -28.8844   23.2874 C   0  0  0  0  0  0
  -18.9481  -30.1449   23.8885 C   0  0  0  0  0  0
  -17.6480  -30.6581   24.0558 C   0  0  0  0  0  0
  -25.9061  -34.9449   23.5062 C   0  0  0  0  0  0
  -16.5366  -29.9075   23.6348 C   0  0  0  0  0  0
  -16.7288  -28.6496   23.0360 C   0  0  0  0  0  0
  -26.4492  -31.6590   25.0733 C   0  0  0  0  0  0
  -25.3720  -31.3797   26.1468 C   0  0  0  0  0  0
  -27.0313  -30.2986   24.6222 C   0  0  0  0  0  0
  -27.6053  -32.4332   25.7490 C   0  0  0  0  0  0
  -27.5600  -37.1742   24.8417 C   0  0  0  0  0  0
  -21.4178  -29.3043   22.3647 N   0  0  0  0  0  0
  -26.4253  -37.3788   23.9459 N   0  0  0  0  0  0
  -24.6901  -31.0586   22.0990 N   0  0  0  0  0  0
  -23.4175  -28.8212   23.3030 O   0  0  0  0  0  0
  -28.2916  -26.3741   20.2471 O   0  0  0  0  0  0
  -26.5624  -34.8919   22.4633 O   0  0  0  0  0  0
  -23.5435  -32.1447   23.7306 O   0  0  0  0  0  0
  -30.7701  -19.3738   20.8620 C   0  0  0  0  0  0
  -29.8117  -18.5694   20.2924 C   0  0  0  0  0  0
  -29.1455  -20.8080   20.2025 C   0  0  0  0  0  0
  -27.3644  -18.8899   17.9714 C   0  0  0  0  0  0
  -29.0649  -22.3726   18.2514 C   0  0  0  0  0  0
  -26.9951  -22.1201   19.6062 C   0  0  0  0  0  0
  -28.6451  -23.4288   22.0140 C   0  0  0  0  0  0
  -30.3661  -24.0482   20.3397 C   0  0  0  0  0  0
  -29.4221  -16.1082   22.1235 C   0  0  0  0  0  0
  -29.8946  -17.0525   19.8499 C   0  0  0  0  0  0
  -27.4679  -19.0140   19.5011 C   0  0  0  0  0  0
  -27.9895  -24.9221   20.0341 C   0  0  0  0  0  0
  -28.5415  -22.2161   19.7014 C   0  0  0  0  0  0
  -28.8827  -23.6346   20.4985 C   0  0  0  0  0  0
  -28.7782  -19.4826   19.9916 N   0  0  0  0  0  0
  -30.3594  -20.6864   20.7549 N   0  3  0  0  0  0
  -29.9017  -15.8370   20.7693 N   0  0  0  0  0  0
  -31.4733  -12.5374   19.1729 H   0  0  0  0  0  0
  -30.3572  -11.4376   19.9297 H   0  0  0  0  0  0
  -29.7803  -11.7543   17.5002 H   0  0  0  0  0  0
  -29.6463  -13.4795   17.7379 H   0  0  0  0  0  0
  -27.8689  -11.2991   18.8736 H   0  0  0  0  0  0
  -27.3792  -12.5821   17.7934 H   0  0  0  0  0  0
  -27.6601  -14.2622   19.5135 H   0  0  0  0  0  0
  -28.7085  -12.0863   21.3857 H   0  0  0  0  0  0
  -28.3916  -13.7286   21.8300 H   0  0  0  0  0  0
  -25.2824   -9.5660   22.4762 H   0  0  0  0  0  0
  -24.0043   -7.4624   22.7466 H   0  0  0  0  0  0
  -21.0898   -8.8825   19.8928 H   0  0  0  0  0  0
  -22.3794  -10.9714   19.6178 H   0  0  0  0  0  0
  -21.2011   -7.6169   23.9735 H   0  0  0  0  0  0
  -21.1458   -6.0538   25.9088 H   0  0  0  0  0  0
  -22.0609   -2.7630   23.2856 H   0  0  0  0  0  0
  -22.4117  -11.9859   22.4806 H   0  0  0  0  0  0
  -21.1077  -13.1159   22.2594 H   0  0  0  0  0  0
  -24.6781  -15.8596   20.5417 H   0  0  0  0  0  0
  -26.2925  -15.6196   20.1066 H   0  0  0  0  0  0
  -26.7188  -32.5408   23.1093 H   0  0  0  0  0  0
  -25.0096  -33.9713   25.0384 H   0  0  0  0  0  0
  -22.7159  -31.3093   21.4016 H   0  0  0  0  0  0
  -23.3786  -35.9566   23.3149 H   0  0  0  0  0  0
  -24.3623  -36.9059   22.2073 H   0  0  0  0  0  0
  -23.7160  -37.6404   23.6748 H   0  0  0  0  0  0
  -26.0970  -31.5464   20.6128 H   0  0  0  0  0  0
  -26.8468  -30.8281   22.0075 H   0  0  0  0  0  0
  -28.1027  -28.9259   21.2391 H   0  0  0  0  0  0
  -25.9314  -25.9492   18.9722 H   0  0  0  0  0  0
  -23.9621  -27.3246   19.0009 H   0  0  0  0  0  0
  -23.7414  -30.5994   19.4018 H   0  0  0  0  0  0
  -22.7517  -29.2517   19.8636 H   0  0  0  0  0  0
  -25.1262  -36.1881   25.0791 H   0  0  0  0  0  0
  -21.0002  -28.3280   24.1387 H   0  0  0  0  0  0
  -20.5685  -26.2298   23.3622 H   0  0  0  0  0  0
  -21.6658  -26.7433   22.1222 H   0  0  0  0  0  0
  -19.6928  -25.6284   21.1250 H   0  0  0  0  0  0
  -19.6712  -27.3171   20.6729 H   0  0  0  0  0  0
  -17.4224  -26.6697   21.3998 H   0  0  0  0  0  0
  -18.0313  -26.0053   22.8988 H   0  0  0  0  0  0
  -19.7959  -30.7272   24.2223 H   0  0  0  0  0  0
  -17.5046  -31.6265   24.5152 H   0  0  0  0  0  0
  -15.5365  -30.2975   23.7682 H   0  0  0  0  0  0
  -15.8691  -28.0814   22.7073 H   0  0  0  0  0  0
  -24.5898  -30.7110   25.7857 H   0  0  0  0  0  0
  -24.8911  -32.2995   26.4805 H   0  0  0  0  0  0
  -25.8068  -30.9084   27.0287 H   0  0  0  0  0  0
  -26.2896  -29.6745   24.1220 H   0  0  0  0  0  0
  -27.3936  -29.7245   25.4757 H   0  0  0  0  0  0
  -27.8805  -30.4224   23.9497 H   0  0  0  0  0  0
  -27.2662  -33.3648   26.2019 H   0  0  0  0  0  0
  -28.3884  -32.6849   25.0333 H   0  0  0  0  0  0
  -28.0674  -31.8481   26.5440 H   0  0  0  0  0  0
  -28.2465  -38.0191   24.7696 H   0  0  0  0  0  0
  -28.1248  -36.2739   24.5931 H   0  0  0  0  0  0
  -27.2374  -37.1003   25.8820 H   0  0  0  0  0  0
  -20.9326  -29.8768   21.6872 H   0  0  0  0  0  0
  -26.0108  -38.2810   24.1652 H   0  0  0  0  0  0
  -31.7487  -19.1222   21.2459 H   0  0  0  0  0  0
  -26.4877  -18.3003   17.7020 H   0  0  0  0  0  0
  -28.2344  -18.3944   17.5446 H   0  0  0  0  0  0
  -27.2664  -19.8514   17.4721 H   0  0  0  0  0  0
  -28.7324  -21.5646   17.6029 H   0  0  0  0  0  0
  -30.1541  -22.3599   18.2119 H   0  0  0  0  0  0
  -28.7382  -23.2989   17.7825 H   0  0  0  0  0  0
  -26.6715  -21.4207   18.8445 H   0  0  0  0  0  0
  -26.5144  -23.0363   19.2801 H   0  0  0  0  0  0
  -26.5391  -21.8385   20.5563 H   0  0  0  0  0  0
  -28.8043  -24.3566   22.5636 H   0  0  0  0  0  0
  -29.3210  -22.6921   22.4475 H   0  0  0  0  0  0
  -27.6275  -23.1059   22.2339 H   0  0  0  0  0  0
  -30.5963  -24.9027   20.9777 H   0  0  0  0  0  0
  -30.6039  -24.3540   19.3215 H   0  0  0  0  0  0
  -31.0621  -23.2596   20.6208 H   0  0  0  0  0  0
  -28.3520  -16.3184   22.1139 H   0  0  0  0  0  0
  -29.9425  -16.9638   22.5508 H   0  0  0  0  0  0
  -29.5991  -15.2742   22.8036 H   0  0  0  0  0  0
  -30.8010  -16.9921   19.2455 H   0  0  0  0  0  0
  -29.1089  -16.8615   19.1200 H   0  0  0  0  0  0
  -27.3102  -18.0280   19.9381 H   0  0  0  0  0  0
  -26.6689  -19.6019   19.9455 H   0  0  0  0  0  0
  -27.0198  -24.7592   20.5064 H   0  0  0  0  0  0
  -27.8313  -24.8484   18.9609 H   0  0  0  0  0  0
  -30.9401  -21.4752   21.0073 H   0  0  0  0  0  0
  1 25  1  0  0  0
  1 30  2  0  0  0
  1 87  1  0  0  0
  2  3  1  0  0  0
  2 25  1  0  0  0
  2 88  1  0  0  0
  2 89  1  0  0  0
  3  4  1  0  0  0
  3 90  1  0  0  0
  3 91  1  0  0  0
  4  5  1  0  0  0
  4 92  1  0  0  0
  4 93  1  0  0  0
  5  6  1  0  0  0
  5 26  1  0  0  0
  5 94  1  0  0  0
  6 25  1  0  0  0
  6 95  1  0  0  0
  6 96  1  0  0  0
  7  8  2  0  0  0
  7 26  1  0  0  0
  7 29  1  0  0  0
  8  9  1  0  0  0
  8 22  1  0  0  0
  9 10  1  0  0  0
  9 27  2  0  0  0
 10 11  2  0  0  0
 10 15  1  0  0  0
 11 12  1  0  0  0
 11 97  1  0  0  0
 12 13  2  0  0  0
 12 98  1  0  0  0
 13 14  1  0  0  0
 13 31  1  0  0  0
 14 15  2  0  0  0
 14 99  1  0  0  0
 15100  1  0  0  0
 16 17  2  0  0  0
 16 21  1  0  0  0
 16 31  1  0  0  0
 17 18  1  0  0  0
 17101  1  0  0  0
 18 19  2  0  0  0
 18102  1  0  0  0
 19 20  1  0  0  0
 19 24  1  0  0  0
 20 21  2  0  0  0
 20103  1  0  0  0
 21 23  1  0  0  0
 22 28  1  0  0  0
 22 32  2  0  0  0
 26 27  1  0  0  0
 28104  1  0  0  0
 28105  1  0  0  0
 29106  1  0  0  0
 29107  1  0  0  0
 33 34  1  0  0  0
 33 66  1  0  0  0
 33 70  2  0  0  0
 34 36  1  0  0  0
 34 59  1  0  0  0
 34108  1  0  0  0
 35 44  2  0  0  0
 35 45  1  0  0  0
 35 68  1  0  0  0
 36 56  1  0  0  0
 36109  1  0  0  0
 37 39  1  0  0  0
 37 47  1  0  0  0
 37 66  1  0  0  0
 37110  1  0  0  0
 38 43  2  0  0  0
 38 46  1  0  0  0
 38 47  1  0  0  0
 39 64  1  0  0  0
 39 67  2  0  0  0
 40 52  1  0  0  0
 40 53  2  0  0  0
 40 58  1  0  0  0
 41111  1  0  0  0
 41112  1  0  0  0
 41113  1  0  0  0
 41 48  1  0  0  0
 42 43  1  0  0  0
 42 66  1  0  0  0
 42114  1  0  0  0
 42115  1  0  0  0
 43 44  1  0  0  0
 44116  1  0  0  0
 45 46  2  0  0  0
 45117  1  0  0  0
 46118  1  0  0  0
 47119  1  0  0  0
 47120  1  0  0  0
 48 56  1  0  0  0
 48 65  1  0  0  0
 48121  1  0  0  0
 49 50  1  0  0  0
 49 53  1  0  0  0
 49 64  1  0  0  0
 49122  1  0  0  0
 50 51  1  0  0  0
 50123  1  0  0  0
 50124  1  0  0  0
 51 52  1  0  0  0
 51125  1  0  0  0
 51126  1  0  0  0
 52127  1  0  0  0
 52128  1  0  0  0
 53 54  1  0  0  0
 54 55  2  0  0  0
 54129  1  0  0  0
 55 57  1  0  0  0
 55130  1  0  0  0
 56 69  2  0  0  0
 57 58  2  0  0  0
 57131  1  0  0  0
 58132  1  0  0  0
 59 60  1  0  0  0
 59 61  1  0  0  0
 59 62  1  0  0  0
 60133  1  0  0  0
 60134  1  0  0  0
 60135  1  0  0  0
 61136  1  0  0  0
 61137  1  0  0  0
 61138  1  0  0  0
 62139  1  0  0  0
 62140  1  0  0  0
 62141  1  0  0  0
 63 65  1  0  0  0
 63142  1  0  0  0
 63143  1  0  0  0
 63144  1  0  0  0
 64145  1  0  0  0
 65146  1  0  0  0
 68 82  1  0  0  0
 71 72  2  0  0  0
 71 86  1  0  0  0
 71147  1  0  0  0
 72 80  1  0  0  0
 72 85  1  0  0  0
 73 83  1  0  0  0
 73 85  1  0  0  0
 73 86  2  0  0  0
 74 81  1  0  0  0
 74148  1  0  0  0
 74149  1  0  0  0
 74150  1  0  0  0
 75151  1  0  0  0
 75152  1  0  0  0
 75153  1  0  0  0
 75 83  1  0  0  0
 76 83  1  0  0  0
 76154  1  0  0  0
 76155  1  0  0  0
 76156  1  0  0  0
 77157  1  0  0  0
 77158  1  0  0  0
 77159  1  0  0  0
 77 84  1  0  0  0
 78 84  1  0  0  0
 78160  1  0  0  0
 78161  1  0  0  0
 78162  1  0  0  0
 79 87  1  0  0  0
 79163  1  0  0  0
 79164  1  0  0  0
 79165  1  0  0  0
 80 87  1  0  0  0
 80166  1  0  0  0
 80167  1  0  0  0
 81 85  1  0  0  0
 81168  1  0  0  0
 81169  1  0  0  0
 82 84  1  0  0  0
 82170  1  0  0  0
 82171  1  0  0  0
 83 84  1  0  0  0
 86172  1  0  0  0
M  CHG  1  86   1
M  ISO  4   1 100  68 101  82 101  87 100
M  END
> <chiral flag>
0

> <version>
0

> <s_m_source_file>
/data/baiqing/PycharmProjects/Reinvent-master-3.2/result/LINK_invent/BTK/process_docking_weight1_custom_sum_contain_oxygen_bond_distance_aromatic_linkinvent_7_9_3/rearranged_h_0064.sdf

> <i_m_source_file_index>
11

> <r_mmod_Potential_Energy-OPLS-2005>
339.424621582031

> <r_mmod_Stretch_Energy-OPLS-2005>
142.41535949707

> <r_mmod_Bend_Energy-OPLS-2005>
201.932815551758

> <r_mmod_Torsional_Energy-OPLS-2005>
336.763092041016

> <r_mmod_Improper_Torsional_Energy-OPLS-2005>
11.1349782943726

> <r_mmod_Van_der_Waal_Energy-OPLS-2005>
139.686386108398

> <r_mmod_Electrostatic_Energy-OPLS-2005>
-170.142120361328

> <r_mmod_Solvation_Energy-OPLS-2005>
-391.164123535156

> <b_mmod_Minimization_Converged-OPLS-2005>
0

> <r_mmod_RMS_Derivative-OPLS-2005>
3.14040446281433

$$$$
11
                    3D
 Structure written by MMmdl.
178186  0  0  1  0            999 V2000
  -30.7059  -14.6058   20.4038 C   0  0  0  0  0  0
  -30.4203  -12.3474   19.4281 C   0  0  0  0  0  0
  -29.4823  -12.4000   18.2046 C   0  0  0  0  0  0
  -28.0124  -12.2421   18.6477 C   0  0  0  0  0  0
  -27.6275  -13.1645   19.8332 C   0  0  2  0  0  0
  -28.6993  -13.1424   20.9481 C   0  0  0  0  0  0
  -25.2546  -13.8023   20.5724 C   0  0  0  0  0  0
  -24.1752  -13.0364   20.9228 C   0  0  0  0  0  0
  -24.6243  -11.6829   20.8760 C   0  0  0  0  0  0
  -23.8895  -10.4247   21.0408 C   0  0  0  0  0  0
  -24.3496   -9.4192   21.9180 C   0  0  0  0  0  0
  -23.6222   -8.2206   22.0743 C   0  0  0  0  0  0
  -22.4220   -8.0223   21.3518 C   0  0  0  0  0  0
  -21.9799   -9.0180   20.4622 C   0  0  0  0  0  0
  -22.7078  -10.2087   20.3041 C   0  0  0  0  0  0
  -21.6848   -6.0665   22.5255 C   0  0  0  0  0  0
  -21.4014   -6.5590   23.8180 C   0  0  0  0  0  0
  -21.3648   -5.6763   24.9146 C   0  0  0  0  0  0
  -21.6045   -4.3026   24.7227 C   0  0  0  0  0  0
  -21.8841   -3.8100   23.4354 C   0  0  0  0  0  0
  -21.9197   -4.6889   22.3393 C   0  0  0  0  0  0
  -22.7800  -13.5242   21.1839 C   0  0  0  0  0  0
  -22.1684   -4.2052   21.0982 F   0  0  0  0  0  0
  -21.5607   -3.4534   25.7756 F   0  0  0  0  0  0
  -30.0109  -13.4252   20.3416 N   0  0  0  0  0  0
  -26.2871  -12.9045   20.3335 N   0  0  0  0  0  0
  -25.9147  -11.6276   20.5809 N   0  0  0  0  0  0
  -22.0413  -12.8284   22.0414 N   0  0  0  0  0  0
  -25.4334  -15.1714   20.4136 N   0  0  0  0  0  0
  -31.9234  -14.6555   20.2377 O   0  0  0  0  0  0
  -21.6626   -6.8794   21.4212 O   0  0  0  0  0  0
  -22.3535  -14.5532   20.6626 O   0  0  0  0  0  0
  -24.6130  -31.8634   23.2079 C   0  0  0  0  0  0
  -25.9020  -32.4809   23.8365 C   0  0  1  0  0  0
  -27.2657  -27.4042   20.1252 C   0  0  0  0  0  0
  -25.5898  -33.8611   24.2323 N   0  0  0  0  0  0
  -23.4063  -30.4814   21.5426 C   0  0  2  0  0  0
  -24.8625  -28.9335   20.1161 C   0  0  0  0  0  0
  -22.7400  -29.4635   22.4942 C   0  0  0  0  0  0
  -18.0270  -28.1365   22.8500 C   0  0  0  0  0  0
  -24.1489  -36.7303   23.2648 C   0  0  0  0  0  0
  -25.9341  -30.8199   21.3685 C   0  0  0  0  0  0
  -26.0169  -29.4513   20.7130 C   0  0  0  0  0  0
  -27.2121  -28.6942   20.7107 C   0  0  0  0  0  0
  -26.0898  -26.8971   19.5242 C   0  0  0  0  0  0
  -24.8959  -27.6571   19.5187 C   0  0  0  0  0  0
  -23.6230  -29.8042   20.1597 C   0  0  0  0  0  0
  -25.4112  -36.3113   24.0345 C   0  0  1  0  0  0
  -20.5863  -28.3663   23.1316 C   0  0  2  0  0  0
  -20.6764  -26.9390   22.5433 C   0  0  0  0  0  0
  -19.5754  -26.6370   21.5220 C   0  0  0  0  0  0
  -18.1920  -26.7909   22.1619 C   0  0  0  0  0  0
  -19.1521  -28.8825   23.2906 C   0  0  0  0  0  0
  -18.9458  -30.1434   23.8906 C   0  0  0  0  0  0
  -17.6462  -30.6580   24.0555 C   0  0  0  0  0  0
  -25.9034  -34.9474   23.5133 C   0  0  0  0  0  0
  -16.5352  -29.9079   23.6325 C   0  0  0  0  0  0
  -16.7258  -28.6494   23.0351 C   0  0  0  0  0  0
  -26.4479  -31.6597   25.0698 C   0  0  0  0  0  0
  -25.3756  -31.3719   26.1471 C   0  0  0  0  0  0
  -27.0328  -30.3020   24.6147 C   0  0  0  0  0  0
  -27.6032  -32.4342   25.7462 C   0  0  0  0  0  0
  -27.5583  -37.1804   24.8457 C   0  0  0  0  0  0
  -21.4127  -29.3019   22.3692 N   0  0  0  0  0  0
  -26.4297  -37.3788   23.9415 N   0  0  0  0  0  0
  -24.6677  -31.0702   22.0991 N   0  0  0  0  0  0
  -23.4152  -28.8211   23.3023 O   0  0  0  0  0  0
  -28.4773  -26.7262   20.1970 O   0  0  0  0  0  0
  -26.5574  -34.8926   22.4681 O   0  0  0  0  0  0
  -23.5324  -32.1411   23.7457 O   0  0  0  0  0  0
  -29.5641  -21.8449   22.9552 C   0  0  0  0  0  0
  -29.9165  -21.8483   21.5895 C   0  0  0  0  0  0
  -30.3910  -19.4997   21.7839 C   0  0  0  0  0  0
  -29.9500  -19.5556   23.1538 C   0  0  0  0  0  0
  -31.2673  -23.9383   21.2572 C   0  0  0  0  0  0
  -30.2800  -22.8202   19.2730 C   0  0  0  0  0  0
  -32.4260  -17.9499   21.4541 C   0  0  0  0  0  0
  -31.0544  -18.4966   19.5279 C   0  0  0  0  0  0
  -27.4236  -23.3286   20.5611 C   0  0  0  0  0  0
  -28.4717  -24.8511   22.1960 C   0  0  0  0  0  0
  -29.1034  -16.0386   19.2006 C   0  0  0  0  0  0
  -30.0658  -16.9111   21.3168 C   0  0  0  0  0  0
  -28.7086  -25.3637   19.7489 C   0  0  0  0  0  0
  -30.0011  -23.1954   20.7612 C   0  0  0  0  0  0
  -30.9525  -18.2075   21.0457 C   0  0  0  0  0  0
  -29.8731  -18.3736   24.1403 C   0  0  0  0  0  0
  -28.6941  -24.1745   20.8161 C   0  0  0  0  0  0
  -29.5530  -20.7316   23.7100 N   0  0  0  0  0  0
  -30.3747  -20.6705   21.0479 N   0  0  0  0  0  0
  -29.9787  -15.7659   20.3541 N   0  0  0  0  0  0
  -29.6166  -18.7945   25.3836 F   0  0  0  0  0  0
  -28.8775  -17.5483   23.8209 F   0  0  0  0  0  0
  -31.0154  -17.6954   24.2096 F   0  0  0  0  0  0
  -31.4571  -12.4456   19.1047 H   0  0  0  0  0  0
  -30.3446  -11.3759   19.9211 H   0  0  0  0  0  0
  -29.7412  -11.6000   17.5092 H   0  0  0  0  0  0
  -29.6187  -13.3210   17.6424 H   0  0  0  0  0  0
  -27.8891  -11.2042   18.9541 H   0  0  0  0  0  0
  -27.3375  -12.3842   17.8013 H   0  0  0  0  0  0
  -27.5581  -14.1458   19.4033 H   0  0  0  0  0  0
  -28.7227  -12.1667   21.4362 H   0  0  0  0  0  0
  -28.4595  -13.8787   21.7182 H   0  0  0  0  0  0
  -25.2628   -9.5719   22.4746 H   0  0  0  0  0  0
  -23.9939   -7.4602   22.7458 H   0  0  0  0  0  0
  -21.0727   -8.8653   19.8940 H   0  0  0  0  0  0
  -22.3487  -10.9606   19.6155 H   0  0  0  0  0  0
  -21.2056   -7.6112   23.9647 H   0  0  0  0  0  0
  -21.1428   -6.0506   25.9033 H   0  0  0  0  0  0
  -22.0640   -2.7560   23.2877 H   0  0  0  0  0  0
  -22.4053  -12.0003   22.4875 H   0  0  0  0  0  0
  -21.0988  -13.1249   22.2509 H   0  0  0  0  0  0
  -24.6719  -15.8313   20.5251 H   0  0  0  0  0  0
  -26.3012  -15.6058   20.1292 H   0  0  0  0  0  0
  -26.7072  -32.5521   23.1117 H   0  0  0  0  0  0
  -25.0097  -33.9780   25.0497 H   0  0  0  0  0  0
  -22.6992  -31.2996   21.3949 H   0  0  0  0  0  0
  -23.3766  -35.9616   23.3310 H   0  0  0  0  0  0
  -24.3570  -36.8917   22.2060 H   0  0  0  0  0  0
  -23.7224  -37.6504   23.6647 H   0  0  0  0  0  0
  -26.0570  -31.5963   20.6126 H   0  0  0  0  0  0
  -26.8148  -30.8664   21.9974 H   0  0  0  0  0  0
  -28.1032  -29.0930   21.1749 H   0  0  0  0  0  0
  -26.0835  -25.9159   19.0708 H   0  0  0  0  0  0
  -24.0049  -27.2514   19.0615 H   0  0  0  0  0  0
  -23.7399  -30.5785   19.4004 H   0  0  0  0  0  0
  -22.7490  -29.2269   19.8521 H   0  0  0  0  0  0
  -25.1292  -36.1980   25.0829 H   0  0  0  0  0  0
  -20.9961  -28.3232   24.1437 H   0  0  0  0  0  0
  -20.5653  -26.2261   23.3621 H   0  0  0  0  0  0
  -21.6640  -26.7413   22.1246 H   0  0  0  0  0  0
  -19.6923  -25.6280   21.1253 H   0  0  0  0  0  0
  -19.6715  -27.3180   20.6749 H   0  0  0  0  0  0
  -17.4200  -26.6680   21.4003 H   0  0  0  0  0  0
  -18.0315  -26.0020   22.8986 H   0  0  0  0  0  0
  -19.7934  -30.7243   24.2279 H   0  0  0  0  0  0
  -17.5018  -31.6262   24.5162 H   0  0  0  0  0  0
  -15.5358  -30.2995   23.7638 H   0  0  0  0  0  0
  -15.8654  -28.0823   22.7064 H   0  0  0  0  0  0
  -24.5897  -30.7102   25.7827 H   0  0  0  0  0  0
  -24.9012  -32.2894   26.4942 H   0  0  0  0  0  0
  -25.8149  -30.8862   27.0202 H   0  0  0  0  0  0
  -26.2897  -29.6764   24.1205 H   0  0  0  0  0  0
  -27.4057  -29.7284   25.4640 H   0  0  0  0  0  0
  -27.8742  -30.4313   23.9341 H   0  0  0  0  0  0
  -27.2610  -33.3580   26.2129 H   0  0  0  0  0  0
  -28.3795  -32.7019   25.0289 H   0  0  0  0  0  0
  -28.0749  -31.8434   26.5321 H   0  0  0  0  0  0
  -28.2606  -38.0097   24.7498 H   0  0  0  0  0  0
  -28.1085  -36.2631   24.6296 H   0  0  0  0  0  0
  -27.2291  -37.1454   25.8855 H   0  0  0  0  0  0
  -20.9278  -29.8724   21.6911 H   0  0  0  0  0  0
  -26.0204  -38.2869   24.1418 H   0  0  0  0  0  0
  -29.3721  -22.7447   23.5044 H   0  0  0  0  0  0
  -32.1584  -23.3238   21.1331 H   0  0  0  0  0  0
  -31.2137  -24.1781   22.3197 H   0  0  0  0  0  0
  -31.4433  -24.8696   20.7196 H   0  0  0  0  0  0
  -30.4485  -23.6753   18.6221 H   0  0  0  0  0  0
  -29.4730  -22.2318   18.8399 H   0  0  0  0  0  0
  -31.1886  -22.2230   19.1770 H   0  0  0  0  0  0
  -33.0781  -18.7640   21.1347 H   0  0  0  0  0  0
  -32.8211  -17.0439   20.9946 H   0  0  0  0  0  0
  -32.5760  -17.8440   22.5247 H   0  0  0  0  0  0
  -31.7770  -19.2886   19.3249 H   0  0  0  0  0  0
  -30.1027  -18.8349   19.1175 H   0  0  0  0  0  0
  -31.4046  -17.6314   18.9636 H   0  0  0  0  0  0
  -27.4061  -22.9002   19.5600 H   0  0  0  0  0  0
  -27.3365  -22.5034   21.2670 H   0  0  0  0  0  0
  -26.5209  -23.9313   20.6653 H   0  0  0  0  0  0
  -27.6552  -25.5711   22.1564 H   0  0  0  0  0  0
  -29.3494  -25.3954   22.5473 H   0  0  0  0  0  0
  -28.1347  -24.1719   22.9671 H   0  0  0  0  0  0
  -29.3809  -16.8965   18.6012 H   0  0  0  0  0  0
  -28.0876  -16.2214   19.5425 H   0  0  0  0  0  0
  -29.0968  -15.2303   18.4743 H   0  0  0  0  0  0
  -29.0403  -17.2582   21.4365 H   0  0  0  0  0  0
  -30.3512  -16.4700   22.2710 H   0  0  0  0  0  0
  -28.1373  -25.1217   18.8542 H   0  0  0  0  0  0
  -29.7272  -25.4756   19.3907 H   0  0  0  0  0  0
  1 25  1  0  0  0
  1 30  2  0  0  0
  1 90  1  0  0  0
  2  3  1  0  0  0
  2 25  1  0  0  0
  2 94  1  0  0  0
  2 95  1  0  0  0
  3  4  1  0  0  0
  3 96  1  0  0  0
  3 97  1  0  0  0
  4  5  1  0  0  0
  4 98  1  0  0  0
  4 99  1  0  0  0
  5  6  1  0  0  0
  5 26  1  0  0  0
  5100  1  0  0  0
  6 25  1  0  0  0
  6101  1  0  0  0
  6102  1  0  0  0
  7  8  2  0  0  0
  7 26  1  0  0  0
  7 29  1  0  0  0
  8  9  1  0  0  0
  8 22  1  0  0  0
  9 10  1  0  0  0
  9 27  2  0  0  0
 10 11  2  0  0  0
 10 15  1  0  0  0
 11 12  1  0  0  0
 11103  1  0  0  0
 12 13  2  0  0  0
 12104  1  0  0  0
 13 14  1  0  0  0
 13 31  1  0  0  0
 14 15  2  0  0  0
 14105  1  0  0  0
 15106  1  0  0  0
 16 17  2  0  0  0
 16 21  1  0  0  0
 16 31  1  0  0  0
 17 18  1  0  0  0
 17107  1  0  0  0
 18 19  2  0  0  0
 18108  1  0  0  0
 19 20  1  0  0  0
 19 24  1  0  0  0
 20 21  2  0  0  0
 20109  1  0  0  0
 21 23  1  0  0  0
 22 28  1  0  0  0
 22 32  2  0  0  0
 26 27  1  0  0  0
 28110  1  0  0  0
 28111  1  0  0  0
 29112  1  0  0  0
 29113  1  0  0  0
 33 34  1  0  0  0
 33 66  1  0  0  0
 33 70  2  0  0  0
 34 36  1  0  0  0
 34 59  1  0  0  0
 34114  1  0  0  0
 35 44  2  0  0  0
 35 45  1  0  0  0
 35 68  1  0  0  0
 36 56  1  0  0  0
 36115  1  0  0  0
 37 39  1  0  0  0
 37 47  1  0  0  0
 37 66  1  0  0  0
 37116  1  0  0  0
 38 43  2  0  0  0
 38 46  1  0  0  0
 38 47  1  0  0  0
 39 64  1  0  0  0
 39 67  2  0  0  0
 40 52  1  0  0  0
 40 53  2  0  0  0
 40 58  1  0  0  0
 41117  1  0  0  0
 41118  1  0  0  0
 41119  1  0  0  0
 41 48  1  0  0  0
 42 43  1  0  0  0
 42 66  1  0  0  0
 42120  1  0  0  0
 42121  1  0  0  0
 43 44  1  0  0  0
 44122  1  0  0  0
 45 46  2  0  0  0
 45123  1  0  0  0
 46124  1  0  0  0
 47125  1  0  0  0
 47126  1  0  0  0
 48 56  1  0  0  0
 48 65  1  0  0  0
 48127  1  0  0  0
 49 50  1  0  0  0
 49 53  1  0  0  0
 49 64  1  0  0  0
 49128  1  0  0  0
 50 51  1  0  0  0
 50129  1  0  0  0
 50130  1  0  0  0
 51 52  1  0  0  0
 51131  1  0  0  0
 51132  1  0  0  0
 52133  1  0  0  0
 52134  1  0  0  0
 53 54  1  0  0  0
 54 55  2  0  0  0
 54135  1  0  0  0
 55 57  1  0  0  0
 55136  1  0  0  0
 56 69  2  0  0  0
 57 58  2  0  0  0
 57137  1  0  0  0
 58138  1  0  0  0
 59 60  1  0  0  0
 59 61  1  0  0  0
 59 62  1  0  0  0
 60139  1  0  0  0
 60140  1  0  0  0
 60141  1  0  0  0
 61142  1  0  0  0
 61143  1  0  0  0
 61144  1  0  0  0
 62145  1  0  0  0
 62146  1  0  0  0
 62147  1  0  0  0
 63 65  1  0  0  0
 63148  1  0  0  0
 63149  1  0  0  0
 63150  1  0  0  0
 64151  1  0  0  0
 65152  1  0  0  0
 68 83  1  0  0  0
 71 72  2  0  0  0
 71 88  1  0  0  0
 71153  1  0  0  0
 72 84  1  0  0  0
 72 89  1  0  0  0
 73 74  1  0  0  0
 73 85  1  0  0  0
 73 89  2  0  0  0
 74 86  1  0  0  0
 74 88  2  0  0  0
 75154  1  0  0  0
 75155  1  0  0  0
 75156  1  0  0  0
 75 84  1  0  0  0
 76 84  1  0  0  0
 76157  1  0  0  0
 76158  1  0  0  0
 76159  1  0  0  0
 77160  1  0  0  0
 77161  1  0  0  0
 77162  1  0  0  0
 77 85  1  0  0  0
 78 85  1  0  0  0
 78163  1  0  0  0
 78164  1  0  0  0
 78165  1  0  0  0
 79166  1  0  0  0
 79167  1  0  0  0
 79168  1  0  0  0
 79 87  1  0  0  0
 80 87  1  0  0  0
 80169  1  0  0  0
 80170  1  0  0  0
 80171  1  0  0  0
 81 90  1  0  0  0
 81172  1  0  0  0
 81173  1  0  0  0
 81174  1  0  0  0
 82 85  1  0  0  0
 82 90  1  0  0  0
 82175  1  0  0  0
 82176  1  0  0  0
 83 87  1  0  0  0
 83177  1  0  0  0
 83178  1  0  0  0
 84 87  1  0  0  0
 86 91  1  0  0  0
 86 92  1  0  0  0
 86 93  1  0  0  0
M  ISO  4   1 100  68 101  83 101  90 100
M  END
> <chiral flag>
0

> <version>
0

> <s_m_source_file>
/data/baiqing/PycharmProjects/Reinvent-master-3.2/result/LINK_invent/BTK/process_docking_weight1_custom_sum_contain_oxygen_bond_distance_aromatic_linkinvent_7_9_3/rearranged_h_0064.sdf

> <i_m_source_file_index>
12

> <r_mmod_Potential_Energy-OPLS-2005>
522.9736328125

> <r_mmod_Stretch_Energy-OPLS-2005>
96.4165191650391

> <r_mmod_Bend_Energy-OPLS-2005>
199.728912353516

> <r_mmod_Torsional_Energy-OPLS-2005>
355.247222900391

> <r_mmod_Improper_Torsional_Energy-OPLS-2005>
7.79389762878418

> <r_mmod_Van_der_Waal_Energy-OPLS-2005>
198.404769897461

> <r_mmod_Electrostatic_Energy-OPLS-2005>
-204.796905517578

> <r_mmod_Solvation_Energy-OPLS-2005>
-177.951782226562

> <b_mmod_Minimization_Converged-OPLS-2005>
0

> <r_mmod_RMS_Derivative-OPLS-2005>
4.64953947067261

$$$$
12
                    3D
 Structure written by MMmdl.
179187  0  0  1  0            999 V2000
  -30.5791  -14.4753   20.5920 C   0  0  0  0  0  0
  -30.4179  -12.2966   19.4324 C   0  0  0  0  0  0
  -29.4664  -12.4207   18.2188 C   0  0  0  0  0  0
  -27.9807  -12.3511   18.6027 C   0  0  0  0  0  0
  -27.6541  -13.1617   19.8799 C   0  0  2  0  0  0
  -28.6774  -12.8967   21.0087 C   0  0  0  0  0  0
  -25.2598  -13.8150   20.5472 C   0  0  0  0  0  0
  -24.1702  -13.0458   20.8994 C   0  0  0  0  0  0
  -24.6287  -11.6969   20.8670 C   0  0  0  0  0  0
  -23.9018  -10.4320   21.0369 C   0  0  0  0  0  0
  -24.3653   -9.4271   21.9145 C   0  0  0  0  0  0
  -23.6352   -8.2272   22.0730 C   0  0  0  0  0  0
  -22.4322   -8.0323   21.3567 C   0  0  0  0  0  0
  -21.9920   -9.0243   20.4632 C   0  0  0  0  0  0
  -22.7204  -10.2159   20.3024 C   0  0  0  0  0  0
  -21.6879   -6.0761   22.5259 C   0  0  0  0  0  0
  -21.4004   -6.5652   23.8211 C   0  0  0  0  0  0
  -21.3638   -5.6786   24.9168 C   0  0  0  0  0  0
  -21.6066   -4.3067   24.7190 C   0  0  0  0  0  0
  -21.8843   -3.8158   23.4315 C   0  0  0  0  0  0
  -21.9213   -4.6964   22.3399 C   0  0  0  0  0  0
  -22.7889  -13.5423   21.1810 C   0  0  0  0  0  0
  -22.1706   -4.2162   21.0980 F   0  0  0  0  0  0
  -21.5590   -3.4549   25.7721 F   0  0  0  0  0  0
  -30.0029  -13.2490   20.4762 N   0  0  0  0  0  0
  -26.2944  -12.9206   20.3380 N   0  0  0  0  0  0
  -25.9185  -11.6455   20.5769 N   0  0  0  0  0  0
  -22.0620  -12.8345   22.0413 N   0  0  0  0  0  0
  -25.4481  -15.1838   20.4029 N   0  0  0  0  0  0
  -31.7329  -14.6975   20.2052 O   0  0  0  0  0  0
  -21.6681   -6.8912   21.4261 O   0  0  0  0  0  0
  -22.3553  -14.5711   20.6781 O   0  0  0  0  0  0
  -24.6183  -31.8622   23.2256 C   0  0  0  0  0  0
  -25.9129  -32.4770   23.8457 C   0  0  1  0  0  0
  -27.1570  -27.3149   20.0887 C   0  0  0  0  0  0
  -25.6001  -33.8594   24.2319 N   0  0  0  0  0  0
  -23.4078  -30.5024   21.5589 C   0  0  2  0  0  0
  -24.8524  -28.9794   20.0928 C   0  0  0  0  0  0
  -22.7470  -29.4688   22.5020 C   0  0  0  0  0  0
  -18.0266  -28.1383   22.8513 C   0  0  0  0  0  0
  -24.1485  -36.7274   23.2609 C   0  0  0  0  0  0
  -25.9624  -30.7908   21.4157 C   0  0  0  0  0  0
  -26.0256  -29.4302   20.7206 C   0  0  0  0  0  0
  -27.1815  -28.5907   20.7322 C   0  0  0  0  0  0
  -25.9855  -26.9700   19.3797 C   0  0  0  0  0  0
  -24.8349  -27.7592   19.4089 C   0  0  0  0  0  0
  -23.6261  -29.8715   20.1593 C   0  0  0  0  0  0
  -25.4136  -36.3086   24.0266 C   0  0  1  0  0  0
  -20.5846  -28.3585   23.1158 C   0  0  2  0  0  0
  -20.6811  -26.9351   22.5241 C   0  0  0  0  0  0
  -19.5666  -26.6442   21.5136 C   0  0  0  0  0  0
  -18.1843  -26.7954   22.1599 C   0  0  0  0  0  0
  -19.1533  -28.8825   23.2878 C   0  0  0  0  0  0
  -18.9496  -30.1404   23.8920 C   0  0  0  0  0  0
  -17.6541  -30.6600   24.0648 C   0  0  0  0  0  0
  -25.9107  -34.9453   23.5096 C   0  0  0  0  0  0
  -16.5428  -29.9108   23.6430 C   0  0  0  0  0  0
  -16.7304  -28.6529   23.0457 C   0  0  0  0  0  0
  -26.4561  -31.6598   25.0805 C   0  0  0  0  0  0
  -25.3780  -31.3749   26.1488 C   0  0  0  0  0  0
  -27.0410  -30.3002   24.6298 C   0  0  0  0  0  0
  -27.6047  -32.4358   25.7586 C   0  0  0  0  0  0
  -27.5590  -37.1791   24.8458 C   0  0  0  0  0  0
  -21.4248  -29.2978   22.3740 N   0  0  0  0  0  0
  -26.4324  -37.3780   23.9402 N   0  0  0  0  0  0
  -24.6799  -31.0602   22.1225 N   0  0  0  0  0  0
  -23.4166  -28.8209   23.3126 O   0  0  0  0  0  0
  -28.2301  -26.4271   20.1517 O   0  0  0  0  0  0
  -26.5593  -34.8842   22.4617 O   0  0  0  0  0  0
  -23.5328  -32.1461   23.7537 O   0  0  0  0  0  0
  -29.2625  -17.8406   21.3597 C   0  0  0  0  0  0
  -28.7528  -19.5172   22.6047 C   0  0  0  0  0  0
  -26.7587  -19.5072   19.6786 C   0  0  0  0  0  0
  -26.6717  -20.5196   23.9377 C   0  0  0  0  0  0
  -28.8401  -20.9230   24.7511 C   0  0  0  0  0  0
  -29.2874  -18.1824   18.2195 C   0  0  0  0  0  0
  -30.1488  -15.9971   17.8547 C   0  0  0  0  0  0
  -31.4639  -17.6711   19.2762 C   0  0  0  0  0  0
  -27.7685  -22.6875   21.3529 C   0  0  0  0  0  0
  -28.4956  -24.0607   21.0662 C   0  0  0  0  0  0
  -28.4701  -22.0620   22.6011 C   0  0  0  0  0  0
  -26.8919  -18.7569   21.0107 C   0  0  0  0  0  0
  -27.9304  -24.9914   19.9563 C   0  0  0  0  0  0
  -29.2942  -16.7111   20.3041 C   0  0  2  0  0  0
  -28.1247  -20.7230   23.3539 C   0  0  0  0  0  0
  -30.0602  -17.0879   18.9548 C   0  0  0  0  0  0
  -30.3223  -18.0735   22.1379 N   0  0  0  0  0  0
  -30.0417  -19.2140   22.8340 N   0  0  0  0  0  0
  -28.2336  -18.7254   21.6058 N   0  0  0  0  0  0
  -29.6840  -15.4176   20.9441 N   0  0  0  0  0  0
  -31.4562  -12.4417   19.1220 H   0  0  0  0  0  0
  -30.3804  -11.2713   19.8179 H   0  0  0  0  0  0
  -29.6723  -11.6266   17.5099 H   0  0  0  0  0  0
  -29.6741  -13.3389   17.6829 H   0  0  0  0  0  0
  -27.7382  -11.2953   18.7687 H   0  0  0  0  0  0
  -27.3555  -12.7009   17.7715 H   0  0  0  0  0  0
  -27.7259  -14.2087   19.5979 H   0  0  0  0  0  0
  -28.6654  -11.8388   21.2835 H   0  0  0  0  0  0
  -28.4267  -13.4253   21.9350 H   0  0  0  0  0  0
  -25.2773   -9.5796   22.4776 H   0  0  0  0  0  0
  -24.0078   -7.4699   22.7512 H   0  0  0  0  0  0
  -21.0804   -8.8773   19.8981 H   0  0  0  0  0  0
  -22.3624  -10.9735   19.6183 H   0  0  0  0  0  0
  -21.2010   -7.6158   23.9721 H   0  0  0  0  0  0
  -21.1409   -6.0505   25.9075 H   0  0  0  0  0  0
  -22.0640   -2.7609   23.2794 H   0  0  0  0  0  0
  -22.4190  -11.9867   22.4613 H   0  0  0  0  0  0
  -21.1289  -13.1446   22.2606 H   0  0  0  0  0  0
  -24.6721  -15.8320   20.3167 H   0  0  0  0  0  0
  -26.3564  -15.6207   20.2995 H   0  0  0  0  0  0
  -26.7195  -32.5396   23.1185 H   0  0  0  0  0  0
  -25.0294  -33.9830   25.0538 H   0  0  0  0  0  0
  -22.6905  -31.3202   21.4223 H   0  0  0  0  0  0
  -23.3733  -35.9641   23.3325 H   0  0  0  0  0  0
  -24.3561  -36.8856   22.2035 H   0  0  0  0  0  0
  -23.7281  -37.6460   23.6649 H   0  0  0  0  0  0
  -26.0879  -31.5660   20.6589 H   0  0  0  0  0  0
  -26.8335  -30.8257   22.0634 H   0  0  0  0  0  0
  -28.0693  -28.8888   21.2712 H   0  0  0  0  0  0
  -25.9003  -26.0814   18.7761 H   0  0  0  0  0  0
  -23.9485  -27.4070   18.8991 H   0  0  0  0  0  0
  -23.7833  -30.6642   19.4259 H   0  0  0  0  0  0
  -22.7281  -29.3403   19.8378 H   0  0  0  0  0  0
  -25.1332  -36.1939   25.0753 H   0  0  0  0  0  0
  -20.9810  -28.3070   24.1282 H   0  0  0  0  0  0
  -21.6632  -26.7517   22.0788 H   0  0  0  0  0  0
  -20.5817  -26.2164   23.3425 H   0  0  0  0  0  0
  -19.6553  -27.3410   20.6759 H   0  0  0  0  0  0
  -19.6710  -25.6311   21.1187 H   0  0  0  0  0  0
  -17.4134  -26.6772   21.3998 H   0  0  0  0  0  0
  -18.0049  -26.0052   22.8886 H   0  0  0  0  0  0
  -19.8024  -30.7097   24.2383 H   0  0  0  0  0  0
  -17.5213  -31.6324   24.5296 H   0  0  0  0  0  0
  -15.5433  -30.3052   23.7758 H   0  0  0  0  0  0
  -15.8684  -28.0898   22.7073 H   0  0  0  0  0  0
  -24.5935  -30.7156   25.7799 H   0  0  0  0  0  0
  -24.8969  -32.2939   26.4837 H   0  0  0  0  0  0
  -25.8029  -30.8899   27.0293 H   0  0  0  0  0  0
  -26.3049  -29.6705   24.1286 H   0  0  0  0  0  0
  -27.4106  -29.7310   25.4847 H   0  0  0  0  0  0
  -27.8913  -30.4185   23.9566 H   0  0  0  0  0  0
  -27.2596  -33.3601   26.2203 H   0  0  0  0  0  0
  -28.3854  -32.7012   25.0470 H   0  0  0  0  0  0
  -28.0776  -31.8509   26.5469 H   0  0  0  0  0  0
  -28.2548  -38.0113   24.7480 H   0  0  0  0  0  0
  -28.1104  -36.2633   24.6341 H   0  0  0  0  0  0
  -27.2246  -37.1518   25.8820 H   0  0  0  0  0  0
  -20.9499  -29.8742   21.6945 H   0  0  0  0  0  0
  -26.0146  -38.2797   24.1500 H   0  0  0  0  0  0
  -25.8637  -20.1278   19.6371 H   0  0  0  0  0  0
  -26.6470  -18.8030   18.8605 H   0  0  0  0  0  0
  -27.6021  -20.1636   19.5108 H   0  0  0  0  0  0
  -26.6826  -19.7315   24.7111 H   0  0  0  0  0  0
  -25.8525  -20.2345   23.2956 H   0  0  0  0  0  0
  -26.3644  -21.4436   24.4365 H   0  0  0  0  0  0
  -28.7509  -20.0801   25.4455 H   0  0  0  0  0  0
  -28.3882  -21.7561   25.2993 H   0  0  0  0  0  0
  -29.9143  -21.1441   24.6899 H   0  0  0  0  0  0
  -29.2360  -19.0577   18.8543 H   0  0  0  0  0  0
  -28.2811  -17.8373   17.9702 H   0  0  0  0  0  0
  -29.7602  -18.4808   17.2753 H   0  0  0  0  0  0
  -29.1830  -15.5295   17.6531 H   0  0  0  0  0  0
  -30.4689  -16.4432   16.9076 H   0  0  0  0  0  0
  -30.8993  -15.2332   18.0299 H   0  0  0  0  0  0
  -31.9796  -18.0223   18.3849 H   0  0  0  0  0  0
  -32.1206  -16.9809   19.7995 H   0  0  0  0  0  0
  -31.4024  -18.5465   19.9081 H   0  0  0  0  0  0
  -26.7207  -22.8375   21.5950 H   0  0  0  0  0  0
  -27.7584  -22.0690   20.4578 H   0  0  0  0  0  0
  -29.5465  -23.8616   20.8173 H   0  0  0  0  0  0
  -28.4787  -24.6253   22.0017 H   0  0  0  0  0  0
  -28.4602  -22.8706   23.3339 H   0  0  0  0  0  0
  -29.5273  -21.9504   22.3265 H   0  0  0  0  0  0
  -26.5054  -17.7443   20.9514 H   0  0  0  0  0  0
  -26.1972  -19.2463   21.6617 H   0  0  0  0  0  0
  -28.3325  -24.6782   18.9910 H   0  0  0  0  0  0
  -26.8796  -24.7131   19.8768 H   0  0  0  0  0  0
  -28.2545  -16.4964   20.0597 H   0  0  0  0  0  0
  -28.8989  -14.9964   21.4241 H   0  0  0  0  0  0
  1 25  1  0  0  0
  1 30  2  0  0  0
  1 90  1  0  0  0
  2  3  1  0  0  0
  2 25  1  0  0  0
  2 91  1  0  0  0
  2 92  1  0  0  0
  3  4  1  0  0  0
  3 93  1  0  0  0
  3 94  1  0  0  0
  4  5  1  0  0  0
  4 95  1  0  0  0
  4 96  1  0  0  0
  5  6  1  0  0  0
  5 26  1  0  0  0
  5 97  1  0  0  0
  6 25  1  0  0  0
  6 98  1  0  0  0
  6 99  1  0  0  0
  7  8  2  0  0  0
  7 26  1  0  0  0
  7 29  1  0  0  0
  8  9  1  0  0  0
  8 22  1  0  0  0
  9 10  1  0  0  0
  9 27  2  0  0  0
 10 11  2  0  0  0
 10 15  1  0  0  0
 11 12  1  0  0  0
 11100  1  0  0  0
 12 13  2  0  0  0
 12101  1  0  0  0
 13 14  1  0  0  0
 13 31  1  0  0  0
 14 15  2  0  0  0
 14102  1  0  0  0
 15103  1  0  0  0
 16 17  2  0  0  0
 16 21  1  0  0  0
 16 31  1  0  0  0
 17 18  1  0  0  0
 17104  1  0  0  0
 18 19  2  0  0  0
 18105  1  0  0  0
 19 20  1  0  0  0
 19 24  1  0  0  0
 20 21  2  0  0  0
 20106  1  0  0  0
 21 23  1  0  0  0
 22 28  1  0  0  0
 22 32  2  0  0  0
 26 27  1  0  0  0
 28107  1  0  0  0
 28108  1  0  0  0
 29109  1  0  0  0
 29110  1  0  0  0
 33 34  1  0  0  0
 33 66  1  0  0  0
 33 70  2  0  0  0
 34 36  1  0  0  0
 34 59  1  0  0  0
 34111  1  0  0  0
 35 44  2  0  0  0
 35 45  1  0  0  0
 35 68  1  0  0  0
 36 56  1  0  0  0
 36112  1  0  0  0
 37 39  1  0  0  0
 37 47  1  0  0  0
 37 66  1  0  0  0
 37113  1  0  0  0
 38 43  2  0  0  0
 38 46  1  0  0  0
 38 47  1  0  0  0
 39 64  1  0  0  0
 39 67  2  0  0  0
 40 52  1  0  0  0
 40 53  2  0  0  0
 40 58  1  0  0  0
 41114  1  0  0  0
 41115  1  0  0  0
 41116  1  0  0  0
 41 48  1  0  0  0
 42 43  1  0  0  0
 42 66  1  0  0  0
 42117  1  0  0  0
 42118  1  0  0  0
 43 44  1  0  0  0
 44119  1  0  0  0
 45 46  2  0  0  0
 45120  1  0  0  0
 46121  1  0  0  0
 47122  1  0  0  0
 47123  1  0  0  0
 48 56  1  0  0  0
 48 65  1  0  0  0
 48124  1  0  0  0
 49 50  1  0  0  0
 49 53  1  0  0  0
 49 64  1  0  0  0
 49125  1  0  0  0
 50 51  1  0  0  0
 50126  1  0  0  0
 50127  1  0  0  0
 51 52  1  0  0  0
 51128  1  0  0  0
 51129  1  0  0  0
 52130  1  0  0  0
 52131  1  0  0  0
 53 54  1  0  0  0
 54 55  2  0  0  0
 54132  1  0  0  0
 55 57  1  0  0  0
 55133  1  0  0  0
 56 69  2  0  0  0
 57 58  2  0  0  0
 57134  1  0  0  0
 58135  1  0  0  0
 59 60  1  0  0  0
 59 61  1  0  0  0
 59 62  1  0  0  0
 60136  1  0  0  0
 60137  1  0  0  0
 60138  1  0  0  0
 61139  1  0  0  0
 61140  1  0  0  0
 61141  1  0  0  0
 62142  1  0  0  0
 62143  1  0  0  0
 62144  1  0  0  0
 63 65  1  0  0  0
 63145  1  0  0  0
 63146  1  0  0  0
 63147  1  0  0  0
 64148  1  0  0  0
 65149  1  0  0  0
 68 83  1  0  0  0
 71 84  1  0  0  0
 71 87  2  0  0  0
 71 89  1  0  0  0
 72 85  1  0  0  0
 72 88  2  0  0  0
 72 89  1  0  0  0
 73 82  1  0  0  0
 73150  1  0  0  0
 73151  1  0  0  0
 73152  1  0  0  0
 74153  1  0  0  0
 74154  1  0  0  0
 74155  1  0  0  0
 74 85  1  0  0  0
 75 85  1  0  0  0
 75156  1  0  0  0
 75157  1  0  0  0
 75158  1  0  0  0
 76159  1  0  0  0
 76160  1  0  0  0
 76161  1  0  0  0
 76 86  1  0  0  0
 77 86  1  0  0  0
 77162  1  0  0  0
 77163  1  0  0  0
 77164  1  0  0  0
 78 86  1  0  0  0
 78165  1  0  0  0
 78166  1  0  0  0
 78167  1  0  0  0
 79 80  1  0  0  0
 79 81  1  0  0  0
 79168  1  0  0  0
 79169  1  0  0  0
 80 83  1  0  0  0
 80170  1  0  0  0
 80171  1  0  0  0
 81 85  1  0  0  0
 81172  1  0  0  0
 81173  1  0  0  0
 82 89  1  0  0  0
 82174  1  0  0  0
 82175  1  0  0  0
 83176  1  0  0  0
 83177  1  0  0  0
 84 86  1  0  0  0
 84 90  1  0  0  0
 84178  1  0  0  0
 87 88  1  0  0  0
 90179  1  0  0  0
M  ISO  4   1 100  68 101  83 101  90 100
M  END
> <chiral flag>
0

> <version>
0

> <s_m_source_file>
/data/baiqing/PycharmProjects/Reinvent-master-3.2/result/LINK_invent/BTK/process_docking_weight1_custom_sum_contain_oxygen_bond_distance_aromatic_linkinvent_7_9_3/rearranged_h_0064.sdf

> <i_m_source_file_index>
13

> <r_mmod_Potential_Energy-OPLS-2005>
203.578964233398

> <r_mmod_Stretch_Energy-OPLS-2005>
80.8967590332031

> <r_mmod_Bend_Energy-OPLS-2005>
245.061065673828

> <r_mmod_Torsional_Energy-OPLS-2005>
286.596038818359

> <r_mmod_Improper_Torsional_Energy-OPLS-2005>
8.38810634613037

> <r_mmod_Van_der_Waal_Energy-OPLS-2005>
173.010314941406

> <r_mmod_Electrostatic_Energy-OPLS-2005>
-404.686401367188

> <r_mmod_Solvation_Energy-OPLS-2005>
-232.478500366211

> <b_mmod_Minimization_Converged-OPLS-2005>
0

> <r_mmod_RMS_Derivative-OPLS-2005>
20.0199890136719

$$$$
13
                    3D
 Structure written by MMmdl.
166174  0  0  1  0            999 V2000
  -30.7294  -14.4697   20.6296 C   0  0  0  0  0  0
  -30.4199  -12.3296   19.4171 C   0  0  0  0  0  0
  -29.4893  -12.5069   18.2023 C   0  0  0  0  0  0
  -28.0153  -12.3439   18.6185 C   0  0  0  0  0  0
  -27.6543  -13.1956   19.8623 C   0  0  2  0  0  0
  -28.6958  -13.0003   20.9870 C   0  0  0  0  0  0
  -25.2576  -13.8134   20.5645 C   0  0  0  0  0  0
  -24.1825  -13.0427   20.9181 C   0  0  0  0  0  0
  -24.6364  -11.6894   20.8728 C   0  0  0  0  0  0
  -23.9026  -10.4285   21.0395 C   0  0  0  0  0  0
  -24.3590   -9.4210   21.9178 C   0  0  0  0  0  0
  -23.6277   -8.2240   22.0755 C   0  0  0  0  0  0
  -22.4262   -8.0270   21.3542 C   0  0  0  0  0  0
  -21.9881   -9.0230   20.4638 C   0  0  0  0  0  0
  -22.7197  -10.2118   20.3046 C   0  0  0  0  0  0
  -21.6843   -6.0732   22.5285 C   0  0  0  0  0  0
  -21.4002   -6.5634   23.8218 C   0  0  0  0  0  0
  -21.3660   -5.6791   24.9183 C   0  0  0  0  0  0
  -21.6044   -4.3052   24.7233 C   0  0  0  0  0  0
  -21.8816   -3.8141   23.4356 C   0  0  0  0  0  0
  -21.9187   -4.6957   22.3407 C   0  0  0  0  0  0
  -22.7857  -13.5243   21.1837 C   0  0  0  0  0  0
  -22.1658   -4.2145   21.0988 F   0  0  0  0  0  0
  -21.5634   -3.4539   25.7746 F   0  0  0  0  0  0
  -30.0281  -13.3136   20.4406 N   0  0  0  0  0  0
  -26.2977  -12.9266   20.3283 N   0  0  0  0  0  0
  -25.9278  -11.6448   20.5725 N   0  0  0  0  0  0
  -22.0487  -12.8243   22.0397 N   0  0  0  0  0  0
  -25.4305  -15.1847   20.4013 N   0  0  0  0  0  0
  -31.8181  -14.6777   20.0837 O   0  0  0  0  0  0
  -21.6628   -6.8868   21.4243 O   0  0  0  0  0  0
  -22.3556  -14.5554   20.6690 O   0  0  0  0  0  0
  -24.6160  -31.8685   23.2122 C   0  0  0  0  0  0
  -25.9055  -32.4821   23.8407 C   0  0  1  0  0  0
  -27.2208  -27.4201   20.0855 C   0  0  0  0  0  0
  -25.5909  -33.8617   24.2345 N   0  0  0  0  0  0
  -23.4018  -30.4957   21.5551 C   0  0  2  0  0  0
  -24.8439  -28.9688   20.1110 C   0  0  0  0  0  0
  -22.7409  -29.4657   22.5000 C   0  0  0  0  0  0
  -18.0278  -28.1350   22.8491 C   0  0  0  0  0  0
  -24.1486  -36.7317   23.2637 C   0  0  0  0  0  0
  -25.9343  -30.8296   21.3679 C   0  0  0  0  0  0
  -26.0083  -29.4655   20.7100 C   0  0  0  0  0  0
  -27.1991  -28.6991   20.6947 C   0  0  0  0  0  0
  -26.0331  -26.9539   19.4689 C   0  0  0  0  0  0
  -24.8519  -27.7132   19.4882 C   0  0  0  0  0  0
  -23.6080  -29.8365   20.1668 C   0  0  0  0  0  0
  -25.4101  -36.3113   24.0339 C   0  0  1  0  0  0
  -20.5869  -28.3638   23.1310 C   0  0  2  0  0  0
  -20.6763  -26.9372   22.5411 C   0  0  0  0  0  0
  -19.5745  -26.6371   21.5201 C   0  0  0  0  0  0
  -18.1923  -26.7898   22.1609 C   0  0  0  0  0  0
  -19.1527  -28.8807   23.2900 C   0  0  0  0  0  0
  -18.9450  -30.1415   23.8906 C   0  0  0  0  0  0
  -17.6456  -30.6563   24.0548 C   0  0  0  0  0  0
  -25.9030  -34.9474   23.5139 C   0  0  0  0  0  0
  -16.5349  -29.9063   23.6318 C   0  0  0  0  0  0
  -16.7269  -28.6477   23.0349 C   0  0  0  0  0  0
  -26.4483  -31.6594   25.0727 C   0  0  0  0  0  0
  -25.3743  -31.3683   26.1466 C   0  0  0  0  0  0
  -27.0327  -30.3043   24.6097 C   0  0  0  0  0  0
  -27.6059  -32.4313   25.7490 C   0  0  0  0  0  0
  -27.5583  -37.1804   24.8459 C   0  0  0  0  0  0
  -21.4140  -29.3014   22.3723 N   0  0  0  0  0  0
  -26.4293  -37.3792   23.9409 N   0  0  0  0  0  0
  -24.6696  -31.0776   22.1036 N   0  0  0  0  0  0
  -23.4180  -28.8185   23.3025 O   0  0  0  0  0  0
  -28.3782  -26.6570   20.1147 O   0  0  0  0  0  0
  -26.5590  -34.8921   22.4698 O   0  0  0  0  0  0
  -23.5350  -32.1452   23.7511 O   0  0  0  0  0  0
  -29.9936  -20.4576   20.7873 C   0  0  0  0  0  0
  -29.6939  -19.8423   22.0236 C   0  0  0  0  0  0
  -30.0242  -19.5777   19.6651 C   0  0  0  0  0  0
  -29.5660  -17.7730   21.0343 C   0  0  0  0  0  0
  -30.9024  -20.7386   24.0780 C   0  0  0  0  0  0
  -31.0945  -15.7432   22.6570 C   0  0  0  0  0  0
  -30.2973  -21.9701   20.7054 C   0  0  0  0  0  0
  -29.5680  -20.6144   23.3306 C   0  0  0  0  0  0
  -29.1765  -16.2938   21.1570 C   0  0  0  0  0  0
  -29.1155  -22.8596   20.2542 C   0  0  0  0  0  0
  -29.3989  -24.3815   20.3753 C   0  0  0  0  0  0
  -28.2202  -25.2437   19.8798 C   0  0  0  0  0  0
  -30.2033  -20.0162   18.1964 C   0  0  0  0  0  0
  -29.4963  -18.5144   22.1296 N   0  0  0  0  0  0
  -29.8078  -18.2454   19.8231 N   0  0  0  0  0  0
  -30.2376  -15.3377   21.5400 N   0  0  0  0  0  0
  -30.6926  -21.2419   18.0211 F   0  0  0  0  0  0
  -31.0267  -19.1714   17.5699 F   0  0  0  0  0  0
  -29.0164  -19.9630   17.5877 F   0  0  0  0  0  0
  -31.4634  -12.4331   19.1125 H   0  0  0  0  0  0
  -30.3318  -11.3191   19.8214 H   0  0  0  0  0  0
  -29.7396  -11.7807   17.4273 H   0  0  0  0  0  0
  -29.6416  -13.4925   17.7590 H   0  0  0  0  0  0
  -27.8476  -11.2879   18.8363 H   0  0  0  0  0  0
  -27.3561  -12.5883   17.7847 H   0  0  0  0  0  0
  -27.6812  -14.2317   19.5338 H   0  0  0  0  0  0
  -28.6808  -11.9673   21.3373 H   0  0  0  0  0  0
  -28.4356  -13.6028   21.8575 H   0  0  0  0  0  0
  -25.2737   -9.5702   22.4746 H   0  0  0  0  0  0
  -23.9989   -7.4641   22.7486 H   0  0  0  0  0  0
  -21.0808   -8.8729   19.8950 H   0  0  0  0  0  0
  -22.3637  -10.9648   19.6150 H   0  0  0  0  0  0
  -21.1986   -7.6142   23.9720 H   0  0  0  0  0  0
  -21.1487   -6.0522   25.9087 H   0  0  0  0  0  0
  -22.0592   -2.7602   23.2857 H   0  0  0  0  0  0
  -22.4083  -11.9895   22.4785 H   0  0  0  0  0  0
  -21.1110  -13.1288   22.2606 H   0  0  0  0  0  0
  -24.6548  -15.8327   20.4857 H   0  0  0  0  0  0
  -26.2597  -15.6112   20.0098 H   0  0  0  0  0  0
  -26.7113  -32.5536   23.1162 H   0  0  0  0  0  0
  -25.0038  -33.9772   25.0473 H   0  0  0  0  0  0
  -22.6909  -31.3138   21.4211 H   0  0  0  0  0  0
  -23.3744  -35.9652   23.3299 H   0  0  0  0  0  0
  -24.3585  -36.8943   22.2054 H   0  0  0  0  0  0
  -23.7243  -37.6518   23.6654 H   0  0  0  0  0  0
  -26.0493  -31.5969   20.6020 H   0  0  0  0  0  0
  -26.8214  -30.8797   21.9879 H   0  0  0  0  0  0
  -28.0967  -29.0751   21.1661 H   0  0  0  0  0  0
  -25.9881  -26.0004   18.9634 H   0  0  0  0  0  0
  -23.9569  -27.3300   19.0178 H   0  0  0  0  0  0
  -23.7124  -30.6156   19.4111 H   0  0  0  0  0  0
  -22.7296  -29.2585   19.8725 H   0  0  0  0  0  0
  -25.1276  -36.1981   25.0831 H   0  0  0  0  0  0
  -20.9958  -28.3208   24.1434 H   0  0  0  0  0  0
  -20.5668  -26.2241   23.3596 H   0  0  0  0  0  0
  -21.6638  -26.7418   22.1208 H   0  0  0  0  0  0
  -19.6911  -25.6293   21.1214 H   0  0  0  0  0  0
  -19.6694  -27.3189   20.6738 H   0  0  0  0  0  0
  -17.4198  -26.6657   21.4005 H   0  0  0  0  0  0
  -18.0318  -26.0025   22.8986 H   0  0  0  0  0  0
  -19.7928  -30.7214   24.2300 H   0  0  0  0  0  0
  -17.5015  -31.6250   24.5131 H   0  0  0  0  0  0
  -15.5346  -30.2962   23.7635 H   0  0  0  0  0  0
  -15.8672  -28.0796   22.7063 H   0  0  0  0  0  0
  -24.5917  -30.7039   25.7786 H   0  0  0  0  0  0
  -24.8919  -32.2826   26.4925 H   0  0  0  0  0  0
  -25.8082  -30.8833   27.0219 H   0  0  0  0  0  0
  -26.2875  -29.6780   24.1169 H   0  0  0  0  0  0
  -27.4140  -29.7290   25.4544 H   0  0  0  0  0  0
  -27.8692  -30.4376   23.9228 H   0  0  0  0  0  0
  -27.2692  -33.3613   26.2074 H   0  0  0  0  0  0
  -28.3858  -32.6872   25.0309 H   0  0  0  0  0  0
  -28.0731  -31.8429   26.5395 H   0  0  0  0  0  0
  -28.2583  -38.0119   24.7531 H   0  0  0  0  0  0
  -28.1106  -36.2652   24.6261 H   0  0  0  0  0  0
  -27.2305  -37.1430   25.8862 H   0  0  0  0  0  0
  -20.9291  -29.8765   21.6976 H   0  0  0  0  0  0
  -26.0190  -38.2871   24.1414 H   0  0  0  0  0  0
  -30.7782  -21.3152   24.9949 H   0  0  0  0  0  0
  -31.6555  -21.2401   23.4719 H   0  0  0  0  0  0
  -31.2913  -19.7573   24.3478 H   0  0  0  0  0  0
  -30.5102  -16.2230   23.4426 H   0  0  0  0  0  0
  -31.8621  -16.4436   22.3254 H   0  0  0  0  0  0
  -31.5929  -14.8807   23.1025 H   0  0  0  0  0  0
  -31.1677  -22.1460   20.0761 H   0  0  0  0  0  0
  -30.6377  -22.3282   21.6758 H   0  0  0  0  0  0
  -28.8499  -20.1034   23.9730 H   0  0  0  0  0  0
  -29.1313  -21.5965   23.1499 H   0  0  0  0  0  0
  -28.7402  -16.0082   20.2009 H   0  0  0  0  0  0
  -28.3630  -16.2038   21.8775 H   0  0  0  0  0  0
  -28.2399  -22.6228   20.8599 H   0  0  0  0  0  0
  -28.8409  -22.6231   19.2261 H   0  0  0  0  0  0
  -30.2957  -24.6407   19.8122 H   0  0  0  0  0  0
  -29.6048  -24.6276   21.4175 H   0  0  0  0  0  0
  -27.3258  -24.8807   20.3898 H   0  0  0  0  0  0
  -28.0805  -25.0734   18.8116 H   0  0  0  0  0  0
  1 25  1  0  0  0
  1 30  2  0  0  0
  1 86  1  0  0  0
  2  3  1  0  0  0
  2 25  1  0  0  0
  2 90  1  0  0  0
  2 91  1  0  0  0
  3  4  1  0  0  0
  3 92  1  0  0  0
  3 93  1  0  0  0
  4  5  1  0  0  0
  4 94  1  0  0  0
  4 95  1  0  0  0
  5  6  1  0  0  0
  5 26  1  0  0  0
  5 96  1  0  0  0
  6 25  1  0  0  0
  6 97  1  0  0  0
  6 98  1  0  0  0
  7  8  2  0  0  0
  7 26  1  0  0  0
  7 29  1  0  0  0
  8  9  1  0  0  0
  8 22  1  0  0  0
  9 10  1  0  0  0
  9 27  2  0  0  0
 10 11  2  0  0  0
 10 15  1  0  0  0
 11 12  1  0  0  0
 11 99  1  0  0  0
 12 13  2  0  0  0
 12100  1  0  0  0
 13 14  1  0  0  0
 13 31  1  0  0  0
 14 15  2  0  0  0
 14101  1  0  0  0
 15102  1  0  0  0
 16 17  2  0  0  0
 16 21  1  0  0  0
 16 31  1  0  0  0
 17 18  1  0  0  0
 17103  1  0  0  0
 18 19  2  0  0  0
 18104  1  0  0  0
 19 20  1  0  0  0
 19 24  1  0  0  0
 20 21  2  0  0  0
 20105  1  0  0  0
 21 23  1  0  0  0
 22 28  1  0  0  0
 22 32  2  0  0  0
 26 27  1  0  0  0
 28106  1  0  0  0
 28107  1  0  0  0
 29108  1  0  0  0
 29109  1  0  0  0
 33 34  1  0  0  0
 33 66  1  0  0  0
 33 70  2  0  0  0
 34 36  1  0  0  0
 34 59  1  0  0  0
 34110  1  0  0  0
 35 44  2  0  0  0
 35 45  1  0  0  0
 35 68  1  0  0  0
 36 56  1  0  0  0
 36111  1  0  0  0
 37 39  1  0  0  0
 37 47  1  0  0  0
 37 66  1  0  0  0
 37112  1  0  0  0
 38 43  2  0  0  0
 38 46  1  0  0  0
 38 47  1  0  0  0
 39 64  1  0  0  0
 39 67  2  0  0  0
 40 52  1  0  0  0
 40 53  2  0  0  0
 40 58  1  0  0  0
 41113  1  0  0  0
 41114  1  0  0  0
 41115  1  0  0  0
 41 48  1  0  0  0
 42 43  1  0  0  0
 42 66  1  0  0  0
 42116  1  0  0  0
 42117  1  0  0  0
 43 44  1  0  0  0
 44118  1  0  0  0
 45 46  2  0  0  0
 45119  1  0  0  0
 46120  1  0  0  0
 47121  1  0  0  0
 47122  1  0  0  0
 48 56  1  0  0  0
 48 65  1  0  0  0
 48123  1  0  0  0
 49 50  1  0  0  0
 49 53  1  0  0  0
 49 64  1  0  0  0
 49124  1  0  0  0
 50 51  1  0  0  0
 50125  1  0  0  0
 50126  1  0  0  0
 51 52  1  0  0  0
 51127  1  0  0  0
 51128  1  0  0  0
 52129  1  0  0  0
 52130  1  0  0  0
 53 54  1  0  0  0
 54 55  2  0  0  0
 54131  1  0  0  0
 55 57  1  0  0  0
 55132  1  0  0  0
 56 69  2  0  0  0
 57 58  2  0  0  0
 57133  1  0  0  0
 58134  1  0  0  0
 59 60  1  0  0  0
 59 61  1  0  0  0
 59 62  1  0  0  0
 60135  1  0  0  0
 60136  1  0  0  0
 60137  1  0  0  0
 61138  1  0  0  0
 61139  1  0  0  0
 61140  1  0  0  0
 62141  1  0  0  0
 62142  1  0  0  0
 62143  1  0  0  0
 63 65  1  0  0  0
 63144  1  0  0  0
 63145  1  0  0  0
 63146  1  0  0  0
 64147  1  0  0  0
 65148  1  0  0  0
 68 82  1  0  0  0
 71 72  2  0  0  0
 71 73  1  0  0  0
 71 77  1  0  0  0
 72 78  1  0  0  0
 72 84  1  0  0  0
 73 83  1  0  0  0
 73 85  2  0  0  0
 74 79  1  0  0  0
 74 84  2  0  0  0
 74 85  1  0  0  0
 75 78  1  0  0  0
 75149  1  0  0  0
 75150  1  0  0  0
 75151  1  0  0  0
 76 86  1  0  0  0
 76152  1  0  0  0
 76153  1  0  0  0
 76154  1  0  0  0
 77 80  1  0  0  0
 77155  1  0  0  0
 77156  1  0  0  0
 78157  1  0  0  0
 78158  1  0  0  0
 79 86  1  0  0  0
 79159  1  0  0  0
 79160  1  0  0  0
 80 81  1  0  0  0
 80161  1  0  0  0
 80162  1  0  0  0
 81 82  1  0  0  0
 81163  1  0  0  0
 81164  1  0  0  0
 82165  1  0  0  0
 82166  1  0  0  0
 83 87  1  0  0  0
 83 88  1  0  0  0
 83 89  1  0  0  0
M  ISO  4   1 100  68 101  82 101  86 100
M  END
> <chiral flag>
0

> <version>
0

> <s_m_source_file>
/data/baiqing/PycharmProjects/Reinvent-master-3.2/result/LINK_invent/BTK/process_docking_weight1_custom_sum_contain_oxygen_bond_distance_aromatic_linkinvent_7_9_3/rearranged_h_0064.sdf

> <i_m_source_file_index>
14

> <r_mmod_Potential_Energy-OPLS-2005>
-318.700714111328

> <r_mmod_Stretch_Energy-OPLS-2005>
42.2337417602539

> <r_mmod_Bend_Energy-OPLS-2005>
107.164543151855

> <r_mmod_Torsional_Energy-OPLS-2005>
256.612945556641

> <r_mmod_Improper_Torsional_Energy-OPLS-2005>
5.27772521972656

> <r_mmod_Van_der_Waal_Energy-OPLS-2005>
165.858825683594

> <r_mmod_Electrostatic_Energy-OPLS-2005>
-708.173767089844

> <r_mmod_Solvation_Energy-OPLS-2005>
-202.007308959961

> <b_mmod_Minimization_Converged-OPLS-2005>
0

> <r_mmod_RMS_Derivative-OPLS-2005>
1.65947282314301

$$$$
14
                    3D
 Structure written by MMmdl.
164172  0  0  1  0            999 V2000
  -30.4017  -15.2063   20.4892 C   0  0  0  0  0  0
  -30.4812  -12.7947   19.4943 C   0  0  0  0  0  0
  -29.5384  -12.6185   18.2693 C   0  0  0  0  0  0
  -28.0893  -12.3128   18.7001 C   0  0  0  0  0  0
  -27.6324  -13.2385   19.8506 C   0  0  2  0  0  0
  -28.7035  -13.2328   20.9735 C   0  0  0  0  0  0
  -25.2254  -13.8027   20.5401 C   0  0  0  0  0  0
  -24.1640  -13.0274   20.9153 C   0  0  0  0  0  0
  -24.6395  -11.6811   20.8851 C   0  0  0  0  0  0
  -23.9078  -10.4204   21.0486 C   0  0  0  0  0  0
  -24.3619   -9.4117   21.9240 C   0  0  0  0  0  0
  -23.6264   -8.2172   22.0780 C   0  0  0  0  0  0
  -22.4252   -8.0244   21.3562 C   0  0  0  0  0  0
  -21.9923   -9.0220   20.4653 C   0  0  0  0  0  0
  -22.7279  -10.2069   20.3083 C   0  0  0  0  0  0
  -21.6809   -6.0715   22.5271 C   0  0  0  0  0  0
  -21.3998   -6.5638   23.8200 C   0  0  0  0  0  0
  -21.3662   -5.6792   24.9173 C   0  0  0  0  0  0
  -21.6054   -4.3058   24.7220 C   0  0  0  0  0  0
  -21.8827   -3.8144   23.4354 C   0  0  0  0  0  0
  -21.9184   -4.6960   22.3398 C   0  0  0  0  0  0
  -22.7659  -13.5085   21.1785 C   0  0  0  0  0  0
  -22.1657   -4.2158   21.0975 F   0  0  0  0  0  0
  -21.5631   -3.4536   25.7742 F   0  0  0  0  0  0
  -29.9197  -13.8577   20.4037 N   0  0  0  0  0  0
  -26.2882  -12.9341   20.3327 N   0  0  0  0  0  0
  -25.9375  -11.6495   20.5962 N   0  0  0  0  0  0
  -22.0318  -12.8065   22.0379 N   0  0  0  0  0  0
  -25.3443  -15.1667   20.3267 N   0  0  0  0  0  0
  -31.5852  -15.2869   20.1254 O   0  0  0  0  0  0
  -21.6602   -6.8869   21.4233 O   0  0  0  0  0  0
  -22.3317  -14.5403   20.6695 O   0  0  0  0  0  0
  -24.6557  -31.8333   23.1759 C   0  0  0  0  0  0
  -25.9266  -32.4654   23.8184 C   0  0  1  0  0  0
  -27.2288  -27.0178   20.2151 C   0  0  0  0  0  0
  -25.5984  -33.8465   24.2125 N   0  0  0  0  0  0
  -23.4699  -30.4423   21.5248 C   0  0  2  0  0  0
  -24.9220  -28.8376   20.1217 C   0  0  0  0  0  0
  -22.7626  -29.4497   22.4832 C   0  0  0  0  0  0
  -18.0302  -28.1407   22.8455 C   0  0  0  0  0  0
  -24.1494  -36.7217   23.2640 C   0  0  0  0  0  0
  -26.0286  -30.6724   21.3861 C   0  0  0  0  0  0
  -26.1011  -29.2677   20.7395 C   0  0  0  0  0  0
  -27.2579  -28.3810   20.7527 C   0  0  0  0  0  0
  -26.0207  -26.7069   19.5535 C   0  0  0  0  0  0
  -24.9007  -27.5728   19.5070 C   0  0  0  0  0  0
  -23.7023  -29.7534   20.1517 C   0  0  0  0  0  0
  -25.4129  -36.2985   24.0308 C   0  0  1  0  0  0
  -20.5923  -28.3754   23.1179 C   0  0  2  0  0  0
  -20.6773  -26.9443   22.5406 C   0  0  0  0  0  0
  -19.5762  -26.6375   21.5217 C   0  0  0  0  0  0
  -18.1928  -26.7947   22.1608 C   0  0  0  0  0  0
  -19.1570  -28.8902   23.2798 C   0  0  0  0  0  0
  -18.9493  -30.1480   23.8850 C   0  0  0  0  0  0
  -17.6491  -30.6593   24.0552 C   0  0  0  0  0  0
  -25.9109  -34.9379   23.5036 C   0  0  0  0  0  0
  -16.5365  -29.9080   23.6345 C   0  0  0  0  0  0
  -16.7295  -28.6515   23.0358 C   0  0  0  0  0  0
  -26.4542  -31.6535   25.0670 C   0  0  0  0  0  0
  -25.3702  -31.3736   26.1351 C   0  0  0  0  0  0
  -27.0432  -30.2926   24.6305 C   0  0  0  0  0  0
  -27.6066  -32.4325   25.7434 C   0  0  0  0  0  0
  -27.5585  -37.1734   24.8461 C   0  0  0  0  0  0
  -21.4305  -29.3062   22.3566 N   0  0  0  0  0  0
  -26.4281  -37.3722   23.9423 N   0  0  0  0  0  0
  -24.7389  -31.0083   22.0845 N   0  0  0  0  0  0
  -23.4166  -28.8062   23.3067 O   0  0  0  0  0  0
  -28.2900  -26.0041   20.2329 O   0  0  0  0  0  0
  -26.5709  -34.8900   22.4622 O   0  0  0  0  0  0
  -23.5649  -32.1279   23.6902 O   0  0  0  0  0  0
  -28.3726  -20.5063   21.2163 C   0  0  0  0  0  0
  -29.0702  -21.3842   20.3270 C   0  0  0  0  0  0
  -30.0872  -20.5263   19.7197 C   0  0  0  0  0  0
  -29.5492  -18.3706   20.7452 C   0  0  0  0  0  0
  -32.3026  -21.6093   19.8222 C   0  0  0  0  0  0
  -27.8482  -21.8138   17.6531 C   0  0  0  0  0  0
  -28.0712  -16.4061   20.7566 C   0  0  0  0  0  0
  -29.9042  -16.6140   22.5672 C   0  0  0  0  0  0
  -31.1816  -21.1538   18.8824 C   0  0  0  0  0  0
  -27.5765  -22.8513   18.7607 C   0  0  0  0  0  0
  -28.2070  -24.4585   20.6916 C   0  0  0  0  0  0
  -28.6651  -22.9945   19.8539 C   0  0  1  0  0  0
  -29.5604  -16.6568   21.0569 C   0  0  0  0  0  0
  -28.6346  -19.1418   21.4213 N   0  0  0  0  0  0
  -30.2902  -19.1343   19.8978 N   0  0  0  0  0  0
  -31.4840  -13.0411   19.1452 H   0  0  0  0  0  0
  -30.6064  -11.8541   20.0315 H   0  0  0  0  0  0
  -29.9071  -11.8337   17.6076 H   0  0  0  0  0  0
  -29.5455  -13.5373   17.6790 H   0  0  0  0  0  0
  -28.0634  -11.2797   19.0534 H   0  0  0  0  0  0
  -27.4111  -12.3830   17.8464 H   0  0  0  0  0  0
  -27.5890  -14.2262   19.3942 H   0  0  0  0  0  0
  -28.8716  -12.1958   21.2759 H   0  0  0  0  0  0
  -28.4029  -13.7207   21.8975 H   0  0  0  0  0  0
  -25.2784   -9.5542   22.4789 H   0  0  0  0  0  0
  -23.9953   -7.4540   22.7495 H   0  0  0  0  0  0
  -21.0869   -8.8742   19.8934 H   0  0  0  0  0  0
  -22.3810  -10.9583   19.6134 H   0  0  0  0  0  0
  -21.1991   -7.6147   23.9681 H   0  0  0  0  0  0
  -21.1471   -6.0543   25.9057 H   0  0  0  0  0  0
  -22.0614   -2.7613   23.2838 H   0  0  0  0  0  0
  -22.4013  -11.9837   22.4907 H   0  0  0  0  0  0
  -21.0893  -13.1018   22.2576 H   0  0  0  0  0  0
  -24.5535  -15.7962   20.3796 H   0  0  0  0  0  0
  -26.1781  -15.6092   19.9668 H   0  0  0  0  0  0
  -26.7316  -32.5182   23.0875 H   0  0  0  0  0  0
  -25.0112  -33.9564   25.0266 H   0  0  0  0  0  0
  -22.7827  -31.2718   21.3521 H   0  0  0  0  0  0
  -23.3783  -35.9517   23.3268 H   0  0  0  0  0  0
  -24.3584  -36.8929   22.2065 H   0  0  0  0  0  0
  -23.7241  -37.6393   23.6740 H   0  0  0  0  0  0
  -26.1962  -31.4128   20.6013 H   0  0  0  0  0  0
  -26.8923  -30.7254   22.0368 H   0  0  0  0  0  0
  -28.1637  -28.7184   21.2355 H   0  0  0  0  0  0
  -25.9255  -25.7354   19.0845 H   0  0  0  0  0  0
  -23.9999  -27.2327   19.0129 H   0  0  0  0  0  0
  -23.8557  -30.5201   19.3911 H   0  0  0  0  0  0
  -22.8127  -29.2029   19.8435 H   0  0  0  0  0  0
  -25.1290  -36.1792   25.0801 H   0  0  0  0  0  0
  -21.0014  -28.3371   24.1301 H   0  0  0  0  0  0
  -20.5708  -26.2357   23.3635 H   0  0  0  0  0  0
  -21.6619  -26.7455   22.1196 H   0  0  0  0  0  0
  -19.6964  -25.6291   21.1258 H   0  0  0  0  0  0
  -19.6719  -27.3163   20.6730 H   0  0  0  0  0  0
  -17.4221  -26.6713   21.3981 H   0  0  0  0  0  0
  -18.0302  -26.0093   22.9007 H   0  0  0  0  0  0
  -19.7977  -30.7279   24.2231 H   0  0  0  0  0  0
  -17.5049  -31.6283   24.5128 H   0  0  0  0  0  0
  -15.5371  -30.2940   23.7739 H   0  0  0  0  0  0
  -15.8689  -28.0805   22.7093 H   0  0  0  0  0  0
  -24.5935  -30.7039   25.7643 H   0  0  0  0  0  0
  -24.8810  -32.2898   26.4668 H   0  0  0  0  0  0
  -25.7942  -30.8994   27.0213 H   0  0  0  0  0  0
  -26.3075  -29.6584   24.1364 H   0  0  0  0  0  0
  -27.4072  -29.7289   25.4899 H   0  0  0  0  0  0
  -27.8938  -30.4130   23.9603 H   0  0  0  0  0  0
  -27.2721  -33.3718   26.1841 H   0  0  0  0  0  0
  -28.3926  -32.6763   25.0276 H   0  0  0  0  0  0
  -28.0666  -31.8575   26.5492 H   0  0  0  0  0  0
  -28.2514  -38.0106   24.7561 H   0  0  0  0  0  0
  -28.1157  -36.2637   24.6182 H   0  0  0  0  0  0
  -27.2310  -37.1225   25.8860 H   0  0  0  0  0  0
  -20.9607  -29.8735   21.6658 H   0  0  0  0  0  0
  -26.0136  -38.2772   24.1489 H   0  0  0  0  0  0
  -27.5192  -20.8909   21.7531 H   0  0  0  0  0  0
  -33.2085  -21.8893   19.2894 H   0  0  0  0  0  0
  -32.5538  -20.8010   20.5097 H   0  0  0  0  0  0
  -31.9776  -22.4632   20.4194 H   0  0  0  0  0  0
  -27.0758  -21.8698   16.8830 H   0  0  0  0  0  0
  -27.8243  -20.7932   18.0388 H   0  0  0  0  0  0
  -28.8109  -21.9820   17.1678 H   0  0  0  0  0  0
  -27.9059  -16.4836   19.6806 H   0  0  0  0  0  0
  -27.3810  -17.1021   21.2312 H   0  0  0  0  0  0
  -27.7062  -15.4740   21.1291 H   0  0  0  0  0  0
  -29.1913  -17.1646   23.1830 H   0  0  0  0  0  0
  -30.8778  -17.0835   22.7105 H   0  0  0  0  0  0
  -29.9744  -15.6076   22.9829 H   0  0  0  0  0  0
  -30.8156  -21.9811   18.2802 H   0  0  0  0  0  0
  -31.5605  -20.4244   18.1663 H   0  0  0  0  0  0
  -26.6387  -22.5788   19.2473 H   0  0  0  0  0  0
  -27.3879  -23.8196   18.2947 H   0  0  0  0  0  0
  -28.8252  -24.4588   21.5928 H   0  0  0  0  0  0
  -27.2043  -24.2997   21.0910 H   0  0  0  0  0  0
  -29.5695  -23.3393   19.3599 H   0  0  0  0  0  0
  1 25  1  0  0  0
  1 30  2  0  0  0
  1 83  1  0  0  0
  2  3  1  0  0  0
  2 25  1  0  0  0
  2 86  1  0  0  0
  2 87  1  0  0  0
  3  4  1  0  0  0
  3 88  1  0  0  0
  3 89  1  0  0  0
  4  5  1  0  0  0
  4 90  1  0  0  0
  4 91  1  0  0  0
  5  6  1  0  0  0
  5 26  1  0  0  0
  5 92  1  0  0  0
  6 25  1  0  0  0
  6 93  1  0  0  0
  6 94  1  0  0  0
  7  8  2  0  0  0
  7 26  1  0  0  0
  7 29  1  0  0  0
  8  9  1  0  0  0
  8 22  1  0  0  0
  9 10  1  0  0  0
  9 27  2  0  0  0
 10 11  2  0  0  0
 10 15  1  0  0  0
 11 12  1  0  0  0
 11 95  1  0  0  0
 12 13  2  0  0  0
 12 96  1  0  0  0
 13 14  1  0  0  0
 13 31  1  0  0  0
 14 15  2  0  0  0
 14 97  1  0  0  0
 15 98  1  0  0  0
 16 17  2  0  0  0
 16 21  1  0  0  0
 16 31  1  0  0  0
 17 18  1  0  0  0
 17 99  1  0  0  0
 18 19  2  0  0  0
 18100  1  0  0  0
 19 20  1  0  0  0
 19 24  1  0  0  0
 20 21  2  0  0  0
 20101  1  0  0  0
 21 23  1  0  0  0
 22 28  1  0  0  0
 22 32  2  0  0  0
 26 27  1  0  0  0
 28102  1  0  0  0
 28103  1  0  0  0
 29104  1  0  0  0
 29105  1  0  0  0
 33 34  1  0  0  0
 33 66  1  0  0  0
 33 70  2  0  0  0
 34 36  1  0  0  0
 34 59  1  0  0  0
 34106  1  0  0  0
 35 44  2  0  0  0
 35 45  1  0  0  0
 35 68  1  0  0  0
 36 56  1  0  0  0
 36107  1  0  0  0
 37 39  1  0  0  0
 37 47  1  0  0  0
 37 66  1  0  0  0
 37108  1  0  0  0
 38 43  2  0  0  0
 38 46  1  0  0  0
 38 47  1  0  0  0
 39 64  1  0  0  0
 39 67  2  0  0  0
 40 52  1  0  0  0
 40 53  2  0  0  0
 40 58  1  0  0  0
 41109  1  0  0  0
 41110  1  0  0  0
 41111  1  0  0  0
 41 48  1  0  0  0
 42 43  1  0  0  0
 42 66  1  0  0  0
 42112  1  0  0  0
 42113  1  0  0  0
 43 44  1  0  0  0
 44114  1  0  0  0
 45 46  2  0  0  0
 45115  1  0  0  0
 46116  1  0  0  0
 47117  1  0  0  0
 47118  1  0  0  0
 48 56  1  0  0  0
 48 65  1  0  0  0
 48119  1  0  0  0
 49 50  1  0  0  0
 49 53  1  0  0  0
 49 64  1  0  0  0
 49120  1  0  0  0
 50 51  1  0  0  0
 50121  1  0  0  0
 50122  1  0  0  0
 51 52  1  0  0  0
 51123  1  0  0  0
 51124  1  0  0  0
 52125  1  0  0  0
 52126  1  0  0  0
 53 54  1  0  0  0
 54 55  2  0  0  0
 54127  1  0  0  0
 55 57  1  0  0  0
 55128  1  0  0  0
 56 69  2  0  0  0
 57 58  2  0  0  0
 57129  1  0  0  0
 58130  1  0  0  0
 59 60  1  0  0  0
 59 61  1  0  0  0
 59 62  1  0  0  0
 60131  1  0  0  0
 60132  1  0  0  0
 60133  1  0  0  0
 61134  1  0  0  0
 61135  1  0  0  0
 61136  1  0  0  0
 62137  1  0  0  0
 62138  1  0  0  0
 62139  1  0  0  0
 63 65  1  0  0  0
 63140  1  0  0  0
 63141  1  0  0  0
 63142  1  0  0  0
 64143  1  0  0  0
 65144  1  0  0  0
 68 81  1  0  0  0
 71 72  2  0  0  0
 71 84  1  0  0  0
 71145  1  0  0  0
 72 73  1  0  0  0
 72 82  1  0  0  0
 73 79  1  0  0  0
 73 85  2  0  0  0
 74 83  1  0  0  0
 74 84  2  0  0  0
 74 85  1  0  0  0
 75 79  1  0  0  0
 75146  1  0  0  0
 75147  1  0  0  0
 75148  1  0  0  0
 76 80  1  0  0  0
 76149  1  0  0  0
 76150  1  0  0  0
 76151  1  0  0  0
 77152  1  0  0  0
 77153  1  0  0  0
 77154  1  0  0  0
 77 83  1  0  0  0
 78 83  1  0  0  0
 78155  1  0  0  0
 78156  1  0  0  0
 78157  1  0  0  0
 79158  1  0  0  0
 79159  1  0  0  0
 80160  1  0  0  0
 80161  1  0  0  0
 80 82  1  0  0  0
 81 82  1  0  0  0
 81162  1  0  0  0
 81163  1  0  0  0
 82164  1  0  0  0
M  ISO  4   1 100  68 101  81 101  83 100
M  END
> <chiral flag>
0

> <version>
0

> <s_m_source_file>
/data/baiqing/PycharmProjects/Reinvent-master-3.2/result/LINK_invent/BTK/process_docking_weight1_custom_sum_contain_oxygen_bond_distance_aromatic_linkinvent_7_9_3/rearranged_h_0064.sdf

> <i_m_source_file_index>
15

> <r_mmod_Potential_Energy-OPLS-2005>
809.889343261719

> <r_mmod_Stretch_Energy-OPLS-2005>
461.195098876953

> <r_mmod_Bend_Energy-OPLS-2005>
496.747283935547

> <r_mmod_Torsional_Energy-OPLS-2005>
203.621734619141

> <r_mmod_Improper_Torsional_Energy-OPLS-2005>
3.83848404884338

> <r_mmod_Van_der_Waal_Energy-OPLS-2005>
164.550811767578

> <r_mmod_Electrostatic_Energy-OPLS-2005>
-670.101440429688

> <r_mmod_Solvation_Energy-OPLS-2005>
-204.849472045898

> <b_mmod_Minimization_Converged-OPLS-2005>
0

> <r_mmod_RMS_Derivative-OPLS-2005>
7.89503622055054

$$$$
15
                    3D
 Structure written by MMmdl.
166174  0  0  1  0            999 V2000
  -30.6978  -14.5016   20.4508 C   0  0  0  0  0  0
  -30.4160  -12.2941   19.4347 C   0  0  0  0  0  0
  -29.4914  -12.4864   18.2145 C   0  0  0  0  0  0
  -28.0129  -12.3418   18.6292 C   0  0  0  0  0  0
  -27.6490  -13.2066   19.8650 C   0  0  2  0  0  0
  -28.7024  -13.0537   20.9887 C   0  0  0  0  0  0
  -25.2530  -13.8115   20.5774 C   0  0  0  0  0  0
  -24.1804  -13.0378   20.9240 C   0  0  0  0  0  0
  -24.6366  -11.6881   20.8757 C   0  0  0  0  0  0
  -23.9034  -10.4271   21.0408 C   0  0  0  0  0  0
  -24.3592   -9.4194   21.9185 C   0  0  0  0  0  0
  -23.6281   -8.2219   22.0744 C   0  0  0  0  0  0
  -22.4255   -8.0264   21.3541 C   0  0  0  0  0  0
  -21.9903   -9.0224   20.4631 C   0  0  0  0  0  0
  -22.7209  -10.2115   20.3057 C   0  0  0  0  0  0
  -21.6841   -6.0742   22.5288 C   0  0  0  0  0  0
  -21.3993   -6.5647   23.8225 C   0  0  0  0  0  0
  -21.3660   -5.6800   24.9175 C   0  0  0  0  0  0
  -21.6051   -4.3058   24.7206 C   0  0  0  0  0  0
  -21.8806   -3.8159   23.4316 C   0  0  0  0  0  0
  -21.9185   -4.6984   22.3389 C   0  0  0  0  0  0
  -22.7837  -13.5197   21.1879 C   0  0  0  0  0  0
  -22.1666   -4.2181   21.0966 F   0  0  0  0  0  0
  -21.5640   -3.4544   25.7709 F   0  0  0  0  0  0
  -30.0344  -13.3168   20.4184 N   0  0  0  0  0  0
  -26.2970  -12.9304   20.3386 N   0  0  0  0  0  0
  -25.9299  -11.6472   20.5815 N   0  0  0  0  0  0
  -22.0488  -12.8195   22.0428 N   0  0  0  0  0  0
  -25.4070  -15.1862   20.4300 N   0  0  0  0  0  0
  -31.8920  -14.6101   20.1952 O   0  0  0  0  0  0
  -21.6619   -6.8876   21.4243 O   0  0  0  0  0  0
  -22.3552  -14.5518   20.6737 O   0  0  0  0  0  0
  -24.6113  -31.8666   23.2088 C   0  0  0  0  0  0
  -25.9004  -32.4822   23.8390 C   0  0  1  0  0  0
  -27.2533  -27.4503   20.1083 C   0  0  0  0  0  0
  -25.5874  -33.8615   24.2321 N   0  0  0  0  0  0
  -23.4014  -30.4855   21.5454 C   0  0  2  0  0  0
  -24.8563  -28.9476   20.1206 C   0  0  0  0  0  0
  -22.7400  -29.4635   22.4963 C   0  0  0  0  0  0
  -18.0279  -28.1357   22.8457 C   0  0  0  0  0  0
  -24.1485  -36.7337   23.2633 C   0  0  0  0  0  0
  -25.9275  -30.8383   21.3607 C   0  0  0  0  0  0
  -26.0129  -29.4707   20.7141 C   0  0  0  0  0  0
  -27.2164  -28.7292   20.7039 C   0  0  0  0  0  0
  -26.0849  -26.9344   19.5113 C   0  0  0  0  0  0
  -24.8851  -27.6762   19.5187 C   0  0  0  0  0  0
  -23.6148  -29.8103   20.1629 C   0  0  0  0  0  0
  -25.4106  -36.3120   24.0326 C   0  0  1  0  0  0
  -20.5863  -28.3649   23.1297 C   0  0  2  0  0  0
  -20.6763  -26.9376   22.5400 C   0  0  0  0  0  0
  -19.5756  -26.6369   21.5176 C   0  0  0  0  0  0
  -18.1931  -26.7899   22.1580 C   0  0  0  0  0  0
  -19.1523  -28.8810   23.2874 C   0  0  0  0  0  0
  -18.9450  -30.1423   23.8881 C   0  0  0  0  0  0
  -17.6459  -30.6560   24.0547 C   0  0  0  0  0  0
  -25.9022  -34.9474   23.5119 C   0  0  0  0  0  0
  -16.5355  -29.9066   23.6313 C   0  0  0  0  0  0
  -16.7275  -28.6489   23.0311 C   0  0  0  0  0  0
  -26.4460  -31.6601   25.0708 C   0  0  0  0  0  0
  -25.3719  -31.3696   26.1450 C   0  0  0  0  0  0
  -27.0329  -30.3053   24.6092 C   0  0  0  0  0  0
  -27.6041  -32.4326   25.7469 C   0  0  0  0  0  0
  -27.5579  -37.1810   24.8450 C   0  0  0  0  0  0
  -21.4132  -29.3015   22.3701 N   0  0  0  0  0  0
  -26.4296  -37.3797   23.9397 N   0  0  0  0  0  0
  -24.6638  -31.0779   22.0985 N   0  0  0  0  0  0
  -23.4176  -28.8173   23.3000 O   0  0  0  0  0  0
  -28.4298  -26.7385   20.0629 O   0  0  0  0  0  0
  -26.5599  -34.8913   22.4681 O   0  0  0  0  0  0
  -23.5302  -32.1429   23.7481 O   0  0  0  0  0  0
  -30.9123  -19.2255   20.4504 C   0  0  0  0  0  0
  -30.8965  -20.0190   21.5708 C   0  0  0  0  0  0
  -29.9002  -18.0707   22.0438 C   0  0  0  0  0  0
  -29.1518  -17.0716   22.8770 C   0  0  0  0  0  0
  -31.4376  -21.4003   21.8378 C   0  0  0  0  0  0
  -30.9829  -22.4804   20.8240 C   0  0  0  0  0  0
  -29.8581  -23.4141   21.3340 C   0  0  0  0  0  0
  -29.6371  -24.6520   20.4324 C   0  0  0  0  0  0
  -28.4652  -25.5595   20.8726 C   0  0  0  0  0  0
  -30.0315  -16.8911   19.7730 C   0  0  0  0  0  0
  -31.1033  -16.8720   18.6174 C   0  0  0  0  0  0
  -28.6401  -17.1554   19.1227 C   0  0  0  0  0  0
  -30.3139  -18.0104   20.7549 N   0  0  0  0  0  0
  -30.2846  -19.2601   22.5296 N   0  3  0  0  0  0
  -29.8866  -15.5707   20.4506 N   0  0  0  0  0  0
  -30.9443  -17.9099   17.7941 F   0  0  0  0  0  0
  -32.3441  -16.9613   19.1014 F   0  0  0  0  0  0
  -31.0218  -15.7826   17.8470 F   0  0  0  0  0  0
  -28.4012  -16.2940   18.1330 F   0  0  0  0  0  0
  -28.5216  -18.3965   18.6484 F   0  0  0  0  0  0
  -27.6751  -16.9807   20.0258 F   0  0  0  0  0  0
  -31.4639  -12.3693   19.1346 H   0  0  0  0  0  0
  -30.2844  -11.2984   19.8608 H   0  0  0  0  0  0
  -29.7356  -11.7666   17.4326 H   0  0  0  0  0  0
  -29.6477  -13.4738   17.7778 H   0  0  0  0  0  0
  -27.8339  -11.2902   18.8561 H   0  0  0  0  0  0
  -27.3588  -12.5852   17.7885 H   0  0  0  0  0  0
  -27.6573  -14.2387   19.5268 H   0  0  0  0  0  0
  -28.6792  -12.0441   21.3992 H   0  0  0  0  0  0
  -28.4831  -13.7230   21.8222 H   0  0  0  0  0  0
  -25.2723   -9.5718   22.4775 H   0  0  0  0  0  0
  -24.0020   -7.4619   22.7454 H   0  0  0  0  0  0
  -21.0865   -8.8706   19.8925 H   0  0  0  0  0  0
  -22.3632  -10.9656   19.6197 H   0  0  0  0  0  0
  -21.1958   -7.6147   23.9739 H   0  0  0  0  0  0
  -21.1532   -6.0522   25.9098 H   0  0  0  0  0  0
  -22.0580   -2.7621   23.2797 H   0  0  0  0  0  0
  -22.4130  -11.9834   22.4761 H   0  0  0  0  0  0
  -21.1114  -13.1243   22.2653 H   0  0  0  0  0  0
  -24.6092  -15.7978   20.5626 H   0  0  0  0  0  0
  -26.2282  -15.6827   20.1129 H   0  0  0  0  0  0
  -26.7088  -32.5561   23.1173 H   0  0  0  0  0  0
  -24.9990  -33.9806   25.0438 H   0  0  0  0  0  0
  -22.6869  -31.2983   21.3968 H   0  0  0  0  0  0
  -23.3722  -35.9688   23.3311 H   0  0  0  0  0  0
  -24.3581  -36.8967   22.2045 H   0  0  0  0  0  0
  -23.7279  -37.6545   23.6668 H   0  0  0  0  0  0
  -26.0353  -31.6042   20.5916 H   0  0  0  0  0  0
  -26.8164  -30.9023   21.9758 H   0  0  0  0  0  0
  -28.1147  -29.1311   21.1524 H   0  0  0  0  0  0
  -26.1053  -25.9637   19.0348 H   0  0  0  0  0  0
  -23.9976  -27.2638   19.0597 H   0  0  0  0  0  0
  -23.7252  -30.5809   19.3984 H   0  0  0  0  0  0
  -22.7424  -29.2248   19.8667 H   0  0  0  0  0  0
  -25.1293  -36.1977   25.0822 H   0  0  0  0  0  0
  -20.9959  -28.3219   24.1427 H   0  0  0  0  0  0
  -20.5652  -26.2245   23.3591 H   0  0  0  0  0  0
  -21.6640  -26.7415   22.1214 H   0  0  0  0  0  0
  -19.6930  -25.6284   21.1210 H   0  0  0  0  0  0
  -19.6716  -27.3152   20.6682 H   0  0  0  0  0  0
  -17.4204  -26.6627   21.3982 H   0  0  0  0  0  0
  -18.0350  -26.0044   22.8978 H   0  0  0  0  0  0
  -19.7926  -30.7223   24.2260 H   0  0  0  0  0  0
  -17.5021  -31.6242   24.5134 H   0  0  0  0  0  0
  -15.5353  -30.2960   23.7655 H   0  0  0  0  0  0
  -15.8672  -28.0838   22.6997 H   0  0  0  0  0  0
  -24.5883  -30.7078   25.7765 H   0  0  0  0  0  0
  -24.8898  -32.2836   26.4908 H   0  0  0  0  0  0
  -25.8048  -30.8836   27.0200 H   0  0  0  0  0  0
  -26.2892  -29.6764   24.1186 H   0  0  0  0  0  0
  -27.4165  -29.7353   25.4565 H   0  0  0  0  0  0
  -27.8689  -30.4398   23.9227 H   0  0  0  0  0  0
  -27.2675  -33.3616   26.2075 H   0  0  0  0  0  0
  -28.3819  -32.6908   25.0275 H   0  0  0  0  0  0
  -28.0735  -31.8426   26.5350 H   0  0  0  0  0  0
  -28.2584  -38.0117   24.7517 H   0  0  0  0  0  0
  -28.1111  -36.2650   24.6277 H   0  0  0  0  0  0
  -27.2307  -37.1469   25.8857 H   0  0  0  0  0  0
  -20.9289  -29.8777   21.6966 H   0  0  0  0  0  0
  -26.0188  -38.2876   24.1384 H   0  0  0  0  0  0
  -31.3068  -19.4715   19.4742 H   0  0  0  0  0  0
  -28.3159  -16.6648   22.3149 H   0  0  0  0  0  0
  -28.7610  -17.5699   23.7631 H   0  0  0  0  0  0
  -29.8344  -16.2773   23.1800 H   0  0  0  0  0  0
  -32.5252  -21.3266   21.8094 H   0  0  0  0  0  0
  -31.2018  -21.7067   22.8588 H   0  0  0  0  0  0
  -30.7051  -22.0292   19.8706 H   0  0  0  0  0  0
  -31.8538  -23.1027   20.6072 H   0  0  0  0  0  0
  -30.1041  -23.7614   22.3384 H   0  0  0  0  0  0
  -28.9305  -22.8484   21.4259 H   0  0  0  0  0  0
  -29.4646  -24.3262   19.4058 H   0  0  0  0  0  0
  -30.5526  -25.2457   20.4089 H   0  0  0  0  0  0
  -28.5970  -25.8565   21.9156 H   0  0  0  0  0  0
  -27.5293  -25.0022   20.8174 H   0  0  0  0  0  0
  -30.1236  -19.5589   23.4859 H   0  0  0  0  0  0
  -28.9244  -15.3396   20.6279 H   0  0  0  0  0  0
  1 25  1  0  0  0
  1 30  2  0  0  0
  1 85  1  0  0  0
  2  3  1  0  0  0
  2 25  1  0  0  0
  2 92  1  0  0  0
  2 93  1  0  0  0
  3  4  1  0  0  0
  3 94  1  0  0  0
  3 95  1  0  0  0
  4  5  1  0  0  0
  4 96  1  0  0  0
  4 97  1  0  0  0
  5  6  1  0  0  0
  5 26  1  0  0  0
  5 98  1  0  0  0
  6 25  1  0  0  0
  6 99  1  0  0  0
  6100  1  0  0  0
  7  8  2  0  0  0
  7 26  1  0  0  0
  7 29  1  0  0  0
  8  9  1  0  0  0
  8 22  1  0  0  0
  9 10  1  0  0  0
  9 27  2  0  0  0
 10 11  2  0  0  0
 10 15  1  0  0  0
 11 12  1  0  0  0
 11101  1  0  0  0
 12 13  2  0  0  0
 12102  1  0  0  0
 13 14  1  0  0  0
 13 31  1  0  0  0
 14 15  2  0  0  0
 14103  1  0  0  0
 15104  1  0  0  0
 16 17  2  0  0  0
 16 21  1  0  0  0
 16 31  1  0  0  0
 17 18  1  0  0  0
 17105  1  0  0  0
 18 19  2  0  0  0
 18106  1  0  0  0
 19 20  1  0  0  0
 19 24  1  0  0  0
 20 21  2  0  0  0
 20107  1  0  0  0
 21 23  1  0  0  0
 22 28  1  0  0  0
 22 32  2  0  0  0
 26 27  1  0  0  0
 28108  1  0  0  0
 28109  1  0  0  0
 29110  1  0  0  0
 29111  1  0  0  0
 33 34  1  0  0  0
 33 66  1  0  0  0
 33 70  2  0  0  0
 34 36  1  0  0  0
 34 59  1  0  0  0
 34112  1  0  0  0
 35 44  2  0  0  0
 35 45  1  0  0  0
 35 68  1  0  0  0
 36 56  1  0  0  0
 36113  1  0  0  0
 37 39  1  0  0  0
 37 47  1  0  0  0
 37 66  1  0  0  0
 37114  1  0  0  0
 38 43  2  0  0  0
 38 46  1  0  0  0
 38 47  1  0  0  0
 39 64  1  0  0  0
 39 67  2  0  0  0
 40 52  1  0  0  0
 40 53  2  0  0  0
 40 58  1  0  0  0
 41115  1  0  0  0
 41116  1  0  0  0
 41117  1  0  0  0
 41 48  1  0  0  0
 42 43  1  0  0  0
 42 66  1  0  0  0
 42118  1  0  0  0
 42119  1  0  0  0
 43 44  1  0  0  0
 44120  1  0  0  0
 45 46  2  0  0  0
 45121  1  0  0  0
 46122  1  0  0  0
 47123  1  0  0  0
 47124  1  0  0  0
 48 56  1  0  0  0
 48 65  1  0  0  0
 48125  1  0  0  0
 49 50  1  0  0  0
 49 53  1  0  0  0
 49 64  1  0  0  0
 49126  1  0  0  0
 50 51  1  0  0  0
 50127  1  0  0  0
 50128  1  0  0  0
 51 52  1  0  0  0
 51129  1  0  0  0
 51130  1  0  0  0
 52131  1  0  0  0
 52132  1  0  0  0
 53 54  1  0  0  0
 54 55  2  0  0  0
 54133  1  0  0  0
 55 57  1  0  0  0
 55134  1  0  0  0
 56 69  2  0  0  0
 57 58  2  0  0  0
 57135  1  0  0  0
 58136  1  0  0  0
 59 60  1  0  0  0
 59 61  1  0  0  0
 59 62  1  0  0  0
 60137  1  0  0  0
 60138  1  0  0  0
 60139  1  0  0  0
 61140  1  0  0  0
 61141  1  0  0  0
 61142  1  0  0  0
 62143  1  0  0  0
 62144  1  0  0  0
 62145  1  0  0  0
 63 65  1  0  0  0
 63146  1  0  0  0
 63147  1  0  0  0
 63148  1  0  0  0
 64149  1  0  0  0
 65150  1  0  0  0
 68 79  1  0  0  0
 71 72  2  0  0  0
 71 83  1  0  0  0
 71151  1  0  0  0
 72 75  1  0  0  0
 72 84  1  0  0  0
 73 74  1  0  0  0
 73 83  1  0  0  0
 73 84  2  0  0  0
 74152  1  0  0  0
 74153  1  0  0  0
 74154  1  0  0  0
 75 76  1  0  0  0
 75155  1  0  0  0
 75156  1  0  0  0
 76 77  1  0  0  0
 76157  1  0  0  0
 76158  1  0  0  0
 77 78  1  0  0  0
 77159  1  0  0  0
 77160  1  0  0  0
 78 79  1  0  0  0
 78161  1  0  0  0
 78162  1  0  0  0
 79163  1  0  0  0
 79164  1  0  0  0
 80 81  1  0  0  0
 80 82  1  0  0  0
 80 83  1  0  0  0
 80 85  1  0  0  0
 81 86  1  0  0  0
 81 87  1  0  0  0
 81 88  1  0  0  0
 82 89  1  0  0  0
 82 90  1  0  0  0
 82 91  1  0  0  0
 84165  1  0  0  0
 85166  1  0  0  0
M  CHG  1  84   1
M  ISO  4   1 100  68 101  79 101  85 100
M  END
> <chiral flag>
0

> <version>
0

> <s_m_source_file>
/data/baiqing/PycharmProjects/Reinvent-master-3.2/result/LINK_invent/BTK/process_docking_weight1_custom_sum_contain_oxygen_bond_distance_aromatic_linkinvent_7_9_3/rearranged_h_0064.sdf

> <i_m_source_file_index>
16

> <r_mmod_Potential_Energy-OPLS-2005>
-151.093490600586

> <r_mmod_Stretch_Energy-OPLS-2005>
43.7420501708984

> <r_mmod_Bend_Energy-OPLS-2005>
112.979682922363

> <r_mmod_Torsional_Energy-OPLS-2005>
311.561950683594

> <r_mmod_Improper_Torsional_Energy-OPLS-2005>
10.827844619751

> <r_mmod_Van_der_Waal_Energy-OPLS-2005>
137.513275146484

> <r_mmod_Electrostatic_Energy-OPLS-2005>
-378.064331054688

> <r_mmod_Solvation_Energy-OPLS-2005>
-410.247375488281

> <b_mmod_Minimization_Converged-OPLS-2005>
0

> <r_mmod_RMS_Derivative-OPLS-2005>
3.67335867881775

$$$$
16
                    3D
 Structure written by MMmdl.
172180  0  0  1  0            999 V2000
  -30.5804  -14.7807   20.3561 C   0  0  0  0  0  0
  -30.4467  -12.4486   19.4830 C   0  0  0  0  0  0
  -29.5127  -12.3710   18.2517 C   0  0  0  0  0  0
  -28.0282  -12.2646   18.6619 C   0  0  0  0  0  0
  -27.6262  -13.1950   19.8394 C   0  0  2  0  0  0
  -28.6810  -13.1966   20.9611 C   0  0  0  0  0  0
  -25.2471  -13.8114   20.5712 C   0  0  0  0  0  0
  -24.1732  -13.0428   20.9233 C   0  0  0  0  0  0
  -24.6273  -11.6886   20.8783 C   0  0  0  0  0  0
  -23.8965  -10.4288   21.0421 C   0  0  0  0  0  0
  -24.3559   -9.4217   21.9180 C   0  0  0  0  0  0
  -23.6256   -8.2247   22.0753 C   0  0  0  0  0  0
  -22.4239   -8.0275   21.3544 C   0  0  0  0  0  0
  -21.9864   -9.0244   20.4642 C   0  0  0  0  0  0
  -22.7160  -10.2133   20.3051 C   0  0  0  0  0  0
  -21.6843   -6.0718   22.5283 C   0  0  0  0  0  0
  -21.3992   -6.5619   23.8213 C   0  0  0  0  0  0
  -21.3664   -5.6777   24.9182 C   0  0  0  0  0  0
  -21.6063   -4.3040   24.7229 C   0  0  0  0  0  0
  -21.8832   -3.8127   23.4348 C   0  0  0  0  0  0
  -21.9191   -4.6948   22.3401 C   0  0  0  0  0  0
  -22.7759  -13.5236   21.1899 C   0  0  0  0  0  0
  -22.1659   -4.2140   21.0976 F   0  0  0  0  0  0
  -21.5650   -3.4523   25.7735 F   0  0  0  0  0  0
  -29.9643  -13.5477   20.3420 N   0  0  0  0  0  0
  -26.2842  -12.9231   20.3314 N   0  0  0  0  0  0
  -25.9184  -11.6430   20.5816 N   0  0  0  0  0  0
  -22.0366  -12.8251   22.0449 N   0  0  0  0  0  0
  -25.4294  -15.1827   20.4065 N   0  0  0  0  0  0
  -31.8098  -14.8475   20.2627 O   0  0  0  0  0  0
  -21.6625   -6.8860   21.4239 O   0  0  0  0  0  0
  -22.3472  -14.5554   20.6737 O   0  0  0  0  0  0
  -24.6311  -31.8570   23.1964 C   0  0  0  0  0  0
  -25.9138  -32.4768   23.8335 C   0  0  1  0  0  0
  -27.2220  -27.2619   20.1500 C   0  0  0  0  0  0
  -25.5954  -33.8577   24.2258 N   0  0  0  0  0  0
  -23.4284  -30.4781   21.5386 C   0  0  2  0  0  0
  -24.8767  -28.9155   20.1195 C   0  0  0  0  0  0
  -22.7507  -29.4608   22.4883 C   0  0  0  0  0  0
  -18.0291  -28.1396   22.8483 C   0  0  0  0  0  0
  -24.1484  -36.7288   23.2636 C   0  0  0  0  0  0
  -25.9724  -30.7650   21.3795 C   0  0  0  0  0  0
  -26.0445  -29.3822   20.7373 C   0  0  0  0  0  0
  -27.2202  -28.5672   20.7431 C   0  0  0  0  0  0
  -26.0455  -26.8728   19.4818 C   0  0  0  0  0  0
  -24.8809  -27.6665   19.4812 C   0  0  0  0  0  0
  -23.6517  -29.8086   20.1557 C   0  0  0  0  0  0
  -25.4106  -36.3078   24.0319 C   0  0  1  0  0  0
  -20.5893  -28.3708   23.1262 C   0  0  2  0  0  0
  -20.6773  -26.9424   22.5403 C   0  0  0  0  0  0
  -19.5748  -26.6376   21.5219 C   0  0  0  0  0  0
  -18.1924  -26.7935   22.1617 C   0  0  0  0  0  0
  -19.1544  -28.8865   23.2874 C   0  0  0  0  0  0
  -18.9481  -30.1463   23.8904 C   0  0  0  0  0  0
  -17.6483  -30.6608   24.0566 C   0  0  0  0  0  0
  -25.9052  -34.9447   23.5077 C   0  0  0  0  0  0
  -16.5369  -29.9107   23.6340 C   0  0  0  0  0  0
  -16.7276  -28.6518   23.0360 C   0  0  0  0  0  0
  -26.4499  -31.6622   25.0743 C   0  0  0  0  0  0
  -25.3715  -31.3813   26.1467 C   0  0  0  0  0  0
  -27.0355  -30.3044   24.6231 C   0  0  0  0  0  0
  -27.6036  -32.4394   25.7520 C   0  0  0  0  0  0
  -27.5563  -37.1793   24.8462 C   0  0  0  0  0  0
  -21.4208  -29.3066   22.3651 N   0  0  0  0  0  0
  -26.4267  -37.3784   23.9419 N   0  0  0  0  0  0
  -24.6961  -31.0537   22.0946 N   0  0  0  0  0  0
  -23.4206  -28.8155   23.2985 O   0  0  0  0  0  0
  -28.3419  -26.4082   20.1120 O   0  0  0  0  0  0
  -26.5593  -34.8926   22.4632 O   0  0  0  0  0  0
  -23.5456  -32.1386   23.7250 O   0  0  0  0  0  0
  -30.2210  -22.1337   20.8816 C   0  0  0  0  0  0
  -28.9229  -22.3311   20.4733 C   0  0  0  0  0  0
  -29.3445  -20.0431   20.7642 C   0  0  0  0  0  0
  -32.6920  -20.1874   20.1770 C   0  0  0  0  0  0
  -26.6649  -23.2606   19.9399 C   0  0  0  0  0  0
  -28.6471  -23.8262   18.5069 C   0  0  0  0  0  0
  -28.7185  -18.2235   22.4075 C   0  0  0  0  0  0
  -27.7307  -18.1911   20.1565 C   0  0  0  0  0  0
  -29.3182  -16.0129   18.7155 C   0  0  0  0  0  0
  -31.7574  -20.2070   21.3949 C   0  0  0  0  0  0
  -30.1793  -17.3634   20.5271 C   0  0  0  0  0  0
  -28.3587  -25.0377   20.7435 C   0  0  0  0  0  0
  -28.1628  -23.6247   19.9523 C   0  0  0  0  0  0
  -29.0422  -18.4769   20.9210 C   0  0  0  0  0  0
  -30.4527  -20.7714   21.0361 N   0  0  0  0  0  0
  -28.4319  -21.0120   20.4383 N   0  3  0  0  0  0
  -29.8041  -15.9269   20.1160 N   0  0  0  0  0  0
  -31.4792  -12.6036   19.1625 H   0  0  0  0  0  0
  -30.4477  -11.5119   20.0450 H   0  0  0  0  0  0
  -29.7789  -11.4949   17.6589 H   0  0  0  0  0  0
  -29.6682  -13.2136   17.5847 H   0  0  0  0  0  0
  -27.8567  -11.2265   18.9508 H   0  0  0  0  0  0
  -27.3864  -12.4420   17.7991 H   0  0  0  0  0  0
  -27.5772  -14.1887   19.4248 H   0  0  0  0  0  0
  -28.7298  -12.2192   21.4448 H   0  0  0  0  0  0
  -28.4191  -13.9197   21.7344 H   0  0  0  0  0  0
  -25.2708   -9.5732   22.4734 H   0  0  0  0  0  0
  -23.9988   -7.4645   22.7463 H   0  0  0  0  0  0
  -21.0813   -8.8770   19.8915 H   0  0  0  0  0  0
  -22.3626  -10.9693   19.6162 H   0  0  0  0  0  0
  -21.1948   -7.6115   23.9730 H   0  0  0  0  0  0
  -21.1474   -6.0483   25.9093 H   0  0  0  0  0  0
  -22.0591   -2.7583   23.2855 H   0  0  0  0  0  0
  -22.3910  -11.9880   22.4840 H   0  0  0  0  0  0
  -21.1001  -13.1339   22.2670 H   0  0  0  0  0  0
  -24.6858  -15.8605   20.5330 H   0  0  0  0  0  0
  -26.2988  -15.6005   20.1053 H   0  0  0  0  0  0
  -26.7204  -32.5417   23.1073 H   0  0  0  0  0  0
  -25.0207  -33.9738   25.0467 H   0  0  0  0  0  0
  -22.7249  -31.2994   21.3890 H   0  0  0  0  0  0
  -23.3746  -35.9627   23.3309 H   0  0  0  0  0  0
  -24.3564  -36.8892   22.2050 H   0  0  0  0  0  0
  -23.7227  -37.6486   23.6657 H   0  0  0  0  0  0
  -26.1035  -31.5136   20.5987 H   0  0  0  0  0  0
  -26.8525  -30.8248   22.0078 H   0  0  0  0  0  0
  -28.1198  -28.9261   21.2264 H   0  0  0  0  0  0
  -26.0282  -25.9597   18.9154 H   0  0  0  0  0  0
  -23.9984  -27.3136   18.9658 H   0  0  0  0  0  0
  -23.7838  -30.5858   19.4008 H   0  0  0  0  0  0
  -22.7696  -29.2470   19.8449 H   0  0  0  0  0  0
  -25.1273  -36.1925   25.0807 H   0  0  0  0  0  0
  -20.9984  -28.3288   24.1380 H   0  0  0  0  0  0
  -20.5683  -26.2331   23.3612 H   0  0  0  0  0  0
  -21.6642  -26.7441   22.1201 H   0  0  0  0  0  0
  -19.6919  -25.6282   21.1263 H   0  0  0  0  0  0
  -19.6695  -27.3175   20.6746 H   0  0  0  0  0  0
  -17.4198  -26.6700   21.4009 H   0  0  0  0  0  0
  -18.0316  -26.0073   22.9012 H   0  0  0  0  0  0
  -19.7969  -30.7266   24.2279 H   0  0  0  0  0  0
  -17.5054  -31.6292   24.5167 H   0  0  0  0  0  0
  -15.5378  -30.3027   23.7663 H   0  0  0  0  0  0
  -15.8663  -28.0848   22.7079 H   0  0  0  0  0  0
  -24.5874  -30.7173   25.7812 H   0  0  0  0  0  0
  -24.8931  -32.3023   26.4841 H   0  0  0  0  0  0
  -25.8014  -30.9033   27.0282 H   0  0  0  0  0  0
  -26.2956  -29.6812   24.1205 H   0  0  0  0  0  0
  -27.3996  -29.7289   25.4752 H   0  0  0  0  0  0
  -27.8847  -30.4331   23.9510 H   0  0  0  0  0  0
  -27.2615  -33.3702   26.2064 H   0  0  0  0  0  0
  -28.3868  -32.6960   25.0375 H   0  0  0  0  0  0
  -28.0702  -31.8564   26.5476 H   0  0  0  0  0  0
  -28.2566  -38.0099   24.7502 H   0  0  0  0  0  0
  -28.1060  -36.2622   24.6286 H   0  0  0  0  0  0
  -27.2283  -37.1428   25.8863 H   0  0  0  0  0  0
  -20.9391  -29.8850   21.6904 H   0  0  0  0  0  0
  -26.0144  -38.2847   24.1466 H   0  0  0  0  0  0
  -31.0117  -22.8588   21.0226 H   0  0  0  0  0  0
  -33.6337  -19.6856   20.4010 H   0  0  0  0  0  0
  -32.9261  -21.1982   19.8387 H   0  0  0  0  0  0
  -32.2322  -19.6690   19.3368 H   0  0  0  0  0  0
  -26.4727  -22.3840   19.3220 H   0  0  0  0  0  0
  -26.0374  -24.0458   19.5389 H   0  0  0  0  0  0
  -26.3044  -23.0443   20.9463 H   0  0  0  0  0  0
  -28.4343  -22.9532   17.8864 H   0  0  0  0  0  0
  -29.7231  -23.9991   18.4727 H   0  0  0  0  0  0
  -28.1648  -24.6852   18.0422 H   0  0  0  0  0  0
  -29.5741  -18.4343   23.0498 H   0  0  0  0  0  0
  -28.4343  -17.1845   22.5802 H   0  0  0  0  0  0
  -27.8920  -18.8456   22.7552 H   0  0  0  0  0  0
  -27.8467  -18.3354   19.0810 H   0  0  0  0  0  0
  -26.9134  -18.8316   20.4863 H   0  0  0  0  0  0
  -27.3869  -17.1734   20.3298 H   0  0  0  0  0  0
  -29.5894  -16.9401   18.2114 H   0  0  0  0  0  0
  -28.2348  -15.9637   18.6424 H   0  0  0  0  0  0
  -29.7214  -15.2388   18.0700 H   0  0  0  0  0  0
  -32.1847  -20.8149   22.1932 H   0  0  0  0  0  0
  -31.6295  -19.2159   21.8173 H   0  0  0  0  0  0
  -30.8692  -17.2571   21.3642 H   0  0  0  0  0  0
  -30.7998  -17.7816   19.7356 H   0  0  0  0  0  0
  -29.3664  -24.9866   21.1543 H   0  0  0  0  0  0
  -27.7180  -25.0488   21.6275 H   0  0  0  0  0  0
  -27.4797  -20.7861   20.1808 H   0  0  0  0  0  0
  1 25  1  0  0  0
  1 30  2  0  0  0
  1 87  1  0  0  0
  2  3  1  0  0  0
  2 25  1  0  0  0
  2 88  1  0  0  0
  2 89  1  0  0  0
  3  4  1  0  0  0
  3 90  1  0  0  0
  3 91  1  0  0  0
  4  5  1  0  0  0
  4 92  1  0  0  0
  4 93  1  0  0  0
  5  6  1  0  0  0
  5 26  1  0  0  0
  5 94  1  0  0  0
  6 25  1  0  0  0
  6 95  1  0  0  0
  6 96  1  0  0  0
  7  8  2  0  0  0
  7 26  1  0  0  0
  7 29  1  0  0  0
  8  9  1  0  0  0
  8 22  1  0  0  0
  9 10  1  0  0  0
  9 27  2  0  0  0
 10 11  2  0  0  0
 10 15  1  0  0  0
 11 12  1  0  0  0
 11 97  1  0  0  0
 12 13  2  0  0  0
 12 98  1  0  0  0
 13 14  1  0  0  0
 13 31  1  0  0  0
 14 15  2  0  0  0
 14 99  1  0  0  0
 15100  1  0  0  0
 16 17  2  0  0  0
 16 21  1  0  0  0
 16 31  1  0  0  0
 17 18  1  0  0  0
 17101  1  0  0  0
 18 19  2  0  0  0
 18102  1  0  0  0
 19 20  1  0  0  0
 19 24  1  0  0  0
 20 21  2  0  0  0
 20103  1  0  0  0
 21 23  1  0  0  0
 22 28  1  0  0  0
 22 32  2  0  0  0
 26 27  1  0  0  0
 28104  1  0  0  0
 28105  1  0  0  0
 29106  1  0  0  0
 29107  1  0  0  0
 33 34  1  0  0  0
 33 66  1  0  0  0
 33 70  2  0  0  0
 34 36  1  0  0  0
 34 59  1  0  0  0
 34108  1  0  0  0
 35 44  2  0  0  0
 35 45  1  0  0  0
 35 68  1  0  0  0
 36 56  1  0  0  0
 36109  1  0  0  0
 37 39  1  0  0  0
 37 47  1  0  0  0
 37 66  1  0  0  0
 37110  1  0  0  0
 38 43  2  0  0  0
 38 46  1  0  0  0
 38 47  1  0  0  0
 39 64  1  0  0  0
 39 67  2  0  0  0
 40 52  1  0  0  0
 40 53  2  0  0  0
 40 58  1  0  0  0
 41111  1  0  0  0
 41112  1  0  0  0
 41113  1  0  0  0
 41 48  1  0  0  0
 42 43  1  0  0  0
 42 66  1  0  0  0
 42114  1  0  0  0
 42115  1  0  0  0
 43 44  1  0  0  0
 44116  1  0  0  0
 45 46  2  0  0  0
 45117  1  0  0  0
 46118  1  0  0  0
 47119  1  0  0  0
 47120  1  0  0  0
 48 56  1  0  0  0
 48 65  1  0  0  0
 48121  1  0  0  0
 49 50  1  0  0  0
 49 53  1  0  0  0
 49 64  1  0  0  0
 49122  1  0  0  0
 50 51  1  0  0  0
 50123  1  0  0  0
 50124  1  0  0  0
 51 52  1  0  0  0
 51125  1  0  0  0
 51126  1  0  0  0
 52127  1  0  0  0
 52128  1  0  0  0
 53 54  1  0  0  0
 54 55  2  0  0  0
 54129  1  0  0  0
 55 57  1  0  0  0
 55130  1  0  0  0
 56 69  2  0  0  0
 57 58  2  0  0  0
 57131  1  0  0  0
 58132  1  0  0  0
 59 60  1  0  0  0
 59 61  1  0  0  0
 59 62  1  0  0  0
 60133  1  0  0  0
 60134  1  0  0  0
 60135  1  0  0  0
 61136  1  0  0  0
 61137  1  0  0  0
 61138  1  0  0  0
 62139  1  0  0  0
 62140  1  0  0  0
 62141  1  0  0  0
 63 65  1  0  0  0
 63142  1  0  0  0
 63143  1  0  0  0
 63144  1  0  0  0
 64145  1  0  0  0
 65146  1  0  0  0
 68 82  1  0  0  0
 71 72  2  0  0  0
 71 85  1  0  0  0
 71147  1  0  0  0
 72 83  1  0  0  0
 72 86  1  0  0  0
 73 84  1  0  0  0
 73 85  1  0  0  0
 73 86  2  0  0  0
 74 80  1  0  0  0
 74148  1  0  0  0
 74149  1  0  0  0
 74150  1  0  0  0
 75151  1  0  0  0
 75152  1  0  0  0
 75153  1  0  0  0
 75 83  1  0  0  0
 76 83  1  0  0  0
 76154  1  0  0  0
 76155  1  0  0  0
 76156  1  0  0  0
 77157  1  0  0  0
 77158  1  0  0  0
 77159  1  0  0  0
 77 84  1  0  0  0
 78 84  1  0  0  0
 78160  1  0  0  0
 78161  1  0  0  0
 78162  1  0  0  0
 79 87  1  0  0  0
 79163  1  0  0  0
 79164  1  0  0  0
 79165  1  0  0  0
 80 85  1  0  0  0
 80166  1  0  0  0
 80167  1  0  0  0
 81 84  1  0  0  0
 81 87  1  0  0  0
 81168  1  0  0  0
 81169  1  0  0  0
 82 83  1  0  0  0
 82170  1  0  0  0
 82171  1  0  0  0
 86172  1  0  0  0
M  CHG  1  86   1
M  ISO  4   1 100  68 101  82 101  87 100
M  END
> <chiral flag>
0

> <version>
0

> <s_m_source_file>
/data/baiqing/PycharmProjects/Reinvent-master-3.2/result/LINK_invent/BTK/process_docking_weight1_custom_sum_contain_oxygen_bond_distance_aromatic_linkinvent_7_9_3/rearranged_h_0064.sdf

> <i_m_source_file_index>
17

> <r_mmod_Potential_Energy-OPLS-2005>
409.550140380859

> <r_mmod_Stretch_Energy-OPLS-2005>
138.889984130859

> <r_mmod_Bend_Energy-OPLS-2005>
206.69401550293

> <r_mmod_Torsional_Energy-OPLS-2005>
384.272735595703

> <r_mmod_Improper_Torsional_Energy-OPLS-2005>
14.754189491272

> <r_mmod_Van_der_Waal_Energy-OPLS-2005>
127.164054870605

> <r_mmod_Electrostatic_Energy-OPLS-2005>
-181.479263305664

> <r_mmod_Solvation_Energy-OPLS-2005>
-383.808502197266

> <b_mmod_Minimization_Converged-OPLS-2005>
0

> <r_mmod_RMS_Derivative-OPLS-2005>
3.11846232414246

$$$$
17
                    3D
 Structure written by MMmdl.
157165  0  0  1  0            999 V2000
  -30.6657  -14.6308   20.5442 C   0  0  0  0  0  0
  -30.4285  -12.3994   19.4603 C   0  0  0  0  0  0
  -29.5056  -12.5141   18.2273 C   0  0  0  0  0  0
  -28.0277  -12.3524   18.6337 C   0  0  0  0  0  0
  -27.6512  -13.2205   19.8634 C   0  0  2  0  0  0
  -28.6908  -13.0699   20.9926 C   0  0  0  0  0  0
  -25.2550  -13.8181   20.5690 C   0  0  0  0  0  0
  -24.1815  -13.0439   20.9173 C   0  0  0  0  0  0
  -24.6389  -11.6909   20.8725 C   0  0  0  0  0  0
  -23.9060  -10.4292   21.0397 C   0  0  0  0  0  0
  -24.3613   -9.4212   21.9180 C   0  0  0  0  0  0
  -23.6289   -8.2247   22.0756 C   0  0  0  0  0  0
  -22.4271   -8.0281   21.3546 C   0  0  0  0  0  0
  -21.9903   -9.0250   20.4646 C   0  0  0  0  0  0
  -22.7230  -10.2131   20.3049 C   0  0  0  0  0  0
  -21.6853   -6.0733   22.5281 C   0  0  0  0  0  0
  -21.4015   -6.5639   23.8214 C   0  0  0  0  0  0
  -21.3659   -5.6792   24.9176 C   0  0  0  0  0  0
  -21.6043   -4.3054   24.7227 C   0  0  0  0  0  0
  -21.8819   -3.8145   23.4348 C   0  0  0  0  0  0
  -21.9193   -4.6961   22.3405 C   0  0  0  0  0  0
  -22.7839  -13.5230   21.1846 C   0  0  0  0  0  0
  -22.1661   -4.2147   21.0982 F   0  0  0  0  0  0
  -21.5627   -3.4539   25.7740 F   0  0  0  0  0  0
  -30.0063  -13.4272   20.4389 N   0  0  0  0  0  0
  -26.2974  -12.9368   20.3310 N   0  0  0  0  0  0
  -25.9319  -11.6517   20.5741 N   0  0  0  0  0  0
  -22.0488  -12.8220   22.0405 N   0  0  0  0  0  0
  -25.4279  -15.1902   20.4139 N   0  0  0  0  0  0
  -31.8010  -14.7543   20.0718 O   0  0  0  0  0  0
  -21.6638   -6.8876   21.4242 O   0  0  0  0  0  0
  -22.3522  -14.5540   20.6703 O   0  0  0  0  0  0
  -24.6249  -31.8603   23.2025 C   0  0  0  0  0  0
  -25.9103  -32.4783   23.8348 C   0  0  1  0  0  0
  -27.2234  -27.3377   20.1172 C   0  0  0  0  0  0
  -25.5931  -33.8581   24.2282 N   0  0  0  0  0  0
  -23.4176  -30.4827   21.5445 C   0  0  2  0  0  0
  -24.8664  -28.9384   20.1095 C   0  0  0  0  0  0
  -22.7464  -29.4620   22.4939 C   0  0  0  0  0  0
  -18.0285  -28.1383   22.8486 C   0  0  0  0  0  0
  -24.1490  -36.7292   23.2637 C   0  0  0  0  0  0
  -25.9556  -30.7984   21.3672 C   0  0  0  0  0  0
  -26.0338  -29.4251   20.7136 C   0  0  0  0  0  0
  -27.2202  -28.6346   20.7106 C   0  0  0  0  0  0
  -26.0410  -26.8967   19.4900 C   0  0  0  0  0  0
  -24.8704  -27.6786   19.4889 C   0  0  0  0  0  0
  -23.6312  -29.8151   20.1601 C   0  0  0  0  0  0
  -25.4109  -36.3082   24.0331 C   0  0  1  0  0  0
  -20.5882  -28.3677   23.1290 C   0  0  2  0  0  0
  -20.6776  -26.9404   22.5410 C   0  0  0  0  0  0
  -19.5750  -26.6384   21.5214 C   0  0  0  0  0  0
  -18.1927  -26.7928   22.1622 C   0  0  0  0  0  0
  -19.1538  -28.8846   23.2885 C   0  0  0  0  0  0
  -18.9462  -30.1451   23.8897 C   0  0  0  0  0  0
  -17.6462  -30.6586   24.0560 C   0  0  0  0  0  0
  -25.9044  -34.9453   23.5102 C   0  0  0  0  0  0
  -16.5351  -29.9081   23.6334 C   0  0  0  0  0  0
  -16.7272  -28.6500   23.0352 C   0  0  0  0  0  0
  -26.4501  -31.6583   25.0701 C   0  0  0  0  0  0
  -25.3746  -31.3711   26.1437 C   0  0  0  0  0  0
  -27.0343  -30.3015   24.6117 C   0  0  0  0  0  0
  -27.6061  -32.4309   25.7483 C   0  0  0  0  0  0
  -27.5575  -37.1796   24.8464 C   0  0  0  0  0  0
  -21.4178  -29.3038   22.3691 N   0  0  0  0  0  0
  -26.4284  -37.3779   23.9419 N   0  0  0  0  0  0
  -24.6850  -31.0633   22.0960 N   0  0  0  0  0  0
  -23.4200  -28.8149   23.3002 O   0  0  0  0  0  0
  -28.3059  -26.4556   20.1516 O   0  0  0  0  0  0
  -26.5602  -34.8919   22.4663 O   0  0  0  0  0  0
  -23.5418  -32.1386   23.7369 O   0  0  0  0  0  0
  -29.8210  -22.2577   19.5420 C   0  0  0  0  0  0
  -29.1701  -21.1450   20.1576 C   0  0  0  0  0  0
  -27.8181  -22.7001   21.2685 C   0  0  0  0  0  0
  -28.4636  -23.8200   20.6442 C   0  0  0  0  0  0
  -26.7138  -22.8832   22.2942 C   0  0  0  0  0  0
  -29.5472  -15.9326   22.3039 C   0  0  0  0  0  0
  -29.4457  -19.6650   19.7023 C   0  0  0  0  0  0
  -28.1102  -25.3056   21.0545 C   0  0  0  0  0  0
  -29.5755  -18.4586   20.7321 C   0  0  0  0  0  0
  -29.9861  -17.0444   20.0940 C   0  0  0  0  0  0
  -29.4830  -23.5685   19.7760 N   0  0  0  0  0  0
  -28.1451  -21.3934   21.0129 N   0  0  0  0  0  0
  -29.9480  -15.7599   20.9038 N   0  0  0  0  0  0
  -31.4710  -12.5086   19.1573 H   0  0  0  0  0  0
  -30.3565  -11.4045   19.9023 H   0  0  0  0  0  0
  -29.7723  -11.7615   17.4842 H   0  0  0  0  0  0
  -29.6504  -13.4833   17.7470 H   0  0  0  0  0  0
  -27.8617  -11.2988   18.8610 H   0  0  0  0  0  0
  -27.3753  -12.5872   17.7917 H   0  0  0  0  0  0
  -27.6727  -14.2588   19.5319 H   0  0  0  0  0  0
  -28.7070  -12.0442   21.3635 H   0  0  0  0  0  0
  -28.4059  -13.6791   21.8461 H   0  0  0  0  0  0
  -25.2760   -9.5692   22.4751 H   0  0  0  0  0  0
  -23.9997   -7.4642   22.7482 H   0  0  0  0  0  0
  -21.0832   -8.8764   19.8955 H   0  0  0  0  0  0
  -22.3686  -10.9664   19.6153 H   0  0  0  0  0  0
  -21.2009   -7.6149   23.9717 H   0  0  0  0  0  0
  -21.1480   -6.0524   25.9079 H   0  0  0  0  0  0
  -22.0598   -2.7608   23.2850 H   0  0  0  0  0  0
  -22.4096  -11.9864   22.4770 H   0  0  0  0  0  0
  -21.1114  -13.1254   22.2633 H   0  0  0  0  0  0
  -24.6688  -15.8510   20.5381 H   0  0  0  0  0  0
  -26.2941  -15.6301   20.1291 H   0  0  0  0  0  0
  -26.7163  -32.5471   23.1092 H   0  0  0  0  0  0
  -25.0122  -33.9738   25.0456 H   0  0  0  0  0  0
  -22.7101  -31.3021   21.4010 H   0  0  0  0  0  0
  -23.3751  -35.9628   23.3298 H   0  0  0  0  0  0
  -24.3581  -36.8914   22.2052 H   0  0  0  0  0  0
  -23.7245  -37.6494   23.6656 H   0  0  0  0  0  0
  -26.0750  -31.5591   20.5945 H   0  0  0  0  0  0
  -26.8408  -30.8560   21.9888 H   0  0  0  0  0  0
  -28.1150  -28.9982   21.1948 H   0  0  0  0  0  0
  -26.0164  -25.9232   19.0200 H   0  0  0  0  0  0
  -23.9753  -27.3001   19.0145 H   0  0  0  0  0  0
  -23.7422  -30.5898   19.4007 H   0  0  0  0  0  0
  -22.7529  -29.2394   19.8623 H   0  0  0  0  0  0
  -25.1291  -36.1930   25.0822 H   0  0  0  0  0  0
  -20.9977  -28.3246   24.1410 H   0  0  0  0  0  0
  -20.5694  -26.2280   23.3603 H   0  0  0  0  0  0
  -21.6639  -26.7446   22.1190 H   0  0  0  0  0  0
  -19.6913  -25.6301   21.1232 H   0  0  0  0  0  0
  -19.6692  -27.3203   20.6753 H   0  0  0  0  0  0
  -17.4202  -26.6684   21.4018 H   0  0  0  0  0  0
  -18.0314  -26.0071   22.9017 H   0  0  0  0  0  0
  -19.7939  -30.7268   24.2262 H   0  0  0  0  0  0
  -17.5018  -31.6270   24.5155 H   0  0  0  0  0  0
  -15.5351  -30.2984   23.7665 H   0  0  0  0  0  0
  -15.8669  -28.0822   22.7069 H   0  0  0  0  0  0
  -24.5937  -30.7038   25.7775 H   0  0  0  0  0  0
  -24.8920  -32.2873   26.4847 H   0  0  0  0  0  0
  -25.8084  -30.8913   27.0220 H   0  0  0  0  0  0
  -26.2904  -29.6760   24.1164 H   0  0  0  0  0  0
  -27.4099  -29.7267   25.4594 H   0  0  0  0  0  0
  -27.8743  -30.4326   23.9289 H   0  0  0  0  0  0
  -27.2677  -33.3619   26.2043 H   0  0  0  0  0  0
  -28.3887  -32.6851   25.0320 H   0  0  0  0  0  0
  -28.0701  -31.8436   26.5417 H   0  0  0  0  0  0
  -28.2586  -38.0101   24.7521 H   0  0  0  0  0  0
  -28.1080  -36.2633   24.6276 H   0  0  0  0  0  0
  -27.2295  -37.1421   25.8867 H   0  0  0  0  0  0
  -20.9345  -29.8773   21.6918 H   0  0  0  0  0  0
  -26.0164  -38.2854   24.1426 H   0  0  0  0  0  0
  -30.5997  -22.0938   18.8113 H   0  0  0  0  0  0
  -27.0276  -23.5675   23.0826 H   0  0  0  0  0  0
  -26.4456  -21.9390   22.7691 H   0  0  0  0  0  0
  -25.8176  -23.2849   21.8216 H   0  0  0  0  0  0
  -28.4716  -16.0981   22.3710 H   0  0  0  0  0  0
  -30.0545  -16.7812   22.7618 H   0  0  0  0  0  0
  -29.7928  -15.0683   22.9238 H   0  0  0  0  0  0
  -30.3661  -19.6897   19.1177 H   0  0  0  0  0  0
  -28.6654  -19.4139   18.9836 H   0  0  0  0  0  0
  -28.7073  -25.5182   21.9415 H   0  0  0  0  0  0
  -27.0816  -25.3102   21.4155 H   0  0  0  0  0  0
  -28.6231  -18.3613   21.2538 H   0  0  0  0  0  0
  -30.3116  -18.7323   21.4882 H   0  0  0  0  0  0
  -30.9851  -17.1572   19.6697 H   0  0  0  0  0  0
  -29.3346  -16.8664   19.2377 H   0  0  0  0  0  0
  1 25  1  0  0  0
  1 30  2  0  0  0
  1 83  1  0  0  0
  2  3  1  0  0  0
  2 25  1  0  0  0
  2 84  1  0  0  0
  2 85  1  0  0  0
  3  4  1  0  0  0
  3 86  1  0  0  0
  3 87  1  0  0  0
  4  5  1  0  0  0
  4 88  1  0  0  0
  4 89  1  0  0  0
  5  6  1  0  0  0
  5 26  1  0  0  0
  5 90  1  0  0  0
  6 25  1  0  0  0
  6 91  1  0  0  0
  6 92  1  0  0  0
  7  8  2  0  0  0
  7 26  1  0  0  0
  7 29  1  0  0  0
  8  9  1  0  0  0
  8 22  1  0  0  0
  9 10  1  0  0  0
  9 27  2  0  0  0
 10 11  2  0  0  0
 10 15  1  0  0  0
 11 12  1  0  0  0
 11 93  1  0  0  0
 12 13  2  0  0  0
 12 94  1  0  0  0
 13 14  1  0  0  0
 13 31  1  0  0  0
 14 15  2  0  0  0
 14 95  1  0  0  0
 15 96  1  0  0  0
 16 17  2  0  0  0
 16 21  1  0  0  0
 16 31  1  0  0  0
 17 18  1  0  0  0
 17 97  1  0  0  0
 18 19  2  0  0  0
 18 98  1  0  0  0
 19 20  1  0  0  0
 19 24  1  0  0  0
 20 21  2  0  0  0
 20 99  1  0  0  0
 21 23  1  0  0  0
 22 28  1  0  0  0
 22 32  2  0  0  0
 26 27  1  0  0  0
 28100  1  0  0  0
 28101  1  0  0  0
 29102  1  0  0  0
 29103  1  0  0  0
 33 34  1  0  0  0
 33 66  1  0  0  0
 33 70  2  0  0  0
 34 36  1  0  0  0
 34 59  1  0  0  0
 34104  1  0  0  0
 35 44  2  0  0  0
 35 45  1  0  0  0
 35 68  1  0  0  0
 36 56  1  0  0  0
 36105  1  0  0  0
 37 39  1  0  0  0
 37 47  1  0  0  0
 37 66  1  0  0  0
 37106  1  0  0  0
 38 43  2  0  0  0
 38 46  1  0  0  0
 38 47  1  0  0  0
 39 64  1  0  0  0
 39 67  2  0  0  0
 40 52  1  0  0  0
 40 53  2  0  0  0
 40 58  1  0  0  0
 41107  1  0  0  0
 41108  1  0  0  0
 41109  1  0  0  0
 41 48  1  0  0  0
 42 43  1  0  0  0
 42 66  1  0  0  0
 42110  1  0  0  0
 42111  1  0  0  0
 43 44  1  0  0  0
 44112  1  0  0  0
 45 46  2  0  0  0
 45113  1  0  0  0
 46114  1  0  0  0
 47115  1  0  0  0
 47116  1  0  0  0
 48 56  1  0  0  0
 48 65  1  0  0  0
 48117  1  0  0  0
 49 50  1  0  0  0
 49 53  1  0  0  0
 49 64  1  0  0  0
 49118  1  0  0  0
 50 51  1  0  0  0
 50119  1  0  0  0
 50120  1  0  0  0
 51 52  1  0  0  0
 51121  1  0  0  0
 51122  1  0  0  0
 52123  1  0  0  0
 52124  1  0  0  0
 53 54  1  0  0  0
 54 55  2  0  0  0
 54125  1  0  0  0
 55 57  1  0  0  0
 55126  1  0  0  0
 56 69  2  0  0  0
 57 58  2  0  0  0
 57127  1  0  0  0
 58128  1  0  0  0
 59 60  1  0  0  0
 59 61  1  0  0  0
 59 62  1  0  0  0
 60129  1  0  0  0
 60130  1  0  0  0
 60131  1  0  0  0
 61132  1  0  0  0
 61133  1  0  0  0
 61134  1  0  0  0
 62135  1  0  0  0
 62136  1  0  0  0
 62137  1  0  0  0
 63 65  1  0  0  0
 63138  1  0  0  0
 63139  1  0  0  0
 63140  1  0  0  0
 64141  1  0  0  0
 65142  1  0  0  0
 68 78  1  0  0  0
 71 72  2  0  0  0
 71 81  1  0  0  0
 71143  1  0  0  0
 72 77  1  0  0  0
 72 82  1  0  0  0
 73 74  1  0  0  0
 73 75  1  0  0  0
 73 82  2  0  0  0
 74 78  1  0  0  0
 74 81  2  0  0  0
 75144  1  0  0  0
 75145  1  0  0  0
 75146  1  0  0  0
 76 83  1  0  0  0
 76147  1  0  0  0
 76148  1  0  0  0
 76149  1  0  0  0
 77 79  1  0  0  0
 77150  1  0  0  0
 77151  1  0  0  0
 78152  1  0  0  0
 78153  1  0  0  0
 79 80  1  0  0  0
 79154  1  0  0  0
 79155  1  0  0  0
 80 83  1  0  0  0
 80156  1  0  0  0
 80157  1  0  0  0
M  ISO  4   1 100  68 101  78 101  83 100
M  END
> <chiral flag>
0

> <version>
0

> <s_m_source_file>
/data/baiqing/PycharmProjects/Reinvent-master-3.2/result/LINK_invent/BTK/process_docking_weight1_custom_sum_contain_oxygen_bond_distance_aromatic_linkinvent_7_9_3/rearranged_h_0064.sdf

> <i_m_source_file_index>
18

> <r_mmod_Potential_Energy-OPLS-2005>
307.953948974609

> <r_mmod_Stretch_Energy-OPLS-2005>
88.2773895263672

> <r_mmod_Bend_Energy-OPLS-2005>
143.723983764648

> <r_mmod_Torsional_Energy-OPLS-2005>
302.774108886719

> <r_mmod_Improper_Torsional_Energy-OPLS-2005>
9.66813182830811

> <r_mmod_Van_der_Waal_Energy-OPLS-2005>
149.613861083984

> <r_mmod_Electrostatic_Energy-OPLS-2005>
-217.860794067383

> <r_mmod_Solvation_Energy-OPLS-2005>
-212.632293701172

> <b_mmod_Minimization_Converged-OPLS-2005>
0

> <r_mmod_RMS_Derivative-OPLS-2005>
0.875676035881042

$$$$
18
                    3D
 Structure written by MMmdl.
165173  0  0  1  0            999 V2000
  -30.4853  -14.9357   20.4110 C   0  0  0  0  0  0
  -30.4885  -12.5834   19.4506 C   0  0  0  0  0  0
  -29.5242  -12.5116   18.2343 C   0  0  0  0  0  0
  -28.0477  -12.2983   18.6512 C   0  0  0  0  0  0
  -27.6419  -13.1564   19.8744 C   0  0  2  0  0  0
  -28.7360  -13.0576   20.9683 C   0  0  0  0  0  0
  -25.2490  -13.7889   20.5689 C   0  0  0  0  0  0
  -24.1760  -13.0246   20.9267 C   0  0  0  0  0  0
  -24.6310  -11.6725   20.8844 C   0  0  0  0  0  0
  -23.8973  -10.4177   21.0473 C   0  0  0  0  0  0
  -24.3552   -9.4108   21.9233 C   0  0  0  0  0  0
  -23.6242   -8.2147   22.0770 C   0  0  0  0  0  0
  -22.4231   -8.0213   21.3544 C   0  0  0  0  0  0
  -21.9858   -9.0183   20.4647 C   0  0  0  0  0  0
  -22.7174  -10.2062   20.3083 C   0  0  0  0  0  0
  -21.6817   -6.0702   22.5280 C   0  0  0  0  0  0
  -21.3982   -6.5615   23.8211 C   0  0  0  0  0  0
  -21.3657   -5.6777   24.9180 C   0  0  0  0  0  0
  -21.6052   -4.3041   24.7232 C   0  0  0  0  0  0
  -21.8821   -3.8127   23.4353 C   0  0  0  0  0  0
  -21.9181   -4.6937   22.3406 C   0  0  0  0  0  0
  -22.7801  -13.5125   21.1882 C   0  0  0  0  0  0
  -22.1657   -4.2128   21.0983 F   0  0  0  0  0  0
  -21.5649   -3.4529   25.7748 F   0  0  0  0  0  0
  -29.9820  -13.6179   20.3962 N   0  0  0  0  0  0
  -26.2932  -12.8957   20.3493 N   0  0  0  0  0  0
  -25.9234  -11.6192   20.5932 N   0  0  0  0  0  0
  -22.0411  -12.8176   22.0449 N   0  0  0  0  0  0
  -25.3927  -15.1591   20.3867 N   0  0  0  0  0  0
  -31.6994  -15.0340   20.1839 O   0  0  0  0  0  0
  -21.6590   -6.8827   21.4237 O   0  0  0  0  0  0
  -22.3533  -14.5442   20.6703 O   0  0  0  0  0  0
  -24.6341  -31.8510   23.1946 C   0  0  0  0  0  0
  -25.9152  -32.4730   23.8307 C   0  0  1  0  0  0
  -27.2520  -27.2417   20.1290 C   0  0  0  0  0  0
  -25.5936  -33.8534   24.2229 N   0  0  0  0  0  0
  -23.4346  -30.4701   21.5368 C   0  0  2  0  0  0
  -24.8897  -28.9106   20.1096 C   0  0  0  0  0  0
  -22.7524  -29.4576   22.4886 C   0  0  0  0  0  0
  -18.0295  -28.1391   22.8475 C   0  0  0  0  0  0
  -24.1491  -36.7276   23.2641 C   0  0  0  0  0  0
  -25.9819  -30.7559   21.3803 C   0  0  0  0  0  0
  -26.0587  -29.3752   20.7238 C   0  0  0  0  0  0
  -27.2352  -28.5537   20.7240 C   0  0  0  0  0  0
  -26.0573  -26.8559   19.4740 C   0  0  0  0  0  0
  -24.8960  -27.6590   19.4743 C   0  0  0  0  0  0
  -23.6581  -29.7983   20.1550 C   0  0  0  0  0  0
  -25.4117  -36.3054   24.0323 C   0  0  1  0  0  0
  -20.5905  -28.3706   23.1253 C   0  0  2  0  0  0
  -20.6785  -26.9418   22.5406 C   0  0  0  0  0  0
  -19.5763  -26.6378   21.5208 C   0  0  0  0  0  0
  -18.1941  -26.7930   22.1615 C   0  0  0  0  0  0
  -19.1551  -28.8865   23.2859 C   0  0  0  0  0  0
  -18.9472  -30.1464   23.8881 C   0  0  0  0  0  0
  -17.6471  -30.6591   24.0559 C   0  0  0  0  0  0
  -25.9060  -34.9426   23.5080 C   0  0  0  0  0  0
  -16.5361  -29.9088   23.6332 C   0  0  0  0  0  0
  -16.7282  -28.6509   23.0347 C   0  0  0  0  0  0
  -26.4512  -31.6568   25.0711 C   0  0  0  0  0  0
  -25.3727  -31.3730   26.1425 C   0  0  0  0  0  0
  -27.0371  -30.2979   24.6227 C   0  0  0  0  0  0
  -27.6053  -32.4318   25.7496 C   0  0  0  0  0  0
  -27.5576  -37.1792   24.8464 C   0  0  0  0  0  0
  -21.4226  -29.3045   22.3636 N   0  0  0  0  0  0
  -26.4286  -37.3758   23.9408 N   0  0  0  0  0  0
  -24.7020  -31.0448   22.0932 N   0  0  0  0  0  0
  -23.4201  -28.8120   23.3005 O   0  0  0  0  0  0
  -28.3663  -26.3545   20.2134 O   0  0  0  0  0  0
  -26.5641  -34.8913   22.4653 O   0  0  0  0  0  0
  -23.5480  -32.1342   23.7220 O   0  0  0  0  0  0
  -28.8392  -20.0360   21.0052 C   0  0  0  0  0  0
  -29.7047  -20.7893   20.1966 C   0  0  0  0  0  0
  -30.7975  -19.9652   19.7563 C   0  0  0  0  0  0
  -29.9331  -17.9190   20.6461 C   0  0  0  0  0  0
  -31.6308  -20.3222   17.3884 C   0  0  0  0  0  0
  -29.4294  -17.1357   17.8181 C   0  0  0  0  0  0
  -28.4773  -16.0574   21.5526 C   0  0  0  0  0  0
  -29.2808  -22.2500   19.6331 C   0  0  0  0  0  0
  -31.8984  -20.5394   18.8833 C   0  0  0  0  0  0
  -29.2056  -23.6786   20.4304 C   0  0  0  0  0  0
  -28.2779  -24.8915   19.8193 C   0  0  0  0  0  0
  -28.8108  -16.3155   18.9664 C   0  0  1  0  0  0
  -29.5105  -16.3236   20.3993 C   0  0  2  0  0  0
  -28.9614  -18.6927   21.1882 N   0  0  0  0  0  0
  -30.8962  -18.5960   19.9790 N   0  0  0  0  0  0
  -27.4231  -16.6435   18.9948 O   0  0  0  0  0  0
  -31.4966  -12.8141   19.1028 H   0  0  0  0  0  0
  -30.5739  -11.6102   19.9367 H   0  0  0  0  0  0
  -29.8347  -11.7087   17.5648 H   0  0  0  0  0  0
  -29.6122  -13.4254   17.6473 H   0  0  0  0  0  0
  -27.9197  -11.2429   18.8950 H   0  0  0  0  0  0
  -27.3836  -12.4958   17.8091 H   0  0  0  0  0  0
  -27.5764  -14.1595   19.5075 H   0  0  0  0  0  0
  -28.8715  -12.0058   21.2258 H   0  0  0  0  0  0
  -28.4804  -13.4823   21.9358 H   0  0  0  0  0  0
  -25.2694   -9.5590   22.4812 H   0  0  0  0  0  0
  -23.9957   -7.4525   22.7472 H   0  0  0  0  0  0
  -21.0800   -8.8686   19.8938 H   0  0  0  0  0  0
  -22.3647  -10.9615   19.6198 H   0  0  0  0  0  0
  -21.1950   -7.6120   23.9708 H   0  0  0  0  0  0
  -21.1494   -6.0509   25.9086 H   0  0  0  0  0  0
  -22.0609   -2.7588   23.2855 H   0  0  0  0  0  0
  -22.3995  -11.9847   22.4880 H   0  0  0  0  0  0
  -21.1036  -13.1249   22.2630 H   0  0  0  0  0  0
  -24.5902  -15.7758   20.4383 H   0  0  0  0  0  0
  -26.1872  -15.5917   19.9085 H   0  0  0  0  0  0
  -26.7219  -32.5375   23.1048 H   0  0  0  0  0  0
  -25.0077  -33.9659   25.0373 H   0  0  0  0  0  0
  -22.7326  -31.2927   21.3853 H   0  0  0  0  0  0
  -23.3751  -35.9609   23.3295 H   0  0  0  0  0  0
  -24.3583  -36.8910   22.2057 H   0  0  0  0  0  0
  -23.7247  -37.6473   23.6675 H   0  0  0  0  0  0
  -26.1255  -31.5149   20.6104 H   0  0  0  0  0  0
  -26.8571  -30.8061   22.0166 H   0  0  0  0  0  0
  -28.1262  -28.9073   21.2235 H   0  0  0  0  0  0
  -25.9892  -25.9089   18.9611 H   0  0  0  0  0  0
  -24.0043  -27.2994   18.9792 H   0  0  0  0  0  0
  -23.7851  -30.5734   19.3985 H   0  0  0  0  0  0
  -22.7768  -29.2325   19.8475 H   0  0  0  0  0  0
  -25.1302  -36.1892   25.0816 H   0  0  0  0  0  0
  -20.9994  -28.3291   24.1375 H   0  0  0  0  0  0
  -20.5676  -26.2319   23.3618 H   0  0  0  0  0  0
  -21.6652  -26.7432   22.1207 H   0  0  0  0  0  0
  -19.6927  -25.6284   21.1251 H   0  0  0  0  0  0
  -19.6703  -27.3179   20.6733 H   0  0  0  0  0  0
  -17.4210  -26.6669   21.4021 H   0  0  0  0  0  0
  -18.0346  -26.0079   22.9020 H   0  0  0  0  0  0
  -19.7952  -30.7283   24.2241 H   0  0  0  0  0  0
  -17.5029  -31.6268   24.5168 H   0  0  0  0  0  0
  -15.5365  -30.2987   23.7665 H   0  0  0  0  0  0
  -15.8680  -28.0827   22.7064 H   0  0  0  0  0  0
  -24.5907  -30.7074   25.7752 H   0  0  0  0  0  0
  -24.8915  -32.2905   26.4822 H   0  0  0  0  0  0
  -25.8038  -30.8923   27.0217 H   0  0  0  0  0  0
  -26.2966  -29.6709   24.1245 H   0  0  0  0  0  0
  -27.4037  -29.7261   25.4762 H   0  0  0  0  0  0
  -27.8850  -30.4245   23.9492 H   0  0  0  0  0  0
  -27.2650  -33.3625   26.2051 H   0  0  0  0  0  0
  -28.3884  -32.6866   25.0342 H   0  0  0  0  0  0
  -28.0701  -31.8457   26.5436 H   0  0  0  0  0  0
  -28.2586  -38.0096   24.7510 H   0  0  0  0  0  0
  -28.1081  -36.2625   24.6291 H   0  0  0  0  0  0
  -27.2296  -37.1442   25.8868 H   0  0  0  0  0  0
  -20.9421  -29.8762   21.6832 H   0  0  0  0  0  0
  -26.0160  -38.2829   24.1411 H   0  0  0  0  0  0
  -27.9440  -20.4860   21.4090 H   0  0  0  0  0  0
  -32.4324  -20.7468   16.7841 H   0  0  0  0  0  0
  -30.6949  -20.7898   17.0828 H   0  0  0  0  0  0
  -31.5653  -19.2597   17.1545 H   0  0  0  0  0  0
  -30.5030  -16.9579   17.7414 H   0  0  0  0  0  0
  -29.2659  -18.2069   17.9320 H   0  0  0  0  0  0
  -28.9912  -16.8544   16.8599 H   0  0  0  0  0  0
  -27.7278  -16.8247   21.7220 H   0  0  0  0  0  0
  -28.9740  -15.8832   22.5072 H   0  0  0  0  0  0
  -27.7939  -15.2609   21.3511 H   0  0  0  0  0  0
  -28.2702  -22.0875   19.2550 H   0  0  0  0  0  0
  -29.8587  -22.4294   18.7269 H   0  0  0  0  0  0
  -32.8443  -20.0704   19.1570 H   0  0  0  0  0  0
  -32.0241  -21.6008   19.0978 H   0  0  0  0  0  0
  -30.2239  -24.0488   20.5526 H   0  0  0  0  0  0
  -28.8460  -23.4858   21.4412 H   0  0  0  0  0  0
  -27.2576  -24.5528   19.9932 H   0  0  0  0  0  0
  -28.4061  -24.8791   18.7362 H   0  0  0  0  0  0
  -28.8790  -15.3205   18.5454 H   0  0  0  0  0  0
  -27.3355  -17.5152   19.3704 H   0  0  0  0  0  0
  1 25  1  0  0  0
  1 30  2  0  0  0
  1 83  1  0  0  0
  2  3  1  0  0  0
  2 25  1  0  0  0
  2 87  1  0  0  0
  2 88  1  0  0  0
  3  4  1  0  0  0
  3 89  1  0  0  0
  3 90  1  0  0  0
  4  5  1  0  0  0
  4 91  1  0  0  0
  4 92  1  0  0  0
  5  6  1  0  0  0
  5 26  1  0  0  0
  5 93  1  0  0  0
  6 25  1  0  0  0
  6 94  1  0  0  0
  6 95  1  0  0  0
  7  8  2  0  0  0
  7 26  1  0  0  0
  7 29  1  0  0  0
  8  9  1  0  0  0
  8 22  1  0  0  0
  9 10  1  0  0  0
  9 27  2  0  0  0
 10 11  2  0  0  0
 10 15  1  0  0  0
 11 12  1  0  0  0
 11 96  1  0  0  0
 12 13  2  0  0  0
 12 97  1  0  0  0
 13 14  1  0  0  0
 13 31  1  0  0  0
 14 15  2  0  0  0
 14 98  1  0  0  0
 15 99  1  0  0  0
 16 17  2  0  0  0
 16 21  1  0  0  0
 16 31  1  0  0  0
 17 18  1  0  0  0
 17100  1  0  0  0
 18 19  2  0  0  0
 18101  1  0  0  0
 19 20  1  0  0  0
 19 24  1  0  0  0
 20 21  2  0  0  0
 20102  1  0  0  0
 21 23  1  0  0  0
 22 28  1  0  0  0
 22 32  2  0  0  0
 26 27  1  0  0  0
 28103  1  0  0  0
 28104  1  0  0  0
 29105  1  0  0  0
 29106  1  0  0  0
 33 34  1  0  0  0
 33 66  1  0  0  0
 33 70  2  0  0  0
 34 36  1  0  0  0
 34 59  1  0  0  0
 34107  1  0  0  0
 35 44  2  0  0  0
 35 45  1  0  0  0
 35 68  1  0  0  0
 36 56  1  0  0  0
 36108  1  0  0  0
 37 39  1  0  0  0
 37 47  1  0  0  0
 37 66  1  0  0  0
 37109  1  0  0  0
 38 43  2  0  0  0
 38 46  1  0  0  0
 38 47  1  0  0  0
 39 64  1  0  0  0
 39 67  2  0  0  0
 40 52  1  0  0  0
 40 53  2  0  0  0
 40 58  1  0  0  0
 41110  1  0  0  0
 41111  1  0  0  0
 41112  1  0  0  0
 41 48  1  0  0  0
 42 43  1  0  0  0
 42 66  1  0  0  0
 42113  1  0  0  0
 42114  1  0  0  0
 43 44  1  0  0  0
 44115  1  0  0  0
 45 46  2  0  0  0
 45116  1  0  0  0
 46117  1  0  0  0
 47118  1  0  0  0
 47119  1  0  0  0
 48 56  1  0  0  0
 48 65  1  0  0  0
 48120  1  0  0  0
 49 50  1  0  0  0
 49 53  1  0  0  0
 49 64  1  0  0  0
 49121  1  0  0  0
 50 51  1  0  0  0
 50122  1  0  0  0
 50123  1  0  0  0
 51 52  1  0  0  0
 51124  1  0  0  0
 51125  1  0  0  0
 52126  1  0  0  0
 52127  1  0  0  0
 53 54  1  0  0  0
 54 55  2  0  0  0
 54128  1  0  0  0
 55 57  1  0  0  0
 55129  1  0  0  0
 56 69  2  0  0  0
 57 58  2  0  0  0
 57130  1  0  0  0
 58131  1  0  0  0
 59 60  1  0  0  0
 59 61  1  0  0  0
 59 62  1  0  0  0
 60132  1  0  0  0
 60133  1  0  0  0
 60134  1  0  0  0
 61135  1  0  0  0
 61136  1  0  0  0
 61137  1  0  0  0
 62138  1  0  0  0
 62139  1  0  0  0
 62140  1  0  0  0
 63 65  1  0  0  0
 63141  1  0  0  0
 63142  1  0  0  0
 63143  1  0  0  0
 64144  1  0  0  0
 65145  1  0  0  0
 68 81  1  0  0  0
 71 72  2  0  0  0
 71 84  1  0  0  0
 71146  1  0  0  0
 72 73  1  0  0  0
 72 78  1  0  0  0
 73 79  1  0  0  0
 73 85  2  0  0  0
 74 83  1  0  0  0
 74 84  2  0  0  0
 74 85  1  0  0  0
 75 79  1  0  0  0
 75147  1  0  0  0
 75148  1  0  0  0
 75149  1  0  0  0
 76150  1  0  0  0
 76151  1  0  0  0
 76152  1  0  0  0
 76 82  1  0  0  0
 77153  1  0  0  0
 77154  1  0  0  0
 77155  1  0  0  0
 77 83  1  0  0  0
 78 80  1  0  0  0
 78156  1  0  0  0
 78157  1  0  0  0
 79158  1  0  0  0
 79159  1  0  0  0
 80 81  1  0  0  0
 80160  1  0  0  0
 80161  1  0  0  0
 81162  1  0  0  0
 81163  1  0  0  0
 82 83  1  0  0  0
 82 86  1  0  0  0
 82164  1  0  0  0
 86165  1  0  0  0
M  ISO  4   1 100  68 101  81 101  83 100
M  END
> <chiral flag>
0

> <version>
0

> <s_m_source_file>
/data/baiqing/PycharmProjects/Reinvent-master-3.2/result/LINK_invent/BTK/process_docking_weight1_custom_sum_contain_oxygen_bond_distance_aromatic_linkinvent_7_9_3/rearranged_h_0064.sdf

> <i_m_source_file_index>
19

> <r_mmod_Potential_Energy-OPLS-2005>
399.656982421875

> <r_mmod_Stretch_Energy-OPLS-2005>
213.738830566406

> <r_mmod_Bend_Energy-OPLS-2005>
299.505279541016

> <r_mmod_Torsional_Energy-OPLS-2005>
222.475875854492

> <r_mmod_Improper_Torsional_Energy-OPLS-2005>
15.8820848464966

> <r_mmod_Van_der_Waal_Energy-OPLS-2005>
192.405914306641

> <r_mmod_Electrostatic_Energy-OPLS-2005>
-481.181213378906

> <r_mmod_Solvation_Energy-OPLS-2005>
-204.531158447266

> <b_mmod_Minimization_Converged-OPLS-2005>
0

> <r_mmod_RMS_Derivative-OPLS-2005>
0.733499586582184

$$$$
19
                    3D
 Structure written by MMmdl.
172180  0  0  1  0            999 V2000
  -30.6687  -14.6741   20.3879 C   0  0  0  0  0  0
  -30.4292  -12.3993   19.4403 C   0  0  0  0  0  0
  -29.4887  -12.4202   18.2164 C   0  0  0  0  0  0
  -28.0129  -12.2991   18.6473 C   0  0  0  0  0  0
  -27.6330  -13.2085   19.8483 C   0  0  2  0  0  0
  -28.7013  -13.1692   20.9619 C   0  0  0  0  0  0
  -25.2524  -13.8138   20.5768 C   0  0  0  0  0  0
  -24.1781  -13.0423   20.9238 C   0  0  0  0  0  0
  -24.6346  -11.6895   20.8811 C   0  0  0  0  0  0
  -23.9023  -10.4285   21.0431 C   0  0  0  0  0  0
  -24.3594   -9.4199   21.9197 C   0  0  0  0  0  0
  -23.6285   -8.2228   22.0755 C   0  0  0  0  0  0
  -22.4273   -8.0264   21.3540 C   0  0  0  0  0  0
  -21.9897   -9.0236   20.4643 C   0  0  0  0  0  0
  -22.7208  -10.2126   20.3064 C   0  0  0  0  0  0
  -21.6852   -6.0726   22.5275 C   0  0  0  0  0  0
  -21.4012   -6.5628   23.8206 C   0  0  0  0  0  0
  -21.3666   -5.6781   24.9167 C   0  0  0  0  0  0
  -21.6050   -4.3044   24.7216 C   0  0  0  0  0  0
  -21.8824   -3.8138   23.4335 C   0  0  0  0  0  0
  -21.9191   -4.6958   22.3395 C   0  0  0  0  0  0
  -22.7804  -13.5237   21.1844 C   0  0  0  0  0  0
  -22.1658   -4.2146   21.0974 F   0  0  0  0  0  0
  -21.5636   -3.4528   25.7725 F   0  0  0  0  0  0
  -29.9959  -13.4812   20.3412 N   0  0  0  0  0  0
  -26.2921  -12.9281   20.3415 N   0  0  0  0  0  0
  -25.9277  -11.6461   20.5893 N   0  0  0  0  0  0
  -22.0418  -12.8254   22.0396 N   0  0  0  0  0  0
  -25.4259  -15.1859   20.4180 N   0  0  0  0  0  0
  -31.8919  -14.7130   20.2710 O   0  0  0  0  0  0
  -21.6635   -6.8868   21.4236 O   0  0  0  0  0  0
  -22.3514  -14.5539   20.6661 O   0  0  0  0  0  0
  -24.6215  -31.8607   23.2013 C   0  0  0  0  0  0
  -25.9074  -32.4779   23.8338 C   0  0  1  0  0  0
  -27.2394  -27.3545   20.1065 C   0  0  0  0  0  0
  -25.5898  -33.8577   24.2273 N   0  0  0  0  0  0
  -23.4137  -30.4804   21.5434 C   0  0  2  0  0  0
  -24.8594  -28.9289   20.1119 C   0  0  0  0  0  0
  -22.7443  -29.4627   22.4962 C   0  0  0  0  0  0
  -18.0281  -28.1390   22.8494 C   0  0  0  0  0  0
  -24.1487  -36.7303   23.2642 C   0  0  0  0  0  0
  -25.9474  -30.8021   21.3620 C   0  0  0  0  0  0
  -26.0219  -29.4290   20.7084 C   0  0  0  0  0  0
  -27.2083  -28.6503   20.6972 C   0  0  0  0  0  0
  -26.0474  -26.8748   19.5223 C   0  0  0  0  0  0
  -24.8705  -27.6547   19.5147 C   0  0  0  0  0  0
  -23.6252  -29.8058   20.1602 C   0  0  0  0  0  0
  -25.4111  -36.3086   24.0332 C   0  0  1  0  0  0
  -20.5875  -28.3683   23.1310 C   0  0  2  0  0  0
  -20.6774  -26.9414   22.5423 C   0  0  0  0  0  0
  -19.5752  -26.6390   21.5223 C   0  0  0  0  0  0
  -18.1929  -26.7936   22.1628 C   0  0  0  0  0  0
  -19.1530  -28.8855   23.2897 C   0  0  0  0  0  0
  -18.9453  -30.1460   23.8907 C   0  0  0  0  0  0
  -17.6453  -30.6593   24.0571 C   0  0  0  0  0  0
  -25.9043  -34.9453   23.5108 C   0  0  0  0  0  0
  -16.5345  -29.9096   23.6328 C   0  0  0  0  0  0
  -16.7269  -28.6515   23.0346 C   0  0  0  0  0  0
  -26.4475  -31.6581   25.0701 C   0  0  0  0  0  0
  -25.3718  -31.3709   26.1438 C   0  0  0  0  0  0
  -27.0310  -30.3011   24.6117 C   0  0  0  0  0  0
  -27.6039  -32.4313   25.7466 C   0  0  0  0  0  0
  -27.5580  -37.1806   24.8465 C   0  0  0  0  0  0
  -21.4164  -29.3036   22.3705 N   0  0  0  0  0  0
  -26.4292  -37.3778   23.9407 N   0  0  0  0  0  0
  -24.6798  -31.0641   22.0936 N   0  0  0  0  0  0
  -23.4182  -28.8187   23.3047 O   0  0  0  0  0  0
  -28.4225  -26.6179   20.1731 O   0  0  0  0  0  0
  -26.5621  -34.8920   22.4680 O   0  0  0  0  0  0
  -23.5390  -32.1393   23.7361 O   0  0  0  0  0  0
  -29.7777  -19.1982   19.4744 C   0  0  0  0  0  0
  -29.7731  -18.5760   20.7626 C   0  0  0  0  0  0
  -29.4187  -21.3628   20.3295 C   0  0  0  0  0  0
  -29.4034  -20.7718   21.6236 C   0  0  0  0  0  0
  -30.7111  -22.7411   24.7378 C   0  0  0  0  0  0
  -28.4977  -25.4161   17.9718 C   0  0  0  0  0  0
  -29.5736  -22.9007   20.0525 C   0  0  0  0  0  0
  -29.3411  -21.6045   22.8944 C   0  0  0  0  0  0
  -30.7380  -21.8545   23.4869 C   0  0  0  0  0  0
  -28.3807  -23.9447   20.1429 C   0  0  0  0  0  0
  -29.5631  -16.1164   18.8439 C   0  0  0  0  0  0
  -30.2244  -17.0674   21.1236 C   0  0  1  0  0  0
  -28.7247  -25.3540   19.4929 C   0  0  2  0  0  0
  -30.7598  -16.3110   17.8754 C   0  0  0  0  0  0
  -29.8547  -16.6862   22.6016 C   0  0  0  0  0  0
  -29.5782  -20.5367   19.2608 N   0  0  0  0  0  0
  -29.5595  -19.4247   21.8147 N   0  0  0  0  0  0
  -29.9429  -15.8424   20.2455 N   0  0  0  0  0  0
  -31.2943  -15.1462   17.5153 F   0  0  0  0  0  0
  -30.3128  -16.9052   16.7710 F   0  0  0  0  0  0
  -31.7128  -17.0743   18.4093 F   0  0  0  0  0  0
  -30.3872  -17.5228   23.4933 F   0  0  0  0  0  0
  -28.5286  -16.6820   22.7417 F   0  0  0  0  0  0
  -30.2914  -15.4808   22.9664 F   0  0  0  0  0  0
  -31.4643  -12.5224   19.1152 H   0  0  0  0  0  0
  -30.3834  -11.4382   19.9544 H   0  0  0  0  0  0
  -29.7420  -11.5985   17.5449 H   0  0  0  0  0  0
  -29.6322  -13.3257   17.6320 H   0  0  0  0  0  0
  -27.8484  -11.2553   18.9171 H   0  0  0  0  0  0
  -27.3538  -12.4954   17.8006 H   0  0  0  0  0  0
  -27.5876  -14.2213   19.4692 H   0  0  0  0  0  0
  -28.7358  -12.1870   21.4352 H   0  0  0  0  0  0
  -28.4625  -13.8871   21.7486 H   0  0  0  0  0  0
  -25.2731   -9.5688   22.4777 H   0  0  0  0  0  0
  -23.9997   -7.4624   22.7477 H   0  0  0  0  0  0
  -21.0827   -8.8747   19.8952 H   0  0  0  0  0  0
  -22.3653  -10.9669   19.6186 H   0  0  0  0  0  0
  -21.2002   -7.6135   23.9705 H   0  0  0  0  0  0
  -21.1486   -6.0510   25.9071 H   0  0  0  0  0  0
  -22.0603   -2.7600   23.2827 H   0  0  0  0  0  0
  -22.4004  -11.9927   22.4822 H   0  0  0  0  0  0
  -21.1037  -13.1304   22.2572 H   0  0  0  0  0  0
  -24.6638  -15.8430   20.5438 H   0  0  0  0  0  0
  -26.2905  -15.6335   20.1461 H   0  0  0  0  0  0
  -26.7145  -32.5458   23.1093 H   0  0  0  0  0  0
  -25.0029  -33.9722   25.0406 H   0  0  0  0  0  0
  -22.7066  -31.2996   21.3972 H   0  0  0  0  0  0
  -23.3741  -35.9643   23.3305 H   0  0  0  0  0  0
  -24.3583  -36.8922   22.2055 H   0  0  0  0  0  0
  -23.7241  -37.6507   23.6663 H   0  0  0  0  0  0
  -26.0667  -31.5631   20.5898 H   0  0  0  0  0  0
  -26.8333  -30.8578   21.9832 H   0  0  0  0  0  0
  -28.1059  -29.0341   21.1618 H   0  0  0  0  0  0
  -25.9987  -25.8826   19.1031 H   0  0  0  0  0  0
  -23.9710  -27.2561   19.0658 H   0  0  0  0  0  0
  -23.7414  -30.5779   19.3987 H   0  0  0  0  0  0
  -22.7467  -29.2304   19.8629 H   0  0  0  0  0  0
  -25.1289  -36.1946   25.0824 H   0  0  0  0  0  0
  -20.9967  -28.3251   24.1431 H   0  0  0  0  0  0
  -20.5688  -26.2288   23.3612 H   0  0  0  0  0  0
  -21.6643  -26.7462   22.1206 H   0  0  0  0  0  0
  -19.6914  -25.6301   21.1251 H   0  0  0  0  0  0
  -19.6695  -27.3203   20.6754 H   0  0  0  0  0  0
  -17.4206  -26.6696   21.4022 H   0  0  0  0  0  0
  -18.0316  -26.0075   22.9015 H   0  0  0  0  0  0
  -19.7930  -30.7277   24.2275 H   0  0  0  0  0  0
  -17.5008  -31.6273   24.5172 H   0  0  0  0  0  0
  -15.5344  -30.3002   23.7641 H   0  0  0  0  0  0
  -15.8671  -28.0838   22.7046 H   0  0  0  0  0  0
  -24.5890  -30.7062   25.7768 H   0  0  0  0  0  0
  -24.8912  -32.2872   26.4875 H   0  0  0  0  0  0
  -25.8052  -30.8879   27.0204 H   0  0  0  0  0  0
  -26.2869  -29.6770   24.1156 H   0  0  0  0  0  0
  -27.4043  -29.7255   25.4596 H   0  0  0  0  0  0
  -27.8718  -30.4313   23.9300 H   0  0  0  0  0  0
  -27.2651  -33.3607   26.2052 H   0  0  0  0  0  0
  -28.3839  -32.6883   25.0288 H   0  0  0  0  0  0
  -28.0718  -31.8435   26.5371 H   0  0  0  0  0  0
  -28.2599  -38.0101   24.7505 H   0  0  0  0  0  0
  -28.1075  -36.2632   24.6298 H   0  0  0  0  0  0
  -27.2307  -37.1464   25.8871 H   0  0  0  0  0  0
  -20.9338  -29.8730   21.6893 H   0  0  0  0  0  0
  -26.0177  -38.2856   24.1398 H   0  0  0  0  0  0
  -30.0095  -18.6735   18.5677 H   0  0  0  0  0  0
  -31.7205  -22.9134   25.1127 H   0  0  0  0  0  0
  -30.1353  -22.2779   25.5394 H   0  0  0  0  0  0
  -30.2666  -23.7137   24.5251 H   0  0  0  0  0  0
  -29.0855  -24.6523   17.4616 H   0  0  0  0  0  0
  -28.8074  -26.3824   17.5725 H   0  0  0  0  0  0
  -27.4603  -25.2532   17.6879 H   0  0  0  0  0  0
  -29.9875  -22.9816   19.0473 H   0  0  0  0  0  0
  -30.3769  -23.2584   20.6969 H   0  0  0  0  0  0
  -28.7154  -21.0875   23.6233 H   0  0  0  0  0  0
  -28.8405  -22.5503   22.6966 H   0  0  0  0  0  0
  -31.2033  -20.8987   23.7325 H   0  0  0  0  0  0
  -31.3780  -22.3182   22.7353 H   0  0  0  0  0  0
  -28.1118  -24.0913   21.1882 H   0  0  0  0  0  0
  -27.4940  -23.5357   19.6585 H   0  0  0  0  0  0
  -28.9866  -15.2994   18.4265 H   0  0  0  0  0  0
  -28.8474  -16.9315   18.8006 H   0  0  0  0  0  0
  -31.3121  -17.1554   21.1159 H   0  0  0  0  0  0
  -29.8112  -25.3977   19.5790 H   0  0  0  0  0  0
  1 25  1  0  0  0
  1 30  2  0  0  0
  1 88  1  0  0  0
  2  3  1  0  0  0
  2 25  1  0  0  0
  2 95  1  0  0  0
  2 96  1  0  0  0
  3  4  1  0  0  0
  3 97  1  0  0  0
  3 98  1  0  0  0
  4  5  1  0  0  0
  4 99  1  0  0  0
  4100  1  0  0  0
  5  6  1  0  0  0
  5 26  1  0  0  0
  5101  1  0  0  0
  6 25  1  0  0  0
  6102  1  0  0  0
  6103  1  0  0  0
  7  8  2  0  0  0
  7 26  1  0  0  0
  7 29  1  0  0  0
  8  9  1  0  0  0
  8 22  1  0  0  0
  9 10  1  0  0  0
  9 27  2  0  0  0
 10 11  2  0  0  0
 10 15  1  0  0  0
 11 12  1  0  0  0
 11104  1  0  0  0
 12 13  2  0  0  0
 12105  1  0  0  0
 13 14  1  0  0  0
 13 31  1  0  0  0
 14 15  2  0  0  0
 14106  1  0  0  0
 15107  1  0  0  0
 16 17  2  0  0  0
 16 21  1  0  0  0
 16 31  1  0  0  0
 17 18  1  0  0  0
 17108  1  0  0  0
 18 19  2  0  0  0
 18109  1  0  0  0
 19 20  1  0  0  0
 19 24  1  0  0  0
 20 21  2  0  0  0
 20110  1  0  0  0
 21 23  1  0  0  0
 22 28  1  0  0  0
 22 32  2  0  0  0
 26 27  1  0  0  0
 28111  1  0  0  0
 28112  1  0  0  0
 29113  1  0  0  0
 29114  1  0  0  0
 33 34  1  0  0  0
 33 66  1  0  0  0
 33 70  2  0  0  0
 34 36  1  0  0  0
 34 59  1  0  0  0
 34115  1  0  0  0
 35 44  2  0  0  0
 35 45  1  0  0  0
 35 68  1  0  0  0
 36 56  1  0  0  0
 36116  1  0  0  0
 37 39  1  0  0  0
 37 47  1  0  0  0
 37 66  1  0  0  0
 37117  1  0  0  0
 38 43  2  0  0  0
 38 46  1  0  0  0
 38 47  1  0  0  0
 39 64  1  0  0  0
 39 67  2  0  0  0
 40 52  1  0  0  0
 40 53  2  0  0  0
 40 58  1  0  0  0
 41118  1  0  0  0
 41119  1  0  0  0
 41120  1  0  0  0
 41 48  1  0  0  0
 42 43  1  0  0  0
 42 66  1  0  0  0
 42121  1  0  0  0
 42122  1  0  0  0
 43 44  1  0  0  0
 44123  1  0  0  0
 45 46  2  0  0  0
 45124  1  0  0  0
 46125  1  0  0  0
 47126  1  0  0  0
 47127  1  0  0  0
 48 56  1  0  0  0
 48 65  1  0  0  0
 48128  1  0  0  0
 49 50  1  0  0  0
 49 53  1  0  0  0
 49 64  1  0  0  0
 49129  1  0  0  0
 50 51  1  0  0  0
 50130  1  0  0  0
 50131  1  0  0  0
 51 52  1  0  0  0
 51132  1  0  0  0
 51133  1  0  0  0
 52134  1  0  0  0
 52135  1  0  0  0
 53 54  1  0  0  0
 54 55  2  0  0  0
 54136  1  0  0  0
 55 57  1  0  0  0
 55137  1  0  0  0
 56 69  2  0  0  0
 57 58  2  0  0  0
 57138  1  0  0  0
 58139  1  0  0  0
 59 60  1  0  0  0
 59 61  1  0  0  0
 59 62  1  0  0  0
 60140  1  0  0  0
 60141  1  0  0  0
 60142  1  0  0  0
 61143  1  0  0  0
 61144  1  0  0  0
 61145  1  0  0  0
 62146  1  0  0  0
 62147  1  0  0  0
 62148  1  0  0  0
 63 65  1  0  0  0
 63149  1  0  0  0
 63150  1  0  0  0
 63151  1  0  0  0
 64152  1  0  0  0
 65153  1  0  0  0
 68 83  1  0  0  0
 71 72  2  0  0  0
 71 86  1  0  0  0
 71154  1  0  0  0
 72 82  1  0  0  0
 72 87  1  0  0  0
 73 74  1  0  0  0
 73 77  1  0  0  0
 73 86  2  0  0  0
 74 78  1  0  0  0
 74 87  2  0  0  0
 75 79  1  0  0  0
 75155  1  0  0  0
 75156  1  0  0  0
 75157  1  0  0  0
 76158  1  0  0  0
 76159  1  0  0  0
 76160  1  0  0  0
 76 83  1  0  0  0
 77 80  1  0  0  0
 77161  1  0  0  0
 77162  1  0  0  0
 78 79  1  0  0  0
 78163  1  0  0  0
 78164  1  0  0  0
 79165  1  0  0  0
 79166  1  0  0  0
 80 83  1  0  0  0
 80167  1  0  0  0
 80168  1  0  0  0
 81 84  1  0  0  0
 81 88  1  0  0  0
 81169  1  0  0  0
 81170  1  0  0  0
 82 85  1  0  0  0
 82 88  1  0  0  0
 82171  1  0  0  0
 83172  1  0  0  0
 84 89  1  0  0  0
 84 90  1  0  0  0
 84 91  1  0  0  0
 85 92  1  0  0  0
 85 93  1  0  0  0
 85 94  1  0  0  0
M  ISO  4   1 100  68 101  83 101  88 100
M  END
> <chiral flag>
0

> <version>
0

> <s_m_source_file>
/data/baiqing/PycharmProjects/Reinvent-master-3.2/result/LINK_invent/BTK/process_docking_weight1_custom_sum_contain_oxygen_bond_distance_aromatic_linkinvent_7_9_3/rearranged_h_0064.sdf

> <i_m_source_file_index>
20

> <r_mmod_Potential_Energy-OPLS-2005>
211.678817749023

> <r_mmod_Stretch_Energy-OPLS-2005>
94.2800216674805

> <r_mmod_Bend_Energy-OPLS-2005>
209.658309936523

> <r_mmod_Torsional_Energy-OPLS-2005>
319.893005371094

> <r_mmod_Improper_Torsional_Energy-OPLS-2005>
13.0136871337891

> <r_mmod_Van_der_Waal_Energy-OPLS-2005>
164.524780273438

> <r_mmod_Electrostatic_Energy-OPLS-2005>
-466.250152587891

> <r_mmod_Solvation_Energy-OPLS-2005>
-183.598571777344

> <b_mmod_Minimization_Converged-OPLS-2005>
0

> <r_mmod_RMS_Derivative-OPLS-2005>
1.31552493572235

$$$$
20
                    3D
 Structure written by MMmdl.
181189  0  0  1  0            999 V2000
  -30.8412  -14.4558   20.6585 C   0  0  0  0  0  0
  -30.4010  -12.3185   19.4899 C   0  0  0  0  0  0
  -29.5119  -12.5015   18.2445 C   0  0  0  0  0  0
  -28.0306  -12.3651   18.6286 C   0  0  0  0  0  0
  -27.6577  -13.2308   19.8596 C   0  0  2  0  0  0
  -28.6847  -13.1043   21.0107 C   0  0  0  0  0  0
  -25.2541  -13.8209   20.5628 C   0  0  0  0  0  0
  -24.1830  -13.0475   20.9154 C   0  0  0  0  0  0
  -24.6417  -11.6938   20.8710 C   0  0  0  0  0  0
  -23.9094  -10.4326   21.0379 C   0  0  0  0  0  0
  -24.3653   -9.4236   21.9163 C   0  0  0  0  0  0
  -23.6315   -8.2272   22.0746 C   0  0  0  0  0  0
  -22.4296   -8.0290   21.3554 C   0  0  0  0  0  0
  -21.9935   -9.0253   20.4651 C   0  0  0  0  0  0
  -22.7260  -10.2133   20.3041 C   0  0  0  0  0  0
  -21.6860   -6.0733   22.5272 C   0  0  0  0  0  0
  -21.4015   -6.5640   23.8204 C   0  0  0  0  0  0
  -21.3665   -5.6787   24.9175 C   0  0  0  0  0  0
  -21.6044   -4.3047   24.7216 C   0  0  0  0  0  0
  -21.8815   -3.8145   23.4340 C   0  0  0  0  0  0
  -21.9202   -4.6960   22.3397 C   0  0  0  0  0  0
  -22.7845  -13.5234   21.1786 C   0  0  0  0  0  0
  -22.1659   -4.2139   21.0971 F   0  0  0  0  0  0
  -21.5635   -3.4532   25.7734 F   0  0  0  0  0  0
  -30.0410  -13.3537   20.4875 N   0  0  0  0  0  0
  -26.2999  -12.9433   20.3259 N   0  0  0  0  0  0
  -25.9362  -11.6582   20.5775 N   0  0  0  0  0  0
  -22.0487  -12.8284   22.0368 N   0  0  0  0  0  0
  -25.4236  -15.1939   20.4045 N   0  0  0  0  0  0
  -31.8880  -14.5506   20.0077 O   0  0  0  0  0  0
  -21.6662   -6.8885   21.4241 O   0  0  0  0  0  0
  -22.3520  -14.5515   20.6563 O   0  0  0  0  0  0
  -24.6180  -31.8699   23.2112 C   0  0  0  0  0  0
  -25.9086  -32.4825   23.8396 C   0  0  1  0  0  0
  -27.2139  -27.4191   20.0803 C   0  0  0  0  0  0
  -25.5929  -33.8606   24.2362 N   0  0  0  0  0  0
  -23.4000  -30.5046   21.5525 C   0  0  2  0  0  0
  -24.8362  -28.9755   20.1063 C   0  0  0  0  0  0
  -22.7406  -29.4725   22.4958 C   0  0  0  0  0  0
  -18.0274  -28.1335   22.8497 C   0  0  0  0  0  0
  -24.1482  -36.7332   23.2640 C   0  0  0  0  0  0
  -25.9318  -30.8385   21.3540 C   0  0  0  0  0  0
  -26.0031  -29.4705   20.7012 C   0  0  0  0  0  0
  -27.1935  -28.7023   20.6832 C   0  0  0  0  0  0
  -26.0198  -26.9536   19.4725 C   0  0  0  0  0  0
  -24.8401  -27.7151   19.4912 C   0  0  0  0  0  0
  -23.5988  -29.8449   20.1647 C   0  0  0  0  0  0
  -25.4084  -36.3127   24.0371 C   0  0  1  0  0  0
  -20.5877  -28.3667   23.1294 C   0  0  2  0  0  0
  -20.6756  -26.9396   22.5406 C   0  0  0  0  0  0
  -19.5724  -26.6371   21.5211 C   0  0  0  0  0  0
  -18.1906  -26.7885   22.1628 C   0  0  0  0  0  0
  -19.1525  -28.8804   23.2896 C   0  0  0  0  0  0
  -18.9460  -30.1414   23.8914 C   0  0  0  0  0  0
  -17.6459  -30.6550   24.0563 C   0  0  0  0  0  0
  -25.9032  -34.9488   23.5166 C   0  0  0  0  0  0
  -16.5351  -29.9060   23.6294 C   0  0  0  0  0  0
  -16.7262  -28.6456   23.0347 C   0  0  0  0  0  0
  -26.4469  -31.6560   25.0700 C   0  0  0  0  0  0
  -25.3748  -31.3658   26.1472 C   0  0  0  0  0  0
  -27.0267  -30.3004   24.6020 C   0  0  0  0  0  0
  -27.6052  -32.4242   25.7462 C   0  0  0  0  0  0
  -27.5572  -37.1811   24.8462 C   0  0  0  0  0  0
  -21.4139  -29.3066   22.3710 N   0  0  0  0  0  0
  -26.4265  -37.3820   23.9438 N   0  0  0  0  0  0
  -24.6704  -31.0845   22.0982 N   0  0  0  0  0  0
  -23.4189  -28.8251   23.2980 O   0  0  0  0  0  0
  -28.3750  -26.6568   20.1157 O   0  0  0  0  0  0
  -26.5580  -34.8936   22.4726 O   0  0  0  0  0  0
  -23.5388  -32.1446   23.7541 O   0  0  0  0  0  0
  -32.2895  -19.4675   20.2168 C   0  0  0  0  0  0
  -30.2386  -20.2424   20.0573 C   0  0  0  0  0  0
  -32.3530  -20.4911   19.2947 C   0  0  0  0  0  0
  -31.0071  -21.0633   19.2551 C   0  0  0  0  0  0
  -30.7228  -18.6286   22.9644 C   0  0  0  0  0  0
  -34.8050  -19.8087   18.9696 C   0  0  0  0  0  0
  -34.2687  -22.1660   18.6948 C   0  0  0  0  0  0
  -33.4596  -20.4217   17.0089 C   0  0  0  0  0  0
  -31.2953  -23.2585   17.8541 C   0  0  0  0  0  0
  -29.6707  -21.5102   17.2209 C   0  0  0  0  0  0
  -30.1394  -15.3102   22.8669 C   0  0  0  0  0  0
  -29.4736  -24.3730   19.8958 C   0  0  0  0  0  0
  -29.2133  -22.9762   19.2287 C   0  0  0  0  0  0
  -31.1974  -16.8034   21.2082 C   0  0  0  0  0  0
  -28.2488  -25.2900   19.6868 C   0  0  0  0  0  0
  -30.5045  -18.1683   21.5100 C   0  0  2  0  0  0
  -33.6678  -20.7546   18.5016 C   0  0  0  0  0  0
  -30.3408  -22.2063   18.4329 C   0  0  0  0  0  0
  -30.9938  -19.2372   20.6156 N   0  0  0  0  0  0
  -30.4654  -15.5139   21.4465 N   0  0  0  0  0  0
  -31.4539  -12.3349   19.2010 H   0  0  0  0  0  0
  -30.2540  -11.3279   19.9243 H   0  0  0  0  0  0
  -29.7756  -11.7620   17.4878 H   0  0  0  0  0  0
  -29.6904  -13.4810   17.7990 H   0  0  0  0  0  0
  -27.8443  -11.3121   18.8446 H   0  0  0  0  0  0
  -27.3938  -12.6267   17.7820 H   0  0  0  0  0  0
  -27.6814  -14.2663   19.5136 H   0  0  0  0  0  0
  -28.6433  -12.1164   21.4694 H   0  0  0  0  0  0
  -28.3948  -13.8037   21.7908 H   0  0  0  0  0  0
  -25.2804   -9.5679   22.4755 H   0  0  0  0  0  0
  -23.9981   -7.4674   22.7497 H   0  0  0  0  0  0
  -21.0842   -8.8794   19.8994 H   0  0  0  0  0  0
  -22.3712  -10.9666   19.6150 H   0  0  0  0  0  0
  -21.2007   -7.6149   23.9702 H   0  0  0  0  0  0
  -21.1486   -6.0530   25.9077 H   0  0  0  0  0  0
  -22.0594   -2.7608   23.2841 H   0  0  0  0  0  0
  -22.4150  -12.0014   22.4838 H   0  0  0  0  0  0
  -21.1086  -13.1305   22.2510 H   0  0  0  0  0  0
  -24.6556  -15.8454   20.5252 H   0  0  0  0  0  0
  -26.2772  -15.6362   20.0852 H   0  0  0  0  0  0
  -26.7156  -32.5527   23.1161 H   0  0  0  0  0  0
  -25.0096  -33.9713   25.0520 H   0  0  0  0  0  0
  -22.6924  -31.3265   21.4234 H   0  0  0  0  0  0
  -23.3740  -35.9669   23.3261 H   0  0  0  0  0  0
  -24.3604  -36.8962   22.2064 H   0  0  0  0  0  0
  -23.7218  -37.6533   23.6644 H   0  0  0  0  0  0
  -26.0400  -31.6025   20.5814 H   0  0  0  0  0  0
  -26.8251  -30.8970   21.9634 H   0  0  0  0  0  0
  -28.0883  -29.0882   21.1468 H   0  0  0  0  0  0
  -25.9528  -25.9983   18.9731 H   0  0  0  0  0  0
  -23.9419  -27.3253   19.0324 H   0  0  0  0  0  0
  -23.6924  -30.6243   19.4073 H   0  0  0  0  0  0
  -22.7171  -29.2688   19.8757 H   0  0  0  0  0  0
  -25.1239  -36.2014   25.0863 H   0  0  0  0  0  0
  -20.9991  -28.3233   24.1409 H   0  0  0  0  0  0
  -20.5643  -26.2287   23.3612 H   0  0  0  0  0  0
  -21.6624  -26.7393   22.1219 H   0  0  0  0  0  0
  -19.6890  -25.6302   21.1192 H   0  0  0  0  0  0
  -19.6630  -27.3218   20.6777 H   0  0  0  0  0  0
  -17.4187  -26.6657   21.4018 H   0  0  0  0  0  0
  -18.0271  -26.0001   22.8992 H   0  0  0  0  0  0
  -19.7950  -30.7210   24.2271 H   0  0  0  0  0  0
  -17.5027  -31.6234   24.5182 H   0  0  0  0  0  0
  -15.5349  -30.2982   23.7587 H   0  0  0  0  0  0
  -15.8669  -28.0787   22.7051 H   0  0  0  0  0  0
  -24.5962  -30.6925   25.7857 H   0  0  0  0  0  0
  -24.8874  -32.2792   26.4888 H   0  0  0  0  0  0
  -25.8137  -30.8900   27.0256 H   0  0  0  0  0  0
  -26.2782  -29.6799   24.1070 H   0  0  0  0  0  0
  -27.4060  -29.7183   25.4430 H   0  0  0  0  0  0
  -27.8612  -30.4306   23.9124 H   0  0  0  0  0  0
  -27.2695  -33.3572   26.1992 H   0  0  0  0  0  0
  -28.3884  -32.6738   25.0292 H   0  0  0  0  0  0
  -28.0679  -31.8380   26.5413 H   0  0  0  0  0  0
  -28.2594  -38.0112   24.7539 H   0  0  0  0  0  0
  -28.1060  -36.2651   24.6218 H   0  0  0  0  0  0
  -27.2302  -37.1377   25.8868 H   0  0  0  0  0  0
  -20.9279  -29.8830   21.6992 H   0  0  0  0  0  0
  -26.0170  -38.2909   24.1429 H   0  0  0  0  0  0
  -33.0606  -18.8011   20.5769 H   0  0  0  0  0  0
  -29.1753  -20.2532   20.2592 H   0  0  0  0  0  0
  -30.1369  -18.0559   23.6819 H   0  0  0  0  0  0
  -30.4384  -19.6724   23.0847 H   0  0  0  0  0  0
  -31.7721  -18.5611   23.2569 H   0  0  0  0  0  0
  -35.0499  -19.9689   20.0210 H   0  0  0  0  0  0
  -35.7249  -19.9797   18.4068 H   0  0  0  0  0  0
  -34.5574  -18.7547   18.8327 H   0  0  0  0  0  0
  -34.3186  -22.4466   19.7475 H   0  0  0  0  0  0
  -33.7669  -22.9512   18.1532 H   0  0  0  0  0  0
  -35.2861  -22.2092   18.3053 H   0  0  0  0  0  0
  -33.2383  -19.3618   16.8733 H   0  0  0  0  0  0
  -34.3528  -20.6397   16.4223 H   0  0  0  0  0  0
  -32.6408  -20.9638   16.5502 H   0  0  0  0  0  0
  -31.8834  -23.7290   18.6416 H   0  0  0  0  0  0
  -30.7408  -24.0556   17.3544 H   0  0  0  0  0  0
  -31.9584  -22.8582   17.0959 H   0  0  0  0  0  0
  -30.3738  -20.8920   16.6622 H   0  0  0  0  0  0
  -29.2558  -22.2389   16.5209 H   0  0  0  0  0  0
  -28.8556  -20.8528   17.5277 H   0  0  0  0  0  0
  -30.8752  -15.7894   23.5163 H   0  0  0  0  0  0
  -30.1188  -14.2605   23.1665 H   0  0  0  0  0  0
  -29.1627  -15.7409   23.0875 H   0  0  0  0  0  0
  -30.3273  -24.9064   19.4934 H   0  0  0  0  0  0
  -29.6805  -24.2490   20.9606 H   0  0  0  0  0  0
  -28.7082  -22.3440   19.9565 H   0  0  0  0  0  0
  -28.4242  -23.1560   18.4989 H   0  0  0  0  0  0
  -31.4594  -16.8614   20.1506 H   0  0  0  0  0  0
  -32.1517  -16.7577   21.7341 H   0  0  0  0  0  0
  -27.4018  -24.8215   20.1914 H   0  0  0  0  0  0
  -28.0344  -25.3154   18.6168 H   0  0  0  0  0  0
  -29.4343  -18.0664   21.3214 H   0  0  0  0  0  0
  1 25  1  0  0  0
  1 30  2  0  0  0
  1 90  1  0  0  0
  2  3  1  0  0  0
  2 25  1  0  0  0
  2 91  1  0  0  0
  2 92  1  0  0  0
  3  4  1  0  0  0
  3 93  1  0  0  0
  3 94  1  0  0  0
  4  5  1  0  0  0
  4 95  1  0  0  0
  4 96  1  0  0  0
  5  6  1  0  0  0
  5 26  1  0  0  0
  5 97  1  0  0  0
  6 25  1  0  0  0
  6 98  1  0  0  0
  6 99  1  0  0  0
  7  8  2  0  0  0
  7 26  1  0  0  0
  7 29  1  0  0  0
  8  9  1  0  0  0
  8 22  1  0  0  0
  9 10  1  0  0  0
  9 27  2  0  0  0
 10 11  2  0  0  0
 10 15  1  0  0  0
 11 12  1  0  0  0
 11100  1  0  0  0
 12 13  2  0  0  0
 12101  1  0  0  0
 13 14  1  0  0  0
 13 31  1  0  0  0
 14 15  2  0  0  0
 14102  1  0  0  0
 15103  1  0  0  0
 16 17  2  0  0  0
 16 21  1  0  0  0
 16 31  1  0  0  0
 17 18  1  0  0  0
 17104  1  0  0  0
 18 19  2  0  0  0
 18105  1  0  0  0
 19 20  1  0  0  0
 19 24  1  0  0  0
 20 21  2  0  0  0
 20106  1  0  0  0
 21 23  1  0  0  0
 22 28  1  0  0  0
 22 32  2  0  0  0
 26 27  1  0  0  0
 28107  1  0  0  0
 28108  1  0  0  0
 29109  1  0  0  0
 29110  1  0  0  0
 33 34  1  0  0  0
 33 66  1  0  0  0
 33 70  2  0  0  0
 34 36  1  0  0  0
 34 59  1  0  0  0
 34111  1  0  0  0
 35 44  2  0  0  0
 35 45  1  0  0  0
 35 68  1  0  0  0
 36 56  1  0  0  0
 36112  1  0  0  0
 37 39  1  0  0  0
 37 47  1  0  0  0
 37 66  1  0  0  0
 37113  1  0  0  0
 38 43  2  0  0  0
 38 46  1  0  0  0
 38 47  1  0  0  0
 39 64  1  0  0  0
 39 67  2  0  0  0
 40 52  1  0  0  0
 40 53  2  0  0  0
 40 58  1  0  0  0
 41114  1  0  0  0
 41115  1  0  0  0
 41116  1  0  0  0
 41 48  1  0  0  0
 42 43  1  0  0  0
 42 66  1  0  0  0
 42117  1  0  0  0
 42118  1  0  0  0
 43 44  1  0  0  0
 44119  1  0  0  0
 45 46  2  0  0  0
 45120  1  0  0  0
 46121  1  0  0  0
 47122  1  0  0  0
 47123  1  0  0  0
 48 56  1  0  0  0
 48 65  1  0  0  0
 48124  1  0  0  0
 49 50  1  0  0  0
 49 53  1  0  0  0
 49 64  1  0  0  0
 49125  1  0  0  0
 50 51  1  0  0  0
 50126  1  0  0  0
 50127  1  0  0  0
 51 52  1  0  0  0
 51128  1  0  0  0
 51129  1  0  0  0
 52130  1  0  0  0
 52131  1  0  0  0
 53 54  1  0  0  0
 54 55  2  0  0  0
 54132  1  0  0  0
 55 57  1  0  0  0
 55133  1  0  0  0
 56 69  2  0  0  0
 57 58  2  0  0  0
 57134  1  0  0  0
 58135  1  0  0  0
 59 60  1  0  0  0
 59 61  1  0  0  0
 59 62  1  0  0  0
 60136  1  0  0  0
 60137  1  0  0  0
 60138  1  0  0  0
 61139  1  0  0  0
 61140  1  0  0  0
 61141  1  0  0  0
 62142  1  0  0  0
 62143  1  0  0  0
 62144  1  0  0  0
 63 65  1  0  0  0
 63145  1  0  0  0
 63146  1  0  0  0
 63147  1  0  0  0
 64148  1  0  0  0
 65149  1  0  0  0
 68 85  1  0  0  0
 71 73  2  0  0  0
 71 89  1  0  0  0
 71150  1  0  0  0
 72 74  2  0  0  0
 72 89  1  0  0  0
 72151  1  0  0  0
 73 74  1  0  0  0
 73 87  1  0  0  0
 74 88  1  0  0  0
 75152  1  0  0  0
 75153  1  0  0  0
 75154  1  0  0  0
 75 86  1  0  0  0
 76155  1  0  0  0
 76156  1  0  0  0
 76157  1  0  0  0
 76 87  1  0  0  0
 77 87  1  0  0  0
 77158  1  0  0  0
 77159  1  0  0  0
 77160  1  0  0  0
 78 87  1  0  0  0
 78161  1  0  0  0
 78162  1  0  0  0
 78163  1  0  0  0
 79164  1  0  0  0
 79165  1  0  0  0
 79166  1  0  0  0
 79 88  1  0  0  0
 80 88  1  0  0  0
 80167  1  0  0  0
 80168  1  0  0  0
 80169  1  0  0  0
 81 90  1  0  0  0
 81170  1  0  0  0
 81171  1  0  0  0
 81172  1  0  0  0
 82 83  1  0  0  0
 82 85  1  0  0  0
 82173  1  0  0  0
 82174  1  0  0  0
 83 88  1  0  0  0
 83175  1  0  0  0
 83176  1  0  0  0
 84 86  1  0  0  0
 84 90  1  0  0  0
 84177  1  0  0  0
 84178  1  0  0  0
 85179  1  0  0  0
 85180  1  0  0  0
 86 89  1  0  0  0
 86181  1  0  0  0
M  ISO  4   1 100  68 101  85 101  90 100
M  END
> <chiral flag>
0

> <version>
0

> <s_m_source_file>
/data/baiqing/PycharmProjects/Reinvent-master-3.2/result/LINK_invent/BTK/process_docking_weight1_custom_sum_contain_oxygen_bond_distance_aromatic_linkinvent_7_9_3/rearranged_h_0064.sdf

> <i_m_source_file_index>
21

> <r_mmod_Potential_Energy-OPLS-2005>
175.463119506836

> <r_mmod_Stretch_Energy-OPLS-2005>
63.7750396728516

> <r_mmod_Bend_Energy-OPLS-2005>
185.221527099609

> <r_mmod_Torsional_Energy-OPLS-2005>
317.956329345703

> <r_mmod_Improper_Torsional_Energy-OPLS-2005>
6.79417514801025

> <r_mmod_Van_der_Waal_Energy-OPLS-2005>
183.440856933594

> <r_mmod_Electrostatic_Energy-OPLS-2005>
-421.38916015625

> <r_mmod_Solvation_Energy-OPLS-2005>
-182.040466308594

> <b_mmod_Minimization_Converged-OPLS-2005>
0

> <r_mmod_RMS_Derivative-OPLS-2005>
4.69609498977661

$$$$
21
                    3D
 Structure written by MMmdl.
183191  0  0  1  0            999 V2000
  -30.7123  -14.5264   20.6771 C   0  0  0  0  0  0
  -30.4455  -12.4009   19.4085 C   0  0  0  0  0  0
  -29.4907  -12.5726   18.2072 C   0  0  0  0  0  0
  -28.0112  -12.4204   18.6117 C   0  0  0  0  0  0
  -27.6730  -13.2029   19.9034 C   0  0  2  0  0  0
  -28.7275  -12.8716   20.9846 C   0  0  0  0  0  0
  -25.2648  -13.8204   20.5770 C   0  0  0  0  0  0
  -24.1861  -13.0458   20.9219 C   0  0  0  0  0  0
  -24.6424  -11.6939   20.8739 C   0  0  0  0  0  0
  -23.9086  -10.4324   21.0440 C   0  0  0  0  0  0
  -24.3643   -9.4214   21.9188 C   0  0  0  0  0  0
  -23.6290   -8.2243   22.0743 C   0  0  0  0  0  0
  -22.4246   -8.0321   21.3569 C   0  0  0  0  0  0
  -21.9946   -9.0299   20.4656 C   0  0  0  0  0  0
  -22.7279  -10.2179   20.3063 C   0  0  0  0  0  0
  -21.6844   -6.0772   22.5303 C   0  0  0  0  0  0
  -21.4021   -6.5664   23.8262 C   0  0  0  0  0  0
  -21.3628   -5.6802   24.9215 C   0  0  0  0  0  0
  -21.6003   -4.3064   24.7247 C   0  0  0  0  0  0
  -21.8809   -3.8164   23.4361 C   0  0  0  0  0  0
  -21.9209   -4.7000   22.3426 C   0  0  0  0  0  0
  -22.7874  -13.5238   21.1873 C   0  0  0  0  0  0
  -22.1660   -4.2175   21.1009 F   0  0  0  0  0  0
  -21.5636   -3.4560   25.7763 F   0  0  0  0  0  0
  -30.0323  -13.3378   20.4818 N   0  0  0  0  0  0
  -26.3085  -12.9333   20.3497 N   0  0  0  0  0  0
  -25.9337  -11.6496   20.5744 N   0  0  0  0  0  0
  -22.0529  -12.8171   22.0429 N   0  0  0  0  0  0
  -25.4428  -15.1915   20.4273 N   0  0  0  0  0  0
  -31.7651  -14.6989   20.0454 O   0  0  0  0  0  0
  -21.6609   -6.8909   21.4260 O   0  0  0  0  0  0
  -22.3538  -14.5540   20.6764 O   0  0  0  0  0  0
  -24.6155  -31.8673   23.2064 C   0  0  0  0  0  0
  -25.9050  -32.4814   23.8385 C   0  0  1  0  0  0
  -27.2394  -27.3953   20.1133 C   0  0  0  0  0  0
  -25.5854  -33.8611   24.2252 N   0  0  0  0  0  0
  -23.4075  -30.4885   21.5462 C   0  0  2  0  0  0
  -24.8582  -28.9550   20.1127 C   0  0  0  0  0  0
  -22.7425  -29.4645   22.4967 C   0  0  0  0  0  0
  -18.0260  -28.1400   22.8478 C   0  0  0  0  0  0
  -24.1490  -36.7327   23.2624 C   0  0  0  0  0  0
  -25.9424  -30.8187   21.3711 C   0  0  0  0  0  0
  -26.0196  -29.4532   20.7122 C   0  0  0  0  0  0
  -27.2110  -28.6837   20.7105 C   0  0  0  0  0  0
  -26.0579  -26.9409   19.4788 C   0  0  0  0  0  0
  -24.8739  -27.6979   19.4921 C   0  0  0  0  0  0
  -23.6189  -29.8196   20.1639 C   0  0  0  0  0  0
  -25.4108  -36.3082   24.0299 C   0  0  1  0  0  0
  -20.5864  -28.3664   23.1320 C   0  0  2  0  0  0
  -20.6760  -26.9400   22.5413 C   0  0  0  0  0  0
  -19.5739  -26.6390   21.5206 C   0  0  0  0  0  0
  -18.1913  -26.7946   22.1629 C   0  0  0  0  0  0
  -19.1520  -28.8845   23.2883 C   0  0  0  0  0  0
  -18.9440  -30.1461   23.8893 C   0  0  0  0  0  0
  -17.6456  -30.6602   24.0566 C   0  0  0  0  0  0
  -25.9046  -34.9461   23.5079 C   0  0  0  0  0  0
  -16.5332  -29.9093   23.6358 C   0  0  0  0  0  0
  -16.7249  -28.6519   23.0334 C   0  0  0  0  0  0
  -26.4442  -31.6630   25.0756 C   0  0  0  0  0  0
  -25.3673  -31.3785   26.1479 C   0  0  0  0  0  0
  -27.0281  -30.3039   24.6255 C   0  0  0  0  0  0
  -27.6004  -32.4359   25.7519 C   0  0  0  0  0  0
  -27.5577  -37.1816   24.8443 C   0  0  0  0  0  0
  -21.4139  -29.3038   22.3716 N   0  0  0  0  0  0
  -26.4274  -37.3786   23.9397 N   0  0  0  0  0  0
  -24.6728  -31.0752   22.0966 N   0  0  0  0  0  0
  -23.4176  -28.8163   23.3009 O   0  0  0  0  0  0
  -28.3871  -26.6096   20.1811 O   0  0  0  0  0  0
  -26.5652  -34.8933   22.4673 O   0  0  0  0  0  0
  -23.5330  -32.1416   23.7443 O   0  0  0  0  0  0
  -30.7661  -18.2547   20.9285 C   0  0  0  0  0  0
  -30.1185  -17.0398   20.8599 C   0  0  0  0  0  0
  -31.5723  -16.8200   23.8116 C   0  0  0  0  0  0
  -32.6581  -21.7385   20.1300 C   0  0  0  0  0  0
  -31.7452  -19.4609   17.0385 C   0  0  0  0  0  0
  -33.7538  -20.8346   17.5098 C   0  0  0  0  0  0
  -31.5630  -21.9779   17.1093 C   0  0  0  0  0  0
  -31.5961  -15.8703   22.5925 C   0  0  0  0  0  0
  -29.0727  -22.7691   19.9516 C   0  0  0  0  0  0
  -29.2580  -24.2066   20.5341 C   0  0  0  0  0  0
  -29.7749  -21.5562   20.6449 C   0  0  0  0  0  0
  -29.0368  -15.4993   22.5240 C   0  0  0  0  0  0
  -28.2460  -25.1973   19.8892 C   0  0  0  0  0  0
  -31.9259  -20.6553   19.2951 C   0  0  1  0  0  0
  -30.3939  -20.4876   19.6575 C   0  0  1  0  0  0
  -30.3282  -15.7342   21.6649 C   0  0  2  0  0  0
  -32.2284  -20.7420   17.7576 C   0  0  0  0  0  0
  -29.0625  -17.2059   19.9544 N   0  0  0  0  0  0
  -29.0611  -18.4218   19.4829 N   0  0  0  0  0  0
  -30.1022  -19.0894   20.0443 N   0  0  0  0  0  0
  -28.4369  -16.6871   23.1688 N   0  3  0  0  0  0
  -31.4674  -12.5627   19.0630 H   0  0  0  0  0  0
  -30.4423  -11.3714   19.7779 H   0  0  0  0  0  0
  -29.7465  -11.8601   17.4229 H   0  0  0  0  0  0
  -29.6342  -13.5663   17.7820 H   0  0  0  0  0  0
  -27.7960  -11.3620   18.7560 H   0  0  0  0  0  0
  -27.3651  -12.7541   17.8002 H   0  0  0  0  0  0
  -27.7458  -14.2648   19.6702 H   0  0  0  0  0  0
  -28.7633  -11.7890   21.1077 H   0  0  0  0  0  0
  -28.4489  -13.1598   21.9877 H   0  0  0  0  0  0
  -25.2831   -9.5615   22.4752 H   0  0  0  0  0  0
  -24.0045   -7.4564   22.7365 H   0  0  0  0  0  0
  -21.0958   -8.8790   19.8877 H   0  0  0  0  0  0
  -22.3769  -10.9731   19.6160 H   0  0  0  0  0  0
  -21.1978   -7.6171   23.9767 H   0  0  0  0  0  0
  -21.1468   -6.0547   25.9122 H   0  0  0  0  0  0
  -22.0611   -2.7626   23.2867 H   0  0  0  0  0  0
  -22.4248  -11.9855   22.4751 H   0  0  0  0  0  0
  -21.1098  -13.1033   22.2660 H   0  0  0  0  0  0
  -24.6749  -15.8453   20.5482 H   0  0  0  0  0  0
  -26.2693  -15.6236   20.0308 H   0  0  0  0  0  0
  -26.7125  -32.5529   23.1154 H   0  0  0  0  0  0
  -24.9887  -33.9791   25.0306 H   0  0  0  0  0  0
  -22.6937  -31.3029   21.4025 H   0  0  0  0  0  0
  -23.3752  -35.9666   23.3263 H   0  0  0  0  0  0
  -24.3570  -36.9007   22.2042 H   0  0  0  0  0  0
  -23.7282  -37.6520   23.6712 H   0  0  0  0  0  0
  -26.0689  -31.5874   20.6080 H   0  0  0  0  0  0
  -26.8219  -30.8680   22.0011 H   0  0  0  0  0  0
  -28.1031  -29.0614   21.1927 H   0  0  0  0  0  0
  -26.0130  -25.9897   18.9707 H   0  0  0  0  0  0
  -23.9849  -27.3112   19.0160 H   0  0  0  0  0  0
  -23.7241  -30.5901   19.4007 H   0  0  0  0  0  0
  -22.7496  -29.2323   19.8686 H   0  0  0  0  0  0
  -25.1315  -36.1906   25.0790 H   0  0  0  0  0  0
  -20.9928  -28.3233   24.1458 H   0  0  0  0  0  0
  -20.5663  -26.2258   23.3589 H   0  0  0  0  0  0
  -21.6627  -26.7468   22.1202 H   0  0  0  0  0  0
  -19.6902  -25.6292   21.1240 H   0  0  0  0  0  0
  -19.6698  -27.3199   20.6727 H   0  0  0  0  0  0
  -17.4174  -26.6632   21.4037 H   0  0  0  0  0  0
  -18.0342  -26.0097   22.9033 H   0  0  0  0  0  0
  -19.7901  -30.7255   24.2264 H   0  0  0  0  0  0
  -17.5006  -31.6302   24.5132 H   0  0  0  0  0  0
  -15.5334  -30.2983   23.7733 H   0  0  0  0  0  0
  -15.8621  -28.0857   22.7054 H   0  0  0  0  0  0
  -24.5800  -30.7193   25.7793 H   0  0  0  0  0  0
  -24.8913  -32.2961   26.4943 H   0  0  0  0  0  0
  -25.7969  -30.8901   27.0232 H   0  0  0  0  0  0
  -26.2875  -29.6806   24.1218 H   0  0  0  0  0  0
  -27.3844  -29.7304   25.4827 H   0  0  0  0  0  0
  -27.8808  -30.4271   23.9574 H   0  0  0  0  0  0
  -27.2611  -33.3644   26.2122 H   0  0  0  0  0  0
  -28.3810  -32.6944   25.0351 H   0  0  0  0  0  0
  -28.0682  -31.8471   26.5417 H   0  0  0  0  0  0
  -28.2576  -38.0136   24.7512 H   0  0  0  0  0  0
  -28.1098  -36.2662   24.6240 H   0  0  0  0  0  0
  -27.2292  -37.1423   25.8848 H   0  0  0  0  0  0
  -20.9259  -29.8741   21.6944 H   0  0  0  0  0  0
  -26.0154  -38.2856   24.1429 H   0  0  0  0  0  0
  -31.6257  -18.6070   21.4831 H   0  0  0  0  0  0
  -32.4536  -16.6299   24.4295 H   0  0  0  0  0  0
  -30.7157  -16.6530   24.4642 H   0  0  0  0  0  0
  -31.6135  -17.8778   23.5439 H   0  0  0  0  0  0
  -32.5663  -21.5388   21.1961 H   0  0  0  0  0  0
  -32.2682  -22.7373   19.9337 H   0  0  0  0  0  0
  -33.7336  -21.7691   19.9560 H   0  0  0  0  0  0
  -31.9974  -19.4779   15.9788 H   0  0  0  0  0  0
  -30.6670  -19.3212   17.0958 H   0  0  0  0  0  0
  -32.2055  -18.5664   17.4605 H   0  0  0  0  0  0
  -33.9948  -20.7545   16.4489 H   0  0  0  0  0  0
  -34.2946  -20.0364   18.0187 H   0  0  0  0  0  0
  -34.1777  -21.7847   17.8373 H   0  0  0  0  0  0
  -31.9653  -22.1720   16.1150 H   0  0  0  0  0  0
  -31.7247  -22.8827   17.6958 H   0  0  0  0  0  0
  -30.4875  -21.8563   16.9858 H   0  0  0  0  0  0
  -31.8559  -14.8792   22.9723 H   0  0  0  0  0  0
  -32.4562  -16.1687   21.9862 H   0  0  0  0  0  0
  -29.3611  -22.8114   18.9025 H   0  0  0  0  0  0
  -28.0047  -22.5461   19.9431 H   0  0  0  0  0  0
  -30.2799  -24.5452   20.3639 H   0  0  0  0  0  0
  -29.1057  -24.1937   21.6148 H   0  0  0  0  0  0
  -29.0225  -21.0579   21.2568 H   0  0  0  0  0  0
  -30.4812  -21.9048   21.3924 H   0  0  0  0  0  0
  -29.2022  -14.7313   23.2830 H   0  0  0  0  0  0
  -28.2245  -15.1936   21.8710 H   0  0  0  0  0  0
  -27.2762  -24.8399   20.2335 H   0  0  0  0  0  0
  -28.2684  -25.0815   18.8048 H   0  0  0  0  0  0
  -32.4271  -19.7389   19.6025 H   0  0  0  0  0  0
  -29.8329  -20.6223   18.7319 H   0  0  0  0  0  0
  -27.7089  -16.4005   23.8024 H   0  0  0  0  0  0
  -28.0085  -17.2659   22.4647 H   0  0  0  0  0  0
  -29.1108  -17.2338   23.6738 H   0  0  0  0  0  0
  1 25  1  0  0  0
  1 30  2  0  0  0
  1 86  1  0  0  0
  2  3  1  0  0  0
  2 25  1  0  0  0
  2 92  1  0  0  0
  2 93  1  0  0  0
  3  4  1  0  0  0
  3 94  1  0  0  0
  3 95  1  0  0  0
  4  5  1  0  0  0
  4 96  1  0  0  0
  4 97  1  0  0  0
  5  6  1  0  0  0
  5 26  1  0  0  0
  5 98  1  0  0  0
  6 25  1  0  0  0
  6 99  1  0  0  0
  6100  1  0  0  0
  7  8  2  0  0  0
  7 26  1  0  0  0
  7 29  1  0  0  0
  8  9  1  0  0  0
  8 22  1  0  0  0
  9 10  1  0  0  0
  9 27  2  0  0  0
 10 11  2  0  0  0
 10 15  1  0  0  0
 11 12  1  0  0  0
 11101  1  0  0  0
 12 13  2  0  0  0
 12102  1  0  0  0
 13 14  1  0  0  0
 13 31  1  0  0  0
 14 15  2  0  0  0
 14103  1  0  0  0
 15104  1  0  0  0
 16 17  2  0  0  0
 16 21  1  0  0  0
 16 31  1  0  0  0
 17 18  1  0  0  0
 17105  1  0  0  0
 18 19  2  0  0  0
 18106  1  0  0  0
 19 20  1  0  0  0
 19 24  1  0  0  0
 20 21  2  0  0  0
 20107  1  0  0  0
 21 23  1  0  0  0
 22 28  1  0  0  0
 22 32  2  0  0  0
 26 27  1  0  0  0
 28108  1  0  0  0
 28109  1  0  0  0
 29110  1  0  0  0
 29111  1  0  0  0
 33 34  1  0  0  0
 33 66  1  0  0  0
 33 70  2  0  0  0
 34 36  1  0  0  0
 34 59  1  0  0  0
 34112  1  0  0  0
 35 44  2  0  0  0
 35 45  1  0  0  0
 35 68  1  0  0  0
 36 56  1  0  0  0
 36113  1  0  0  0
 37 39  1  0  0  0
 37 47  1  0  0  0
 37 66  1  0  0  0
 37114  1  0  0  0
 38 43  2  0  0  0
 38 46  1  0  0  0
 38 47  1  0  0  0
 39 64  1  0  0  0
 39 67  2  0  0  0
 40 52  1  0  0  0
 40 53  2  0  0  0
 40 58  1  0  0  0
 41115  1  0  0  0
 41116  1  0  0  0
 41117  1  0  0  0
 41 48  1  0  0  0
 42 43  1  0  0  0
 42 66  1  0  0  0
 42118  1  0  0  0
 42119  1  0  0  0
 43 44  1  0  0  0
 44120  1  0  0  0
 45 46  2  0  0  0
 45121  1  0  0  0
 46122  1  0  0  0
 47123  1  0  0  0
 47124  1  0  0  0
 48 56  1  0  0  0
 48 65  1  0  0  0
 48125  1  0  0  0
 49 50  1  0  0  0
 49 53  1  0  0  0
 49 64  1  0  0  0
 49126  1  0  0  0
 50 51  1  0  0  0
 50127  1  0  0  0
 50128  1  0  0  0
 51 52  1  0  0  0
 51129  1  0  0  0
 51130  1  0  0  0
 52131  1  0  0  0
 52132  1  0  0  0
 53 54  1  0  0  0
 54 55  2  0  0  0
 54133  1  0  0  0
 55 57  1  0  0  0
 55134  1  0  0  0
 56 69  2  0  0  0
 57 58  2  0  0  0
 57135  1  0  0  0
 58136  1  0  0  0
 59 60  1  0  0  0
 59 61  1  0  0  0
 59 62  1  0  0  0
 60137  1  0  0  0
 60138  1  0  0  0
 60139  1  0  0  0
 61140  1  0  0  0
 61141  1  0  0  0
 61142  1  0  0  0
 62143  1  0  0  0
 62144  1  0  0  0
 62145  1  0  0  0
 63 65  1  0  0  0
 63146  1  0  0  0
 63147  1  0  0  0
 63148  1  0  0  0
 64149  1  0  0  0
 65150  1  0  0  0
 68 83  1  0  0  0
 71 72  2  0  0  0
 71 90  1  0  0  0
 71151  1  0  0  0
 72 86  1  0  0  0
 72 88  1  0  0  0
 73 78  1  0  0  0
 73152  1  0  0  0
 73153  1  0  0  0
 73154  1  0  0  0
 74155  1  0  0  0
 74156  1  0  0  0
 74157  1  0  0  0
 74 84  1  0  0  0
 75158  1  0  0  0
 75159  1  0  0  0
 75160  1  0  0  0
 75 87  1  0  0  0
 76 87  1  0  0  0
 76161  1  0  0  0
 76162  1  0  0  0
 76163  1  0  0  0
 77 87  1  0  0  0
 77164  1  0  0  0
 77165  1  0  0  0
 77166  1  0  0  0
 78167  1  0  0  0
 78168  1  0  0  0
 78 86  1  0  0  0
 79 80  1  0  0  0
 79 81  1  0  0  0
 79169  1  0  0  0
 79170  1  0  0  0
 80 83  1  0  0  0
 80171  1  0  0  0
 80172  1  0  0  0
 81173  1  0  0  0
 81174  1  0  0  0
 81 85  1  0  0  0
 82 86  1  0  0  0
 82 91  1  0  0  0
 82175  1  0  0  0
 82176  1  0  0  0
 83177  1  0  0  0
 83178  1  0  0  0
 84 85  1  0  0  0
 84 87  1  0  0  0
 84179  1  0  0  0
 85 90  1  0  0  0
 85180  1  0  0  0
 88 89  2  0  0  0
 89 90  1  0  0  0
 91181  1  0  0  0
 91182  1  0  0  0
 91183  1  0  0  0
M  CHG  1  91   1
M  ISO  4   1 100  68 101  83 101  86 100
M  END
> <chiral flag>
0

> <version>
0

> <s_m_source_file>
/data/baiqing/PycharmProjects/Reinvent-master-3.2/result/LINK_invent/BTK/process_docking_weight1_custom_sum_contain_oxygen_bond_distance_aromatic_linkinvent_7_9_3/rearranged_h_0064.sdf

> <i_m_source_file_index>
22

> <r_mmod_Potential_Energy-OPLS-2005>
42.9451637268066

> <r_mmod_Stretch_Energy-OPLS-2005>
72.9306945800781

> <r_mmod_Bend_Energy-OPLS-2005>
181.448425292969

> <r_mmod_Torsional_Energy-OPLS-2005>
278.084594726562

> <r_mmod_Improper_Torsional_Energy-OPLS-2005>
2.33200025558472

> <r_mmod_Van_der_Waal_Energy-OPLS-2005>
160.749862670898

> <r_mmod_Electrostatic_Energy-OPLS-2005>
-220.610290527344

> <r_mmod_Solvation_Energy-OPLS-2005>
-454.163848876953

> <b_mmod_Minimization_Converged-OPLS-2005>
0

> <r_mmod_RMS_Derivative-OPLS-2005>
5.89505195617676

$$$$
22
                    3D
 Structure written by MMmdl.
172181  0  0  1  0            999 V2000
  -30.7563  -14.4961   20.5392 C   0  0  0  0  0  0
  -30.4275  -12.3108   19.4413 C   0  0  0  0  0  0
  -29.5084  -12.4714   18.2127 C   0  0  0  0  0  0
  -28.0229  -12.3630   18.6087 C   0  0  0  0  0  0
  -27.6606  -13.1890   19.8699 C   0  0  2  0  0  0
  -28.7114  -12.9958   20.9831 C   0  0  0  0  0  0
  -25.2651  -13.8070   20.5652 C   0  0  0  0  0  0
  -24.1875  -13.0389   20.9211 C   0  0  0  0  0  0
  -24.6379  -11.6847   20.8763 C   0  0  0  0  0  0
  -23.8992  -10.4249   21.0432 C   0  0  0  0  0  0
  -24.3556   -9.4158   21.9199 C   0  0  0  0  0  0
  -23.6235   -8.2196   22.0748 C   0  0  0  0  0  0
  -22.4215   -8.0242   21.3543 C   0  0  0  0  0  0
  -21.9862   -9.0209   20.4624 C   0  0  0  0  0  0
  -22.7170  -10.2102   20.3051 C   0  0  0  0  0  0
  -21.6819   -6.0691   22.5268 C   0  0  0  0  0  0
  -21.3992   -6.5605   23.8198 C   0  0  0  0  0  0
  -21.3669   -5.6777   24.9177 C   0  0  0  0  0  0
  -21.6049   -4.3044   24.7226 C   0  0  0  0  0  0
  -21.8829   -3.8117   23.4360 C   0  0  0  0  0  0
  -21.9193   -4.6929   22.3400 C   0  0  0  0  0  0
  -22.7917  -13.5256   21.1834 C   0  0  0  0  0  0
  -22.1697   -4.2106   21.0989 F   0  0  0  0  0  0
  -21.5617   -3.4541   25.7756 F   0  0  0  0  0  0
  -30.0409  -13.3290   20.4373 N   0  0  0  0  0  0
  -26.3026  -12.9176   20.3318 N   0  0  0  0  0  0
  -25.9294  -11.6371   20.5772 N   0  0  0  0  0  0
  -22.0529  -12.8238   22.0372 N   0  0  0  0  0  0
  -25.4420  -15.1742   20.3946 N   0  0  0  0  0  0
  -31.9137  -14.5331   20.1133 O   0  0  0  0  0  0
  -21.6598   -6.8834   21.4218 O   0  0  0  0  0  0
  -22.3607  -14.5544   20.6655 O   0  0  0  0  0  0
  -24.6113  -31.8707   23.2078 C   0  0  0  0  0  0
  -25.9049  -32.4809   23.8350 C   0  0  1  0  0  0
  -27.2153  -27.4547   20.0839 C   0  0  0  0  0  0
  -25.5947  -33.8607   24.2285 N   0  0  0  0  0  0
  -23.3943  -30.4979   21.5500 C   0  0  2  0  0  0
  -24.8316  -28.9678   20.1103 C   0  0  0  0  0  0
  -22.7384  -29.4672   22.4962 C   0  0  0  0  0  0
  -18.0285  -28.1382   22.8492 C   0  0  0  0  0  0
  -24.1501  -36.7317   23.2627 C   0  0  0  0  0  0
  -25.9212  -30.8393   21.3597 C   0  0  0  0  0  0
  -25.9922  -29.4775   20.7063 C   0  0  0  0  0  0
  -27.1852  -28.7268   20.6930 C   0  0  0  0  0  0
  -26.0392  -26.9545   19.4798 C   0  0  0  0  0  0
  -24.8484  -27.7028   19.4995 C   0  0  0  0  0  0
  -23.5977  -29.8377   20.1612 C   0  0  0  0  0  0
  -25.4123  -36.3090   24.0306 C   0  0  1  0  0  0
  -20.5874  -28.3675   23.1314 C   0  0  2  0  0  0
  -20.6783  -26.9422   22.5419 C   0  0  0  0  0  0
  -19.5769  -26.6399   21.5213 C   0  0  0  0  0  0
  -18.1947  -26.7931   22.1616 C   0  0  0  0  0  0
  -19.1533  -28.8839   23.2909 C   0  0  0  0  0  0
  -18.9460  -30.1441   23.8921 C   0  0  0  0  0  0
  -17.6472  -30.6591   24.0566 C   0  0  0  0  0  0
  -25.9061  -34.9468   23.5093 C   0  0  0  0  0  0
  -16.5361  -29.9098   23.6316 C   0  0  0  0  0  0
  -16.7275  -28.6515   23.0332 C   0  0  0  0  0  0
  -26.4496  -31.6563   25.0662 C   0  0  0  0  0  0
  -25.3779  -31.3685   26.1420 C   0  0  0  0  0  0
  -27.0316  -30.2995   24.6024 C   0  0  0  0  0  0
  -27.6070  -32.4278   25.7463 C   0  0  0  0  0  0
  -27.5594  -37.1809   24.8458 C   0  0  0  0  0  0
  -21.4118  -29.3043   22.3710 N   0  0  0  0  0  0
  -26.4304  -37.3778   23.9402 N   0  0  0  0  0  0
  -24.6606  -31.0820   22.0978 N   0  0  0  0  0  0
  -23.4169  -28.8215   23.2997 O   0  0  0  0  0  0
  -28.4053  -26.7625   20.1024 O   0  0  0  0  0  0
  -26.5624  -34.8940   22.4655 O   0  0  0  0  0  0
  -23.5318  -32.1475   23.7509 O   0  0  0  0  0  0
  -29.7517  -22.3052   19.6435 C   0  0  0  0  0  0
  -28.9057  -22.2344   20.7500 C   0  0  0  0  0  0
  -29.9821  -21.1239   18.9264 C   0  0  0  0  0  0
  -28.6473  -19.9623   20.4137 C   0  0  0  0  0  0
  -28.2636  -17.4679   19.9092 C   0  0  0  0  0  0
  -26.3980  -18.9116   20.7426 C   0  0  0  0  0  0
  -28.1860  -18.4239   22.3488 C   0  0  0  0  0  0
  -29.6014  -15.7034   22.4410 C   0  0  0  0  0  0
  -31.3021  -16.9362   21.0592 C   0  0  0  0  0  0
  -28.5575  -23.4650   21.5772 C   0  0  0  0  0  0
  -27.6804  -24.5096   20.8523 C   0  0  0  0  0  0
  -28.4114  -25.3696   19.7925 C   0  0  0  0  0  0
  -30.7745  -21.1377   17.6106 C   0  0  0  0  0  0
  -27.9255  -18.6544   20.8470 C   0  0  0  0  0  0
  -30.1477  -15.8906   21.0026 C   0  0  0  0  0  0
  -28.3529  -21.0646   21.1139 N   0  0  0  0  0  0
  -29.4448  -19.9542   19.3466 N   0  0  0  0  0  0
  -27.6932  -17.4378   18.6937 N   0  0  0  0  0  0
  -28.3589  -16.4877   17.9897 N   0  0  0  0  0  0
  -29.2688  -15.9485   18.7228 N   0  0  0  0  0  0
  -29.1673  -16.4362   20.0027 N   0  0  0  0  0  0
  -31.3782  -22.3156   17.4069 F   0  0  0  0  0  0
  -31.7109  -20.1870   17.6110 F   0  0  0  0  0  0
  -29.9414  -20.9228   16.5886 F   0  0  0  0  0  0
  -31.4706  -12.3871   19.1301 H   0  0  0  0  0  0
  -30.3271  -11.3131   19.8710 H   0  0  0  0  0  0
  -29.7480  -11.7116   17.4681 H   0  0  0  0  0  0
  -29.6990  -13.4305   17.7318 H   0  0  0  0  0  0
  -27.8084  -11.3099   18.7885 H   0  0  0  0  0  0
  -27.3947  -12.6695   17.7731 H   0  0  0  0  0  0
  -27.6790  -14.2289   19.5807 H   0  0  0  0  0  0
  -28.7108  -11.9560   21.3165 H   0  0  0  0  0  0
  -28.4429  -13.5522   21.8720 H   0  0  0  0  0  0
  -25.2711   -9.5627   22.4765 H   0  0  0  0  0  0
  -23.9938   -7.4577   22.7460 H   0  0  0  0  0  0
  -21.0808   -8.8704   19.8921 H   0  0  0  0  0  0
  -22.3627  -10.9640   19.6158 H   0  0  0  0  0  0
  -21.1983   -7.6114   23.9667 H   0  0  0  0  0  0
  -21.1497   -6.0536   25.9076 H   0  0  0  0  0  0
  -22.0614   -2.7575   23.2846 H   0  0  0  0  0  0
  -22.4149  -11.9899   22.4754 H   0  0  0  0  0  0
  -21.1140  -13.1244   22.2572 H   0  0  0  0  0  0
  -24.6428  -15.7970   20.4186 H   0  0  0  0  0  0
  -26.2120  -15.5400   19.8475 H   0  0  0  0  0  0
  -26.7116  -32.5512   23.1102 H   0  0  0  0  0  0
  -25.0088  -33.9760   25.0426 H   0  0  0  0  0  0
  -22.6847  -31.3178   21.4170 H   0  0  0  0  0  0
  -23.3751  -35.9665   23.3275 H   0  0  0  0  0  0
  -24.3605  -36.8962   22.2052 H   0  0  0  0  0  0
  -23.7286  -37.6526   23.6661 H   0  0  0  0  0  0
  -26.0426  -31.6091   20.5954 H   0  0  0  0  0  0
  -26.8071  -30.8800   21.9816 H   0  0  0  0  0  0
  -28.0816  -29.1127   21.1592 H   0  0  0  0  0  0
  -26.0181  -25.9953   18.9851 H   0  0  0  0  0  0
  -23.9552  -27.3052   19.0362 H   0  0  0  0  0  0
  -23.7127  -30.6189   19.4091 H   0  0  0  0  0  0
  -22.7178  -29.2696   19.8535 H   0  0  0  0  0  0
  -25.1301  -36.1936   25.0795 H   0  0  0  0  0  0
  -20.9985  -28.3273   24.1418 H   0  0  0  0  0  0
  -20.5733  -26.2297   23.3606 H   0  0  0  0  0  0
  -21.6650  -26.7498   22.1204 H   0  0  0  0  0  0
  -19.6950  -25.6320   21.1235 H   0  0  0  0  0  0
  -19.6686  -27.3210   20.6747 H   0  0  0  0  0  0
  -17.4220  -26.6674   21.4008 H   0  0  0  0  0  0
  -18.0333  -26.0066   22.8998 H   0  0  0  0  0  0
  -19.7941  -30.7235   24.2294 H   0  0  0  0  0  0
  -17.5042  -31.6264   24.5181 H   0  0  0  0  0  0
  -15.5368  -30.3016   23.7602 H   0  0  0  0  0  0
  -15.8681  -28.0842   22.7006 H   0  0  0  0  0  0
  -24.5937  -30.7041   25.7758 H   0  0  0  0  0  0
  -24.8990  -32.2856   26.4854 H   0  0  0  0  0  0
  -25.8142  -30.8860   27.0174 H   0  0  0  0  0  0
  -26.2816  -29.6763   24.1122 H   0  0  0  0  0  0
  -27.4140  -29.7209   25.4445 H   0  0  0  0  0  0
  -27.8646  -30.4278   23.9108 H   0  0  0  0  0  0
  -27.2648  -33.3536   26.2095 H   0  0  0  0  0  0
  -28.3873  -32.6904   25.0308 H   0  0  0  0  0  0
  -28.0753  -31.8377   26.5349 H   0  0  0  0  0  0
  -28.2579  -38.0139   24.7545 H   0  0  0  0  0  0
  -28.1118  -36.2674   24.6214 H   0  0  0  0  0  0
  -27.2322  -37.1383   25.8863 H   0  0  0  0  0  0
  -20.9264  -29.8791   21.6965 H   0  0  0  0  0  0
  -26.0178  -38.2843   24.1430 H   0  0  0  0  0  0
  -30.2078  -23.2235   19.3116 H   0  0  0  0  0  0
  -26.1116  -19.2631   19.7522 H   0  0  0  0  0  0
  -26.0772  -19.6820   21.4411 H   0  0  0  0  0  0
  -25.8201  -18.0153   20.9595 H   0  0  0  0  0  0
  -29.2429  -18.4104   22.5844 H   0  0  0  0  0  0
  -27.6880  -17.5355   22.7266 H   0  0  0  0  0  0
  -27.7833  -19.2438   22.9422 H   0  0  0  0  0  0
  -28.5176  -15.6003   22.4699 H   0  0  0  0  0  0
  -29.8988  -16.5035   23.1134 H   0  0  0  0  0  0
  -30.0170  -14.8178   22.9200 H   0  0  0  0  0  0
  -30.9590  -17.9288   21.3453 H   0  0  0  0  0  0
  -31.7785  -17.0544   20.0822 H   0  0  0  0  0  0
  -32.0784  -16.6421   21.7674 H   0  0  0  0  0  0
  -29.4771  -23.9335   21.9259 H   0  0  0  0  0  0
  -28.0354  -23.1398   22.4790 H   0  0  0  0  0  0
  -27.2888  -25.1822   21.6151 H   0  0  0  0  0  0
  -26.8053  -24.0309   20.4116 H   0  0  0  0  0  0
  -28.0384  -25.1791   18.7837 H   0  0  0  0  0  0
  -29.4688  -25.1214   19.7662 H   0  0  0  0  0  0
  1 25  1  0  0  0
  1 30  2  0  0  0
  1 85  1  0  0  0
  2  3  1  0  0  0
  2 25  1  0  0  0
  2 95  1  0  0  0
  2 96  1  0  0  0
  3  4  1  0  0  0
  3 97  1  0  0  0
  3 98  1  0  0  0
  4  5  1  0  0  0
  4 99  1  0  0  0
  4100  1  0  0  0
  5  6  1  0  0  0
  5 26  1  0  0  0
  5101  1  0  0  0
  6 25  1  0  0  0
  6102  1  0  0  0
  6103  1  0  0  0
  7  8  2  0  0  0
  7 26  1  0  0  0
  7 29  1  0  0  0
  8  9  1  0  0  0
  8 22  1  0  0  0
  9 10  1  0  0  0
  9 27  2  0  0  0
 10 11  2  0  0  0
 10 15  1  0  0  0
 11 12  1  0  0  0
 11104  1  0  0  0
 12 13  2  0  0  0
 12105  1  0  0  0
 13 14  1  0  0  0
 13 31  1  0  0  0
 14 15  2  0  0  0
 14106  1  0  0  0
 15107  1  0  0  0
 16 17  2  0  0  0
 16 21  1  0  0  0
 16 31  1  0  0  0
 17 18  1  0  0  0
 17108  1  0  0  0
 18 19  2  0  0  0
 18109  1  0  0  0
 19 20  1  0  0  0
 19 24  1  0  0  0
 20 21  2  0  0  0
 20110  1  0  0  0
 21 23  1  0  0  0
 22 28  1  0  0  0
 22 32  2  0  0  0
 26 27  1  0  0  0
 28111  1  0  0  0
 28112  1  0  0  0
 29113  1  0  0  0
 29114  1  0  0  0
 33 34  1  0  0  0
 33 66  1  0  0  0
 33 70  2  0  0  0
 34 36  1  0  0  0
 34 59  1  0  0  0
 34115  1  0  0  0
 35 44  2  0  0  0
 35 45  1  0  0  0
 35 68  1  0  0  0
 36 56  1  0  0  0
 36116  1  0  0  0
 37 39  1  0  0  0
 37 47  1  0  0  0
 37 66  1  0  0  0
 37117  1  0  0  0
 38 43  2  0  0  0
 38 46  1  0  0  0
 38 47  1  0  0  0
 39 64  1  0  0  0
 39 67  2  0  0  0
 40 52  1  0  0  0
 40 53  2  0  0  0
 40 58  1  0  0  0
 41118  1  0  0  0
 41119  1  0  0  0
 41120  1  0  0  0
 41 48  1  0  0  0
 42 43  1  0  0  0
 42 66  1  0  0  0
 42121  1  0  0  0
 42122  1  0  0  0
 43 44  1  0  0  0
 44123  1  0  0  0
 45 46  2  0  0  0
 45124  1  0  0  0
 46125  1  0  0  0
 47126  1  0  0  0
 47127  1  0  0  0
 48 56  1  0  0  0
 48 65  1  0  0  0
 48128  1  0  0  0
 49 50  1  0  0  0
 49 53  1  0  0  0
 49 64  1  0  0  0
 49129  1  0  0  0
 50 51  1  0  0  0
 50130  1  0  0  0
 50131  1  0  0  0
 51 52  1  0  0  0
 51132  1  0  0  0
 51133  1  0  0  0
 52134  1  0  0  0
 52135  1  0  0  0
 53 54  1  0  0  0
 54 55  2  0  0  0
 54136  1  0  0  0
 55 57  1  0  0  0
 55137  1  0  0  0
 56 69  2  0  0  0
 57 58  2  0  0  0
 57138  1  0  0  0
 58139  1  0  0  0
 59 60  1  0  0  0
 59 61  1  0  0  0
 59 62  1  0  0  0
 60140  1  0  0  0
 60141  1  0  0  0
 60142  1  0  0  0
 61143  1  0  0  0
 61144  1  0  0  0
 61145  1  0  0  0
 62146  1  0  0  0
 62147  1  0  0  0
 62148  1  0  0  0
 63 65  1  0  0  0
 63149  1  0  0  0
 63150  1  0  0  0
 63151  1  0  0  0
 64152  1  0  0  0
 65153  1  0  0  0
 68 82  1  0  0  0
 71 72  2  0  0  0
 71 73  1  0  0  0
 71154  1  0  0  0
 72 80  1  0  0  0
 72 86  1  0  0  0
 73 83  1  0  0  0
 73 87  2  0  0  0
 74 84  1  0  0  0
 74 86  2  0  0  0
 74 87  1  0  0  0
 75 84  1  0  0  0
 75 88  2  0  0  0
 75 91  1  0  0  0
 76155  1  0  0  0
 76156  1  0  0  0
 76157  1  0  0  0
 76 84  1  0  0  0
 77 84  1  0  0  0
 77158  1  0  0  0
 77159  1  0  0  0
 77160  1  0  0  0
 78161  1  0  0  0
 78162  1  0  0  0
 78163  1  0  0  0
 78 85  1  0  0  0
 79 85  1  0  0  0
 79164  1  0  0  0
 79165  1  0  0  0
 79166  1  0  0  0
 80 81  1  0  0  0
 80167  1  0  0  0
 80168  1  0  0  0
 81 82  1  0  0  0
 81169  1  0  0  0
 81170  1  0  0  0
 82171  1  0  0  0
 82172  1  0  0  0
 83 92  1  0  0  0
 83 93  1  0  0  0
 83 94  1  0  0  0
 85 91  1  0  0  0
 88 89  1  0  0  0
 89 90  2  0  0  0
 90 91  1  0  0  0
M  ISO  4   1 100  68 101  82 101  85 100
M  END
> <chiral flag>
0

> <version>
0

> <s_m_source_file>
/data/baiqing/PycharmProjects/Reinvent-master-3.2/result/LINK_invent/BTK/process_docking_weight1_custom_sum_contain_oxygen_bond_distance_aromatic_linkinvent_7_9_3/rearranged_h_0064.sdf

> <i_m_source_file_index>
23

> <r_mmod_Potential_Energy-OPLS-2005>
-188.307037353516

> <r_mmod_Stretch_Energy-OPLS-2005>
58.6750946044922

> <r_mmod_Bend_Energy-OPLS-2005>
173.189819335938

> <r_mmod_Torsional_Energy-OPLS-2005>
226.975723266602

> <r_mmod_Improper_Torsional_Energy-OPLS-2005>
6.82372283935547

> <r_mmod_Van_der_Waal_Energy-OPLS-2005>
189.249938964844

> <r_mmod_Electrostatic_Energy-OPLS-2005>
-654.042907714844

> <r_mmod_Solvation_Energy-OPLS-2005>
-207.997421264648

> <b_mmod_Minimization_Converged-OPLS-2005>
0

> <r_mmod_RMS_Derivative-OPLS-2005>
4.23431921005249

$$$$
23
                    3D
 Structure written by MMmdl.
160168  0  0  1  0            999 V2000
  -30.5760  -14.9064   20.4958 C   0  0  0  0  0  0
  -30.4485  -12.5721   19.5014 C   0  0  0  0  0  0
  -29.5260  -12.5571   18.2578 C   0  0  0  0  0  0
  -28.0534  -12.3487   18.6612 C   0  0  0  0  0  0
  -27.6430  -13.2426   19.8590 C   0  0  2  0  0  0
  -28.6870  -13.1759   20.9928 C   0  0  0  0  0  0
  -25.2506  -13.8214   20.5730 C   0  0  0  0  0  0
  -24.1797  -13.0443   20.9205 C   0  0  0  0  0  0
  -24.6405  -11.6920   20.8747 C   0  0  0  0  0  0
  -23.9090  -10.4295   21.0416 C   0  0  0  0  0  0
  -24.3632   -9.4207   21.9195 C   0  0  0  0  0  0
  -23.6297   -8.2243   22.0764 C   0  0  0  0  0  0
  -22.4284   -8.0280   21.3545 C   0  0  0  0  0  0
  -21.9926   -9.0264   20.4655 C   0  0  0  0  0  0
  -22.7265  -10.2143   20.3067 C   0  0  0  0  0  0
  -21.6856   -6.0739   22.5274 C   0  0  0  0  0  0
  -21.4017   -6.5642   23.8209 C   0  0  0  0  0  0
  -21.3661   -5.6790   24.9171 C   0  0  0  0  0  0
  -21.6037   -4.3051   24.7218 C   0  0  0  0  0  0
  -21.8817   -3.8150   23.4337 C   0  0  0  0  0  0
  -21.9196   -4.6969   22.3395 C   0  0  0  0  0  0
  -22.7818  -13.5216   21.1862 C   0  0  0  0  0  0
  -22.1656   -4.2150   21.0979 F   0  0  0  0  0  0
  -21.5644   -3.4533   25.7728 F   0  0  0  0  0  0
  -29.9724  -13.6398   20.4347 N   0  0  0  0  0  0
  -26.2944  -12.9436   20.3312 N   0  0  0  0  0  0
  -25.9342  -11.6564   20.5742 N   0  0  0  0  0  0
  -22.0462  -12.8214   22.0430 N   0  0  0  0  0  0
  -25.4204  -15.1945   20.4220 N   0  0  0  0  0  0
  -31.7060  -14.9992   20.0086 O   0  0  0  0  0  0
  -21.6646   -6.8880   21.4237 O   0  0  0  0  0  0
  -22.3499  -14.5524   20.6710 O   0  0  0  0  0  0
  -24.6424  -31.8460   23.1934 C   0  0  0  0  0  0
  -25.9205  -32.4709   23.8311 C   0  0  1  0  0  0
  -27.2244  -27.1608   20.1317 C   0  0  0  0  0  0
  -25.5960  -33.8521   24.2226 N   0  0  0  0  0  0
  -23.4463  -30.4693   21.5364 C   0  0  2  0  0  0
  -24.8965  -28.9055   20.1094 C   0  0  0  0  0  0
  -22.7574  -29.4570   22.4857 C   0  0  0  0  0  0
  -18.0307  -28.1397   22.8473 C   0  0  0  0  0  0
  -24.1489  -36.7260   23.2641 C   0  0  0  0  0  0
  -26.0028  -30.7252   21.3929 C   0  0  0  0  0  0
  -26.0730  -29.3404   20.7319 C   0  0  0  0  0  0
  -27.2355  -28.4820   20.7338 C   0  0  0  0  0  0
  -26.0196  -26.8374   19.4596 C   0  0  0  0  0  0
  -24.8807  -27.6655   19.4609 C   0  0  0  0  0  0
  -23.6725  -29.8044   20.1537 C   0  0  0  0  0  0
  -25.4115  -36.3044   24.0323 C   0  0  1  0  0  0
  -20.5923  -28.3728   23.1222 C   0  0  2  0  0  0
  -20.6786  -26.9432   22.5393 C   0  0  0  0  0  0
  -19.5761  -26.6383   21.5205 C   0  0  0  0  0  0
  -18.1944  -26.7937   22.1614 C   0  0  0  0  0  0
  -19.1565  -28.8879   23.2841 C   0  0  0  0  0  0
  -18.9482  -30.1469   23.8875 C   0  0  0  0  0  0
  -17.6479  -30.6593   24.0560 C   0  0  0  0  0  0
  -25.9067  -34.9417   23.5077 C   0  0  0  0  0  0
  -16.5366  -29.9090   23.6336 C   0  0  0  0  0  0
  -16.7288  -28.6504   23.0360 C   0  0  0  0  0  0
  -26.4523  -31.6572   25.0743 C   0  0  0  0  0  0
  -25.3716  -31.3761   26.1444 C   0  0  0  0  0  0
  -27.0387  -30.2968   24.6327 C   0  0  0  0  0  0
  -27.6063  -32.4331   25.7517 C   0  0  0  0  0  0
  -27.5581  -37.1779   24.8458 C   0  0  0  0  0  0
  -21.4266  -29.3063   22.3603 N   0  0  0  0  0  0
  -26.4274  -37.3760   23.9425 N   0  0  0  0  0  0
  -24.7167  -31.0342   22.0955 N   0  0  0  0  0  0
  -23.4221  -28.8101   23.2991 O   0  0  0  0  0  0
  -28.2693  -26.1674   20.2091 O   0  0  0  0  0  0
  -26.5649  -34.8911   22.4655 O   0  0  0  0  0  0
  -23.5543  -32.1320   23.7161 O   0  0  0  0  0  0
  -29.9747  -21.4142   19.2863 C   0  0  0  0  0  0
  -29.6455  -20.4736   20.3329 C   0  0  0  0  0  0
  -28.3985  -22.3620   21.2201 C   0  0  0  0  0  0
  -28.7412  -23.2941   20.1724 C   0  0  0  0  0  0
  -27.4731  -22.7989   22.3362 C   0  0  0  0  0  0
  -30.8625  -18.9871   22.0189 C   0  0  0  0  0  0
  -29.2698  -16.0362   22.2570 C   0  0  0  0  0  0
  -27.9316  -24.6975   19.8647 C   0  0  0  0  0  0
  -29.5838  -17.5048   20.2714 C   0  0  0  0  0  0
  -30.3572  -18.9772   20.5586 C   0  0  1  0  0  0
  -31.6403  -18.9310   19.6653 C   0  0  0  0  0  0
  -29.5387  -22.7366   19.2002 N   0  0  0  0  0  0
  -28.8221  -21.0302   21.2932 N   0  0  0  0  0  0
  -29.8742  -16.0790   20.9198 N   0  0  0  0  0  0
  -32.4109  -20.0071   19.8453 F   0  0  0  0  0  0
  -31.3178  -18.8583   18.3726 F   0  0  0  0  0  0
  -32.3884  -17.8660   19.9514 F   0  0  0  0  0  0
  -31.4836  -12.7213   19.1912 H   0  0  0  0  0  0
  -30.4363  -11.5978   19.9938 H   0  0  0  0  0  0
  -29.8367  -11.7760   17.5626 H   0  0  0  0  0  0
  -29.6269  -13.5023   17.7224 H   0  0  0  0  0  0
  -27.9305  -11.2986   18.9289 H   0  0  0  0  0  0
  -27.3940  -12.5239   17.8098 H   0  0  0  0  0  0
  -27.6329  -14.2675   19.4875 H   0  0  0  0  0  0
  -28.7737  -12.1552   21.3693 H   0  0  0  0  0  0
  -28.3540  -13.7486   21.8498 H   0  0  0  0  0  0
  -25.2782   -9.5669   22.4770 H   0  0  0  0  0  0
  -23.9999   -7.4632   22.7481 H   0  0  0  0  0  0
  -21.0857   -8.8798   19.8953 H   0  0  0  0  0  0
  -22.3735  -10.9690   19.6175 H   0  0  0  0  0  0
  -21.2004   -7.6149   23.9714 H   0  0  0  0  0  0
  -21.1494   -6.0523   25.9076 H   0  0  0  0  0  0
  -22.0598   -2.7609   23.2841 H   0  0  0  0  0  0
  -22.4062  -11.9860   22.4794 H   0  0  0  0  0  0
  -21.1087  -13.1239   22.2658 H   0  0  0  0  0  0
  -24.6572  -15.8502   20.5493 H   0  0  0  0  0  0
  -26.2812  -15.6384   20.1293 H   0  0  0  0  0  0
  -26.7274  -32.5327   23.1048 H   0  0  0  0  0  0
  -25.0107  -33.9633   25.0372 H   0  0  0  0  0  0
  -22.7487  -31.2958   21.3847 H   0  0  0  0  0  0
  -23.3766  -35.9575   23.3261 H   0  0  0  0  0  0
  -24.3592  -36.8927   22.2068 H   0  0  0  0  0  0
  -23.7216  -37.6435   23.6694 H   0  0  0  0  0  0
  -26.1606  -31.4794   20.6213 H   0  0  0  0  0  0
  -26.8726  -30.7727   22.0353 H   0  0  0  0  0  0
  -28.1268  -28.8070   21.2520 H   0  0  0  0  0  0
  -25.9069  -25.9033   18.9332 H   0  0  0  0  0  0
  -23.9847  -27.3300   18.9562 H   0  0  0  0  0  0
  -23.8117  -30.5809   19.4005 H   0  0  0  0  0  0
  -22.7890  -29.2456   19.8397 H   0  0  0  0  0  0
  -25.1299  -36.1871   25.0812 H   0  0  0  0  0  0
  -21.0011  -28.3314   24.1346 H   0  0  0  0  0  0
  -20.5669  -26.2356   23.3622 H   0  0  0  0  0  0
  -21.6654  -26.7435   22.1200 H   0  0  0  0  0  0
  -19.6920  -25.6287   21.1262 H   0  0  0  0  0  0
  -19.6691  -27.3176   20.6724 H   0  0  0  0  0  0
  -17.4215  -26.6678   21.4017 H   0  0  0  0  0  0
  -18.0340  -26.0086   22.9016 H   0  0  0  0  0  0
  -19.7963  -30.7283   24.2240 H   0  0  0  0  0  0
  -17.5040  -31.6277   24.5164 H   0  0  0  0  0  0
  -15.5370  -30.2985   23.7678 H   0  0  0  0  0  0
  -15.8686  -28.0816   22.7094 H   0  0  0  0  0  0
  -24.5901  -30.7094   25.7773 H   0  0  0  0  0  0
  -24.8894  -32.2943   26.4814 H   0  0  0  0  0  0
  -25.8000  -30.8977   27.0262 H   0  0  0  0  0  0
  -26.3005  -29.6693   24.1320 H   0  0  0  0  0  0
  -27.3980  -29.7264   25.4905 H   0  0  0  0  0  0
  -27.8927  -30.4201   23.9664 H   0  0  0  0  0  0
  -27.2672  -33.3664   26.2027 H   0  0  0  0  0  0
  -28.3907  -32.6835   25.0361 H   0  0  0  0  0  0
  -28.0696  -31.8499   26.5487 H   0  0  0  0  0  0
  -28.2557  -38.0117   24.7566 H   0  0  0  0  0  0
  -28.1113  -36.2654   24.6196 H   0  0  0  0  0  0
  -27.2317  -37.1324   25.8861 H   0  0  0  0  0  0
  -20.9473  -29.8797   21.6801 H   0  0  0  0  0  0
  -26.0140  -38.2817   24.1462 H   0  0  0  0  0  0
  -30.6390  -21.1312   18.4847 H   0  0  0  0  0  0
  -26.4317  -22.6854   22.0339 H   0  0  0  0  0  0
  -27.6451  -23.8459   22.5882 H   0  0  0  0  0  0
  -27.6384  -22.2123   23.2399 H   0  0  0  0  0  0
  -30.0376  -19.0870   22.7225 H   0  0  0  0  0  0
  -31.5330  -19.8277   22.1972 H   0  0  0  0  0  0
  -31.4129  -18.0802   22.2683 H   0  0  0  0  0  0
  -28.1912  -15.9004   22.1816 H   0  0  0  0  0  0
  -29.4232  -16.9557   22.8148 H   0  0  0  0  0  0
  -29.6822  -15.2400   22.8808 H   0  0  0  0  0  0
  -26.9443  -24.5103   20.2850 H   0  0  0  0  0  0
  -27.7854  -24.6854   18.7845 H   0  0  0  0  0  0
  -29.5697  -17.3412   19.1937 H   0  0  0  0  0  0
  -28.5360  -17.6987   20.5022 H   0  0  0  0  0  0
  1 25  1  0  0  0
  1 30  2  0  0  0
  1 84  1  0  0  0
  2  3  1  0  0  0
  2 25  1  0  0  0
  2 88  1  0  0  0
  2 89  1  0  0  0
  3  4  1  0  0  0
  3 90  1  0  0  0
  3 91  1  0  0  0
  4  5  1  0  0  0
  4 92  1  0  0  0
  4 93  1  0  0  0
  5  6  1  0  0  0
  5 26  1  0  0  0
  5 94  1  0  0  0
  6 25  1  0  0  0
  6 95  1  0  0  0
  6 96  1  0  0  0
  7  8  2  0  0  0
  7 26  1  0  0  0
  7 29  1  0  0  0
  8  9  1  0  0  0
  8 22  1  0  0  0
  9 10  1  0  0  0
  9 27  2  0  0  0
 10 11  2  0  0  0
 10 15  1  0  0  0
 11 12  1  0  0  0
 11 97  1  0  0  0
 12 13  2  0  0  0
 12 98  1  0  0  0
 13 14  1  0  0  0
 13 31  1  0  0  0
 14 15  2  0  0  0
 14 99  1  0  0  0
 15100  1  0  0  0
 16 17  2  0  0  0
 16 21  1  0  0  0
 16 31  1  0  0  0
 17 18  1  0  0  0
 17101  1  0  0  0
 18 19  2  0  0  0
 18102  1  0  0  0
 19 20  1  0  0  0
 19 24  1  0  0  0
 20 21  2  0  0  0
 20103  1  0  0  0
 21 23  1  0  0  0
 22 28  1  0  0  0
 22 32  2  0  0  0
 26 27  1  0  0  0
 28104  1  0  0  0
 28105  1  0  0  0
 29106  1  0  0  0
 29107  1  0  0  0
 33 34  1  0  0  0
 33 66  1  0  0  0
 33 70  2  0  0  0
 34 36  1  0  0  0
 34 59  1  0  0  0
 34108  1  0  0  0
 35 44  2  0  0  0
 35 45  1  0  0  0
 35 68  1  0  0  0
 36 56  1  0  0  0
 36109  1  0  0  0
 37 39  1  0  0  0
 37 47  1  0  0  0
 37 66  1  0  0  0
 37110  1  0  0  0
 38 43  2  0  0  0
 38 46  1  0  0  0
 38 47  1  0  0  0
 39 64  1  0  0  0
 39 67  2  0  0  0
 40 52  1  0  0  0
 40 53  2  0  0  0
 40 58  1  0  0  0
 41111  1  0  0  0
 41112  1  0  0  0
 41113  1  0  0  0
 41 48  1  0  0  0
 42 43  1  0  0  0
 42 66  1  0  0  0
 42114  1  0  0  0
 42115  1  0  0  0
 43 44  1  0  0  0
 44116  1  0  0  0
 45 46  2  0  0  0
 45117  1  0  0  0
 46118  1  0  0  0
 47119  1  0  0  0
 47120  1  0  0  0
 48 56  1  0  0  0
 48 65  1  0  0  0
 48121  1  0  0  0
 49 50  1  0  0  0
 49 53  1  0  0  0
 49 64  1  0  0  0
 49122  1  0  0  0
 50 51  1  0  0  0
 50123  1  0  0  0
 50124  1  0  0  0
 51 52  1  0  0  0
 51125  1  0  0  0
 51126  1  0  0  0
 52127  1  0  0  0
 52128  1  0  0  0
 53 54  1  0  0  0
 54 55  2  0  0  0
 54129  1  0  0  0
 55 57  1  0  0  0
 55130  1  0  0  0
 56 69  2  0  0  0
 57 58  2  0  0  0
 57131  1  0  0  0
 58132  1  0  0  0
 59 60  1  0  0  0
 59 61  1  0  0  0
 59 62  1  0  0  0
 60133  1  0  0  0
 60134  1  0  0  0
 60135  1  0  0  0
 61136  1  0  0  0
 61137  1  0  0  0
 61138  1  0  0  0
 62139  1  0  0  0
 62140  1  0  0  0
 62141  1  0  0  0
 63 65  1  0  0  0
 63142  1  0  0  0
 63143  1  0  0  0
 63144  1  0  0  0
 64145  1  0  0  0
 65146  1  0  0  0
 68 78  1  0  0  0
 71 72  2  0  0  0
 71 82  1  0  0  0
 71147  1  0  0  0
 72 80  1  0  0  0
 72 83  1  0  0  0
 73 74  1  0  0  0
 73 75  1  0  0  0
 73 83  2  0  0  0
 74 78  1  0  0  0
 74 82  2  0  0  0
 75148  1  0  0  0
 75149  1  0  0  0
 75150  1  0  0  0
 76151  1  0  0  0
 76152  1  0  0  0
 76153  1  0  0  0
 76 80  1  0  0  0
 77 84  1  0  0  0
 77154  1  0  0  0
 77155  1  0  0  0
 77156  1  0  0  0
 78157  1  0  0  0
 78158  1  0  0  0
 79 80  1  0  0  0
 79 84  1  0  0  0
 79159  1  0  0  0
 79160  1  0  0  0
 80 81  1  0  0  0
 81 85  1  0  0  0
 81 86  1  0  0  0
 81 87  1  0  0  0
M  ISO  4   1 100  68 101  78 101  84 100
M  END
> <chiral flag>
0

> <version>
0

> <s_m_source_file>
/data/baiqing/PycharmProjects/Reinvent-master-3.2/result/LINK_invent/BTK/process_docking_weight1_custom_sum_contain_oxygen_bond_distance_aromatic_linkinvent_7_9_3/rearranged_h_0064.sdf

> <i_m_source_file_index>
24

> <r_mmod_Potential_Energy-OPLS-2005>
773.714599609375

> <r_mmod_Stretch_Energy-OPLS-2005>
257.110168457031

> <r_mmod_Bend_Energy-OPLS-2005>
287.641632080078

> <r_mmod_Torsional_Energy-OPLS-2005>
306.676727294922

> <r_mmod_Improper_Torsional_Energy-OPLS-2005>
7.88585472106934

> <r_mmod_Van_der_Waal_Energy-OPLS-2005>
159.722961425781

> <r_mmod_Electrostatic_Energy-OPLS-2005>
-202.082336425781

> <r_mmod_Solvation_Energy-OPLS-2005>
-205.692398071289

> <b_mmod_Minimization_Converged-OPLS-2005>
0

> <r_mmod_RMS_Derivative-OPLS-2005>
1.70850765705109

$$$$
24
                    3D
 Structure written by MMmdl.
181189  0  0  1  0            999 V2000
  -30.7546  -14.6220   20.3564 C   0  0  0  0  0  0
  -30.3945  -12.3697   19.4471 C   0  0  0  0  0  0
  -29.4797  -12.3929   18.2109 C   0  0  0  0  0  0
  -28.0059  -12.2831   18.6386 C   0  0  0  0  0  0
  -27.6266  -13.2192   19.8176 C   0  0  2  0  0  0
  -28.6845  -13.2414   20.9355 C   0  0  0  0  0  0
  -25.2532  -13.8051   20.5837 C   0  0  0  0  0  0
  -24.1774  -13.0345   20.9232 C   0  0  0  0  0  0
  -24.6365  -11.6840   20.8759 C   0  0  0  0  0  0
  -23.9043  -10.4247   21.0408 C   0  0  0  0  0  0
  -24.3601   -9.4172   21.9187 C   0  0  0  0  0  0
  -23.6280   -8.2209   22.0749 C   0  0  0  0  0  0
  -22.4263   -8.0259   21.3535 C   0  0  0  0  0  0
  -21.9896   -9.0227   20.4632 C   0  0  0  0  0  0
  -22.7222  -10.2104   20.3046 C   0  0  0  0  0  0
  -21.6840   -6.0727   22.5279 C   0  0  0  0  0  0
  -21.4008   -6.5628   23.8213 C   0  0  0  0  0  0
  -21.3654   -5.6775   24.9170 C   0  0  0  0  0  0
  -21.6051   -4.3040   24.7212 C   0  0  0  0  0  0
  -21.8826   -3.8139   23.4331 C   0  0  0  0  0  0
  -21.9193   -4.6959   22.3391 C   0  0  0  0  0  0
  -22.7815  -13.5184   21.1881 C   0  0  0  0  0  0
  -22.1661   -4.2154   21.0965 F   0  0  0  0  0  0
  -21.5637   -3.4523   25.7722 F   0  0  0  0  0  0
  -29.9837  -13.4933   20.3111 N   0  0  0  0  0  0
  -26.2911  -12.9285   20.3267 N   0  0  0  0  0  0
  -25.9296  -11.6445   20.5766 N   0  0  0  0  0  0
  -22.0430  -12.8190   22.0422 N   0  0  0  0  0  0
  -25.4294  -15.1718   20.4555 N   0  0  0  0  0  0
  -31.9700  -14.4532   20.4226 O   0  0  0  0  0  0
  -21.6616   -6.8867   21.4241 O   0  0  0  0  0  0
  -22.3537  -14.5511   20.6742 O   0  0  0  0  0  0
  -24.6183  -31.8654   23.2072 C   0  0  0  0  0  0
  -25.9065  -32.4805   23.8381 C   0  0  1  0  0  0
  -27.2266  -27.4035   20.1127 C   0  0  0  0  0  0
  -25.5915  -33.8604   24.2313 N   0  0  0  0  0  0
  -23.4080  -30.4883   21.5480 C   0  0  2  0  0  0
  -24.8555  -28.9521   20.1109 C   0  0  0  0  0  0
  -22.7430  -29.4649   22.4974 C   0  0  0  0  0  0
  -18.0277  -28.1379   22.8499 C   0  0  0  0  0  0
  -24.1480  -36.7298   23.2634 C   0  0  0  0  0  0
  -25.9392  -30.8247   21.3630 C   0  0  0  0  0  0
  -26.0179  -29.4575   20.7088 C   0  0  0  0  0  0
  -27.2115  -28.6928   20.7015 C   0  0  0  0  0  0
  -26.0523  -26.9232   19.4984 C   0  0  0  0  0  0
  -24.8693  -27.6870   19.4985 C   0  0  0  0  0  0
  -23.6173  -29.8205   20.1629 C   0  0  0  0  0  0
  -25.4102  -36.3095   24.0333 C   0  0  1  0  0  0
  -20.5870  -28.3673   23.1307 C   0  0  2  0  0  0
  -20.6766  -26.9405   22.5416 C   0  0  0  0  0  0
  -19.5742  -26.6385   21.5218 C   0  0  0  0  0  0
  -18.1919  -26.7930   22.1622 C   0  0  0  0  0  0
  -19.1527  -28.8844   23.2899 C   0  0  0  0  0  0
  -18.9452  -30.1450   23.8907 C   0  0  0  0  0  0
  -17.6455  -30.6587   24.0566 C   0  0  0  0  0  0
  -25.9048  -34.9466   23.5122 C   0  0  0  0  0  0
  -16.5347  -29.9087   23.6334 C   0  0  0  0  0  0
  -16.7266  -28.6503   23.0358 C   0  0  0  0  0  0
  -26.4484  -31.6592   25.0719 C   0  0  0  0  0  0
  -25.3743  -31.3688   26.1458 C   0  0  0  0  0  0
  -27.0325  -30.3035   24.6107 C   0  0  0  0  0  0
  -27.6058  -32.4312   25.7487 C   0  0  0  0  0  0
  -27.5588  -37.1780   24.8447 C   0  0  0  0  0  0
  -21.4154  -29.3033   22.3708 N   0  0  0  0  0  0
  -26.4272  -37.3797   23.9434 N   0  0  0  0  0  0
  -24.6735  -31.0737   22.0979 N   0  0  0  0  0  0
  -23.4186  -28.8201   23.3037 O   0  0  0  0  0  0
  -28.3469  -26.5939   20.1475 O   0  0  0  0  0  0
  -26.5612  -34.8926   22.4685 O   0  0  0  0  0  0
  -23.5366  -32.1413   23.7453 O   0  0  0  0  0  0
  -27.9607  -16.9672   19.5114 C   0  0  0  0  0  0
  -27.3584  -18.1823   19.7621 C   0  0  0  0  0  0
  -28.2266  -18.7737   20.7635 C   0  0  0  0  0  0
  -26.8963  -17.9590   16.6026 C   0  0  0  0  0  0
  -26.2101  -20.1544   18.5575 C   0  0  0  0  0  0
  -24.8295  -18.5347   19.8794 C   0  0  0  0  0  0
  -26.7943  -20.3501   22.1648 C   0  0  0  0  0  0
  -29.1367  -20.0512   22.7738 C   0  0  0  0  0  0
  -31.6218  -17.0045   20.0041 C   0  0  0  0  0  0
  -30.3639  -15.9164   18.2183 C   0  0  0  0  0  0
  -25.8334  -17.8512   17.7168 C   0  0  0  0  0  0
  -28.2894  -22.8080   21.2297 C   0  0  0  0  0  0
  -28.6130  -24.0439   20.3246 C   0  0  0  0  0  0
  -28.6578  -21.3791   20.6839 C   0  0  0  0  0  0
  -28.1940  -25.4057   20.9680 C   0  0  0  0  0  0
  -26.0974  -18.6850   19.0109 C   0  0  0  0  0  0
  -28.1925  -20.1328   21.5454 C   0  0  0  0  0  0
  -30.3863  -16.0691   19.7607 C   0  0  0  0  0  0
  -29.2701  -17.9545   20.9820 N   0  0  0  0  0  0
  -29.1756  -16.8732   20.1562 N   0  0  0  0  0  0
  -31.4361  -12.4313   19.1277 H   0  0  0  0  0  0
  -30.3003  -11.4239   19.9829 H   0  0  0  0  0  0
  -29.7311  -11.5617   17.5509 H   0  0  0  0  0  0
  -29.6416  -13.2893   17.6193 H   0  0  0  0  0  0
  -27.8393  -11.2451   18.9278 H   0  0  0  0  0  0
  -27.3495  -12.4652   17.7865 H   0  0  0  0  0  0
  -27.5941  -14.2141   19.3885 H   0  0  0  0  0  0
  -28.7025  -12.2962   21.4793 H   0  0  0  0  0  0
  -28.4552  -14.0218   21.6631 H   0  0  0  0  0  0
  -25.2739   -9.5659   22.4766 H   0  0  0  0  0  0
  -23.9994   -7.4594   22.7457 H   0  0  0  0  0  0
  -21.0831   -8.8738   19.8936 H   0  0  0  0  0  0
  -22.3681  -10.9648   19.6159 H   0  0  0  0  0  0
  -21.1999   -7.6137   23.9723 H   0  0  0  0  0  0
  -21.1470   -6.0495   25.9074 H   0  0  0  0  0  0
  -22.0619   -2.7606   23.2813 H   0  0  0  0  0  0
  -22.4011  -11.9832   22.4803 H   0  0  0  0  0  0
  -21.1060  -13.1250   22.2621 H   0  0  0  0  0  0
  -24.6709  -15.8161   20.6407 H   0  0  0  0  0  0
  -26.3134  -15.6380   20.3109 H   0  0  0  0  0  0
  -26.7136  -32.5511   23.1147 H   0  0  0  0  0  0
  -25.0077  -33.9764   25.0466 H   0  0  0  0  0  0
  -22.6981  -31.3061   21.4077 H   0  0  0  0  0  0
  -23.3767  -35.9602   23.3237 H   0  0  0  0  0  0
  -24.3591  -36.8982   22.2063 H   0  0  0  0  0  0
  -23.7190  -37.6464   23.6694 H   0  0  0  0  0  0
  -26.0539  -31.5907   20.5950 H   0  0  0  0  0  0
  -26.8257  -30.8774   21.9832 H   0  0  0  0  0  0
  -28.1076  -29.0741   21.1705 H   0  0  0  0  0  0
  -26.0488  -25.9461   19.0354 H   0  0  0  0  0  0
  -23.9759  -27.2922   19.0346 H   0  0  0  0  0  0
  -23.7251  -30.5954   19.4028 H   0  0  0  0  0  0
  -22.7408  -29.2407   19.8677 H   0  0  0  0  0  0
  -25.1271  -36.1941   25.0821 H   0  0  0  0  0  0
  -20.9966  -28.3239   24.1426 H   0  0  0  0  0  0
  -20.5684  -26.2280   23.3605 H   0  0  0  0  0  0
  -21.6635  -26.7443   22.1203 H   0  0  0  0  0  0
  -19.6903  -25.6299   21.1242 H   0  0  0  0  0  0
  -19.6684  -27.3207   20.6756 H   0  0  0  0  0  0
  -17.4195  -26.6696   21.4011 H   0  0  0  0  0  0
  -18.0299  -26.0062   22.9001 H   0  0  0  0  0  0
  -19.7925  -30.7272   24.2274 H   0  0  0  0  0  0
  -17.5005  -31.6267   24.5167 H   0  0  0  0  0  0
  -15.5349  -30.2992   23.7653 H   0  0  0  0  0  0
  -15.8664  -28.0830   22.7067 H   0  0  0  0  0  0
  -24.5922  -30.7039   25.7773 H   0  0  0  0  0  0
  -24.8936  -32.2839   26.4923 H   0  0  0  0  0  0
  -25.8095  -30.8833   27.0202 H   0  0  0  0  0  0
  -26.2868  -29.6780   24.1183 H   0  0  0  0  0  0
  -27.4115  -29.7289   25.4568 H   0  0  0  0  0  0
  -27.8693  -30.4353   23.9244 H   0  0  0  0  0  0
  -27.2688  -33.3620   26.2060 H   0  0  0  0  0  0
  -28.3878  -32.6853   25.0319 H   0  0  0  0  0  0
  -28.0711  -31.8431   26.5407 H   0  0  0  0  0  0
  -28.2530  -38.0153   24.7620 H   0  0  0  0  0  0
  -28.1162  -36.2694   24.6113 H   0  0  0  0  0  0
  -27.2328  -37.1233   25.8849 H   0  0  0  0  0  0
  -20.9323  -29.8747   21.6918 H   0  0  0  0  0  0
  -26.0149  -38.2850   24.1524 H   0  0  0  0  0  0
  -27.6863  -16.2389   18.7666 H   0  0  0  0  0  0
  -26.7016  -17.2302   15.8150 H   0  0  0  0  0  0
  -27.9082  -17.7833   16.9652 H   0  0  0  0  0  0
  -26.8864  -18.9431   16.1344 H   0  0  0  0  0  0
  -26.1663  -20.8639   19.3750 H   0  0  0  0  0  0
  -25.3820  -20.4244   17.9004 H   0  0  0  0  0  0
  -27.1284  -20.3351   17.9995 H   0  0  0  0  0  0
  -24.9220  -18.9700   20.8675 H   0  0  0  0  0  0
  -24.5544  -17.4963   20.0268 H   0  0  0  0  0  0
  -23.9690  -19.0077   19.4045 H   0  0  0  0  0  0
  -26.4335  -19.4406   22.6464 H   0  0  0  0  0  0
  -26.0521  -20.6668   21.4430 H   0  0  0  0  0  0
  -26.8036  -21.1248   22.9320 H   0  0  0  0  0  0
  -28.8696  -19.2178   23.4249 H   0  0  0  0  0  0
  -29.1007  -20.9559   23.3803 H   0  0  0  0  0  0
  -30.1768  -19.9134   22.4777 H   0  0  0  0  0  0
  -31.4692  -17.9997   19.5842 H   0  0  0  0  0  0
  -32.5372  -16.6370   19.5391 H   0  0  0  0  0  0
  -31.8269  -17.1282   21.0684 H   0  0  0  0  0  0
  -30.3754  -16.8881   17.7234 H   0  0  0  0  0  0
  -29.4751  -15.4000   17.8655 H   0  0  0  0  0  0
  -31.2280  -15.3613   17.8500 H   0  0  0  0  0  0
  -25.6875  -16.8007   17.9711 H   0  0  0  0  0  0
  -24.8804  -18.1536   17.2809 H   0  0  0  0  0  0
  -27.2183  -22.8441   21.4256 H   0  0  0  0  0  0
  -28.7723  -22.9513   22.1970 H   0  0  0  0  0  0
  -28.0990  -23.9290   19.3701 H   0  0  0  0  0  0
  -29.6792  -24.0651   20.0988 H   0  0  0  0  0  0
  -29.7365  -21.3190   20.5345 H   0  0  0  0  0  0
  -28.2592  -21.3020   19.6797 H   0  0  0  0  0  0
  -28.7943  -25.5639   21.8648 H   0  0  0  0  0  0
  -27.1699  -25.3095   21.3331 H   0  0  0  0  0  0
  1 25  1  0  0  0
  1 30  2  0  0  0
  1 88  1  0  0  0
  2  3  1  0  0  0
  2 25  1  0  0  0
  2 91  1  0  0  0
  2 92  1  0  0  0
  3  4  1  0  0  0
  3 93  1  0  0  0
  3 94  1  0  0  0
  4  5  1  0  0  0
  4 95  1  0  0  0
  4 96  1  0  0  0
  5  6  1  0  0  0
  5 26  1  0  0  0
  5 97  1  0  0  0
  6 25  1  0  0  0
  6 98  1  0  0  0
  6 99  1  0  0  0
  7  8  2  0  0  0
  7 26  1  0  0  0
  7 29  1  0  0  0
  8  9  1  0  0  0
  8 22  1  0  0  0
  9 10  1  0  0  0
  9 27  2  0  0  0
 10 11  2  0  0  0
 10 15  1  0  0  0
 11 12  1  0  0  0
 11100  1  0  0  0
 12 13  2  0  0  0
 12101  1  0  0  0
 13 14  1  0  0  0
 13 31  1  0  0  0
 14 15  2  0  0  0
 14102  1  0  0  0
 15103  1  0  0  0
 16 17  2  0  0  0
 16 21  1  0  0  0
 16 31  1  0  0  0
 17 18  1  0  0  0
 17104  1  0  0  0
 18 19  2  0  0  0
 18105  1  0  0  0
 19 20  1  0  0  0
 19 24  1  0  0  0
 20 21  2  0  0  0
 20106  1  0  0  0
 21 23  1  0  0  0
 22 28  1  0  0  0
 22 32  2  0  0  0
 26 27  1  0  0  0
 28107  1  0  0  0
 28108  1  0  0  0
 29109  1  0  0  0
 29110  1  0  0  0
 33 34  1  0  0  0
 33 66  1  0  0  0
 33 70  2  0  0  0
 34 36  1  0  0  0
 34 59  1  0  0  0
 34111  1  0  0  0
 35 44  2  0  0  0
 35 45  1  0  0  0
 35 68  1  0  0  0
 36 56  1  0  0  0
 36112  1  0  0  0
 37 39  1  0  0  0
 37 47  1  0  0  0
 37 66  1  0  0  0
 37113  1  0  0  0
 38 43  2  0  0  0
 38 46  1  0  0  0
 38 47  1  0  0  0
 39 64  1  0  0  0
 39 67  2  0  0  0
 40 52  1  0  0  0
 40 53  2  0  0  0
 40 58  1  0  0  0
 41114  1  0  0  0
 41115  1  0  0  0
 41116  1  0  0  0
 41 48  1  0  0  0
 42 43  1  0  0  0
 42 66  1  0  0  0
 42117  1  0  0  0
 42118  1  0  0  0
 43 44  1  0  0  0
 44119  1  0  0  0
 45 46  2  0  0  0
 45120  1  0  0  0
 46121  1  0  0  0
 47122  1  0  0  0
 47123  1  0  0  0
 48 56  1  0  0  0
 48 65  1  0  0  0
 48124  1  0  0  0
 49 50  1  0  0  0
 49 53  1  0  0  0
 49 64  1  0  0  0
 49125  1  0  0  0
 50 51  1  0  0  0
 50126  1  0  0  0
 50127  1  0  0  0
 51 52  1  0  0  0
 51128  1  0  0  0
 51129  1  0  0  0
 52130  1  0  0  0
 52131  1  0  0  0
 53 54  1  0  0  0
 54 55  2  0  0  0
 54132  1  0  0  0
 55 57  1  0  0  0
 55133  1  0  0  0
 56 69  2  0  0  0
 57 58  2  0  0  0
 57134  1  0  0  0
 58135  1  0  0  0
 59 60  1  0  0  0
 59 61  1  0  0  0
 59 62  1  0  0  0
 60136  1  0  0  0
 60137  1  0  0  0
 60138  1  0  0  0
 61139  1  0  0  0
 61140  1  0  0  0
 61141  1  0  0  0
 62142  1  0  0  0
 62143  1  0  0  0
 62144  1  0  0  0
 63 65  1  0  0  0
 63145  1  0  0  0
 63146  1  0  0  0
 63147  1  0  0  0
 64148  1  0  0  0
 65149  1  0  0  0
 68 85  1  0  0  0
 71 72  2  0  0  0
 71 90  1  0  0  0
 71150  1  0  0  0
 72 73  1  0  0  0
 72 86  1  0  0  0
 73 87  1  0  0  0
 73 89  2  0  0  0
 74 81  1  0  0  0
 74151  1  0  0  0
 74152  1  0  0  0
 74153  1  0  0  0
 75154  1  0  0  0
 75155  1  0  0  0
 75156  1  0  0  0
 75 86  1  0  0  0
 76 86  1  0  0  0
 76157  1  0  0  0
 76158  1  0  0  0
 76159  1  0  0  0
 77160  1  0  0  0
 77161  1  0  0  0
 77162  1  0  0  0
 77 87  1  0  0  0
 78 87  1  0  0  0
 78163  1  0  0  0
 78164  1  0  0  0
 78165  1  0  0  0
 79166  1  0  0  0
 79167  1  0  0  0
 79168  1  0  0  0
 79 88  1  0  0  0
 80 88  1  0  0  0
 80169  1  0  0  0
 80170  1  0  0  0
 80171  1  0  0  0
 81 86  1  0  0  0
 81172  1  0  0  0
 81173  1  0  0  0
 82 83  1  0  0  0
 82 84  1  0  0  0
 82174  1  0  0  0
 82175  1  0  0  0
 83 85  1  0  0  0
 83176  1  0  0  0
 83177  1  0  0  0
 84 87  1  0  0  0
 84178  1  0  0  0
 84179  1  0  0  0
 85180  1  0  0  0
 85181  1  0  0  0
 88 90  1  0  0  0
 89 90  1  0  0  0
M  ISO  4   1 100  68 101  85 101  88 100
M  END
> <chiral flag>
0

> <version>
0

> <s_m_source_file>
/data/baiqing/PycharmProjects/Reinvent-master-3.2/result/LINK_invent/BTK/process_docking_weight1_custom_sum_contain_oxygen_bond_distance_aromatic_linkinvent_7_9_3/rearranged_h_0064.sdf

> <i_m_source_file_index>
25

> <r_mmod_Potential_Energy-OPLS-2005>
308.271331787109

> <r_mmod_Stretch_Energy-OPLS-2005>
74.3978652954102

> <r_mmod_Bend_Energy-OPLS-2005>
184.807113647461

> <r_mmod_Torsional_Energy-OPLS-2005>
319.126953125

> <r_mmod_Improper_Torsional_Energy-OPLS-2005>
21.7585201263428

> <r_mmod_Van_der_Waal_Energy-OPLS-2005>
152.569320678711

> <r_mmod_Electrostatic_Energy-OPLS-2005>
-353.260528564453

> <r_mmod_Solvation_Energy-OPLS-2005>
-167.643295288086

> <b_mmod_Minimization_Converged-OPLS-2005>
0

> <r_mmod_RMS_Derivative-OPLS-2005>
1.00487184524536

$$$$
25
                    3D
 Structure written by MMmdl.
158166  0  0  1  0            999 V2000
  -30.5247  -15.0220   20.3533 C   0  0  0  0  0  0
  -30.4229  -12.6126   19.5277 C   0  0  0  0  0  0
  -29.5207  -12.5366   18.2747 C   0  0  0  0  0  0
  -28.0470  -12.3364   18.6777 C   0  0  0  0  0  0
  -27.6181  -13.2715   19.8364 C   0  0  2  0  0  0
  -28.6601  -13.3469   20.9735 C   0  0  0  0  0  0
  -25.2346  -13.8275   20.5724 C   0  0  0  0  0  0
  -24.1707  -13.0438   20.9223 C   0  0  0  0  0  0
  -24.6398  -11.6934   20.8723 C   0  0  0  0  0  0
  -23.9108  -10.4274   21.0401 C   0  0  0  0  0  0
  -24.3647   -9.4179   21.9196 C   0  0  0  0  0  0
  -23.6309   -8.2223   22.0783 C   0  0  0  0  0  0
  -22.4307   -8.0272   21.3563 C   0  0  0  0  0  0
  -21.9927   -9.0245   20.4674 C   0  0  0  0  0  0
  -22.7246  -10.2135   20.3063 C   0  0  0  0  0  0
  -21.6858   -6.0726   22.5272 C   0  0  0  0  0  0
  -21.4031   -6.5629   23.8199 C   0  0  0  0  0  0
  -21.3658   -5.6766   24.9157 C   0  0  0  0  0  0
  -21.6091   -4.3038   24.7201 C   0  0  0  0  0  0
  -21.8818   -3.8122   23.4305 C   0  0  0  0  0  0
  -21.9196   -4.6949   22.3372 C   0  0  0  0  0  0
  -22.7730  -13.5152   21.1872 C   0  0  0  0  0  0
  -22.1639   -4.2139   21.0951 F   0  0  0  0  0  0
  -21.5641   -3.4520   25.7719 F   0  0  0  0  0  0
  -29.9403  -13.7486   20.3724 N   0  0  0  0  0  0
  -26.2826  -12.9560   20.3267 N   0  0  0  0  0  0
  -25.9334  -11.6665   20.5784 N   0  0  0  0  0  0
  -22.0405  -12.8145   22.0477 N   0  0  0  0  0  0
  -25.3889  -15.1990   20.4101 N   0  0  0  0  0  0
  -31.7215  -15.0717   20.0471 O   0  0  0  0  0  0
  -21.6642   -6.8890   21.4263 O   0  0  0  0  0  0
  -22.3384  -14.5419   20.6677 O   0  0  0  0  0  0
  -24.6547  -31.8388   23.1803 C   0  0  0  0  0  0
  -25.9267  -32.4690   23.8226 C   0  0  1  0  0  0
  -27.2222  -27.0829   20.1561 C   0  0  0  0  0  0
  -25.5992  -33.8481   24.2131 N   0  0  0  0  0  0
  -23.4612  -30.4551   21.5282 C   0  0  2  0  0  0
  -24.9036  -28.8598   20.1212 C   0  0  0  0  0  0
  -22.7621  -29.4537   22.4837 C   0  0  0  0  0  0
  -18.0344  -28.1413   22.8481 C   0  0  0  0  0  0
  -24.1487  -36.7244   23.2655 C   0  0  0  0  0  0
  -26.0225  -30.6947   21.3798 C   0  0  0  0  0  0
  -26.0870  -29.2956   20.7319 C   0  0  0  0  0  0
  -27.2485  -28.4273   20.7229 C   0  0  0  0  0  0
  -26.0119  -26.7537   19.5193 C   0  0  0  0  0  0
  -24.8766  -27.5974   19.5056 C   0  0  0  0  0  0
  -23.6893  -29.7756   20.1540 C   0  0  0  0  0  0
  -25.4117  -36.2987   24.0315 C   0  0  1  0  0  0
  -20.5943  -28.3837   23.1259 C   0  0  2  0  0  0
  -20.6835  -26.9487   22.5604 C   0  0  0  0  0  0
  -19.5865  -26.6253   21.5413 C   0  0  0  0  0  0
  -18.2015  -26.7895   22.1741 C   0  0  0  0  0  0
  -19.1579  -28.8965   23.2832 C   0  0  0  0  0  0
  -18.9460  -30.1569   23.8832 C   0  0  0  0  0  0
  -17.6449  -30.6649   24.0502 C   0  0  0  0  0  0
  -25.9086  -34.9417   23.5027 C   0  0  0  0  0  0
  -16.5361  -29.9096   23.6286 C   0  0  0  0  0  0
  -16.7321  -28.6514   23.0295 C   0  0  0  0  0  0
  -26.4540  -31.6527   25.0667 C   0  0  0  0  0  0
  -25.3717  -31.3723   26.1362 C   0  0  0  0  0  0
  -27.0428  -30.2935   24.6267 C   0  0  0  0  0  0
  -27.6073  -32.4297   25.7461 C   0  0  0  0  0  0
  -27.5548  -37.1758   24.8471 C   0  0  0  0  0  0
  -21.4309  -29.3077   22.3565 N   0  0  0  0  0  0
  -26.4249  -37.3728   23.9437 N   0  0  0  0  0  0
  -24.7337  -31.0226   22.0833 N   0  0  0  0  0  0
  -23.4248  -28.8118   23.3025 O   0  0  0  0  0  0
  -28.2828  -26.0930   20.1091 O   0  0  0  0  0  0
  -26.5709  -34.8925   22.4628 O   0  0  0  0  0  0
  -23.5643  -32.1319   23.6965 O   0  0  0  0  0  0
  -27.6180  -22.9094   18.7620 C   0  0  0  0  0  0
  -28.0692  -20.4900   18.8345 C   0  0  0  0  0  0
  -27.4203  -21.6023   18.2405 C   0  0  0  0  0  0
  -28.3668  -23.1341   19.9293 C   0  0  0  0  0  0
  -28.9054  -20.6309   19.9614 C   0  0  0  0  0  0
  -25.4873  -22.5159   16.7803 C   0  0  0  0  0  0
  -29.0363  -19.0227   22.0330 C   0  0  0  0  0  0
  -26.4476  -21.3533   17.0815 C   0  0  0  0  0  0
  -28.1585  -24.6234   20.6739 C   0  0  0  0  0  0
  -29.8336  -17.7158   19.8571 C   0  0  0  0  0  0
  -29.5908  -19.2454   20.6244 C   0  0  1  0  0  0
  -29.0036  -21.9674   20.4879 N   0  0  0  0  0  0
  -29.7420  -16.2227   20.4599 N   0  0  0  0  0  0
  -31.4656  -12.7325   19.2346 H   0  0  0  0  0  0
  -30.3823  -11.6699   20.0817 H   0  0  0  0  0  0
  -29.8374  -11.7241   17.6227 H   0  0  0  0  0  0
  -29.6232  -13.4521   17.6914 H   0  0  0  0  0  0
  -27.9192  -11.2931   18.9720 H   0  0  0  0  0  0
  -27.3931  -12.4898   17.8187 H   0  0  0  0  0  0
  -27.5646  -14.2675   19.3945 H   0  0  0  0  0  0
  -28.7435  -12.3967   21.5016 H   0  0  0  0  0  0
  -28.3564  -14.0869   21.7142 H   0  0  0  0  0  0
  -25.2793   -9.5636   22.4775 H   0  0  0  0  0  0
  -24.0029   -7.4608   22.7479 H   0  0  0  0  0  0
  -21.0879   -8.8706   19.8955 H   0  0  0  0  0  0
  -22.3690  -10.9661   19.6139 H   0  0  0  0  0  0
  -21.2042   -7.6137   23.9702 H   0  0  0  0  0  0
  -21.1506   -6.0504   25.9078 H   0  0  0  0  0  0
  -22.0636   -2.7589   23.2791 H   0  0  0  0  0  0
  -22.4069  -11.9841   22.4857 H   0  0  0  0  0  0
  -21.1079  -13.1216   22.2823 H   0  0  0  0  0  0
  -24.5998  -15.8331   20.5019 H   0  0  0  0  0  0
  -26.2150  -15.6429   20.0306 H   0  0  0  0  0  0
  -26.7332  -32.5221   23.0950 H   0  0  0  0  0  0
  -25.0067  -33.9564   25.0224 H   0  0  0  0  0  0
  -22.7656  -31.2820   21.3606 H   0  0  0  0  0  0
  -23.3745  -35.9571   23.3275 H   0  0  0  0  0  0
  -24.3587  -36.8947   22.2077 H   0  0  0  0  0  0
  -23.7219  -37.6428   23.6723 H   0  0  0  0  0  0
  -26.1781  -31.4334   20.5909 H   0  0  0  0  0  0
  -26.8960  -30.7637   22.0188 H   0  0  0  0  0  0
  -28.1515  -28.7660   21.2058 H   0  0  0  0  0  0
  -25.9419  -25.7955   19.0269 H   0  0  0  0  0  0
  -23.9740  -27.2523   19.0175 H   0  0  0  0  0  0
  -23.8462  -30.5498   19.4025 H   0  0  0  0  0  0
  -22.8027  -29.2333   19.8279 H   0  0  0  0  0  0
  -25.1274  -36.1818   25.0800 H   0  0  0  0  0  0
  -21.0048  -28.3582   24.1378 H   0  0  0  0  0  0
  -20.5715  -26.2555   23.3962 H   0  0  0  0  0  0
  -21.6736  -26.7454   22.1504 H   0  0  0  0  0  0
  -19.7079  -25.6103   21.1627 H   0  0  0  0  0  0
  -19.6759  -27.2923   20.6835 H   0  0  0  0  0  0
  -17.4274  -26.6584   21.4134 H   0  0  0  0  0  0
  -18.0408  -26.0091   22.9190 H   0  0  0  0  0  0
  -19.7910  -30.7457   24.2133 H   0  0  0  0  0  0
  -17.4940  -31.6342   24.5068 H   0  0  0  0  0  0
  -15.5345  -30.2960   23.7598 H   0  0  0  0  0  0
  -15.8722  -28.0842   22.6958 H   0  0  0  0  0  0
  -24.5928  -30.7040   25.7662 H   0  0  0  0  0  0
  -24.8866  -32.2908   26.4704 H   0  0  0  0  0  0
  -25.8009  -30.8947   27.0190 H   0  0  0  0  0  0
  -26.3069  -29.6621   24.1308 H   0  0  0  0  0  0
  -27.4089  -29.7256   25.4816 H   0  0  0  0  0  0
  -27.8921  -30.4169   23.9564 H   0  0  0  0  0  0
  -27.2704  -33.3668   26.1937 H   0  0  0  0  0  0
  -28.3954  -32.6784   25.0317 H   0  0  0  0  0  0
  -28.0694  -31.8491   26.5463 H   0  0  0  0  0  0
  -28.2526  -38.0084   24.7535 H   0  0  0  0  0  0
  -28.1051  -36.2607   24.6233 H   0  0  0  0  0  0
  -27.2299  -37.1396   25.8884 H   0  0  0  0  0  0
  -20.9512  -29.8726   21.6681 H   0  0  0  0  0  0
  -26.0097  -38.2791   24.1443 H   0  0  0  0  0  0
  -27.0974  -23.7509   18.3359 H   0  0  0  0  0  0
  -27.8935  -19.5057   18.4264 H   0  0  0  0  0  0
  -26.0297  -23.3796   16.4006 H   0  0  0  0  0  0
  -24.9505  -22.8181   17.6770 H   0  0  0  0  0  0
  -24.7534  -22.2474   16.0213 H   0  0  0  0  0  0
  -29.1220  -19.9318   22.6326 H   0  0  0  0  0  0
  -29.5975  -18.2435   22.5509 H   0  0  0  0  0  0
  -27.9868  -18.7378   21.9960 H   0  0  0  0  0  0
  -25.8423  -20.4709   17.3020 H   0  0  0  0  0  0
  -27.0027  -21.0960   16.1779 H   0  0  0  0  0  0
  -28.8435  -24.5964   21.5201 H   0  0  0  0  0  0
  -27.1631  -24.5734   21.1219 H   0  0  0  0  0  0
  -30.8021  -17.7722   19.3527 H   0  0  0  0  0  0
  -29.1244  -17.6993   19.0282 H   0  0  0  0  0  0
  -30.6162  -19.5773   20.7933 H   0  0  0  0  0  0
  -28.8058  -16.0093   20.7706 H   0  0  0  0  0  0
  1 25  1  0  0  0
  1 30  2  0  0  0
  1 83  1  0  0  0
  2  3  1  0  0  0
  2 25  1  0  0  0
  2 84  1  0  0  0
  2 85  1  0  0  0
  3  4  1  0  0  0
  3 86  1  0  0  0
  3 87  1  0  0  0
  4  5  1  0  0  0
  4 88  1  0  0  0
  4 89  1  0  0  0
  5  6  1  0  0  0
  5 26  1  0  0  0
  5 90  1  0  0  0
  6 25  1  0  0  0
  6 91  1  0  0  0
  6 92  1  0  0  0
  7  8  2  0  0  0
  7 26  1  0  0  0
  7 29  1  0  0  0
  8  9  1  0  0  0
  8 22  1  0  0  0
  9 10  1  0  0  0
  9 27  2  0  0  0
 10 11  2  0  0  0
 10 15  1  0  0  0
 11 12  1  0  0  0
 11 93  1  0  0  0
 12 13  2  0  0  0
 12 94  1  0  0  0
 13 14  1  0  0  0
 13 31  1  0  0  0
 14 15  2  0  0  0
 14 95  1  0  0  0
 15 96  1  0  0  0
 16 17  2  0  0  0
 16 21  1  0  0  0
 16 31  1  0  0  0
 17 18  1  0  0  0
 17 97  1  0  0  0
 18 19  2  0  0  0
 18 98  1  0  0  0
 19 20  1  0  0  0
 19 24  1  0  0  0
 20 21  2  0  0  0
 20 99  1  0  0  0
 21 23  1  0  0  0
 22 28  1  0  0  0
 22 32  2  0  0  0
 26 27  1  0  0  0
 28100  1  0  0  0
 28101  1  0  0  0
 29102  1  0  0  0
 29103  1  0  0  0
 33 34  1  0  0  0
 33 66  1  0  0  0
 33 70  2  0  0  0
 34 36  1  0  0  0
 34 59  1  0  0  0
 34104  1  0  0  0
 35 44  2  0  0  0
 35 45  1  0  0  0
 35 68  1  0  0  0
 36 56  1  0  0  0
 36105  1  0  0  0
 37 39  1  0  0  0
 37 47  1  0  0  0
 37 66  1  0  0  0
 37106  1  0  0  0
 38 43  2  0  0  0
 38 46  1  0  0  0
 38 47  1  0  0  0
 39 64  1  0  0  0
 39 67  2  0  0  0
 40 52  1  0  0  0
 40 53  2  0  0  0
 40 58  1  0  0  0
 41107  1  0  0  0
 41108  1  0  0  0
 41109  1  0  0  0
 41 48  1  0  0  0
 42 43  1  0  0  0
 42 66  1  0  0  0
 42110  1  0  0  0
 42111  1  0  0  0
 43 44  1  0  0  0
 44112  1  0  0  0
 45 46  2  0  0  0
 45113  1  0  0  0
 46114  1  0  0  0
 47115  1  0  0  0
 47116  1  0  0  0
 48 56  1  0  0  0
 48 65  1  0  0  0
 48117  1  0  0  0
 49 50  1  0  0  0
 49 53  1  0  0  0
 49 64  1  0  0  0
 49118  1  0  0  0
 50 51  1  0  0  0
 50119  1  0  0  0
 50120  1  0  0  0
 51 52  1  0  0  0
 51121  1  0  0  0
 51122  1  0  0  0
 52123  1  0  0  0
 52124  1  0  0  0
 53 54  1  0  0  0
 54 55  2  0  0  0
 54125  1  0  0  0
 55 57  1  0  0  0
 55126  1  0  0  0
 56 69  2  0  0  0
 57 58  2  0  0  0
 57127  1  0  0  0
 58128  1  0  0  0
 59 60  1  0  0  0
 59 61  1  0  0  0
 59 62  1  0  0  0
 60129  1  0  0  0
 60130  1  0  0  0
 60131  1  0  0  0
 61132  1  0  0  0
 61133  1  0  0  0
 61134  1  0  0  0
 62135  1  0  0  0
 62136  1  0  0  0
 62137  1  0  0  0
 63 65  1  0  0  0
 63138  1  0  0  0
 63139  1  0  0  0
 63140  1  0  0  0
 64141  1  0  0  0
 65142  1  0  0  0
 68 79  1  0  0  0
 71 73  2  0  0  0
 71 74  1  0  0  0
 71143  1  0  0  0
 72 73  1  0  0  0
 72 75  2  0  0  0
 72144  1  0  0  0
 73 78  1  0  0  0
 74 79  1  0  0  0
 74 82  2  0  0  0
 75 81  1  0  0  0
 75 82  1  0  0  0
 76 78  1  0  0  0
 76145  1  0  0  0
 76146  1  0  0  0
 76147  1  0  0  0
 77148  1  0  0  0
 77149  1  0  0  0
 77150  1  0  0  0
 77 81  1  0  0  0
 78151  1  0  0  0
 78152  1  0  0  0
 79153  1  0  0  0
 79154  1  0  0  0
 80 81  1  0  0  0
 80 83  1  0  0  0
 80155  1  0  0  0
 80156  1  0  0  0
 81157  1  0  0  0
 83158  1  0  0  0
M  ISO  4   1 100  68 101  79 101  83 100
M  END
> <chiral flag>
0

> <version>
0

> <s_m_source_file>
/data/baiqing/PycharmProjects/Reinvent-master-3.2/result/LINK_invent/BTK/process_docking_weight1_custom_sum_contain_oxygen_bond_distance_aromatic_linkinvent_7_9_3/rearranged_h_0064.sdf

> <i_m_source_file_index>
26

> <r_mmod_Potential_Energy-OPLS-2005>
542.334106445312

> <r_mmod_Stretch_Energy-OPLS-2005>
333.733093261719

> <r_mmod_Bend_Energy-OPLS-2005>
311.926971435547

> <r_mmod_Torsional_Energy-OPLS-2005>
255.600387573242

> <r_mmod_Improper_Torsional_Energy-OPLS-2005>
8.35747623443604

> <r_mmod_Van_der_Waal_Energy-OPLS-2005>
123.350563049316

> <r_mmod_Electrostatic_Energy-OPLS-2005>
-506.318725585938

> <r_mmod_Solvation_Energy-OPLS-2005>
-226.729263305664

> <b_mmod_Minimization_Converged-OPLS-2005>
0

> <r_mmod_RMS_Derivative-OPLS-2005>
6.93288946151733

$$$$
26
                    3D
 Structure written by MMmdl.
160168  0  0  1  0            999 V2000
  -30.6978  -14.5975   20.5021 C   0  0  0  0  0  0
  -30.4156  -12.3771   19.4557 C   0  0  0  0  0  0
  -29.5033  -12.5169   18.2246 C   0  0  0  0  0  0
  -28.0297  -12.3478   18.6371 C   0  0  0  0  0  0
  -27.6482  -13.2261   19.8600 C   0  0  2  0  0  0
  -28.6887  -13.1275   20.9971 C   0  0  0  0  0  0
  -25.2549  -13.8206   20.5665 C   0  0  0  0  0  0
  -24.1819  -13.0441   20.9185 C   0  0  0  0  0  0
  -24.6421  -11.6914   20.8745 C   0  0  0  0  0  0
  -23.9100  -10.4289   21.0404 C   0  0  0  0  0  0
  -24.3648   -9.4209   21.9188 C   0  0  0  0  0  0
  -23.6312   -8.2256   22.0756 C   0  0  0  0  0  0
  -22.4293   -8.0291   21.3540 C   0  0  0  0  0  0
  -21.9938   -9.0270   20.4627 C   0  0  0  0  0  0
  -22.7282  -10.2143   20.3047 C   0  0  0  0  0  0
  -21.6859   -6.0753   22.5274 C   0  0  0  0  0  0
  -21.4015   -6.5648   23.8211 C   0  0  0  0  0  0
  -21.3665   -5.6788   24.9173 C   0  0  0  0  0  0
  -21.6060   -4.3055   24.7212 C   0  0  0  0  0  0
  -21.8813   -3.8157   23.4327 C   0  0  0  0  0  0
  -21.9198   -4.6985   22.3391 C   0  0  0  0  0  0
  -22.7855  -13.5242   21.1842 C   0  0  0  0  0  0
  -22.1650   -4.2176   21.0961 F   0  0  0  0  0  0
  -21.5651   -3.4533   25.7723 F   0  0  0  0  0  0
  -30.0082  -13.4198   20.4167 N   0  0  0  0  0  0
  -26.2966  -12.9397   20.3302 N   0  0  0  0  0  0
  -25.9348  -11.6540   20.5739 N   0  0  0  0  0  0
  -22.0499  -12.8202   22.0378 N   0  0  0  0  0  0
  -25.4263  -15.1923   20.4032 N   0  0  0  0  0  0
  -31.8764  -14.6703   20.1512 O   0  0  0  0  0  0
  -21.6649   -6.8899   21.4231 O   0  0  0  0  0  0
  -22.3511  -14.5559   20.6727 O   0  0  0  0  0  0
  -24.6263  -31.8661   23.2059 C   0  0  0  0  0  0
  -25.9095  -32.4837   23.8380 C   0  0  1  0  0  0
  -27.1710  -27.3117   20.1086 C   0  0  0  0  0  0
  -25.5927  -33.8629   24.2309 N   0  0  0  0  0  0
  -23.4136  -30.4983   21.5556 C   0  0  2  0  0  0
  -24.8449  -28.9690   20.1058 C   0  0  0  0  0  0
  -22.7435  -29.4671   22.4966 C   0  0  0  0  0  0
  -18.0257  -28.1399   22.8481 C   0  0  0  0  0  0
  -24.1476  -36.7366   23.2635 C   0  0  0  0  0  0
  -25.9549  -30.8011   21.3644 C   0  0  0  0  0  0
  -26.0215  -29.4254   20.7154 C   0  0  0  0  0  0
  -27.1892  -28.6044   20.7163 C   0  0  0  0  0  0
  -25.9763  -26.9322   19.4477 C   0  0  0  0  0  0
  -24.8242  -27.7265   19.4665 C   0  0  0  0  0  0
  -23.6202  -29.8557   20.1626 C   0  0  0  0  0  0
  -25.4096  -36.3149   24.0330 C   0  0  1  0  0  0
  -20.5851  -28.3702   23.1325 C   0  0  2  0  0  0
  -20.6773  -26.9436   22.5428 C   0  0  0  0  0  0
  -19.5765  -26.6395   21.5231 C   0  0  0  0  0  0
  -18.1928  -26.7948   22.1615 C   0  0  0  0  0  0
  -19.1498  -28.8858   23.2912 C   0  0  0  0  0  0
  -18.9431  -30.1451   23.8940 C   0  0  0  0  0  0
  -17.6440  -30.6615   24.0558 C   0  0  0  0  0  0
  -25.9037  -34.9507   23.5122 C   0  0  0  0  0  0
  -16.5331  -29.9117   23.6333 C   0  0  0  0  0  0
  -16.7243  -28.6526   23.0369 C   0  0  0  0  0  0
  -26.4443  -31.6606   25.0720 C   0  0  0  0  0  0
  -25.3633  -31.3751   26.1409 C   0  0  0  0  0  0
  -27.0193  -30.3045   24.6044 C   0  0  0  0  0  0
  -27.6020  -32.4275   25.7528 C   0  0  0  0  0  0
  -27.5573  -37.1846   24.8459 C   0  0  0  0  0  0
  -21.4141  -29.3088   22.3745 N   0  0  0  0  0  0
  -26.4285  -37.3833   23.9402 N   0  0  0  0  0  0
  -24.6881  -31.0666   22.1036 N   0  0  0  0  0  0
  -23.4181  -28.8154   23.2986 O   0  0  0  0  0  0
  -28.2393  -26.3997   20.1869 O   0  0  0  0  0  0
  -26.5610  -34.8957   22.4691 O   0  0  0  0  0  0
  -23.5427  -32.1450   23.7422 O   0  0  0  0  0  0
  -28.3001  -19.9981   21.2289 C   0  0  0  0  0  0
  -28.8278  -20.9734   20.3233 C   0  0  0  0  0  0
  -29.9008  -18.4027   20.5974 C   0  0  0  0  0  0
  -30.3984  -19.3497   19.6446 C   0  0  0  0  0  0
  -25.7749  -19.7379   21.3870 C   0  0  0  0  0  0
  -27.0571  -20.2366   22.0748 C   0  0  0  0  0  0
  -28.1346  -22.3484   20.0146 C   0  0  0  0  0  0
  -30.6521  -17.0806   20.9706 C   0  0  0  0  0  0
  -28.7630  -23.7451   20.4442 C   0  0  0  0  0  0
  -27.8802  -24.9749   19.9730 C   0  0  0  0  0  0
  -31.5783  -19.0104   18.7214 C   0  0  0  0  0  0
  -28.8378  -18.7473   21.3705 N   0  0  0  0  0  0
  -29.8744  -20.6163   19.5302 N   0  0  0  0  0  0
  -30.0127  -15.7366   20.8043 N   0  0  0  0  0  0
  -32.7233  -19.1117   19.3990 F   0  0  0  0  0  0
  -31.4643  -17.7710   18.2397 F   0  0  0  0  0  0
  -31.6431  -19.8354   17.6723 F   0  0  0  0  0  0
  -31.4594  -12.4745   19.1512 H   0  0  0  0  0  0
  -30.3212  -11.3858   19.9027 H   0  0  0  0  0  0
  -29.7779  -11.7839   17.4654 H   0  0  0  0  0  0
  -29.6511  -13.4976   17.7670 H   0  0  0  0  0  0
  -27.8718  -11.2948   18.8704 H   0  0  0  0  0  0
  -27.3752  -12.5748   17.7949 H   0  0  0  0  0  0
  -27.6558  -14.2574   19.5093 H   0  0  0  0  0  0
  -28.6765  -12.1378   21.4566 H   0  0  0  0  0  0
  -28.4355  -13.8319   21.7925 H   0  0  0  0  0  0
  -25.2801   -9.5702   22.4749 H   0  0  0  0  0  0
  -24.0042   -7.4648   22.7468 H   0  0  0  0  0  0
  -21.0899   -8.8784   19.8898 H   0  0  0  0  0  0
  -22.3763  -10.9688   19.6141 H   0  0  0  0  0  0
  -21.1975   -7.6146   23.9729 H   0  0  0  0  0  0
  -21.1506   -6.0508   25.9078 H   0  0  0  0  0  0
  -22.0591   -2.7623   23.2815 H   0  0  0  0  0  0
  -22.4114  -11.9835   22.4717 H   0  0  0  0  0  0
  -21.1102  -13.1196   22.2575 H   0  0  0  0  0  0
  -24.6644  -15.8527   20.5109 H   0  0  0  0  0  0
  -26.2821  -15.6274   20.0830 H   0  0  0  0  0  0
  -26.7156  -32.5486   23.1120 H   0  0  0  0  0  0
  -25.0028  -33.9798   25.0424 H   0  0  0  0  0  0
  -22.7074  -31.3214   21.4262 H   0  0  0  0  0  0
  -23.3751  -35.9692   23.3299 H   0  0  0  0  0  0
  -24.3590  -36.8997   22.2058 H   0  0  0  0  0  0
  -23.7192  -37.6554   23.6647 H   0  0  0  0  0  0
  -26.0400  -31.5489   20.5760 H   0  0  0  0  0  0
  -26.8586  -30.8894   21.9542 H   0  0  0  0  0  0
  -28.0873  -28.9349   21.2201 H   0  0  0  0  0  0
  -25.8696  -25.9948   18.9243 H   0  0  0  0  0  0
  -23.9213  -27.3702   18.9898 H   0  0  0  0  0  0
  -23.7404  -30.6468   19.4221 H   0  0  0  0  0  0
  -22.7304  -29.3029   19.8527 H   0  0  0  0  0  0
  -25.1254  -36.2044   25.0824 H   0  0  0  0  0  0
  -20.9887  -28.3247   24.1467 H   0  0  0  0  0  0
  -20.5712  -26.2292   23.3611 H   0  0  0  0  0  0
  -21.6648  -26.7516   22.1190 H   0  0  0  0  0  0
  -19.6940  -25.6293   21.1304 H   0  0  0  0  0  0
  -19.6729  -27.3161   20.6736 H   0  0  0  0  0  0
  -17.4191  -26.6662   21.4030 H   0  0  0  0  0  0
  -18.0342  -26.0113   22.9033 H   0  0  0  0  0  0
  -19.7900  -30.7247   24.2361 H   0  0  0  0  0  0
  -17.4998  -31.6297   24.5147 H   0  0  0  0  0  0
  -15.5335  -30.3037   23.7682 H   0  0  0  0  0  0
  -15.8622  -28.0857   22.7121 H   0  0  0  0  0  0
  -24.5845  -30.7055   25.7740 H   0  0  0  0  0  0
  -24.8750  -32.2915   26.4737 H   0  0  0  0  0  0
  -25.7918  -30.8984   27.0228 H   0  0  0  0  0  0
  -26.2677  -29.6922   24.1033 H   0  0  0  0  0  0
  -27.3913  -29.7172   25.4448 H   0  0  0  0  0  0
  -27.8567  -30.4420   23.9196 H   0  0  0  0  0  0
  -27.2675  -33.3621   26.2054 H   0  0  0  0  0  0
  -28.3901  -32.6737   25.0395 H   0  0  0  0  0  0
  -28.0574  -31.8359   26.5479 H   0  0  0  0  0  0
  -28.2572  -38.0159   24.7504 H   0  0  0  0  0  0
  -28.1073  -36.2676   24.6272 H   0  0  0  0  0  0
  -27.2291  -37.1496   25.8864 H   0  0  0  0  0  0
  -20.9271  -29.8912   21.7063 H   0  0  0  0  0  0
  -26.0192  -38.2930   24.1371 H   0  0  0  0  0  0
  -24.9240  -19.7961   22.0656 H   0  0  0  0  0  0
  -25.8681  -18.6978   21.0728 H   0  0  0  0  0  0
  -25.5336  -20.3364   20.5062 H   0  0  0  0  0  0
  -26.9661  -21.2877   22.3417 H   0  0  0  0  0  0
  -27.1809  -19.7096   23.0219 H   0  0  0  0  0  0
  -27.1176  -22.3114   20.4055 H   0  0  0  0  0  0
  -27.9847  -22.3776   18.9353 H   0  0  0  0  0  0
  -30.9114  -17.1614   22.0258 H   0  0  0  0  0  0
  -31.6260  -17.0822   20.4866 H   0  0  0  0  0  0
  -29.7683  -23.8397   20.0358 H   0  0  0  0  0  0
  -28.8602  -23.7722   21.5305 H   0  0  0  0  0  0
  -26.9175  -24.7975   20.4604 H   0  0  0  0  0  0
  -27.7041  -24.8464   18.9022 H   0  0  0  0  0  0
  -29.0271  -15.6668   21.0012 H   0  0  0  0  0  0
  1 25  1  0  0  0
  1 30  2  0  0  0
  1 84  1  0  0  0
  2  3  1  0  0  0
  2 25  1  0  0  0
  2 88  1  0  0  0
  2 89  1  0  0  0
  3  4  1  0  0  0
  3 90  1  0  0  0
  3 91  1  0  0  0
  4  5  1  0  0  0
  4 92  1  0  0  0
  4 93  1  0  0  0
  5  6  1  0  0  0
  5 26  1  0  0  0
  5 94  1  0  0  0
  6 25  1  0  0  0
  6 95  1  0  0  0
  6 96  1  0  0  0
  7  8  2  0  0  0
  7 26  1  0  0  0
  7 29  1  0  0  0
  8  9  1  0  0  0
  8 22  1  0  0  0
  9 10  1  0  0  0
  9 27  2  0  0  0
 10 11  2  0  0  0
 10 15  1  0  0  0
 11 12  1  0  0  0
 11 97  1  0  0  0
 12 13  2  0  0  0
 12 98  1  0  0  0
 13 14  1  0  0  0
 13 31  1  0  0  0
 14 15  2  0  0  0
 14 99  1  0  0  0
 15100  1  0  0  0
 16 17  2  0  0  0
 16 21  1  0  0  0
 16 31  1  0  0  0
 17 18  1  0  0  0
 17101  1  0  0  0
 18 19  2  0  0  0
 18102  1  0  0  0
 19 20  1  0  0  0
 19 24  1  0  0  0
 20 21  2  0  0  0
 20103  1  0  0  0
 21 23  1  0  0  0
 22 28  1  0  0  0
 22 32  2  0  0  0
 26 27  1  0  0  0
 28104  1  0  0  0
 28105  1  0  0  0
 29106  1  0  0  0
 29107  1  0  0  0
 33 34  1  0  0  0
 33 66  1  0  0  0
 33 70  2  0  0  0
 34 36  1  0  0  0
 34 59  1  0  0  0
 34108  1  0  0  0
 35 44  2  0  0  0
 35 45  1  0  0  0
 35 68  1  0  0  0
 36 56  1  0  0  0
 36109  1  0  0  0
 37 39  1  0  0  0
 37 47  1  0  0  0
 37 66  1  0  0  0
 37110  1  0  0  0
 38 43  2  0  0  0
 38 46  1  0  0  0
 38 47  1  0  0  0
 39 64  1  0  0  0
 39 67  2  0  0  0
 40 52  1  0  0  0
 40 53  2  0  0  0
 40 58  1  0  0  0
 41111  1  0  0  0
 41112  1  0  0  0
 41113  1  0  0  0
 41 48  1  0  0  0
 42 43  1  0  0  0
 42 66  1  0  0  0
 42114  1  0  0  0
 42115  1  0  0  0
 43 44  1  0  0  0
 44116  1  0  0  0
 45 46  2  0  0  0
 45117  1  0  0  0
 46118  1  0  0  0
 47119  1  0  0  0
 47120  1  0  0  0
 48 56  1  0  0  0
 48 65  1  0  0  0
 48121  1  0  0  0
 49 50  1  0  0  0
 49 53  1  0  0  0
 49 64  1  0  0  0
 49122  1  0  0  0
 50 51  1  0  0  0
 50123  1  0  0  0
 50124  1  0  0  0
 51 52  1  0  0  0
 51125  1  0  0  0
 51126  1  0  0  0
 52127  1  0  0  0
 52128  1  0  0  0
 53 54  1  0  0  0
 54 55  2  0  0  0
 54129  1  0  0  0
 55 57  1  0  0  0
 55130  1  0  0  0
 56 69  2  0  0  0
 57 58  2  0  0  0
 57131  1  0  0  0
 58132  1  0  0  0
 59 60  1  0  0  0
 59 61  1  0  0  0
 59 62  1  0  0  0
 60133  1  0  0  0
 60134  1  0  0  0
 60135  1  0  0  0
 61136  1  0  0  0
 61137  1  0  0  0
 61138  1  0  0  0
 62139  1  0  0  0
 62140  1  0  0  0
 62141  1  0  0  0
 63 65  1  0  0  0
 63142  1  0  0  0
 63143  1  0  0  0
 63144  1  0  0  0
 64145  1  0  0  0
 65146  1  0  0  0
 68 80  1  0  0  0
 71 72  2  0  0  0
 71 76  1  0  0  0
 71 82  1  0  0  0
 72 77  1  0  0  0
 72 83  1  0  0  0
 73 74  1  0  0  0
 73 78  1  0  0  0
 73 82  2  0  0  0
 74 81  1  0  0  0
 74 83  2  0  0  0
 75 76  1  0  0  0
 75147  1  0  0  0
 75148  1  0  0  0
 75149  1  0  0  0
 76150  1  0  0  0
 76151  1  0  0  0
 77 79  1  0  0  0
 77152  1  0  0  0
 77153  1  0  0  0
 78 84  1  0  0  0
 78154  1  0  0  0
 78155  1  0  0  0
 79 80  1  0  0  0
 79156  1  0  0  0
 79157  1  0  0  0
 80158  1  0  0  0
 80159  1  0  0  0
 81 85  1  0  0  0
 81 86  1  0  0  0
 81 87  1  0  0  0
 84160  1  0  0  0
M  ISO  4   1 100  68 101  80 101  84 100
M  END
> <chiral flag>
0

> <version>
0

> <s_m_source_file>
/data/baiqing/PycharmProjects/Reinvent-master-3.2/result/LINK_invent/BTK/process_docking_weight1_custom_sum_contain_oxygen_bond_distance_aromatic_linkinvent_7_9_3/rearranged_h_0064.sdf

> <i_m_source_file_index>
27

> <r_mmod_Potential_Energy-OPLS-2005>
104.394462585449

> <r_mmod_Stretch_Energy-OPLS-2005>
77.4674682617188

> <r_mmod_Bend_Energy-OPLS-2005>
143.54182434082

> <r_mmod_Torsional_Energy-OPLS-2005>
197.0546875

> <r_mmod_Improper_Torsional_Energy-OPLS-2005>
5.99724149703979

> <r_mmod_Van_der_Waal_Energy-OPLS-2005>
162.008697509766

> <r_mmod_Electrostatic_Energy-OPLS-2005>
-331.798828125

> <r_mmod_Solvation_Energy-OPLS-2005>
-205.303680419922

> <b_mmod_Minimization_Converged-OPLS-2005>
0

> <r_mmod_RMS_Derivative-OPLS-2005>
4.47757291793823

$$$$
27
                    3D
 Structure written by MMmdl.
165173  0  0  1  0            999 V2000
  -30.6503  -14.7137   20.4631 C   0  0  0  0  0  0
  -30.4257  -12.4351   19.4787 C   0  0  0  0  0  0
  -29.5092  -12.5049   18.2384 C   0  0  0  0  0  0
  -28.0347  -12.3359   18.6506 C   0  0  0  0  0  0
  -27.6438  -13.2356   19.8542 C   0  0  2  0  0  0
  -28.6892  -13.1724   20.9907 C   0  0  0  0  0  0
  -25.2508  -13.8209   20.5703 C   0  0  0  0  0  0
  -24.1802  -13.0444   20.9205 C   0  0  0  0  0  0
  -24.6401  -11.6924   20.8750 C   0  0  0  0  0  0
  -23.9078  -10.4296   21.0406 C   0  0  0  0  0  0
  -24.3625   -9.4210   21.9186 C   0  0  0  0  0  0
  -23.6297   -8.2246   22.0757 C   0  0  0  0  0  0
  -22.4280   -8.0282   21.3547 C   0  0  0  0  0  0
  -21.9917   -9.0257   20.4650 C   0  0  0  0  0  0
  -22.7248  -10.2135   20.3057 C   0  0  0  0  0  0
  -21.6854   -6.0736   22.5278 C   0  0  0  0  0  0
  -21.4016   -6.5639   23.8212 C   0  0  0  0  0  0
  -21.3661   -5.6792   24.9174 C   0  0  0  0  0  0
  -21.6042   -4.3054   24.7224 C   0  0  0  0  0  0
  -21.8819   -3.8146   23.4347 C   0  0  0  0  0  0
  -21.9192   -4.6963   22.3403 C   0  0  0  0  0  0
  -22.7819  -13.5220   21.1861 C   0  0  0  0  0  0
  -22.1660   -4.2147   21.0981 F   0  0  0  0  0  0
  -21.5628   -3.4540   25.7739 F   0  0  0  0  0  0
  -29.9944  -13.5052   20.4082 N   0  0  0  0  0  0
  -26.2951  -12.9430   20.3311 N   0  0  0  0  0  0
  -25.9338  -11.6564   20.5772 N   0  0  0  0  0  0
  -22.0470  -12.8209   22.0421 N   0  0  0  0  0  0
  -25.4180  -15.1936   20.4116 N   0  0  0  0  0  0
  -31.8349  -14.7825   20.1280 O   0  0  0  0  0  0
  -21.6643   -6.8880   21.4243 O   0  0  0  0  0  0
  -22.3499  -14.5525   20.6707 O   0  0  0  0  0  0
  -24.6333  -31.8562   23.2022 C   0  0  0  0  0  0
  -25.9158  -32.4764   23.8354 C   0  0  1  0  0  0
  -27.2084  -27.2523   20.1164 C   0  0  0  0  0  0
  -25.5950  -33.8567   24.2269 N   0  0  0  0  0  0
  -23.4300  -30.4846   21.5452 C   0  0  2  0  0  0
  -24.8762  -28.9441   20.1059 C   0  0  0  0  0  0
  -22.7517  -29.4613   22.4895 C   0  0  0  0  0  0
  -18.0297  -28.1391   22.8486 C   0  0  0  0  0  0
  -24.1493  -36.7277   23.2640 C   0  0  0  0  0  0
  -25.9815  -30.7643   21.3899 C   0  0  0  0  0  0
  -26.0508  -29.3903   20.7248 C   0  0  0  0  0  0
  -27.2188  -28.5555   20.7263 C   0  0  0  0  0  0
  -26.0127  -26.9037   19.4394 C   0  0  0  0  0  0
  -24.8636  -27.7086   19.4522 C   0  0  0  0  0  0
  -23.6491  -29.8310   20.1581 C   0  0  0  0  0  0
  -25.4121  -36.3070   24.0326 C   0  0  1  0  0  0
  -20.5907  -28.3703   23.1259 C   0  0  2  0  0  0
  -20.6787  -26.9418   22.5404 C   0  0  0  0  0  0
  -19.5757  -26.6382   21.5217 C   0  0  0  0  0  0
  -18.1938  -26.7935   22.1627 C   0  0  0  0  0  0
  -19.1554  -28.8864   23.2871 C   0  0  0  0  0  0
  -18.9473  -30.1463   23.8892 C   0  0  0  0  0  0
  -17.6469  -30.6590   24.0563 C   0  0  0  0  0  0
  -25.9062  -34.9442   23.5095 C   0  0  0  0  0  0
  -16.5361  -29.9089   23.6333 C   0  0  0  0  0  0
  -16.7282  -28.6505   23.0356 C   0  0  0  0  0  0
  -26.4514  -31.6591   25.0746 C   0  0  0  0  0  0
  -25.3723  -31.3746   26.1452 C   0  0  0  0  0  0
  -27.0370  -30.3002   24.6260 C   0  0  0  0  0  0
  -27.6061  -32.4341   25.7516 C   0  0  0  0  0  0
  -27.5581  -37.1797   24.8467 C   0  0  0  0  0  0
  -21.4222  -29.3055   22.3645 N   0  0  0  0  0  0
  -26.4293  -37.3771   23.9408 N   0  0  0  0  0  0
  -24.7005  -31.0527   22.1008 N   0  0  0  0  0  0
  -23.4215  -28.8133   23.2980 O   0  0  0  0  0  0
  -28.2647  -26.3017   20.2049 O   0  0  0  0  0  0
  -26.5628  -34.8915   22.4660 O   0  0  0  0  0  0
  -23.5478  -32.1387   23.7304 O   0  0  0  0  0  0
  -29.6645  -23.4717   21.3695 C   0  0  0  0  0  0
  -28.7981  -23.6566   20.3163 C   0  0  0  0  0  0
  -29.6188  -21.4890   20.3511 C   0  0  0  0  0  0
  -31.4903  -25.0516   22.0587 C   0  0  0  0  0  0
  -29.9911  -19.8645   18.3644 C   0  0  0  0  0  0
  -31.6799  -20.0826   20.1196 C   0  0  0  0  0  0
  -27.8009  -21.9968   18.6619 C   0  0  0  0  0  0
  -30.1124  -24.4703   22.3934 C   0  0  0  0  0  0
  -27.9088  -24.8773   19.8627 C   0  0  0  0  0  0
  -29.6087  -18.6618   20.5855 C   0  0  0  0  0  0
  -30.4411  -17.2833   20.3167 C   0  0  0  0  0  0
  -30.1473  -20.0394   19.8937 C   0  0  0  0  0  0
  -30.1402  -22.1466   21.3950 N   0  0  0  0  0  0
  -28.7149  -22.3418   19.7396 N   0  0  0  0  0  0
  -29.9321  -15.8830   20.6573 N   0  0  0  0  0  0
  -31.4703  -12.5369   19.1795 H   0  0  0  0  0  0
  -30.3499  -11.4600   19.9619 H   0  0  0  0  0  0
  -29.7872  -11.7346   17.5178 H   0  0  0  0  0  0
  -29.6434  -13.4622   17.7322 H   0  0  0  0  0  0
  -27.8861  -11.2874   18.9108 H   0  0  0  0  0  0
  -27.3788  -12.5339   17.8021 H   0  0  0  0  0  0
  -27.6388  -14.2576   19.4744 H   0  0  0  0  0  0
  -28.7163  -12.1794   21.4414 H   0  0  0  0  0  0
  -28.4329  -13.8670   21.7922 H   0  0  0  0  0  0
  -25.2770   -9.5683   22.4761 H   0  0  0  0  0  0
  -24.0001   -7.4640   22.7480 H   0  0  0  0  0  0
  -21.0846   -8.8779   19.8959 H   0  0  0  0  0  0
  -22.3707  -10.9674   19.6165 H   0  0  0  0  0  0
  -21.2012   -7.6148   23.9715 H   0  0  0  0  0  0
  -21.1481   -6.0524   25.9076 H   0  0  0  0  0  0
  -22.0598   -2.7609   23.2848 H   0  0  0  0  0  0
  -22.4085  -11.9864   22.4797 H   0  0  0  0  0  0
  -21.1094  -13.1240   22.2644 H   0  0  0  0  0  0
  -24.6479  -15.8449   20.5192 H   0  0  0  0  0  0
  -26.2644  -15.6358   20.0769 H   0  0  0  0  0  0
  -26.7220  -32.5407   23.1088 H   0  0  0  0  0  0
  -25.0102  -33.9712   25.0417 H   0  0  0  0  0  0
  -22.7268  -31.3080   21.4034 H   0  0  0  0  0  0
  -23.3764  -35.9602   23.3304 H   0  0  0  0  0  0
  -24.3576  -36.8898   22.2054 H   0  0  0  0  0  0
  -23.7243  -37.6476   23.6663 H   0  0  0  0  0  0
  -26.1322  -31.5294   20.6269 H   0  0  0  0  0  0
  -26.8552  -30.8031   22.0288 H   0  0  0  0  0  0
  -28.1100  -28.8861   21.2411 H   0  0  0  0  0  0
  -25.9081  -25.9776   18.8959 H   0  0  0  0  0  0
  -23.9704  -27.3686   18.9466 H   0  0  0  0  0  0
  -23.7760  -30.6131   19.4084 H   0  0  0  0  0  0
  -22.7673  -29.2678   19.8468 H   0  0  0  0  0  0
  -25.1307  -36.1912   25.0820 H   0  0  0  0  0  0
  -21.0003  -28.3282   24.1378 H   0  0  0  0  0  0
  -20.5698  -26.2310   23.3610 H   0  0  0  0  0  0
  -21.6649  -26.7443   22.1187 H   0  0  0  0  0  0
  -19.6916  -25.6294   21.1247 H   0  0  0  0  0  0
  -19.6694  -27.3191   20.6748 H   0  0  0  0  0  0
  -17.4206  -26.6683   21.4032 H   0  0  0  0  0  0
  -18.0331  -26.0083   22.9028 H   0  0  0  0  0  0
  -19.7948  -30.7281   24.2258 H   0  0  0  0  0  0
  -17.5025  -31.6272   24.5161 H   0  0  0  0  0  0
  -15.5361  -30.2989   23.7664 H   0  0  0  0  0  0
  -15.8680  -28.0822   22.7078 H   0  0  0  0  0  0
  -24.5907  -30.7090   25.7769 H   0  0  0  0  0  0
  -24.8908  -32.2920   26.4850 H   0  0  0  0  0  0
  -25.8026  -30.8934   27.0245 H   0  0  0  0  0  0
  -26.2968  -29.6740   24.1265 H   0  0  0  0  0  0
  -27.4017  -29.7275   25.4799 H   0  0  0  0  0  0
  -27.8863  -30.4268   23.9543 H   0  0  0  0  0  0
  -27.2665  -33.3655   26.2059 H   0  0  0  0  0  0
  -28.3883  -32.6880   25.0350 H   0  0  0  0  0  0
  -28.0713  -31.8489   26.5459 H   0  0  0  0  0  0
  -28.2595  -38.0097   24.7513 H   0  0  0  0  0  0
  -28.1078  -36.2626   24.6295 H   0  0  0  0  0  0
  -27.2291  -37.1445   25.8868 H   0  0  0  0  0  0
  -20.9396  -29.8791   21.6867 H   0  0  0  0  0  0
  -26.0170  -38.2842   24.1411 H   0  0  0  0  0  0
  -31.8047  -25.7687   22.8168 H   0  0  0  0  0  0
  -31.4733  -25.5655   21.0970 H   0  0  0  0  0  0
  -32.2460  -24.2670   22.0056 H   0  0  0  0  0  0
  -30.3337  -20.7483   17.8252 H   0  0  0  0  0  0
  -28.9627  -19.6613   18.0730 H   0  0  0  0  0  0
  -30.5758  -19.0293   17.9818 H   0  0  0  0  0  0
  -32.1211  -20.9698   19.6628 H   0  0  0  0  0  0
  -32.1994  -19.2267   19.6904 H   0  0  0  0  0  0
  -31.9231  -20.1092   21.1823 H   0  0  0  0  0  0
  -26.9544  -22.6813   18.6342 H   0  0  0  0  0  0
  -27.3935  -20.9999   18.8278 H   0  0  0  0  0  0
  -28.3144  -22.0373   17.7019 H   0  0  0  0  0  0
  -30.1452  -24.0063   23.3799 H   0  0  0  0  0  0
  -29.3884  -25.2819   22.4724 H   0  0  0  0  0  0
  -26.9226  -24.6605   20.2748 H   0  0  0  0  0  0
  -27.8178  -24.8364   18.7770 H   0  0  0  0  0  0
  -29.5768  -18.8199   21.6638 H   0  0  0  0  0  0
  -28.5699  -18.5171   20.2874 H   0  0  0  0  0  0
  -31.4046  -17.3820   20.8184 H   0  0  0  0  0  0
  -30.6805  -17.2359   19.2553 H   0  0  0  0  0  0
  -28.9574  -15.7845   20.9005 H   0  0  0  0  0  0
  1 25  1  0  0  0
  1 30  2  0  0  0
  1 85  1  0  0  0
  2  3  1  0  0  0
  2 25  1  0  0  0
  2 86  1  0  0  0
  2 87  1  0  0  0
  3  4  1  0  0  0
  3 88  1  0  0  0
  3 89  1  0  0  0
  4  5  1  0  0  0
  4 90  1  0  0  0
  4 91  1  0  0  0
  5  6  1  0  0  0
  5 26  1  0  0  0
  5 92  1  0  0  0
  6 25  1  0  0  0
  6 93  1  0  0  0
  6 94  1  0  0  0
  7  8  2  0  0  0
  7 26  1  0  0  0
  7 29  1  0  0  0
  8  9  1  0  0  0
  8 22  1  0  0  0
  9 10  1  0  0  0
  9 27  2  0  0  0
 10 11  2  0  0  0
 10 15  1  0  0  0
 11 12  1  0  0  0
 11 95  1  0  0  0
 12 13  2  0  0  0
 12 96  1  0  0  0
 13 14  1  0  0  0
 13 31  1  0  0  0
 14 15  2  0  0  0
 14 97  1  0  0  0
 15 98  1  0  0  0
 16 17  2  0  0  0
 16 21  1  0  0  0
 16 31  1  0  0  0
 17 18  1  0  0  0
 17 99  1  0  0  0
 18 19  2  0  0  0
 18100  1  0  0  0
 19 20  1  0  0  0
 19 24  1  0  0  0
 20 21  2  0  0  0
 20101  1  0  0  0
 21 23  1  0  0  0
 22 28  1  0  0  0
 22 32  2  0  0  0
 26 27  1  0  0  0
 28102  1  0  0  0
 28103  1  0  0  0
 29104  1  0  0  0
 29105  1  0  0  0
 33 34  1  0  0  0
 33 66  1  0  0  0
 33 70  2  0  0  0
 34 36  1  0  0  0
 34 59  1  0  0  0
 34106  1  0  0  0
 35 44  2  0  0  0
 35 45  1  0  0  0
 35 68  1  0  0  0
 36 56  1  0  0  0
 36107  1  0  0  0
 37 39  1  0  0  0
 37 47  1  0  0  0
 37 66  1  0  0  0
 37108  1  0  0  0
 38 43  2  0  0  0
 38 46  1  0  0  0
 38 47  1  0  0  0
 39 64  1  0  0  0
 39 67  2  0  0  0
 40 52  1  0  0  0
 40 53  2  0  0  0
 40 58  1  0  0  0
 41109  1  0  0  0
 41110  1  0  0  0
 41111  1  0  0  0
 41 48  1  0  0  0
 42 43  1  0  0  0
 42 66  1  0  0  0
 42112  1  0  0  0
 42113  1  0  0  0
 43 44  1  0  0  0
 44114  1  0  0  0
 45 46  2  0  0  0
 45115  1  0  0  0
 46116  1  0  0  0
 47117  1  0  0  0
 47118  1  0  0  0
 48 56  1  0  0  0
 48 65  1  0  0  0
 48119  1  0  0  0
 49 50  1  0  0  0
 49 53  1  0  0  0
 49 64  1  0  0  0
 49120  1  0  0  0
 50 51  1  0  0  0
 50121  1  0  0  0
 50122  1  0  0  0
 51 52  1  0  0  0
 51123  1  0  0  0
 51124  1  0  0  0
 52125  1  0  0  0
 52126  1  0  0  0
 53 54  1  0  0  0
 54 55  2  0  0  0
 54127  1  0  0  0
 55 57  1  0  0  0
 55128  1  0  0  0
 56 69  2  0  0  0
 57 58  2  0  0  0
 57129  1  0  0  0
 58130  1  0  0  0
 59 60  1  0  0  0
 59 61  1  0  0  0
 59 62  1  0  0  0
 60131  1  0  0  0
 60132  1  0  0  0
 60133  1  0  0  0
 61134  1  0  0  0
 61135  1  0  0  0
 61136  1  0  0  0
 62137  1  0  0  0
 62138  1  0  0  0
 62139  1  0  0  0
 63 65  1  0  0  0
 63140  1  0  0  0
 63141  1  0  0  0
 63142  1  0  0  0
 64143  1  0  0  0
 65144  1  0  0  0
 68 79  1  0  0  0
 71 72  2  0  0  0
 71 78  1  0  0  0
 71 83  1  0  0  0
 72 79  1  0  0  0
 72 84  1  0  0  0
 73 82  1  0  0  0
 73 83  2  0  0  0
 73 84  1  0  0  0
 74 78  1  0  0  0
 74145  1  0  0  0
 74146  1  0  0  0
 74147  1  0  0  0
 75148  1  0  0  0
 75149  1  0  0  0
 75150  1  0  0  0
 75 82  1  0  0  0
 76 82  1  0  0  0
 76151  1  0  0  0
 76152  1  0  0  0
 76153  1  0  0  0
 77 84  1  0  0  0
 77154  1  0  0  0
 77155  1  0  0  0
 77156  1  0  0  0
 78157  1  0  0  0
 78158  1  0  0  0
 79159  1  0  0  0
 79160  1  0  0  0
 80 81  1  0  0  0
 80 82  1  0  0  0
 80161  1  0  0  0
 80162  1  0  0  0
 81 85  1  0  0  0
 81163  1  0  0  0
 81164  1  0  0  0
 85165  1  0  0  0
M  ISO  4   1 100  68 101  79 101  85 100
M  END
> <chiral flag>
0

> <version>
0

> <s_m_source_file>
/data/baiqing/PycharmProjects/Reinvent-master-3.2/result/LINK_invent/BTK/process_docking_weight1_custom_sum_contain_oxygen_bond_distance_aromatic_linkinvent_7_9_3/rearranged_h_0064.sdf

> <i_m_source_file_index>
28

> <r_mmod_Potential_Energy-OPLS-2005>
172.840759277344

> <r_mmod_Stretch_Energy-OPLS-2005>
134.910171508789

> <r_mmod_Bend_Energy-OPLS-2005>
200.903671264648

> <r_mmod_Torsional_Energy-OPLS-2005>
223.578109741211

> <r_mmod_Improper_Torsional_Energy-OPLS-2005>
6.54757213592529

> <r_mmod_Van_der_Waal_Energy-OPLS-2005>
135.3173828125

> <r_mmod_Electrostatic_Energy-OPLS-2005>
-396.636932373047

> <r_mmod_Solvation_Energy-OPLS-2005>
-219.643890380859

> <b_mmod_Minimization_Converged-OPLS-2005>
0

> <r_mmod_RMS_Derivative-OPLS-2005>
0.67413592338562

$$$$
29
                    3D
 Structure written by MMmdl.
164172  0  0  1  0            999 V2000
  -30.6435  -14.7510   20.3326 C   0  0  0  0  0  0
  -30.4195  -12.4333   19.4536 C   0  0  0  0  0  0
  -29.4873  -12.4340   18.2228 C   0  0  0  0  0  0
  -28.0155  -12.2948   18.6578 C   0  0  0  0  0  0
  -27.6277  -13.2179   19.8456 C   0  0  2  0  0  0
  -28.6953  -13.2231   20.9586 C   0  0  0  0  0  0
  -25.2489  -13.8137   20.5806 C   0  0  0  0  0  0
  -24.1762  -13.0401   20.9266 C   0  0  0  0  0  0
  -24.6335  -11.6874   20.8807 C   0  0  0  0  0  0
  -23.9011  -10.4267   21.0431 C   0  0  0  0  0  0
  -24.3573   -9.4184   21.9200 C   0  0  0  0  0  0
  -23.6266   -8.2212   22.0754 C   0  0  0  0  0  0
  -22.4253   -8.0248   21.3530 C   0  0  0  0  0  0
  -21.9874   -9.0229   20.4643 C   0  0  0  0  0  0
  -22.7193  -10.2117   20.3072 C   0  0  0  0  0  0
  -21.6831   -6.0714   22.5274 C   0  0  0  0  0  0
  -21.4002   -6.5627   23.8204 C   0  0  0  0  0  0
  -21.3659   -5.6788   24.9172 C   0  0  0  0  0  0
  -21.6036   -4.3054   24.7232 C   0  0  0  0  0  0
  -21.8823   -3.8136   23.4352 C   0  0  0  0  0  0
  -21.9197   -4.6944   22.3403 C   0  0  0  0  0  0
  -22.7787  -13.5205   21.1888 C   0  0  0  0  0  0
  -22.1673   -4.2130   21.0984 F   0  0  0  0  0  0
  -21.5622   -3.4544   25.7746 F   0  0  0  0  0  0
  -29.9802  -13.5428   20.3230 N   0  0  0  0  0  0
  -26.2896  -12.9308   20.3421 N   0  0  0  0  0  0
  -25.9273  -11.6465   20.5882 N   0  0  0  0  0  0
  -22.0421  -12.8210   22.0437 N   0  0  0  0  0  0
  -25.4195  -15.1860   20.4226 N   0  0  0  0  0  0
  -31.8753  -14.7716   20.2812 O   0  0  0  0  0  0
  -21.6623   -6.8842   21.4224 O   0  0  0  0  0  0
  -22.3499  -14.5511   20.6712 O   0  0  0  0  0  0
  -24.6317  -31.8578   23.2018 C   0  0  0  0  0  0
  -25.9154  -32.4764   23.8340 C   0  0  1  0  0  0
  -27.2109  -27.2683   20.1109 C   0  0  0  0  0  0
  -25.5961  -33.8564   24.2265 N   0  0  0  0  0  0
  -23.4263  -30.4828   21.5471 C   0  0  2  0  0  0
  -24.8694  -28.9390   20.1093 C   0  0  0  0  0  0
  -22.7499  -29.4618   22.4933 C   0  0  0  0  0  0
  -18.0306  -28.1371   22.8497 C   0  0  0  0  0  0
  -24.1491  -36.7280   23.2634 C   0  0  0  0  0  0
  -25.9735  -30.7700   21.3832 C   0  0  0  0  0  0
  -26.0438  -29.3954   20.7205 C   0  0  0  0  0  0
  -27.2168  -28.5725   20.7137 C   0  0  0  0  0  0
  -26.0169  -26.8974   19.4501 C   0  0  0  0  0  0
  -24.8617  -27.6975   19.4634 C   0  0  0  0  0  0
  -23.6415  -29.8247   20.1611 C   0  0  0  0  0  0
  -25.4120  -36.3072   24.0319 C   0  0  1  0  0  0
  -20.5914  -28.3676   23.1273 C   0  0  2  0  0  0
  -20.6811  -26.9412   22.5366 C   0  0  0  0  0  0
  -19.5770  -26.6386   21.5190 C   0  0  0  0  0  0
  -18.1961  -26.7914   22.1635 C   0  0  0  0  0  0
  -19.1561  -28.8836   23.2887 C   0  0  0  0  0  0
  -18.9482  -30.1429   23.8913 C   0  0  0  0  0  0
  -17.6481  -30.6562   24.0579 C   0  0  0  0  0  0
  -25.9062  -34.9443   23.5088 C   0  0  0  0  0  0
  -16.5375  -29.9068   23.6342 C   0  0  0  0  0  0
  -16.7293  -28.6486   23.0355 C   0  0  0  0  0  0
  -26.4521  -31.6581   25.0716 C   0  0  0  0  0  0
  -25.3733  -31.3740   26.1424 C   0  0  0  0  0  0
  -27.0367  -30.2992   24.6203 C   0  0  0  0  0  0
  -27.6072  -32.4314   25.7498 C   0  0  0  0  0  0
  -27.5575  -37.1805   24.8468 C   0  0  0  0  0  0
  -21.4209  -29.3051   22.3679 N   0  0  0  0  0  0
  -26.4292  -37.3770   23.9401 N   0  0  0  0  0  0
  -24.6962  -31.0541   22.1002 N   0  0  0  0  0  0
  -23.4213  -28.8130   23.3007 O   0  0  0  0  0  0
  -28.2990  -26.3612   20.1415 O   0  0  0  0  0  0
  -26.5619  -34.8913   22.4644 O   0  0  0  0  0  0
  -23.5467  -32.1402   23.7304 O   0  0  0  0  0  0
  -27.9194  -22.6149   18.2691 C   0  0  0  0  0  0
  -28.8734  -21.0601   19.3366 C   0  0  0  0  0  0
  -30.6421  -20.8226   21.1981 C   0  0  0  0  0  0
  -29.1142  -18.5425   22.1430 C   0  0  0  0  0  0
  -27.9372  -18.1859   20.0458 C   0  0  0  0  0  0
  -29.6418  -15.9455   18.5326 C   0  0  0  0  0  0
  -29.0718  -23.6873   20.1804 C   0  0  0  0  0  0
  -30.3946  -17.3390   20.3354 C   0  0  0  0  0  0
  -27.9950  -24.8969   20.3326 C   0  0  0  0  0  0
  -29.8135  -20.0755   20.1416 C   0  0  1  0  0  0
  -29.3307  -18.5530   20.6098 C   0  0  0  0  0  0
  -27.6526  -21.5228   17.5678 N   0  0  0  0  0  0
  -28.2962  -20.5289   18.2419 N   0  0  0  0  0  0
  -28.6510  -22.4582   19.3893 N   0  0  0  0  0  0
  -29.9434  -15.9131   19.9838 N   0  0  0  0  0  0
  -31.4604  -12.5380   19.1429 H   0  0  0  0  0  0
  -30.3527  -11.4827   19.9855 H   0  0  0  0  0  0
  -29.7504  -11.6147   17.5542 H   0  0  0  0  0  0
  -29.6192  -13.3437   17.6398 H   0  0  0  0  0  0
  -27.8684  -11.2540   18.9455 H   0  0  0  0  0  0
  -27.3518  -12.4685   17.8110 H   0  0  0  0  0  0
  -27.5761  -14.2248   19.4518 H   0  0  0  0  0  0
  -28.7407  -12.2598   21.4687 H   0  0  0  0  0  0
  -28.4506  -13.9723   21.7140 H   0  0  0  0  0  0
  -25.2703   -9.5678   22.4790 H   0  0  0  0  0  0
  -23.9980   -7.4601   22.7466 H   0  0  0  0  0  0
  -21.0808   -8.8743   19.8942 H   0  0  0  0  0  0
  -22.3640  -10.9666   19.6197 H   0  0  0  0  0  0
  -21.1995   -7.6137   23.9709 H   0  0  0  0  0  0
  -21.1465   -6.0511   25.9071 H   0  0  0  0  0  0
  -22.0606   -2.7598   23.2863 H   0  0  0  0  0  0
  -22.4025  -11.9893   22.4867 H   0  0  0  0  0  0
  -21.1035  -13.1255   22.2617 H   0  0  0  0  0  0
  -24.6550  -15.8429   20.5390 H   0  0  0  0  0  0
  -26.2804  -15.6277   20.1275 H   0  0  0  0  0  0
  -26.7207  -32.5415   23.1068 H   0  0  0  0  0  0
  -25.0133  -33.9709   25.0429 H   0  0  0  0  0  0
  -22.7215  -31.3046   21.4060 H   0  0  0  0  0  0
  -23.3751  -35.9617   23.3313 H   0  0  0  0  0  0
  -24.3577  -36.8887   22.2048 H   0  0  0  0  0  0
  -23.7252  -37.6486   23.6644 H   0  0  0  0  0  0
  -26.1125  -31.5348   20.6177 H   0  0  0  0  0  0
  -26.8519  -30.8132   22.0169 H   0  0  0  0  0  0
  -28.1142  -28.9191   21.2074 H   0  0  0  0  0  0
  -25.9365  -25.9795   18.8908 H   0  0  0  0  0  0
  -23.9692  -27.3515   18.9597 H   0  0  0  0  0  0
  -23.7607  -30.6031   19.4061 H   0  0  0  0  0  0
  -22.7596  -29.2563   19.8600 H   0  0  0  0  0  0
  -25.1306  -36.1916   25.0811 H   0  0  0  0  0  0
  -20.9999  -28.3220   24.1395 H   0  0  0  0  0  0
  -20.5757  -26.2273   23.3552 H   0  0  0  0  0  0
  -21.6680  -26.7484   22.1134 H   0  0  0  0  0  0
  -19.6938  -25.6308   21.1206 H   0  0  0  0  0  0
  -19.6683  -27.3198   20.6724 H   0  0  0  0  0  0
  -17.4219  -26.6641   21.4046 H   0  0  0  0  0  0
  -18.0394  -26.0048   22.9034 H   0  0  0  0  0  0
  -19.7950  -30.7234   24.2296 H   0  0  0  0  0  0
  -17.5037  -31.6241   24.5189 H   0  0  0  0  0  0
  -15.5379  -30.2969   23.7661 H   0  0  0  0  0  0
  -15.8695  -28.0805   22.7071 H   0  0  0  0  0  0
  -24.5911  -30.7085   25.7747 H   0  0  0  0  0  0
  -24.8917  -32.2914   26.4814 H   0  0  0  0  0  0
  -25.8035  -30.8935   27.0218 H   0  0  0  0  0  0
  -26.2953  -29.6740   24.1202 H   0  0  0  0  0  0
  -27.4026  -29.7251   25.4730 H   0  0  0  0  0  0
  -27.8844  -30.4274   23.9464 H   0  0  0  0  0  0
  -27.2681  -33.3619   26.2066 H   0  0  0  0  0  0
  -28.3896  -32.6868   25.0334 H   0  0  0  0  0  0
  -28.0718  -31.8434   26.5429 H   0  0  0  0  0  0
  -28.2611  -38.0086   24.7489 H   0  0  0  0  0  0
  -28.1056  -36.2613   24.6330 H   0  0  0  0  0  0
  -27.2281  -37.1493   25.8869 H   0  0  0  0  0  0
  -20.9372  -29.8809   21.6930 H   0  0  0  0  0  0
  -26.0169  -38.2842   24.1393 H   0  0  0  0  0  0
  -27.5898  -23.5792   17.9090 H   0  0  0  0  0  0
  -31.1664  -21.6669   20.7515 H   0  0  0  0  0  0
  -31.4034  -20.1766   21.6337 H   0  0  0  0  0  0
  -30.0140  -21.2058   22.0017 H   0  0  0  0  0  0
  -28.7178  -17.5847   22.4840 H   0  0  0  0  0  0
  -28.4143  -19.3159   22.4569 H   0  0  0  0  0  0
  -30.0397  -18.6984   22.6962 H   0  0  0  0  0  0
  -27.5747  -17.2419   20.4524 H   0  0  0  0  0  0
  -27.9245  -18.0846   18.9625 H   0  0  0  0  0  0
  -27.1975  -18.9427   20.3063 H   0  0  0  0  0  0
  -28.6919  -15.4864   18.2826 H   0  0  0  0  0  0
  -29.5927  -16.9508   18.1148 H   0  0  0  0  0  0
  -30.4143  -15.4482   17.9421 H   0  0  0  0  0  0
  -29.3961  -23.3699   21.1698 H   0  0  0  0  0  0
  -29.9616  -24.0815   19.6909 H   0  0  0  0  0  0
  -31.0522  -17.2569   21.2015 H   0  0  0  0  0  0
  -31.0928  -17.6578   19.5592 H   0  0  0  0  0  0
  -27.6029  -24.8237   21.3488 H   0  0  0  0  0  0
  -27.1376  -24.6120   19.7388 H   0  0  0  0  0  0
  -30.5599  -19.8493   19.3791 H   0  0  0  0  0  0
  1 25  1  0  0  0
  1 30  2  0  0  0
  1 85  1  0  0  0
  2  3  1  0  0  0
  2 25  1  0  0  0
  2 86  1  0  0  0
  2 87  1  0  0  0
  3  4  1  0  0  0
  3 88  1  0  0  0
  3 89  1  0  0  0
  4  5  1  0  0  0
  4 90  1  0  0  0
  4 91  1  0  0  0
  5  6  1  0  0  0
  5 26  1  0  0  0
  5 92  1  0  0  0
  6 25  1  0  0  0
  6 93  1  0  0  0
  6 94  1  0  0  0
  7  8  2  0  0  0
  7 26  1  0  0  0
  7 29  1  0  0  0
  8  9  1  0  0  0
  8 22  1  0  0  0
  9 10  1  0  0  0
  9 27  2  0  0  0
 10 11  2  0  0  0
 10 15  1  0  0  0
 11 12  1  0  0  0
 11 95  1  0  0  0
 12 13  2  0  0  0
 12 96  1  0  0  0
 13 14  1  0  0  0
 13 31  1  0  0  0
 14 15  2  0  0  0
 14 97  1  0  0  0
 15 98  1  0  0  0
 16 17  2  0  0  0
 16 21  1  0  0  0
 16 31  1  0  0  0
 17 18  1  0  0  0
 17 99  1  0  0  0
 18 19  2  0  0  0
 18100  1  0  0  0
 19 20  1  0  0  0
 19 24  1  0  0  0
 20 21  2  0  0  0
 20101  1  0  0  0
 21 23  1  0  0  0
 22 28  1  0  0  0
 22 32  2  0  0  0
 26 27  1  0  0  0
 28102  1  0  0  0
 28103  1  0  0  0
 29104  1  0  0  0
 29105  1  0  0  0
 33 34  1  0  0  0
 33 66  1  0  0  0
 33 70  2  0  0  0
 34 36  1  0  0  0
 34 59  1  0  0  0
 34106  1  0  0  0
 35 44  2  0  0  0
 35 45  1  0  0  0
 35 68  1  0  0  0
 36 56  1  0  0  0
 36107  1  0  0  0
 37 39  1  0  0  0
 37 47  1  0  0  0
 37 66  1  0  0  0
 37108  1  0  0  0
 38 43  2  0  0  0
 38 46  1  0  0  0
 38 47  1  0  0  0
 39 64  1  0  0  0
 39 67  2  0  0  0
 40 52  1  0  0  0
 40 53  2  0  0  0
 40 58  1  0  0  0
 41109  1  0  0  0
 41110  1  0  0  0
 41111  1  0  0  0
 41 48  1  0  0  0
 42 43  1  0  0  0
 42 66  1  0  0  0
 42112  1  0  0  0
 42113  1  0  0  0
 43 44  1  0  0  0
 44114  1  0  0  0
 45 46  2  0  0  0
 45115  1  0  0  0
 46116  1  0  0  0
 47117  1  0  0  0
 47118  1  0  0  0
 48 56  1  0  0  0
 48 65  1  0  0  0
 48119  1  0  0  0
 49 50  1  0  0  0
 49 53  1  0  0  0
 49 64  1  0  0  0
 49120  1  0  0  0
 50 51  1  0  0  0
 50121  1  0  0  0
 50122  1  0  0  0
 51 52  1  0  0  0
 51123  1  0  0  0
 51124  1  0  0  0
 52125  1  0  0  0
 52126  1  0  0  0
 53 54  1  0  0  0
 54 55  2  0  0  0
 54127  1  0  0  0
 55 57  1  0  0  0
 55128  1  0  0  0
 56 69  2  0  0  0
 57 58  2  0  0  0
 57129  1  0  0  0
 58130  1  0  0  0
 59 60  1  0  0  0
 59 61  1  0  0  0
 59 62  1  0  0  0
 60131  1  0  0  0
 60132  1  0  0  0
 60133  1  0  0  0
 61134  1  0  0  0
 61135  1  0  0  0
 61136  1  0  0  0
 62137  1  0  0  0
 62138  1  0  0  0
 62139  1  0  0  0
 63 65  1  0  0  0
 63140  1  0  0  0
 63141  1  0  0  0
 63142  1  0  0  0
 64143  1  0  0  0
 65144  1  0  0  0
 68 79  1  0  0  0
 71 82  2  0  0  0
 71 84  1  0  0  0
 71145  1  0  0  0
 72 80  1  0  0  0
 72 83  2  0  0  0
 72 84  1  0  0  0
 73146  1  0  0  0
 73147  1  0  0  0
 73148  1  0  0  0
 73 80  1  0  0  0
 74149  1  0  0  0
 74150  1  0  0  0
 74151  1  0  0  0
 74 81  1  0  0  0
 75 81  1  0  0  0
 75152  1  0  0  0
 75153  1  0  0  0
 75154  1  0  0  0
 76 85  1  0  0  0
 76155  1  0  0  0
 76156  1  0  0  0
 76157  1  0  0  0
 77 79  1  0  0  0
 77 84  1  0  0  0
 77158  1  0  0  0
 77159  1  0  0  0
 78 81  1  0  0  0
 78 85  1  0  0  0
 78160  1  0  0  0
 78161  1  0  0  0
 79162  1  0  0  0
 79163  1  0  0  0
 80 81  1  0  0  0
 80164  1  0  0  0
 82 83  1  0  0  0
M  ISO  4   1 100  68 101  79 101  85 100
M  END
> <chiral flag>
0

> <version>
0

> <s_m_source_file>
/data/baiqing/PycharmProjects/Reinvent-master-3.2/result/LINK_invent/BTK/process_docking_weight1_custom_sum_contain_oxygen_bond_distance_aromatic_linkinvent_7_9_3/rearranged_h_0064.sdf

> <i_m_source_file_index>
29

> <r_mmod_Potential_Energy-OPLS-2005>
483.627502441406

> <r_mmod_Stretch_Energy-OPLS-2005>
152.285491943359

> <r_mmod_Bend_Energy-OPLS-2005>
244.728240966797

> <r_mmod_Torsional_Energy-OPLS-2005>
350.099548339844

> <r_mmod_Improper_Torsional_Energy-OPLS-2005>
18.4250755310059

> <r_mmod_Van_der_Waal_Energy-OPLS-2005>
145.659027099609

> <r_mmod_Electrostatic_Energy-OPLS-2005>
-311.687927246094

> <r_mmod_Solvation_Energy-OPLS-2005>
-216.378067016602

> <b_mmod_Minimization_Converged-OPLS-2005>
0

> <r_mmod_RMS_Derivative-OPLS-2005>
2.39594841003418

$$$$
30
                    3D
 Structure written by MMmdl.
183191  0  0  1  0            999 V2000
  -30.7155  -14.4619   20.6320 C   0  0  0  0  0  0
  -30.4295  -12.3231   19.4158 C   0  0  0  0  0  0
  -29.4943  -12.5141   18.2042 C   0  0  0  0  0  0
  -28.0182  -12.3649   18.6212 C   0  0  0  0  0  0
  -27.6652  -13.2033   19.8778 C   0  0  2  0  0  0
  -28.7047  -12.9758   20.9966 C   0  0  0  0  0  0
  -25.2613  -13.8162   20.5690 C   0  0  0  0  0  0
  -24.1853  -13.0436   20.9174 C   0  0  0  0  0  0
  -24.6403  -11.6903   20.8739 C   0  0  0  0  0  0
  -23.9061  -10.4293   21.0410 C   0  0  0  0  0  0
  -24.3613   -9.4208   21.9186 C   0  0  0  0  0  0
  -23.6290   -8.2246   22.0756 C   0  0  0  0  0  0
  -22.4272   -8.0287   21.3547 C   0  0  0  0  0  0
  -21.9912   -9.0260   20.4645 C   0  0  0  0  0  0
  -22.7239  -10.2140   20.3057 C   0  0  0  0  0  0
  -21.6853   -6.0737   22.5279 C   0  0  0  0  0  0
  -21.4010   -6.5642   23.8212 C   0  0  0  0  0  0
  -21.3659   -5.6797   24.9179 C   0  0  0  0  0  0
  -21.6047   -4.3060   24.7230 C   0  0  0  0  0  0
  -21.8821   -3.8148   23.4351 C   0  0  0  0  0  0
  -21.9192   -4.6961   22.3403 C   0  0  0  0  0  0
  -22.7879  -13.5243   21.1835 C   0  0  0  0  0  0
  -22.1662   -4.2145   21.0982 F   0  0  0  0  0  0
  -21.5633   -3.4543   25.7742 F   0  0  0  0  0  0
  -30.0388  -13.2914   20.4537 N   0  0  0  0  0  0
  -26.3046  -12.9319   20.3382 N   0  0  0  0  0  0
  -25.9326  -11.6477   20.5759 N   0  0  0  0  0  0
  -22.0519  -12.8237   22.0396 N   0  0  0  0  0  0
  -25.4337  -15.1874   20.4111 N   0  0  0  0  0  0
  -31.7766  -14.7170   20.0538 O   0  0  0  0  0  0
  -21.6639   -6.8880   21.4241 O   0  0  0  0  0  0
  -22.3568  -14.5545   20.6684 O   0  0  0  0  0  0
  -24.6152  -31.8667   23.2094 C   0  0  0  0  0  0
  -25.9051  -32.4811   23.8393 C   0  0  1  0  0  0
  -27.2360  -27.4269   20.1072 C   0  0  0  0  0  0
  -25.5904  -33.8607   24.2323 N   0  0  0  0  0  0
  -23.4050  -30.4892   21.5482 C   0  0  2  0  0  0
  -24.8559  -28.9511   20.1160 C   0  0  0  0  0  0
  -22.7404  -29.4654   22.4964 C   0  0  0  0  0  0
  -18.0264  -28.1383   22.8487 C   0  0  0  0  0  0
  -24.1482  -36.7321   23.2641 C   0  0  0  0  0  0
  -25.9340  -30.8283   21.3676 C   0  0  0  0  0  0
  -26.0136  -29.4590   20.7217 C   0  0  0  0  0  0
  -27.2083  -28.7003   20.7224 C   0  0  0  0  0  0
  -26.0693  -26.9353   19.4911 C   0  0  0  0  0  0
  -24.8790  -27.6879   19.4968 C   0  0  0  0  0  0
  -23.6171  -29.8185   20.1637 C   0  0  0  0  0  0
  -25.4104  -36.3095   24.0325 C   0  0  1  0  0  0
  -20.5854  -28.3686   23.1295 C   0  0  2  0  0  0
  -20.6762  -26.9423   22.5406 C   0  0  0  0  0  0
  -19.5746  -26.6391   21.5201 C   0  0  0  0  0  0
  -18.1919  -26.7932   22.1612 C   0  0  0  0  0  0
  -19.1512  -28.8843   23.2894 C   0  0  0  0  0  0
  -18.9445  -30.1445   23.8919 C   0  0  0  0  0  0
  -17.6455  -30.6598   24.0560 C   0  0  0  0  0  0
  -25.9027  -34.9466   23.5120 C   0  0  0  0  0  0
  -16.5340  -29.9105   23.6316 C   0  0  0  0  0  0
  -16.7250  -28.6514   23.0352 C   0  0  0  0  0  0
  -26.4501  -31.6589   25.0716 C   0  0  0  0  0  0
  -25.3782  -31.3664   26.1465 C   0  0  0  0  0  0
  -27.0364  -30.3026   24.6119 C   0  0  0  0  0  0
  -27.6057  -32.4325   25.7493 C   0  0  0  0  0  0
  -27.5580  -37.1806   24.8469 C   0  0  0  0  0  0
  -21.4132  -29.3050   22.3694 N   0  0  0  0  0  0
  -26.4300  -37.3773   23.9396 N   0  0  0  0  0  0
  -24.6693  -31.0759   22.1002 N   0  0  0  0  0  0
  -23.4162  -28.8191   23.3013 O   0  0  0  0  0  0
  -28.3766  -26.6585   20.0564 O   0  0  0  0  0  0
  -26.5600  -34.8933   22.4687 O   0  0  0  0  0  0
  -23.5340  -32.1421   23.7467 O   0  0  0  0  0  0
  -29.1030  -19.9173   21.4334 C   0  0  0  0  0  0
  -28.4876  -20.9810   20.8085 C   0  0  0  0  0  0
  -29.4111  -19.6427   19.2486 C   0  0  0  0  0  0
  -26.1454  -21.5854   21.1130 C   0  0  0  0  0  0
  -27.7931  -22.2355   22.8652 C   0  0  0  0  0  0
  -29.3743  -17.7443   17.6039 C   0  0  0  0  0  0
  -29.1974  -20.0784   16.7631 C   0  0  0  0  0  0
  -30.4630  -15.3707   22.8637 C   0  0  0  0  0  0
  -31.9071  -20.5749   17.9866 C   0  0  0  0  0  0
  -31.9009  -18.7418   16.4915 C   0  0  0  0  0  0
  -28.9579  -24.3708   20.8961 C   0  0  0  0  0  0
  -27.7208  -23.4713   20.6180 C   0  0  0  0  0  0
  -30.3853  -17.8342   20.7406 C   0  0  0  0  0  0
  -29.4548  -16.6028   20.9545 C   0  0  0  0  0  0
  -28.6316  -25.8594   21.2191 C   0  0  0  0  0  0
  -27.5866  -22.0836   21.3423 C   0  0  0  0  0  0
  -29.8551  -19.1925   17.8578 C   0  0  0  0  0  0
  -29.6472  -19.0996   20.4659 N   0  0  0  0  0  0
  -28.7085  -20.7647   19.4736 N   0  3  0  0  0  0
  -30.1233  -15.3740   21.4414 N   0  0  0  0  0  0
  -31.3340  -19.2454   17.7468 N   0  0  0  0  0  0
  -31.4713  -12.4371   19.1101 H   0  0  0  0  0  0
  -30.3468  -11.3075   19.8067 H   0  0  0  0  0  0
  -29.7356  -11.7883   17.4258 H   0  0  0  0  0  0
  -29.6558  -13.4995   17.7638 H   0  0  0  0  0  0
  -27.8368  -11.3080   18.8211 H   0  0  0  0  0  0
  -27.3626  -12.6338   17.7918 H   0  0  0  0  0  0
  -27.7129  -14.2519   19.5847 H   0  0  0  0  0  0
  -28.6852  -11.9371   21.3308 H   0  0  0  0  0  0
  -28.4468  -13.5657   21.8764 H   0  0  0  0  0  0
  -25.2758   -9.5689   22.4763 H   0  0  0  0  0  0
  -23.9997   -7.4644   22.7483 H   0  0  0  0  0  0
  -21.0842   -8.8780   19.8954 H   0  0  0  0  0  0
  -22.3695  -10.9680   19.6170 H   0  0  0  0  0  0
  -21.1999   -7.6152   23.9712 H   0  0  0  0  0  0
  -21.1484   -6.0531   25.9082 H   0  0  0  0  0  0
  -22.0601   -2.7610   23.2857 H   0  0  0  0  0  0
  -22.4131  -11.9901   22.4787 H   0  0  0  0  0  0
  -21.1144  -13.1284   22.2601 H   0  0  0  0  0  0
  -24.6693  -15.8435   20.5248 H   0  0  0  0  0  0
  -26.2913  -15.6272   20.1048 H   0  0  0  0  0  0
  -26.7124  -32.5525   23.1161 H   0  0  0  0  0  0
  -25.0055  -33.9760   25.0473 H   0  0  0  0  0  0
  -22.6937  -31.3054   21.4055 H   0  0  0  0  0  0
  -23.3732  -35.9666   23.3291 H   0  0  0  0  0  0
  -24.3580  -36.8953   22.2059 H   0  0  0  0  0  0
  -23.7270  -37.6531   23.6689 H   0  0  0  0  0  0
  -26.0466  -31.5909   20.5959 H   0  0  0  0  0  0
  -26.8195  -30.8834   21.9889 H   0  0  0  0  0  0
  -28.1041  -29.0862   21.1894 H   0  0  0  0  0  0
  -26.0844  -25.9675   19.0095 H   0  0  0  0  0  0
  -23.9927  -27.2930   19.0189 H   0  0  0  0  0  0
  -23.7262  -30.5934   19.4035 H   0  0  0  0  0  0
  -22.7420  -29.2383   19.8676 H   0  0  0  0  0  0
  -25.1283  -36.1949   25.0815 H   0  0  0  0  0  0
  -20.9940  -28.3284   24.1420 H   0  0  0  0  0  0
  -20.5651  -26.2306   23.3603 H   0  0  0  0  0  0
  -21.6638  -26.7478   22.1207 H   0  0  0  0  0  0
  -19.6908  -25.6296   21.1251 H   0  0  0  0  0  0
  -19.6677  -27.3179   20.6710 H   0  0  0  0  0  0
  -17.4182  -26.6654   21.4025 H   0  0  0  0  0  0
  -18.0333  -26.0082   22.9015 H   0  0  0  0  0  0
  -19.7927  -30.7235   24.2322 H   0  0  0  0  0  0
  -17.5024  -31.6278   24.5169 H   0  0  0  0  0  0
  -15.5346  -30.3020   23.7639 H   0  0  0  0  0  0
  -15.8644  -28.0832   22.7081 H   0  0  0  0  0  0
  -24.5967  -30.6995   25.7802 H   0  0  0  0  0  0
  -24.8964  -32.2802   26.4942 H   0  0  0  0  0  0
  -25.8158  -30.8829   27.0206 H   0  0  0  0  0  0
  -26.2913  -29.6714   24.1252 H   0  0  0  0  0  0
  -27.4204  -29.7327   25.4593 H   0  0  0  0  0  0
  -27.8717  -30.4314   23.9227 H   0  0  0  0  0  0
  -27.2661  -33.3611   26.2088 H   0  0  0  0  0  0
  -28.3874  -32.6890   25.0335 H   0  0  0  0  0  0
  -28.0737  -31.8446   26.5401 H   0  0  0  0  0  0
  -28.2586  -38.0113   24.7521 H   0  0  0  0  0  0
  -28.1080  -36.2640   24.6288 H   0  0  0  0  0  0
  -27.2290  -37.1439   25.8870 H   0  0  0  0  0  0
  -20.9289  -29.8806   21.6943 H   0  0  0  0  0  0
  -26.0177  -38.2839   24.1406 H   0  0  0  0  0  0
  -29.1588  -19.6684   22.4848 H   0  0  0  0  0  0
  -25.9754  -20.6227   21.5968 H   0  0  0  0  0  0
  -25.9311  -21.4571   20.0513 H   0  0  0  0  0  0
  -25.4060  -22.2813   21.5123 H   0  0  0  0  0  0
  -27.5066  -21.3313   23.4023 H   0  0  0  0  0  0
  -27.1905  -23.0495   23.2685 H   0  0  0  0  0  0
  -28.8325  -22.4343   23.1238 H   0  0  0  0  0  0
  -28.3258  -17.6256   17.8820 H   0  0  0  0  0  0
  -29.9542  -17.0058   18.1525 H   0  0  0  0  0  0
  -29.4424  -17.4659   16.5519 H   0  0  0  0  0  0
  -28.1094  -20.0228   16.8232 H   0  0  0  0  0  0
  -29.4536  -19.7527   15.7554 H   0  0  0  0  0  0
  -29.4667  -21.1310   16.8404 H   0  0  0  0  0  0
  -29.7908  -16.0015   23.4459 H   0  0  0  0  0  0
  -31.4806  -15.7353   23.0100 H   0  0  0  0  0  0
  -30.4053  -14.3634   23.2798 H   0  0  0  0  0  0
  -32.9963  -20.5206   18.0183 H   0  0  0  0  0  0
  -31.5930  -20.9971   18.9415 H   0  0  0  0  0  0
  -31.6441  -21.2852   17.2012 H   0  0  0  0  0  0
  -32.9910  -18.7577   16.5341 H   0  0  0  0  0  0
  -31.6064  -19.3451   15.6320 H   0  0  0  0  0  0
  -31.6211  -17.7071   16.2953 H   0  0  0  0  0  0
  -29.6495  -24.3191   20.0541 H   0  0  0  0  0  0
  -29.5200  -23.9753   21.7393 H   0  0  0  0  0  0
  -27.5978  -23.3539   19.5410 H   0  0  0  0  0  0
  -26.8504  -24.0573   20.9161 H   0  0  0  0  0  0
  -31.1164  -17.6606   19.9528 H   0  0  0  0  0  0
  -30.9672  -18.0070   21.6460 H   0  0  0  0  0  0
  -28.9235  -16.3668   20.0337 H   0  0  0  0  0  0
  -28.6689  -16.8679   21.6631 H   0  0  0  0  0  0
  -29.4970  -26.3024   21.7120 H   0  0  0  0  0  0
  -27.8179  -25.9152   21.9460 H   0  0  0  0  0  0
  -28.3633  -21.3594   18.7307 H   0  0  0  0  0  0
  1 25  1  0  0  0
  1 30  2  0  0  0
  1 90  1  0  0  0
  2  3  1  0  0  0
  2 25  1  0  0  0
  2 92  1  0  0  0
  2 93  1  0  0  0
  3  4  1  0  0  0
  3 94  1  0  0  0
  3 95  1  0  0  0
  4  5  1  0  0  0
  4 96  1  0  0  0
  4 97  1  0  0  0
  5  6  1  0  0  0
  5 26  1  0  0  0
  5 98  1  0  0  0
  6 25  1  0  0  0
  6 99  1  0  0  0
  6100  1  0  0  0
  7  8  2  0  0  0
  7 26  1  0  0  0
  7 29  1  0  0  0
  8  9  1  0  0  0
  8 22  1  0  0  0
  9 10  1  0  0  0
  9 27  2  0  0  0
 10 11  2  0  0  0
 10 15  1  0  0  0
 11 12  1  0  0  0
 11101  1  0  0  0
 12 13  2  0  0  0
 12102  1  0  0  0
 13 14  1  0  0  0
 13 31  1  0  0  0
 14 15  2  0  0  0
 14103  1  0  0  0
 15104  1  0  0  0
 16 17  2  0  0  0
 16 21  1  0  0  0
 16 31  1  0  0  0
 17 18  1  0  0  0
 17105  1  0  0  0
 18 19  2  0  0  0
 18106  1  0  0  0
 19 20  1  0  0  0
 19 24  1  0  0  0
 20 21  2  0  0  0
 20107  1  0  0  0
 21 23  1  0  0  0
 22 28  1  0  0  0
 22 32  2  0  0  0
 26 27  1  0  0  0
 28108  1  0  0  0
 28109  1  0  0  0
 29110  1  0  0  0
 29111  1  0  0  0
 33 34  1  0  0  0
 33 66  1  0  0  0
 33 70  2  0  0  0
 34 36  1  0  0  0
 34 59  1  0  0  0
 34112  1  0  0  0
 35 44  2  0  0  0
 35 45  1  0  0  0
 35 68  1  0  0  0
 36 56  1  0  0  0
 36113  1  0  0  0
 37 39  1  0  0  0
 37 47  1  0  0  0
 37 66  1  0  0  0
 37114  1  0  0  0
 38 43  2  0  0  0
 38 46  1  0  0  0
 38 47  1  0  0  0
 39 64  1  0  0  0
 39 67  2  0  0  0
 40 52  1  0  0  0
 40 53  2  0  0  0
 40 58  1  0  0  0
 41115  1  0  0  0
 41116  1  0  0  0
 41117  1  0  0  0
 41 48  1  0  0  0
 42 43  1  0  0  0
 42 66  1  0  0  0
 42118  1  0  0  0
 42119  1  0  0  0
 43 44  1  0  0  0
 44120  1  0  0  0
 45 46  2  0  0  0
 45121  1  0  0  0
 46122  1  0  0  0
 47123  1  0  0  0
 47124  1  0  0  0
 48 56  1  0  0  0
 48 65  1  0  0  0
 48125  1  0  0  0
 49 50  1  0  0  0
 49 53  1  0  0  0
 49 64  1  0  0  0
 49126  1  0  0  0
 50 51  1  0  0  0
 50127  1  0  0  0
 50128  1  0  0  0
 51 52  1  0  0  0
 51129  1  0  0  0
 51130  1  0  0  0
 52131  1  0  0  0
 52132  1  0  0  0
 53 54  1  0  0  0
 54 55  2  0  0  0
 54133  1  0  0  0
 55 57  1  0  0  0
 55134  1  0  0  0
 56 69  2  0  0  0
 57 58  2  0  0  0
 57135  1  0  0  0
 58136  1  0  0  0
 59 60  1  0  0  0
 59 61  1  0  0  0
 59 62  1  0  0  0
 60137  1  0  0  0
 60138  1  0  0  0
 60139  1  0  0  0
 61140  1  0  0  0
 61141  1  0  0  0
 61142  1  0  0  0
 62143  1  0  0  0
 62144  1  0  0  0
 62145  1  0  0  0
 63 65  1  0  0  0
 63146  1  0  0  0
 63147  1  0  0  0
 63148  1  0  0  0
 64149  1  0  0  0
 65150  1  0  0  0
 68 85  1  0  0  0
 71 72  2  0  0  0
 71 88  1  0  0  0
 71151  1  0  0  0
 72 86  1  0  0  0
 72 89  1  0  0  0
 73 87  1  0  0  0
 73 88  1  0  0  0
 73 89  2  0  0  0
 74152  1  0  0  0
 74153  1  0  0  0
 74154  1  0  0  0
 74 86  1  0  0  0
 75 86  1  0  0  0
 75155  1  0  0  0
 75156  1  0  0  0
 75157  1  0  0  0
 76158  1  0  0  0
 76159  1  0  0  0
 76160  1  0  0  0
 76 87  1  0  0  0
 77 87  1  0  0  0
 77161  1  0  0  0
 77162  1  0  0  0
 77163  1  0  0  0
 78 90  1  0  0  0
 78164  1  0  0  0
 78165  1  0  0  0
 78166  1  0  0  0
 79 91  1  0  0  0
 79167  1  0  0  0
 79168  1  0  0  0
 79169  1  0  0  0
 80 91  1  0  0  0
 80170  1  0  0  0
 80171  1  0  0  0
 80172  1  0  0  0
 81 82  1  0  0  0
 81 85  1  0  0  0
 81173  1  0  0  0
 81174  1  0  0  0
 82 86  1  0  0  0
 82175  1  0  0  0
 82176  1  0  0  0
 83 84  1  0  0  0
 83 88  1  0  0  0
 83177  1  0  0  0
 83178  1  0  0  0
 84 90  1  0  0  0
 84179  1  0  0  0
 84180  1  0  0  0
 85181  1  0  0  0
 85182  1  0  0  0
 87 91  1  0  0  0
 89183  1  0  0  0
M  CHG  1  89   1
M  ISO  4   1 100  68 101  85 101  90 100
M  END
> <chiral flag>
0

> <version>
0

> <s_m_source_file>
/data/baiqing/PycharmProjects/Reinvent-master-3.2/result/LINK_invent/BTK/process_docking_weight1_custom_sum_contain_oxygen_bond_distance_aromatic_linkinvent_7_9_3/rearranged_h_0064.sdf

> <i_m_source_file_index>
30

> <r_mmod_Potential_Energy-OPLS-2005>
128.707092285156

> <r_mmod_Stretch_Energy-OPLS-2005>
48.3371772766113

> <r_mmod_Bend_Energy-OPLS-2005>
126.592338562012

> <r_mmod_Torsional_Energy-OPLS-2005>
378.892120361328

> <r_mmod_Improper_Torsional_Energy-OPLS-2005>
3.3845579624176

> <r_mmod_Van_der_Waal_Energy-OPLS-2005>
128.456741333008

> <r_mmod_Electrostatic_Energy-OPLS-2005>
-195.0771484375

> <r_mmod_Solvation_Energy-OPLS-2005>
-372.986389160156

> <b_mmod_Minimization_Converged-OPLS-2005>
0

> <r_mmod_RMS_Derivative-OPLS-2005>
1.82654249668121

$$$$
31
                    3D
 Structure written by MMmdl.
156164  0  0  1  0            999 V2000
  -30.6614  -14.6624   20.6582 C   0  0  0  0  0  0
  -30.4465  -12.4587   19.4545 C   0  0  0  0  0  0
  -29.5112  -12.5634   18.2255 C   0  0  0  0  0  0
  -28.0304  -12.3816   18.6173 C   0  0  0  0  0  0
  -27.6573  -13.2100   19.8706 C   0  0  2  0  0  0
  -28.7007  -12.9629   20.9768 C   0  0  0  0  0  0
  -25.2543  -13.8122   20.5608 C   0  0  0  0  0  0
  -24.1820  -13.0407   20.9151 C   0  0  0  0  0  0
  -24.6397  -11.6881   20.8724 C   0  0  0  0  0  0
  -23.9064  -10.4275   21.0409 C   0  0  0  0  0  0
  -24.3604   -9.4196   21.9201 C   0  0  0  0  0  0
  -23.6263   -8.2238   22.0774 C   0  0  0  0  0  0
  -22.4256   -8.0277   21.3549 C   0  0  0  0  0  0
  -21.9889   -9.0261   20.4664 C   0  0  0  0  0  0
  -22.7232  -10.2130   20.3060 C   0  0  0  0  0  0
  -21.6847   -6.0730   22.5279 C   0  0  0  0  0  0
  -21.4011   -6.5639   23.8212 C   0  0  0  0  0  0
  -21.3654   -5.6796   24.9178 C   0  0  0  0  0  0
  -21.6034   -4.3055   24.7232 C   0  0  0  0  0  0
  -21.8806   -3.8146   23.4354 C   0  0  0  0  0  0
  -21.9184   -4.6959   22.3408 C   0  0  0  0  0  0
  -22.7845  -13.5212   21.1831 C   0  0  0  0  0  0
  -22.1652   -4.2142   21.0986 F   0  0  0  0  0  0
  -21.5630   -3.4538   25.7743 F   0  0  0  0  0  0
  -30.0077  -13.4440   20.4867 N   0  0  0  0  0  0
  -26.2995  -12.9301   20.3314 N   0  0  0  0  0  0
  -25.9327  -11.6463   20.5738 N   0  0  0  0  0  0
  -22.0501  -12.8209   22.0406 N   0  0  0  0  0  0
  -25.4195  -15.1833   20.3958 N   0  0  0  0  0  0
  -31.6886  -14.8239   19.9875 O   0  0  0  0  0  0
  -21.6631   -6.8869   21.4235 O   0  0  0  0  0  0
  -22.3519  -14.5511   20.6681 O   0  0  0  0  0  0
  -24.6290  -31.8583   23.2001 C   0  0  0  0  0  0
  -25.9137  -32.4769   23.8321 C   0  0  1  0  0  0
  -27.2234  -27.3041   20.1043 C   0  0  0  0  0  0
  -25.5944  -33.8567   24.2262 N   0  0  0  0  0  0
  -23.4226  -30.4825   21.5442 C   0  0  2  0  0  0
  -24.8671  -28.9367   20.1089 C   0  0  0  0  0  0
  -22.7486  -29.4624   22.4928 C   0  0  0  0  0  0
  -18.0289  -28.1391   22.8484 C   0  0  0  0  0  0
  -24.1490  -36.7288   23.2635 C   0  0  0  0  0  0
  -25.9658  -30.7825   21.3744 C   0  0  0  0  0  0
  -26.0384  -29.4094   20.7140 C   0  0  0  0  0  0
  -27.2192  -28.6055   20.7011 C   0  0  0  0  0  0
  -26.0238  -26.8903   19.4772 C   0  0  0  0  0  0
  -24.8628  -27.6837   19.4805 C   0  0  0  0  0  0
  -23.6371  -29.8189   20.1590 C   0  0  0  0  0  0
  -25.4118  -36.3079   24.0323 C   0  0  1  0  0  0
  -20.5890  -28.3699   23.1272 C   0  0  2  0  0  0
  -20.6779  -26.9421   22.5404 C   0  0  0  0  0  0
  -19.5759  -26.6390   21.5207 C   0  0  0  0  0  0
  -18.1941  -26.7933   22.1621 C   0  0  0  0  0  0
  -19.1540  -28.8862   23.2873 C   0  0  0  0  0  0
  -18.9465  -30.1464   23.8892 C   0  0  0  0  0  0
  -17.6464  -30.6591   24.0568 C   0  0  0  0  0  0
  -25.9055  -34.9447   23.5091 C   0  0  0  0  0  0
  -16.5356  -29.9092   23.6330 C   0  0  0  0  0  0
  -16.7277  -28.6512   23.0348 C   0  0  0  0  0  0
  -26.4511  -31.6578   25.0693 C   0  0  0  0  0  0
  -25.3734  -31.3731   26.1411 C   0  0  0  0  0  0
  -27.0352  -30.3001   24.6153 C   0  0  0  0  0  0
  -27.6067  -32.4302   25.7475 C   0  0  0  0  0  0
  -27.5581  -37.1802   24.8465 C   0  0  0  0  0  0
  -21.4199  -29.3048   22.3667 N   0  0  0  0  0  0
  -26.4296  -37.3774   23.9404 N   0  0  0  0  0  0
  -24.6914  -31.0574   22.0964 N   0  0  0  0  0  0
  -23.4204  -28.8159   23.3008 O   0  0  0  0  0  0
  -28.3387  -26.4436   20.1451 O   0  0  0  0  0  0
  -26.5620  -34.8925   22.4656 O   0  0  0  0  0  0
  -23.5449  -32.1389   23.7324 O   0  0  0  0  0  0
  -28.9465  -18.1570   21.0440 C   0  0  0  0  0  0
  -31.1797  -18.0683   20.3505 C   0  0  0  0  0  0
  -30.1142  -17.3528   20.9312 C   0  0  0  0  0  0
  -29.9919  -20.0725   20.2977 C   0  0  0  0  0  0
  -29.2646  -23.9208   20.2498 C   0  0  0  0  0  0
  -28.1089  -24.9832   19.9610 C   0  0  0  0  0  0
  -28.9141  -22.3532   20.2044 C   0  0  0  0  0  0
  -30.2954  -15.9145   21.6373 C   0  0  0  0  0  0
  -31.5403  -16.0549   22.5997 C   0  0  0  0  0  0
  -29.0766  -15.6912   22.6025 C   0  0  0  0  0  0
  -28.8863  -19.4869   20.7420 N   0  0  0  0  0  0
  -31.1194  -19.4003   20.0636 N   0  0  0  0  0  0
  -30.0678  -21.4446   20.1224 O   0  0  0  0  0  0
  -31.3849  -17.0690   23.4537 F   0  0  0  0  0  0
  -31.7448  -14.9460   23.3117 F   0  0  0  0  0  0
  -32.6909  -16.2907   21.9674 F   0  0  0  0  0  0
  -27.9526  -15.5383   21.9056 F   0  0  0  0  0  0
  -29.2332  -14.6482   23.4164 F   0  0  0  0  0  0
  -28.8718  -16.7352   23.4100 F   0  0  0  0  0  0
  -31.4802  -12.6013   19.1373 H   0  0  0  0  0  0
  -30.4298  -11.4454   19.8596 H   0  0  0  0  0  0
  -29.7921  -11.8250   17.4734 H   0  0  0  0  0  0
  -29.6430  -13.5395   17.7572 H   0  0  0  0  0  0
  -27.8600  -11.3224   18.8127 H   0  0  0  0  0  0
  -27.3824  -12.6460   17.7809 H   0  0  0  0  0  0
  -27.6982  -14.2621   19.5883 H   0  0  0  0  0  0
  -28.7538  -11.8911   21.1752 H   0  0  0  0  0  0
  -28.3591  -13.3283   21.9267 H   0  0  0  0  0  0
  -25.2751   -9.5658   22.4779 H   0  0  0  0  0  0
  -23.9950   -7.4622   22.7497 H   0  0  0  0  0  0
  -21.0807   -8.8799   19.8987 H   0  0  0  0  0  0
  -22.3695  -10.9670   19.6168 H   0  0  0  0  0  0
  -21.2004   -7.6147   23.9711 H   0  0  0  0  0  0
  -21.1488   -6.0535   25.9080 H   0  0  0  0  0  0
  -22.0583   -2.7610   23.2865 H   0  0  0  0  0  0
  -22.4120  -11.9877   22.4802 H   0  0  0  0  0  0
  -21.1120  -13.1228   22.2624 H   0  0  0  0  0  0
  -24.6548  -15.8370   20.5188 H   0  0  0  0  0  0
  -26.2908  -15.6291   20.1446 H   0  0  0  0  0  0
  -26.7200  -32.5438   23.1059 H   0  0  0  0  0  0
  -25.0116  -33.9695   25.0425 H   0  0  0  0  0  0
  -22.7175  -31.3037   21.4013 H   0  0  0  0  0  0
  -23.3749  -35.9625   23.3307 H   0  0  0  0  0  0
  -24.3574  -36.8897   22.2044 H   0  0  0  0  0  0
  -23.7243  -37.6493   23.6646 H   0  0  0  0  0  0
  -26.0988  -31.5451   20.6057 H   0  0  0  0  0  0
  -26.8464  -30.8295   22.0031 H   0  0  0  0  0  0
  -28.1177  -28.9645   21.1824 H   0  0  0  0  0  0
  -25.9480  -25.9356   18.9790 H   0  0  0  0  0  0
  -23.9667  -27.3197   18.9971 H   0  0  0  0  0  0
  -23.7593  -30.5956   19.4032 H   0  0  0  0  0  0
  -22.7567  -29.2490   19.8561 H   0  0  0  0  0  0
  -25.1301  -36.1925   25.0814 H   0  0  0  0  0  0
  -20.9976  -28.3276   24.1394 H   0  0  0  0  0  0
  -20.5679  -26.2312   23.3608 H   0  0  0  0  0  0
  -21.6653  -26.7453   22.1201 H   0  0  0  0  0  0
  -19.6920  -25.6299   21.1243 H   0  0  0  0  0  0
  -19.6692  -27.3196   20.6733 H   0  0  0  0  0  0
  -17.4205  -26.6674   21.4025 H   0  0  0  0  0  0
  -18.0349  -26.0077   22.9020 H   0  0  0  0  0  0
  -19.7942  -30.7285   24.2252 H   0  0  0  0  0  0
  -17.5021  -31.6269   24.5178 H   0  0  0  0  0  0
  -15.5358  -30.2997   23.7654 H   0  0  0  0  0  0
  -15.8677  -28.0836   22.7052 H   0  0  0  0  0  0
  -24.5915  -30.7076   25.7735 H   0  0  0  0  0  0
  -24.8921  -32.2907   26.4804 H   0  0  0  0  0  0
  -25.8047  -30.8926   27.0202 H   0  0  0  0  0  0
  -26.2930  -29.6745   24.1182 H   0  0  0  0  0  0
  -27.4055  -29.7255   25.4653 H   0  0  0  0  0  0
  -27.8797  -30.4281   23.9378 H   0  0  0  0  0  0
  -27.2682  -33.3600   26.2060 H   0  0  0  0  0  0
  -28.3888  -32.6863   25.0313 H   0  0  0  0  0  0
  -28.0729  -31.8418   26.5388 H   0  0  0  0  0  0
  -28.2608  -38.0091   24.7510 H   0  0  0  0  0  0
  -28.1068  -36.2621   24.6302 H   0  0  0  0  0  0
  -27.2296  -37.1470   25.8869 H   0  0  0  0  0  0
  -20.9376  -29.8773   21.6883 H   0  0  0  0  0  0
  -26.0177  -38.2851   24.1396 H   0  0  0  0  0  0
  -28.0233  -17.7879   21.4577 H   0  0  0  0  0  0
  -32.1392  -17.6119   20.1677 H   0  0  0  0  0  0
  -29.6876  -24.1359   21.2310 H   0  0  0  0  0  0
  -30.0685  -24.1097   19.5380 H   0  0  0  0  0  0
  -27.2539  -24.6980   20.5766 H   0  0  0  0  0  0
  -27.8082  -24.8251   18.9242 H   0  0  0  0  0  0
  -28.2870  -22.1557   19.3339 H   0  0  0  0  0  0
  -28.3125  -22.1040   21.0795 H   0  0  0  0  0  0
  1 25  1  0  0  0
  1 30  2  0  0  0
  1 78  1  0  0  0
  2  3  1  0  0  0
  2 25  1  0  0  0
  2 90  1  0  0  0
  2 91  1  0  0  0
  3  4  1  0  0  0
  3 92  1  0  0  0
  3 93  1  0  0  0
  4  5  1  0  0  0
  4 94  1  0  0  0
  4 95  1  0  0  0
  5  6  1  0  0  0
  5 26  1  0  0  0
  5 96  1  0  0  0
  6 25  1  0  0  0
  6 97  1  0  0  0
  6 98  1  0  0  0
  7  8  2  0  0  0
  7 26  1  0  0  0
  7 29  1  0  0  0
  8  9  1  0  0  0
  8 22  1  0  0  0
  9 10  1  0  0  0
  9 27  2  0  0  0
 10 11  2  0  0  0
 10 15  1  0  0  0
 11 12  1  0  0  0
 11 99  1  0  0  0
 12 13  2  0  0  0
 12100  1  0  0  0
 13 14  1  0  0  0
 13 31  1  0  0  0
 14 15  2  0  0  0
 14101  1  0  0  0
 15102  1  0  0  0
 16 17  2  0  0  0
 16 21  1  0  0  0
 16 31  1  0  0  0
 17 18  1  0  0  0
 17103  1  0  0  0
 18 19  2  0  0  0
 18104  1  0  0  0
 19 20  1  0  0  0
 19 24  1  0  0  0
 20 21  2  0  0  0
 20105  1  0  0  0
 21 23  1  0  0  0
 22 28  1  0  0  0
 22 32  2  0  0  0
 26 27  1  0  0  0
 28106  1  0  0  0
 28107  1  0  0  0
 29108  1  0  0  0
 29109  1  0  0  0
 33 34  1  0  0  0
 33 66  1  0  0  0
 33 70  2  0  0  0
 34 36  1  0  0  0
 34 59  1  0  0  0
 34110  1  0  0  0
 35 44  2  0  0  0
 35 45  1  0  0  0
 35 68  1  0  0  0
 36 56  1  0  0  0
 36111  1  0  0  0
 37 39  1  0  0  0
 37 47  1  0  0  0
 37 66  1  0  0  0
 37112  1  0  0  0
 38 43  2  0  0  0
 38 46  1  0  0  0
 38 47  1  0  0  0
 39 64  1  0  0  0
 39 67  2  0  0  0
 40 52  1  0  0  0
 40 53  2  0  0  0
 40 58  1  0  0  0
 41113  1  0  0  0
 41114  1  0  0  0
 41115  1  0  0  0
 41 48  1  0  0  0
 42 43  1  0  0  0
 42 66  1  0  0  0
 42116  1  0  0  0
 42117  1  0  0  0
 43 44  1  0  0  0
 44118  1  0  0  0
 45 46  2  0  0  0
 45119  1  0  0  0
 46120  1  0  0  0
 47121  1  0  0  0
 47122  1  0  0  0
 48 56  1  0  0  0
 48 65  1  0  0  0
 48123  1  0  0  0
 49 50  1  0  0  0
 49 53  1  0  0  0
 49 64  1  0  0  0
 49124  1  0  0  0
 50 51  1  0  0  0
 50125  1  0  0  0
 50126  1  0  0  0
 51 52  1  0  0  0
 51127  1  0  0  0
 51128  1  0  0  0
 52129  1  0  0  0
 52130  1  0  0  0
 53 54  1  0  0  0
 54 55  2  0  0  0
 54131  1  0  0  0
 55 57  1  0  0  0
 55132  1  0  0  0
 56 69  2  0  0  0
 57 58  2  0  0  0
 57133  1  0  0  0
 58134  1  0  0  0
 59 60  1  0  0  0
 59 61  1  0  0  0
 59 62  1  0  0  0
 60135  1  0  0  0
 60136  1  0  0  0
 60137  1  0  0  0
 61138  1  0  0  0
 61139  1  0  0  0
 61140  1  0  0  0
 62141  1  0  0  0
 62142  1  0  0  0
 62143  1  0  0  0
 63 65  1  0  0  0
 63144  1  0  0  0
 63145  1  0  0  0
 63146  1  0  0  0
 64147  1  0  0  0
 65148  1  0  0  0
 68 76  1  0  0  0
 71 73  2  0  0  0
 71 81  1  0  0  0
 71149  1  0  0  0
 72 73  1  0  0  0
 72 82  2  0  0  0
 72150  1  0  0  0
 73 78  1  0  0  0
 74 81  2  0  0  0
 74 82  1  0  0  0
 74 83  1  0  0  0
 75 76  1  0  0  0
 75 77  1  0  0  0
 75151  1  0  0  0
 75152  1  0  0  0
 76153  1  0  0  0
 76154  1  0  0  0
 77 83  1  0  0  0
 77155  1  0  0  0
 77156  1  0  0  0
 78 79  1  0  0  0
 78 80  1  0  0  0
 79 84  1  0  0  0
 79 85  1  0  0  0
 79 86  1  0  0  0
 80 87  1  0  0  0
 80 88  1  0  0  0
 80 89  1  0  0  0
M  ISO  4   1 100  68 101  76 101  78 100
M  END
> <chiral flag>
0

> <version>
0

> <s_m_source_file>
/data/baiqing/PycharmProjects/Reinvent-master-3.2/result/LINK_invent/BTK/process_docking_weight1_custom_sum_contain_oxygen_bond_distance_aromatic_linkinvent_7_9_3/rearranged_h_0064.sdf

> <i_m_source_file_index>
31

> <r_mmod_Potential_Energy-OPLS-2005>
-352.119018554688

> <r_mmod_Stretch_Energy-OPLS-2005>
113.873641967773

> <r_mmod_Bend_Energy-OPLS-2005>
204.206207275391

> <r_mmod_Torsional_Energy-OPLS-2005>
167.308303833008

> <r_mmod_Improper_Torsional_Energy-OPLS-2005>
3.49943327903748

> <r_mmod_Van_der_Waal_Energy-OPLS-2005>
196.690155029297

> <r_mmod_Electrostatic_Energy-OPLS-2005>
-908.687622070312

> <r_mmod_Solvation_Energy-OPLS-2005>
-182.352340698242

> <b_mmod_Minimization_Converged-OPLS-2005>
0

> <r_mmod_RMS_Derivative-OPLS-2005>
1.32363224029541

$$$$
32
                    3D
 Structure written by MMmdl.
173181  0  0  1  0            999 V2000
  -30.7404  -14.6341   20.4389 C   0  0  0  0  0  0
  -30.4033  -12.4049   19.4184 C   0  0  0  0  0  0
  -29.4821  -12.5295   18.1945 C   0  0  0  0  0  0
  -28.0031  -12.4138   18.6027 C   0  0  0  0  0  0
  -27.6428  -13.2608   19.8495 C   0  0  2  0  0  0
  -28.7121  -13.1436   20.9522 C   0  0  0  0  0  0
  -25.2465  -13.8226   20.5807 C   0  0  0  0  0  0
  -24.1794  -13.0465   20.9228 C   0  0  0  0  0  0
  -24.6484  -11.6908   20.8976 C   0  0  0  0  0  0
  -23.9292  -10.4243   21.0648 C   0  0  0  0  0  0
  -24.3723   -9.3963   21.9290 C   0  0  0  0  0  0
  -23.6249   -8.2089   22.0852 C   0  0  0  0  0  0
  -22.4185   -8.0251   21.3656 C   0  0  0  0  0  0
  -22.0056   -9.0275   20.4638 C   0  0  0  0  0  0
  -22.7504  -10.2114   20.3098 C   0  0  0  0  0  0
  -21.6813   -6.0590   22.5313 C   0  0  0  0  0  0
  -21.4009   -6.5493   23.8224 C   0  0  0  0  0  0
  -21.3685   -5.6701   24.9247 C   0  0  0  0  0  0
  -21.6047   -4.2966   24.7409 C   0  0  0  0  0  0
  -21.8823   -3.8012   23.4528 C   0  0  0  0  0  0
  -21.9118   -4.6802   22.3546 C   0  0  0  0  0  0
  -22.7814  -13.5093   21.1918 C   0  0  0  0  0  0
  -22.1569   -4.1897   21.1153 F   0  0  0  0  0  0
  -21.5637   -3.4520   25.7962 F   0  0  0  0  0  0
  -30.0205  -13.4636   20.3718 N   0  0  0  0  0  0
  -26.3004  -12.9548   20.3467 N   0  0  0  0  0  0
  -25.9405  -11.6701   20.5957 N   0  0  0  0  0  0
  -22.0436  -12.8041   22.0334 N   0  0  0  0  0  0
  -25.4234  -15.1965   20.4481 N   0  0  0  0  0  0
  -31.8775  -14.6792   19.9733 O   0  0  0  0  0  0
  -21.6529   -6.8831   21.4291 O   0  0  0  0  0  0
  -22.3398  -14.5500   20.6926 O   0  0  0  0  0  0
  -24.6259  -31.8611   23.2074 C   0  0  0  0  0  0
  -25.9117  -32.4790   23.8402 C   0  0  1  0  0  0
  -27.2417  -27.3541   20.0146 C   0  0  0  0  0  0
  -25.5953  -33.8594   24.2301 N   0  0  0  0  0  0
  -23.4170  -30.4827   21.5510 C   0  0  2  0  0  0
  -24.8602  -28.9462   20.1217 C   0  0  0  0  0  0
  -22.7449  -29.4588   22.5000 C   0  0  0  0  0  0
  -18.0276  -28.1397   22.8481 C   0  0  0  0  0  0
  -24.1525  -36.7316   23.2632 C   0  0  0  0  0  0
  -25.9565  -30.7934   21.3793 C   0  0  0  0  0  0
  -26.0342  -29.4231   20.7157 C   0  0  0  0  0  0
  -27.2265  -28.6335   20.6660 C   0  0  0  0  0  0
  -26.0269  -26.9319   19.4241 C   0  0  0  0  0  0
  -24.8527  -27.7001   19.4821 C   0  0  0  0  0  0
  -23.6345  -29.8267   20.1672 C   0  0  0  0  0  0
  -25.4139  -36.3085   24.0323 C   0  0  1  0  0  0
  -20.5861  -28.3658   23.1333 C   0  0  2  0  0  0
  -20.6777  -26.9417   22.5407 C   0  0  0  0  0  0
  -19.5758  -26.6405   21.5200 C   0  0  0  0  0  0
  -18.1929  -26.7930   22.1608 C   0  0  0  0  0  0
  -19.1526  -28.8847   23.2903 C   0  0  0  0  0  0
  -18.9442  -30.1457   23.8903 C   0  0  0  0  0  0
  -17.6440  -30.6593   24.0563 C   0  0  0  0  0  0
  -25.9054  -34.9447   23.5090 C   0  0  0  0  0  0
  -16.5337  -29.9091   23.6351 C   0  0  0  0  0  0
  -16.7253  -28.6532   23.0327 C   0  0  0  0  0  0
  -26.4520  -31.6567   25.0711 C   0  0  0  0  0  0
  -25.3787  -31.3703   26.1452 C   0  0  0  0  0  0
  -27.0316  -30.2994   24.6110 C   0  0  0  0  0  0
  -27.6099  -32.4254   25.7463 C   0  0  0  0  0  0
  -27.5586  -37.1805   24.8459 C   0  0  0  0  0  0
  -21.4152  -29.3018   22.3748 N   0  0  0  0  0  0
  -26.4310  -37.3763   23.9399 N   0  0  0  0  0  0
  -24.6860  -31.0602   22.1035 N   0  0  0  0  0  0
  -23.4211  -28.8140   23.3071 O   0  0  0  0  0  0
  -28.3857  -26.5381   19.9371 O   0  0  0  0  0  0
  -26.5588  -34.8896   22.4634 O   0  0  0  0  0  0
  -23.5428  -32.1428   23.7388 O   0  0  0  0  0  0
  -29.9922  -20.0156   19.0695 C   0  0  0  0  0  0
  -29.7515  -18.0346   19.8611 C   0  0  0  0  0  0
  -29.8112  -17.0880   23.4850 C   0  0  0  0  0  0
  -27.5239  -16.7270   22.5104 C   0  0  0  0  0  0
  -28.6232  -18.9620   22.4439 C   0  0  0  0  0  0
  -30.7196  -24.7926   18.9528 C   0  0  0  0  0  0
  -29.6227  -24.0365   21.0625 C   0  0  0  0  0  0
  -28.3712  -17.1246   17.9575 C   0  0  0  0  0  0
  -30.3309  -21.5279   18.9496 C   0  0  0  0  0  0
  -29.1833  -22.6543   18.9888 C   0  0  0  0  0  0
  -28.2683  -25.1942   19.3159 C   0  0  0  0  0  0
  -29.4068  -16.9031   20.8898 C   0  0  2  0  0  0
  -28.8607  -17.4306   22.3012 C   0  0  0  0  0  0
  -29.4529  -24.1528   19.5384 C   0  0  0  0  0  0
  -30.4150  -19.1876   20.0951 N   0  0  0  0  0  0
  -29.3365  -19.3509   18.1143 N   0  0  0  0  0  0
  -29.1956  -18.0910   18.6397 N   0  0  0  0  0  0
  -30.3331  -15.7398   21.1136 N   0  0  0  0  0  0
  -31.4342  -12.4853   19.0835 H   0  0  0  0  0  0
  -30.3008  -11.4082   19.8490 H   0  0  0  0  0  0
  -29.7196  -11.7889   17.4292 H   0  0  0  0  0  0
  -29.6653  -13.4905   17.7184 H   0  0  0  0  0  0
  -27.7790  -11.3576   18.7537 H   0  0  0  0  0  0
  -27.3824  -12.7324   17.7705 H   0  0  0  0  0  0
  -27.6570  -14.2972   19.5091 H   0  0  0  0  0  0
  -28.7206  -12.1421   21.3786 H   0  0  0  0  0  0
  -28.4872  -13.8151   21.7714 H   0  0  0  0  0  0
  -25.2926   -9.5243   22.4829 H   0  0  0  0  0  0
  -23.9801   -7.4437   22.7615 H   0  0  0  0  0  0
  -21.1003   -8.8873   19.8918 H   0  0  0  0  0  0
  -22.4014  -10.9615   19.6141 H   0  0  0  0  0  0
  -21.2035   -7.5999   23.9705 H   0  0  0  0  0  0
  -21.1515   -6.0505   25.9156 H   0  0  0  0  0  0
  -22.0603   -2.7423   23.3252 H   0  0  0  0  0  0
  -22.3806  -11.9436   22.4468 H   0  0  0  0  0  0
  -21.1113  -13.1267   22.2351 H   0  0  0  0  0  0
  -24.6958  -15.8657   20.6644 H   0  0  0  0  0  0
  -26.3380  -15.6215   20.4072 H   0  0  0  0  0  0
  -26.7121  -32.5495   23.1120 H   0  0  0  0  0  0
  -25.0162  -33.9768   25.0479 H   0  0  0  0  0  0
  -22.7095  -31.3027   21.4130 H   0  0  0  0  0  0
  -23.3752  -35.9673   23.3284 H   0  0  0  0  0  0
  -24.3618  -36.8939   22.2037 H   0  0  0  0  0  0
  -23.7309  -37.6537   23.6651 H   0  0  0  0  0  0
  -26.0730  -31.5563   20.6144 H   0  0  0  0  0  0
  -26.8424  -30.8528   21.9937 H   0  0  0  0  0  0
  -28.1339  -29.0055   21.1250 H   0  0  0  0  0  0
  -25.9519  -26.0030   18.8771 H   0  0  0  0  0  0
  -23.9535  -27.3282   19.0091 H   0  0  0  0  0  0
  -23.7725  -30.6096   19.4238 H   0  0  0  0  0  0
  -22.7576  -29.2635   19.8501 H   0  0  0  0  0  0
  -25.1319  -36.1921   25.0805 H   0  0  0  0  0  0
  -20.9911  -28.3203   24.1465 H   0  0  0  0  0  0
  -20.5700  -26.2258   23.3576 H   0  0  0  0  0  0
  -21.6647  -26.7492   22.1183 H   0  0  0  0  0  0
  -19.6931  -25.6326   21.1206 H   0  0  0  0  0  0
  -19.6698  -27.3240   20.6753 H   0  0  0  0  0  0
  -17.4202  -26.6670   21.4007 H   0  0  0  0  0  0
  -18.0344  -26.0067   22.9004 H   0  0  0  0  0  0
  -19.7919  -30.7268   24.2268 H   0  0  0  0  0  0
  -17.5005  -31.6251   24.5188 H   0  0  0  0  0  0
  -15.5353  -30.2989   23.7668 H   0  0  0  0  0  0
  -15.8648  -28.0855   22.7014 H   0  0  0  0  0  0
  -24.6006  -30.6977   25.7837 H   0  0  0  0  0  0
  -24.8926  -32.2848   26.4843 H   0  0  0  0  0  0
  -25.8166  -30.8957   27.0240 H   0  0  0  0  0  0
  -26.2855  -29.6762   24.1169 H   0  0  0  0  0  0
  -27.4062  -29.7225   25.4576 H   0  0  0  0  0  0
  -27.8719  -30.4270   23.9287 H   0  0  0  0  0  0
  -27.2762  -33.3544   26.2104 H   0  0  0  0  0  0
  -28.3916  -32.6820   25.0294 H   0  0  0  0  0  0
  -28.0779  -31.8325   26.5333 H   0  0  0  0  0  0
  -28.2615  -38.0092   24.7470 H   0  0  0  0  0  0
  -28.1083  -36.2613   24.6343 H   0  0  0  0  0  0
  -27.2297  -37.1515   25.8864 H   0  0  0  0  0  0
  -20.9349  -29.8788   21.6975 H   0  0  0  0  0  0
  -26.0196  -38.2839   24.1382 H   0  0  0  0  0  0
  -29.3419  -17.3567   24.4301 H   0  0  0  0  0  0
  -30.7076  -17.7023   23.4618 H   0  0  0  0  0  0
  -30.1385  -16.0443   23.5420 H   0  0  0  0  0  0
  -27.1143  -16.8495   23.5089 H   0  0  0  0  0  0
  -27.6447  -15.6611   22.3640 H   0  0  0  0  0  0
  -26.7931  -17.0924   21.7904 H   0  0  0  0  0  0
  -28.1213  -19.2349   23.3614 H   0  0  0  0  0  0
  -28.0090  -19.3976   21.6637 H   0  0  0  0  0  0
  -29.5629  -19.5240   22.4528 H   0  0  0  0  0  0
  -31.5802  -24.1503   19.1412 H   0  0  0  0  0  0
  -30.9257  -25.7596   19.4289 H   0  0  0  0  0  0
  -30.6298  -24.9841   17.8793 H   0  0  0  0  0  0
  -30.3727  -23.2896   21.3263 H   0  0  0  0  0  0
  -28.6792  -23.7581   21.5357 H   0  0  0  0  0  0
  -29.9171  -24.9973   21.4867 H   0  0  0  0  0  0
  -27.3539  -17.2703   18.2941 H   0  0  0  0  0  0
  -28.6938  -16.1112   18.2064 H   0  0  0  0  0  0
  -28.3932  -17.2867   16.8752 H   0  0  0  0  0  0
  -30.9478  -21.6476   18.0586 H   0  0  0  0  0  0
  -30.9914  -21.7310   19.7796 H   0  0  0  0  0  0
  -28.3605  -22.2474   19.5816 H   0  0  0  0  0  0
  -28.7713  -22.7324   17.9848 H   0  0  0  0  0  0
  -27.3793  -24.7066   19.7100 H   0  0  0  0  0  0
  -28.0758  -25.3188   18.2451 H   0  0  0  0  0  0
  -28.6017  -16.3719   20.3954 H   0  0  0  0  0  0
  -31.1187  -16.0933   21.6379 H   0  0  0  0  0  0
  1 25  1  0  0  0
  1 30  2  0  0  0
  1 88  1  0  0  0
  2  3  1  0  0  0
  2 25  1  0  0  0
  2 89  1  0  0  0
  2 90  1  0  0  0
  3  4  1  0  0  0
  3 91  1  0  0  0
  3 92  1  0  0  0
  4  5  1  0  0  0
  4 93  1  0  0  0
  4 94  1  0  0  0
  5  6  1  0  0  0
  5 26  1  0  0  0
  5 95  1  0  0  0
  6 25  1  0  0  0
  6 96  1  0  0  0
  6 97  1  0  0  0
  7  8  2  0  0  0
  7 26  1  0  0  0
  7 29  1  0  0  0
  8  9  1  0  0  0
  8 22  1  0  0  0
  9 10  1  0  0  0
  9 27  2  0  0  0
 10 11  2  0  0  0
 10 15  1  0  0  0
 11 12  1  0  0  0
 11 98  1  0  0  0
 12 13  2  0  0  0
 12 99  1  0  0  0
 13 14  1  0  0  0
 13 31  1  0  0  0
 14 15  2  0  0  0
 14100  1  0  0  0
 15101  1  0  0  0
 16 17  2  0  0  0
 16 21  1  0  0  0
 16 31  1  0  0  0
 17 18  1  0  0  0
 17102  1  0  0  0
 18 19  2  0  0  0
 18103  1  0  0  0
 19 20  1  0  0  0
 19 24  1  0  0  0
 20 21  2  0  0  0
 20104  1  0  0  0
 21 23  1  0  0  0
 22 28  1  0  0  0
 22 32  2  0  0  0
 26 27  1  0  0  0
 28105  1  0  0  0
 28106  1  0  0  0
 29107  1  0  0  0
 29108  1  0  0  0
 33 34  1  0  0  0
 33 66  1  0  0  0
 33 70  2  0  0  0
 34 36  1  0  0  0
 34 59  1  0  0  0
 34109  1  0  0  0
 35 44  2  0  0  0
 35 45  1  0  0  0
 35 68  1  0  0  0
 36 56  1  0  0  0
 36110  1  0  0  0
 37 39  1  0  0  0
 37 47  1  0  0  0
 37 66  1  0  0  0
 37111  1  0  0  0
 38 43  2  0  0  0
 38 46  1  0  0  0
 38 47  1  0  0  0
 39 64  1  0  0  0
 39 67  2  0  0  0
 40 52  1  0  0  0
 40 53  2  0  0  0
 40 58  1  0  0  0
 41112  1  0  0  0
 41113  1  0  0  0
 41114  1  0  0  0
 41 48  1  0  0  0
 42 43  1  0  0  0
 42 66  1  0  0  0
 42115  1  0  0  0
 42116  1  0  0  0
 43 44  1  0  0  0
 44117  1  0  0  0
 45 46  2  0  0  0
 45118  1  0  0  0
 46119  1  0  0  0
 47120  1  0  0  0
 47121  1  0  0  0
 48 56  1  0  0  0
 48 65  1  0  0  0
 48122  1  0  0  0
 49 50  1  0  0  0
 49 53  1  0  0  0
 49 64  1  0  0  0
 49123  1  0  0  0
 50 51  1  0  0  0
 50124  1  0  0  0
 50125  1  0  0  0
 51 52  1  0  0  0
 51126  1  0  0  0
 51127  1  0  0  0
 52128  1  0  0  0
 52129  1  0  0  0
 53 54  1  0  0  0
 54 55  2  0  0  0
 54130  1  0  0  0
 55 57  1  0  0  0
 55131  1  0  0  0
 56 69  2  0  0  0
 57 58  2  0  0  0
 57132  1  0  0  0
 58133  1  0  0  0
 59 60  1  0  0  0
 59 61  1  0  0  0
 59 62  1  0  0  0
 60134  1  0  0  0
 60135  1  0  0  0
 60136  1  0  0  0
 61137  1  0  0  0
 61138  1  0  0  0
 61139  1  0  0  0
 62140  1  0  0  0
 62141  1  0  0  0
 62142  1  0  0  0
 63 65  1  0  0  0
 63143  1  0  0  0
 63144  1  0  0  0
 63145  1  0  0  0
 64146  1  0  0  0
 65147  1  0  0  0
 68 81  1  0  0  0
 71 79  1  0  0  0
 71 85  1  0  0  0
 71 86  2  0  0  0
 72 82  1  0  0  0
 72 85  2  0  0  0
 72 87  1  0  0  0
 73148  1  0  0  0
 73149  1  0  0  0
 73150  1  0  0  0
 73 83  1  0  0  0
 74 83  1  0  0  0
 74151  1  0  0  0
 74152  1  0  0  0
 74153  1  0  0  0
 75 83  1  0  0  0
 75154  1  0  0  0
 75155  1  0  0  0
 75156  1  0  0  0
 76157  1  0  0  0
 76158  1  0  0  0
 76159  1  0  0  0
 76 84  1  0  0  0
 77 84  1  0  0  0
 77160  1  0  0  0
 77161  1  0  0  0
 77162  1  0  0  0
 78 87  1  0  0  0
 78163  1  0  0  0
 78164  1  0  0  0
 78165  1  0  0  0
 79 80  1  0  0  0
 79166  1  0  0  0
 79167  1  0  0  0
 80 84  1  0  0  0
 80168  1  0  0  0
 80169  1  0  0  0
 81 84  1  0  0  0
 81170  1  0  0  0
 81171  1  0  0  0
 82 83  1  0  0  0
 82 88  1  0  0  0
 82172  1  0  0  0
 86 87  1  0  0  0
 88173  1  0  0  0
M  ISO  4   1 100  68 101  81 101  88 100
M  END
> <chiral flag>
0

> <version>
0

> <s_m_source_file>
/data/baiqing/PycharmProjects/Reinvent-master-3.2/result/LINK_invent/BTK/process_docking_weight1_custom_sum_contain_oxygen_bond_distance_aromatic_linkinvent_7_9_3/rearranged_h_0064.sdf

> <i_m_source_file_index>
32

> <r_mmod_Potential_Energy-OPLS-2005>
131.374282836914

> <r_mmod_Stretch_Energy-OPLS-2005>
98.5909194946289

> <r_mmod_Bend_Energy-OPLS-2005>
241.803512573242

> <r_mmod_Torsional_Energy-OPLS-2005>
286.218688964844

> <r_mmod_Improper_Torsional_Energy-OPLS-2005>
8.67497253417969

> <r_mmod_Van_der_Waal_Energy-OPLS-2005>
131.289733886719

> <r_mmod_Electrostatic_Energy-OPLS-2005>
-474.363861083984

> <r_mmod_Solvation_Energy-OPLS-2005>
-210.416320800781

> <b_mmod_Minimization_Converged-OPLS-2005>
0

> <r_mmod_RMS_Derivative-OPLS-2005>
17.4627304077148

$$$$
33
                    3D
 Structure written by MMmdl.
173181  0  0  1  0            999 V2000
  -30.5802  -14.7454   20.4644 C   0  0  0  0  0  0
  -30.4378  -12.4534   19.4705 C   0  0  0  0  0  0
  -29.5101  -12.5141   18.2346 C   0  0  0  0  0  0
  -28.0353  -12.3204   18.6428 C   0  0  0  0  0  0
  -27.6403  -13.2090   19.8484 C   0  0  2  0  0  0
  -28.6878  -13.1162   20.9830 C   0  0  0  0  0  0
  -25.2502  -13.8145   20.5666 C   0  0  0  0  0  0
  -24.1764  -13.0415   20.9198 C   0  0  0  0  0  0
  -24.6349  -11.6898   20.8760 C   0  0  0  0  0  0
  -23.9019  -10.4285   21.0427 C   0  0  0  0  0  0
  -24.3593   -9.4201   21.9189 C   0  0  0  0  0  0
  -23.6286   -8.2224   22.0753 C   0  0  0  0  0  0
  -22.4265   -8.0263   21.3540 C   0  0  0  0  0  0
  -21.9889   -9.0227   20.4637 C   0  0  0  0  0  0
  -22.7204  -10.2121   20.3070 C   0  0  0  0  0  0
  -21.6836   -6.0736   22.5287 C   0  0  0  0  0  0
  -21.4001   -6.5643   23.8218 C   0  0  0  0  0  0
  -21.3663   -5.6799   24.9175 C   0  0  0  0  0  0
  -21.6048   -4.3063   24.7226 C   0  0  0  0  0  0
  -21.8819   -3.8146   23.4347 C   0  0  0  0  0  0
  -21.9185   -4.6963   22.3406 C   0  0  0  0  0  0
  -22.7798  -13.5214   21.1880 C   0  0  0  0  0  0
  -22.1660   -4.2142   21.0983 F   0  0  0  0  0  0
  -21.5636   -3.4565   25.7747 F   0  0  0  0  0  0
  -29.9859  -13.4988   20.4153 N   0  0  0  0  0  0
  -26.2901  -12.9301   20.3254 N   0  0  0  0  0  0
  -25.9270  -11.6472   20.5763 N   0  0  0  0  0  0
  -22.0443  -12.8191   22.0442 N   0  0  0  0  0  0
  -25.4233  -15.1864   20.4103 N   0  0  0  0  0  0
  -31.7663  -14.8229   20.1134 O   0  0  0  0  0  0
  -21.6618   -6.8875   21.4251 O   0  0  0  0  0  0
  -22.3486  -14.5535   20.6760 O   0  0  0  0  0  0
  -24.6292  -31.8561   23.1991 C   0  0  0  0  0  0
  -25.9112  -32.4762   23.8356 C   0  0  1  0  0  0
  -27.2254  -27.2761   20.1594 C   0  0  0  0  0  0
  -25.5925  -33.8570   24.2268 N   0  0  0  0  0  0
  -23.4261  -30.4762   21.5416 C   0  0  2  0  0  0
  -24.8777  -28.9151   20.1228 C   0  0  0  0  0  0
  -22.7489  -29.4583   22.4921 C   0  0  0  0  0  0
  -18.0290  -28.1370   22.8497 C   0  0  0  0  0  0
  -24.1484  -36.7296   23.2644 C   0  0  0  0  0  0
  -25.9707  -30.7743   21.3782 C   0  0  0  0  0  0
  -26.0461  -29.3940   20.7300 C   0  0  0  0  0  0
  -27.2279  -28.5884   20.7313 C   0  0  0  0  0  0
  -26.0352  -26.8433   19.5435 C   0  0  0  0  0  0
  -24.8744  -27.6441   19.5208 C   0  0  0  0  0  0
  -23.6489  -29.8051   20.1605 C   0  0  0  0  0  0
  -25.4115  -36.3082   24.0321 C   0  0  1  0  0  0
  -20.5896  -28.3671   23.1282 C   0  0  2  0  0  0
  -20.6772  -26.9387   22.5424 C   0  0  0  0  0  0
  -19.5745  -26.6364   21.5226 C   0  0  0  0  0  0
  -18.1919  -26.7918   22.1628 C   0  0  0  0  0  0
  -19.1548  -28.8840   23.2886 C   0  0  0  0  0  0
  -18.9465  -30.1452   23.8883 C   0  0  0  0  0  0
  -17.6463  -30.6574   24.0557 C   0  0  0  0  0  0
  -25.9051  -34.9444   23.5098 C   0  0  0  0  0  0
  -16.5351  -29.9066   23.6331 C   0  0  0  0  0  0
  -16.7280  -28.6486   23.0347 C   0  0  0  0  0  0
  -26.4486  -31.6597   25.0758 C   0  0  0  0  0  0
  -25.3698  -31.3788   26.1481 C   0  0  0  0  0  0
  -27.0361  -30.3002   24.6296 C   0  0  0  0  0  0
  -27.6044  -32.4354   25.7521 C   0  0  0  0  0  0
  -27.5574  -37.1816   24.8456 C   0  0  0  0  0  0
  -21.4194  -29.3020   22.3664 N   0  0  0  0  0  0
  -26.4296  -37.3771   23.9398 N   0  0  0  0  0  0
  -24.6937  -31.0534   22.0961 N   0  0  0  0  0  0
  -23.4200  -28.8116   23.3013 O   0  0  0  0  0  0
  -28.3408  -26.4224   20.1071 O   0  0  0  0  0  0
  -26.5616  -34.8910   22.4664 O   0  0  0  0  0  0
  -23.5435  -32.1392   23.7266 O   0  0  0  0  0  0
  -30.4425  -19.7769   18.6747 C   0  0  0  0  0  0
  -30.6120  -18.5074   18.1131 C   0  0  0  0  0  0
  -29.9323  -19.8852   19.9775 C   0  0  0  0  0  0
  -30.0014  -17.4779   20.0780 C   0  0  0  0  0  0
  -28.3483  -22.2275   18.6452 C   0  0  0  0  0  0
  -28.8773  -20.8340   22.9914 C   0  0  0  0  0  0
  -30.3738  -22.7930   22.7643 C   0  0  0  0  0  0
  -31.3313  -19.2592   23.2302 C   0  0  0  0  0  0
  -32.6015  -20.7808   21.7910 C   0  0  0  0  0  0
  -28.0620  -23.7026   20.6800 C   0  0  0  0  0  0
  -28.4432  -25.2442   21.0115 C   0  0  0  0  0  0
  -29.8400  -21.3423   20.6688 C   0  0  1  0  0  0
  -29.0509  -22.6315   19.9592 C   0  0  1  0  0  0
  -29.7993  -16.1086   20.8878 C   0  0  0  0  0  0
  -30.1334  -21.3558   22.2402 C   0  0  0  0  0  0
  -30.3953  -17.3804   18.8091 N   0  0  0  0  0  0
  -29.6998  -18.6949   20.6451 N   0  0  0  0  0  0
  -31.4060  -20.6330   22.6652 N   0  3  0  0  0  0
  -30.1101  -16.3485   22.1641 F   0  0  0  0  0  0
  -28.4818  -15.9106   20.8489 F   0  0  0  0  0  0
  -31.4769  -12.5862   19.1669 H   0  0  0  0  0  0
  -30.3918  -11.4720   19.9451 H   0  0  0  0  0  0
  -29.8014  -11.7605   17.5026 H   0  0  0  0  0  0
  -29.6218  -13.4821   17.7442 H   0  0  0  0  0  0
  -27.8947  -11.2703   18.9015 H   0  0  0  0  0  0
  -27.3780  -12.5222   17.7959 H   0  0  0  0  0  0
  -27.6329  -14.2235   19.4543 H   0  0  0  0  0  0
  -28.7321  -12.0993   21.3790 H   0  0  0  0  0  0
  -28.4220  -13.7455   21.8314 H   0  0  0  0  0  0
  -25.2747   -9.5691   22.4746 H   0  0  0  0  0  0
  -24.0007   -7.4613   22.7462 H   0  0  0  0  0  0
  -21.0827   -8.8740   19.8930 H   0  0  0  0  0  0
  -22.3660  -10.9658   19.6174 H   0  0  0  0  0  0
  -21.1992   -7.6147   23.9731 H   0  0  0  0  0  0
  -21.1491   -6.0520   25.9081 H   0  0  0  0  0  0
  -22.0598   -2.7599   23.2851 H   0  0  0  0  0  0
  -22.4059  -11.9828   22.4776 H   0  0  0  0  0  0
  -21.1071  -13.1213   22.2705 H   0  0  0  0  0  0
  -24.6637  -15.8482   20.5244 H   0  0  0  0  0  0
  -26.2963  -15.6252   20.1499 H   0  0  0  0  0  0
  -26.7188  -32.5414   23.1114 H   0  0  0  0  0  0
  -25.0074  -33.9708   25.0416 H   0  0  0  0  0  0
  -22.7212  -31.2973   21.3916 H   0  0  0  0  0  0
  -23.3754  -35.9618   23.3281 H   0  0  0  0  0  0
  -24.3579  -36.8960   22.2066 H   0  0  0  0  0  0
  -23.7223  -37.6480   23.6697 H   0  0  0  0  0  0
  -26.1075  -31.5339   20.6065 H   0  0  0  0  0  0
  -26.8481  -30.8265   22.0120 H   0  0  0  0  0  0
  -28.1297  -28.9585   21.1967 H   0  0  0  0  0  0
  -26.0024  -25.8632   19.0880 H   0  0  0  0  0  0
  -23.9792  -27.2641   19.0492 H   0  0  0  0  0  0
  -23.7779  -30.5810   19.4054 H   0  0  0  0  0  0
  -22.7687  -29.2407   19.8491 H   0  0  0  0  0  0
  -25.1298  -36.1940   25.0814 H   0  0  0  0  0  0
  -21.0000  -28.3237   24.1396 H   0  0  0  0  0  0
  -20.5660  -26.2269   23.3624 H   0  0  0  0  0  0
  -21.6633  -26.7385   22.1214 H   0  0  0  0  0  0
  -19.6886  -25.6266   21.1256 H   0  0  0  0  0  0
  -19.6686  -27.3173   20.6754 H   0  0  0  0  0  0
  -17.4199  -26.6704   21.4013 H   0  0  0  0  0  0
  -18.0275  -26.0050   22.9008 H   0  0  0  0  0  0
  -19.7937  -30.7289   24.2223 H   0  0  0  0  0  0
  -17.5004  -31.6247   24.5171 H   0  0  0  0  0  0
  -15.5342  -30.2958   23.7658 H   0  0  0  0  0  0
  -15.8683  -28.0805   22.7051 H   0  0  0  0  0  0
  -24.5809  -30.7216   25.7791 H   0  0  0  0  0  0
  -24.8969  -32.2993   26.4918 H   0  0  0  0  0  0
  -25.7983  -30.8920   27.0250 H   0  0  0  0  0  0
  -26.2988  -29.6726   24.1273 H   0  0  0  0  0  0
  -27.3966  -29.7297   25.4865 H   0  0  0  0  0  0
  -27.8883  -30.4265   23.9618 H   0  0  0  0  0  0
  -27.2656  -33.3666   26.2082 H   0  0  0  0  0  0
  -28.3858  -32.6908   25.0347 H   0  0  0  0  0  0
  -28.0715  -31.8500   26.5457 H   0  0  0  0  0  0
  -28.2598  -38.0101   24.7470 H   0  0  0  0  0  0
  -28.1072  -36.2631   24.6327 H   0  0  0  0  0  0
  -27.2293  -37.1512   25.8860 H   0  0  0  0  0  0
  -20.9350  -29.8781   21.6916 H   0  0  0  0  0  0
  -26.0175  -38.2853   24.1378 H   0  0  0  0  0  0
  -30.7237  -20.6447   18.0948 H   0  0  0  0  0  0
  -30.9698  -18.3929   17.1002 H   0  0  0  0  0  0
  -27.7970  -23.0615   18.2119 H   0  0  0  0  0  0
  -27.6393  -21.4167   18.8092 H   0  0  0  0  0  0
  -29.0494  -21.9255   17.8718 H   0  0  0  0  0  0
  -27.9896  -21.4067   22.7363 H   0  0  0  0  0  0
  -28.9885  -20.8972   24.0746 H   0  0  0  0  0  0
  -28.6378  -19.8013   22.7401 H   0  0  0  0  0  0
  -29.4699  -23.3862   22.8455 H   0  0  0  0  0  0
  -31.0807  -23.3486   22.1484 H   0  0  0  0  0  0
  -30.7688  -22.7760   23.7814 H   0  0  0  0  0  0
  -32.2038  -19.0855   23.8609 H   0  0  0  0  0  0
  -31.3838  -18.4962   22.4602 H   0  0  0  0  0  0
  -30.4666  -19.0661   23.8602 H   0  0  0  0  0  0
  -33.5014  -20.4534   22.3110 H   0  0  0  0  0  0
  -32.7690  -21.8156   21.4920 H   0  0  0  0  0  0
  -32.5215  -20.1676   20.8931 H   0  0  0  0  0  0
  -27.1063  -23.7397   20.1565 H   0  0  0  0  0  0
  -27.7499  -23.2522   21.6176 H   0  0  0  0  0  0
  -29.4680  -25.2489   21.3819 H   0  0  0  0  0  0
  -27.8513  -25.5096   21.8901 H   0  0  0  0  0  0
  -30.8127  -21.6611   20.3078 H   0  0  0  0  0  0
  -29.8561  -23.2829   19.6149 H   0  0  0  0  0  0
  -31.6658  -21.1612   23.4861 H   0  0  0  0  0  0
  1 25  1  0  0  0
  1 30  2  0  0  0
  1 84  1  0  0  0
  2  3  1  0  0  0
  2 25  1  0  0  0
  2 91  1  0  0  0
  2 92  1  0  0  0
  3  4  1  0  0  0
  3 93  1  0  0  0
  3 94  1  0  0  0
  4  5  1  0  0  0
  4 95  1  0  0  0
  4 96  1  0  0  0
  5  6  1  0  0  0
  5 26  1  0  0  0
  5 97  1  0  0  0
  6 25  1  0  0  0
  6 98  1  0  0  0
  6 99  1  0  0  0
  7  8  2  0  0  0
  7 26  1  0  0  0
  7 29  1  0  0  0
  8  9  1  0  0  0
  8 22  1  0  0  0
  9 10  1  0  0  0
  9 27  2  0  0  0
 10 11  2  0  0  0
 10 15  1  0  0  0
 11 12  1  0  0  0
 11100  1  0  0  0
 12 13  2  0  0  0
 12101  1  0  0  0
 13 14  1  0  0  0
 13 31  1  0  0  0
 14 15  2  0  0  0
 14102  1  0  0  0
 15103  1  0  0  0
 16 17  2  0  0  0
 16 21  1  0  0  0
 16 31  1  0  0  0
 17 18  1  0  0  0
 17104  1  0  0  0
 18 19  2  0  0  0
 18105  1  0  0  0
 19 20  1  0  0  0
 19 24  1  0  0  0
 20 21  2  0  0  0
 20106  1  0  0  0
 21 23  1  0  0  0
 22 28  1  0  0  0
 22 32  2  0  0  0
 26 27  1  0  0  0
 28107  1  0  0  0
 28108  1  0  0  0
 29109  1  0  0  0
 29110  1  0  0  0
 33 34  1  0  0  0
 33 66  1  0  0  0
 33 70  2  0  0  0
 34 36  1  0  0  0
 34 59  1  0  0  0
 34111  1  0  0  0
 35 44  2  0  0  0
 35 45  1  0  0  0
 35 68  1  0  0  0
 36 56  1  0  0  0
 36112  1  0  0  0
 37 39  1  0  0  0
 37 47  1  0  0  0
 37 66  1  0  0  0
 37113  1  0  0  0
 38 43  2  0  0  0
 38 46  1  0  0  0
 38 47  1  0  0  0
 39 64  1  0  0  0
 39 67  2  0  0  0
 40 52  1  0  0  0
 40 53  2  0  0  0
 40 58  1  0  0  0
 41114  1  0  0  0
 41115  1  0  0  0
 41116  1  0  0  0
 41 48  1  0  0  0
 42 43  1  0  0  0
 42 66  1  0  0  0
 42117  1  0  0  0
 42118  1  0  0  0
 43 44  1  0  0  0
 44119  1  0  0  0
 45 46  2  0  0  0
 45120  1  0  0  0
 46121  1  0  0  0
 47122  1  0  0  0
 47123  1  0  0  0
 48 56  1  0  0  0
 48 65  1  0  0  0
 48124  1  0  0  0
 49 50  1  0  0  0
 49 53  1  0  0  0
 49 64  1  0  0  0
 49125  1  0  0  0
 50 51  1  0  0  0
 50126  1  0  0  0
 50127  1  0  0  0
 51 52  1  0  0  0
 51128  1  0  0  0
 51129  1  0  0  0
 52130  1  0  0  0
 52131  1  0  0  0
 53 54  1  0  0  0
 54 55  2  0  0  0
 54132  1  0  0  0
 55 57  1  0  0  0
 55133  1  0  0  0
 56 69  2  0  0  0
 57 58  2  0  0  0
 57134  1  0  0  0
 58135  1  0  0  0
 59 60  1  0  0  0
 59 61  1  0  0  0
 59 62  1  0  0  0
 60136  1  0  0  0
 60137  1  0  0  0
 60138  1  0  0  0
 61139  1  0  0  0
 61140  1  0  0  0
 61141  1  0  0  0
 62142  1  0  0  0
 62143  1  0  0  0
 62144  1  0  0  0
 63 65  1  0  0  0
 63145  1  0  0  0
 63146  1  0  0  0
 63147  1  0  0  0
 64148  1  0  0  0
 65149  1  0  0  0
 68 81  1  0  0  0
 71 72  2  0  0  0
 71 73  1  0  0  0
 71150  1  0  0  0
 72 86  1  0  0  0
 72151  1  0  0  0
 73 87  2  0  0  0
 73 82  1  0  0  0
 74 84  1  0  0  0
 74 86  2  0  0  0
 74 87  1  0  0  0
 75152  1  0  0  0
 75153  1  0  0  0
 75154  1  0  0  0
 75 83  1  0  0  0
 76155  1  0  0  0
 76156  1  0  0  0
 76157  1  0  0  0
 76 85  1  0  0  0
 77 85  1  0  0  0
 77158  1  0  0  0
 77159  1  0  0  0
 77160  1  0  0  0
 78161  1  0  0  0
 78162  1  0  0  0
 78163  1  0  0  0
 78 88  1  0  0  0
 79 88  1  0  0  0
 79164  1  0  0  0
 79165  1  0  0  0
 79166  1  0  0  0
 80 81  1  0  0  0
 80 83  1  0  0  0
 80167  1  0  0  0
 80168  1  0  0  0
 81169  1  0  0  0
 81170  1  0  0  0
 82 83  1  0  0  0
 82 85  1  0  0  0
 82171  1  0  0  0
 83172  1  0  0  0
 84 89  1  0  0  0
 84 90  1  0  0  0
 85 88  1  0  0  0
 88173  1  0  0  0
M  CHG  1  88   1
M  ISO  4   1 100  68 101  81 101  84 100
M  END
> <chiral flag>
0

> <version>
0

> <s_m_source_file>
/data/baiqing/PycharmProjects/Reinvent-master-3.2/result/LINK_invent/BTK/process_docking_weight1_custom_sum_contain_oxygen_bond_distance_aromatic_linkinvent_7_9_3/rearranged_h_0064.sdf

> <i_m_source_file_index>
33

> <r_mmod_Potential_Energy-OPLS-2005>
227.122970581055

> <r_mmod_Stretch_Energy-OPLS-2005>
155.11051940918

> <r_mmod_Bend_Energy-OPLS-2005>
289.708160400391

> <r_mmod_Torsional_Energy-OPLS-2005>
276.238647460938

> <r_mmod_Improper_Torsional_Energy-OPLS-2005>
3.04817152023315

> <r_mmod_Van_der_Waal_Energy-OPLS-2005>
168.384353637695

> <r_mmod_Electrostatic_Energy-OPLS-2005>
-327.226196289062

> <r_mmod_Solvation_Energy-OPLS-2005>
-413.299896240234

> <b_mmod_Minimization_Converged-OPLS-2005>
0

> <r_mmod_RMS_Derivative-OPLS-2005>
3.01395964622498

$$$$
34
                    3D
 Structure written by MMmdl.
158166  0  0  1  0            999 V2000
  -30.6646  -14.6235   20.5114 C   0  0  0  0  0  0
  -30.4266  -12.3852   19.4559 C   0  0  0  0  0  0
  -29.5054  -12.5026   18.2224 C   0  0  0  0  0  0
  -28.0279  -12.3439   18.6310 C   0  0  0  0  0  0
  -27.6515  -13.2175   19.8575 C   0  0  2  0  0  0
  -28.6919  -13.0779   20.9883 C   0  0  0  0  0  0
  -25.2575  -13.8175   20.5675 C   0  0  0  0  0  0
  -24.1834  -13.0445   20.9165 C   0  0  0  0  0  0
  -24.6398  -11.6908   20.8723 C   0  0  0  0  0  0
  -23.9066  -10.4294   21.0396 C   0  0  0  0  0  0
  -24.3623   -9.4213   21.9170 C   0  0  0  0  0  0
  -23.6305   -8.2246   22.0748 C   0  0  0  0  0  0
  -22.4282   -8.0281   21.3543 C   0  0  0  0  0  0
  -21.9917   -9.0251   20.4639 C   0  0  0  0  0  0
  -22.7243  -10.2132   20.3045 C   0  0  0  0  0  0
  -21.6858   -6.0735   22.5277 C   0  0  0  0  0  0
  -21.4015   -6.5642   23.8209 C   0  0  0  0  0  0
  -21.3655   -5.6795   24.9170 C   0  0  0  0  0  0
  -21.6047   -4.3058   24.7222 C   0  0  0  0  0  0
  -21.8822   -3.8147   23.4341 C   0  0  0  0  0  0
  -21.9198   -4.6963   22.3395 C   0  0  0  0  0  0
  -22.7858  -13.5240   21.1830 C   0  0  0  0  0  0
  -22.1665   -4.2144   21.0975 F   0  0  0  0  0  0
  -21.5632   -3.4538   25.7733 F   0  0  0  0  0  0
  -30.0072  -13.4206   20.4258 N   0  0  0  0  0  0
  -26.2987  -12.9351   20.3284 N   0  0  0  0  0  0
  -25.9325  -11.6500   20.5737 N   0  0  0  0  0  0
  -22.0503  -12.8225   22.0380 N   0  0  0  0  0  0
  -25.4310  -15.1893   20.4116 N   0  0  0  0  0  0
  -31.8154  -14.7331   20.0773 O   0  0  0  0  0  0
  -21.6651   -6.8873   21.4236 O   0  0  0  0  0  0
  -22.3531  -14.5533   20.6671 O   0  0  0  0  0  0
  -24.6225  -31.8615   23.2017 C   0  0  0  0  0  0
  -25.9088  -32.4783   23.8342 C   0  0  1  0  0  0
  -27.2303  -27.3542   20.1144 C   0  0  0  0  0  0
  -25.5911  -33.8585   24.2275 N   0  0  0  0  0  0
  -23.4150  -30.4824   21.5439 C   0  0  2  0  0  0
  -24.8644  -28.9385   20.1099 C   0  0  0  0  0  0
  -22.7450  -29.4630   22.4944 C   0  0  0  0  0  0
  -18.0283  -28.1390   22.8480 C   0  0  0  0  0  0
  -24.1487  -36.7303   23.2638 C   0  0  0  0  0  0
  -25.9520  -30.8023   21.3662 C   0  0  0  0  0  0
  -26.0295  -29.4305   20.7127 C   0  0  0  0  0  0
  -27.2187  -28.6496   20.7059 C   0  0  0  0  0  0
  -26.0496  -26.9037   19.4888 C   0  0  0  0  0  0
  -24.8735  -27.6780   19.4885 C   0  0  0  0  0  0
  -23.6270  -29.8110   20.1603 C   0  0  0  0  0  0
  -25.4107  -36.3089   24.0328 C   0  0  1  0  0  0
  -20.5878  -28.3695   23.1292 C   0  0  2  0  0  0
  -20.6774  -26.9420   22.5413 C   0  0  0  0  0  0
  -19.5752  -26.6388   21.5218 C   0  0  0  0  0  0
  -18.1929  -26.7934   22.1623 C   0  0  0  0  0  0
  -19.1532  -28.8861   23.2884 C   0  0  0  0  0  0
  -18.9457  -30.1463   23.8896 C   0  0  0  0  0  0
  -17.6457  -30.6593   24.0565 C   0  0  0  0  0  0
  -25.9044  -34.9459   23.5103 C   0  0  0  0  0  0
  -16.5347  -29.9092   23.6326 C   0  0  0  0  0  0
  -16.7267  -28.6508   23.0343 C   0  0  0  0  0  0
  -26.4484  -31.6583   25.0706 C   0  0  0  0  0  0
  -25.3725  -31.3710   26.1441 C   0  0  0  0  0  0
  -27.0330  -30.3012   24.6135 C   0  0  0  0  0  0
  -27.6052  -32.4311   25.7465 C   0  0  0  0  0  0
  -27.5574  -37.1802   24.8465 C   0  0  0  0  0  0
  -21.4177  -29.3052   22.3694 N   0  0  0  0  0  0
  -26.4291  -37.3780   23.9406 N   0  0  0  0  0  0
  -24.6813  -31.0657   22.0945 N   0  0  0  0  0  0
  -23.4191  -28.8174   23.3019 O   0  0  0  0  0  0
  -28.3459  -26.5189   20.1299 O   0  0  0  0  0  0
  -26.5631  -34.8929   22.4680 O   0  0  0  0  0  0
  -23.5402  -32.1395   23.7372 O   0  0  0  0  0  0
  -30.2792  -20.7672   20.6136 C   0  0  0  0  0  0
  -27.9944  -20.0929   20.4393 C   0  0  0  0  0  0
  -28.9173  -21.1523   20.6243 C   0  0  0  0  0  0
  -30.6558  -19.4036   20.4205 C   0  0  0  0  0  0
  -29.6464  -18.4142   20.2338 C   0  0  0  0  0  0
  -29.4985  -16.0611   22.1275 C   0  0  0  0  0  0
  -28.4329  -22.5926   21.0210 C   0  0  0  0  0  0
  -29.9447  -16.9283   19.8048 C   0  0  0  0  0  0
  -28.7509  -23.8869   20.1612 C   0  0  0  0  0  0
  -28.1635  -25.2197   20.7947 C   0  0  0  0  0  0
  -32.1370  -19.0386   20.3861 C   0  0  0  0  0  0
  -28.3384  -18.7860   20.2470 N   0  0  0  0  0  0
  -29.9215  -15.7572   20.7583 N   0  0  0  0  0  0
  -32.5055  -18.7868   19.1305 F   0  0  0  0  0  0
  -32.8971  -20.0305   20.8521 F   0  0  0  0  0  0
  -32.3658  -17.9622   21.1372 F   0  0  0  0  0  0
  -31.4705  -12.4860   19.1538 H   0  0  0  0  0  0
  -30.3445  -11.3924   19.9012 H   0  0  0  0  0  0
  -29.7716  -11.7481   17.4811 H   0  0  0  0  0  0
  -29.6540  -13.4703   17.7405 H   0  0  0  0  0  0
  -27.8649  -11.2912   18.8639 H   0  0  0  0  0  0
  -27.3744  -12.5704   17.7880 H   0  0  0  0  0  0
  -27.6683  -14.2527   19.5161 H   0  0  0  0  0  0
  -28.7040  -12.0580   21.3743 H   0  0  0  0  0  0
  -28.4210  -13.7063   21.8331 H   0  0  0  0  0  0
  -25.2765   -9.5693   22.4744 H   0  0  0  0  0  0
  -24.0016   -7.4641   22.7468 H   0  0  0  0  0  0
  -21.0848   -8.8768   19.8944 H   0  0  0  0  0  0
  -22.3695  -10.9674   19.6156 H   0  0  0  0  0  0
  -21.2000   -7.6148   23.9711 H   0  0  0  0  0  0
  -21.1478   -6.0520   25.9073 H   0  0  0  0  0  0
  -22.0603   -2.7608   23.2845 H   0  0  0  0  0  0
  -22.4139  -11.9915   22.4801 H   0  0  0  0  0  0
  -21.1101  -13.1219   22.2548 H   0  0  0  0  0  0
  -24.6734  -15.8496   20.5427 H   0  0  0  0  0  0
  -26.2984  -15.6334   20.1361 H   0  0  0  0  0  0
  -26.7156  -32.5464   23.1094 H   0  0  0  0  0  0
  -25.0056  -33.9736   25.0416 H   0  0  0  0  0  0
  -22.7078  -31.3011   21.3981 H   0  0  0  0  0  0
  -23.3753  -35.9636   23.3310 H   0  0  0  0  0  0
  -24.3575  -36.8918   22.2051 H   0  0  0  0  0  0
  -23.7238  -37.6504   23.6659 H   0  0  0  0  0  0
  -26.0793  -31.5636   20.5956 H   0  0  0  0  0  0
  -26.8343  -30.8544   21.9921 H   0  0  0  0  0  0
  -28.1144  -29.0211   21.1839 H   0  0  0  0  0  0
  -26.0349  -25.9356   19.0085 H   0  0  0  0  0  0
  -23.9805  -27.2964   19.0123 H   0  0  0  0  0  0
  -23.7352  -30.5823   19.3977 H   0  0  0  0  0  0
  -22.7493  -29.2317   19.8659 H   0  0  0  0  0  0
  -25.1286  -36.1941   25.0820 H   0  0  0  0  0  0
  -20.9969  -28.3273   24.1414 H   0  0  0  0  0  0
  -20.5695  -26.2305   23.3616 H   0  0  0  0  0  0
  -21.6644  -26.7466   22.1192 H   0  0  0  0  0  0
  -19.6926  -25.6304   21.1243 H   0  0  0  0  0  0
  -19.6689  -27.3208   20.6757 H   0  0  0  0  0  0
  -17.4198  -26.6685   21.4017 H   0  0  0  0  0  0
  -18.0325  -26.0083   22.9022 H   0  0  0  0  0  0
  -19.7938  -30.7283   24.2261 H   0  0  0  0  0  0
  -17.5014  -31.6269   24.5185 H   0  0  0  0  0  0
  -15.5351  -30.2997   23.7664 H   0  0  0  0  0  0
  -15.8665  -28.0838   22.7061 H   0  0  0  0  0  0
  -24.5889  -30.7078   25.7756 H   0  0  0  0  0  0
  -24.8941  -32.2885   26.4877 H   0  0  0  0  0  0
  -25.8055  -30.8857   27.0200 H   0  0  0  0  0  0
  -26.2894  -29.6750   24.1193 H   0  0  0  0  0  0
  -27.4089  -29.7266   25.4611 H   0  0  0  0  0  0
  -27.8729  -30.4314   23.9310 H   0  0  0  0  0  0
  -27.2674  -33.3615   26.2037 H   0  0  0  0  0  0
  -28.3858  -32.6858   25.0287 H   0  0  0  0  0  0
  -28.0732  -31.8443   26.5382 H   0  0  0  0  0  0
  -28.2599  -38.0092   24.7514 H   0  0  0  0  0  0
  -28.1062  -36.2627   24.6288 H   0  0  0  0  0  0
  -27.2305  -37.1451   25.8873 H   0  0  0  0  0  0
  -20.9366  -29.8763   21.6884 H   0  0  0  0  0  0
  -26.0177  -38.2858   24.1403 H   0  0  0  0  0  0
  -31.0337  -21.5239   20.7761 H   0  0  0  0  0  0
  -26.9329  -20.2889   20.4770 H   0  0  0  0  0  0
  -29.9726  -16.9710   22.4945 H   0  0  0  0  0  0
  -29.7599  -15.2700   22.8322 H   0  0  0  0  0  0
  -28.4172  -16.1965   22.1619 H   0  0  0  0  0  0
  -28.8113  -22.7664   22.0290 H   0  0  0  0  0  0
  -27.3487  -22.5467   21.1378 H   0  0  0  0  0  0
  -30.8832  -16.9250   19.2533 H   0  0  0  0  0  0
  -29.2092  -16.6830   19.0372 H   0  0  0  0  0  0
  -28.3441  -23.7641   19.1577 H   0  0  0  0  0  0
  -29.8302  -23.9942   20.0485 H   0  0  0  0  0  0
  -28.6145  -25.3378   21.7806 H   0  0  0  0  0  0
  -27.1069  -25.0442   21.0017 H   0  0  0  0  0  0
  1 25  1  0  0  0
  1 30  2  0  0  0
  1 83  1  0  0  0
  2  3  1  0  0  0
  2 25  1  0  0  0
  2 87  1  0  0  0
  2 88  1  0  0  0
  3  4  1  0  0  0
  3 89  1  0  0  0
  3 90  1  0  0  0
  4  5  1  0  0  0
  4 91  1  0  0  0
  4 92  1  0  0  0
  5  6  1  0  0  0
  5 26  1  0  0  0
  5 93  1  0  0  0
  6 25  1  0  0  0
  6 94  1  0  0  0
  6 95  1  0  0  0
  7  8  2  0  0  0
  7 26  1  0  0  0
  7 29  1  0  0  0
  8  9  1  0  0  0
  8 22  1  0  0  0
  9 10  1  0  0  0
  9 27  2  0  0  0
 10 11  2  0  0  0
 10 15  1  0  0  0
 11 12  1  0  0  0
 11 96  1  0  0  0
 12 13  2  0  0  0
 12 97  1  0  0  0
 13 14  1  0  0  0
 13 31  1  0  0  0
 14 15  2  0  0  0
 14 98  1  0  0  0
 15 99  1  0  0  0
 16 17  2  0  0  0
 16 21  1  0  0  0
 16 31  1  0  0  0
 17 18  1  0  0  0
 17100  1  0  0  0
 18 19  2  0  0  0
 18101  1  0  0  0
 19 20  1  0  0  0
 19 24  1  0  0  0
 20 21  2  0  0  0
 20102  1  0  0  0
 21 23  1  0  0  0
 22 28  1  0  0  0
 22 32  2  0  0  0
 26 27  1  0  0  0
 28103  1  0  0  0
 28104  1  0  0  0
 29105  1  0  0  0
 29106  1  0  0  0
 33 34  1  0  0  0
 33 66  1  0  0  0
 33 70  2  0  0  0
 34 36  1  0  0  0
 34 59  1  0  0  0
 34107  1  0  0  0
 35 44  2  0  0  0
 35 45  1  0  0  0
 35 68  1  0  0  0
 36 56  1  0  0  0
 36108  1  0  0  0
 37 39  1  0  0  0
 37 47  1  0  0  0
 37 66  1  0  0  0
 37109  1  0  0  0
 38 43  2  0  0  0
 38 46  1  0  0  0
 38 47  1  0  0  0
 39 64  1  0  0  0
 39 67  2  0  0  0
 40 52  1  0  0  0
 40 53  2  0  0  0
 40 58  1  0  0  0
 41110  1  0  0  0
 41111  1  0  0  0
 41112  1  0  0  0
 41 48  1  0  0  0
 42 43  1  0  0  0
 42 66  1  0  0  0
 42113  1  0  0  0
 42114  1  0  0  0
 43 44  1  0  0  0
 44115  1  0  0  0
 45 46  2  0  0  0
 45116  1  0  0  0
 46117  1  0  0  0
 47118  1  0  0  0
 47119  1  0  0  0
 48 56  1  0  0  0
 48 65  1  0  0  0
 48120  1  0  0  0
 49 50  1  0  0  0
 49 53  1  0  0  0
 49 64  1  0  0  0
 49121  1  0  0  0
 50 51  1  0  0  0
 50122  1  0  0  0
 50123  1  0  0  0
 51 52  1  0  0  0
 51124  1  0  0  0
 51125  1  0  0  0
 52126  1  0  0  0
 52127  1  0  0  0
 53 54  1  0  0  0
 54 55  2  0  0  0
 54128  1  0  0  0
 55 57  1  0  0  0
 55129  1  0  0  0
 56 69  2  0  0  0
 57 58  2  0  0  0
 57130  1  0  0  0
 58131  1  0  0  0
 59 60  1  0  0  0
 59 61  1  0  0  0
 59 62  1  0  0  0
 60132  1  0  0  0
 60133  1  0  0  0
 60134  1  0  0  0
 61135  1  0  0  0
 61136  1  0  0  0
 61137  1  0  0  0
 62138  1  0  0  0
 62139  1  0  0  0
 62140  1  0  0  0
 63 65  1  0  0  0
 63141  1  0  0  0
 63142  1  0  0  0
 63143  1  0  0  0
 64144  1  0  0  0
 65145  1  0  0  0
 68 80  1  0  0  0
 71 73  2  0  0  0
 71 74  1  0  0  0
 71146  1  0  0  0
 72 73  1  0  0  0
 72 82  2  0  0  0
 72147  1  0  0  0
 73 77  1  0  0  0
 74 75  2  0  0  0
 74 81  1  0  0  0
 75 78  1  0  0  0
 75 82  1  0  0  0
 76 83  1  0  0  0
 76148  1  0  0  0
 76149  1  0  0  0
 76150  1  0  0  0
 77 79  1  0  0  0
 77151  1  0  0  0
 77152  1  0  0  0
 78 83  1  0  0  0
 78153  1  0  0  0
 78154  1  0  0  0
 79 80  1  0  0  0
 79155  1  0  0  0
 79156  1  0  0  0
 80157  1  0  0  0
 80158  1  0  0  0
 81 84  1  0  0  0
 81 85  1  0  0  0
 81 86  1  0  0  0
M  ISO  4   1 100  68 101  80 101  83 100
M  END
> <chiral flag>
0

> <version>
0

> <s_m_source_file>
/data/baiqing/PycharmProjects/Reinvent-master-3.2/result/LINK_invent/BTK/process_docking_weight1_custom_sum_contain_oxygen_bond_distance_aromatic_linkinvent_7_9_3/rearranged_h_0064.sdf

> <i_m_source_file_index>
34

> <r_mmod_Potential_Energy-OPLS-2005>
32.4435005187988

> <r_mmod_Stretch_Energy-OPLS-2005>
74.2292938232422

> <r_mmod_Bend_Energy-OPLS-2005>
137.891860961914

> <r_mmod_Torsional_Energy-OPLS-2005>
289.030517578125

> <r_mmod_Improper_Torsional_Energy-OPLS-2005>
11.4681529998779

> <r_mmod_Van_der_Waal_Energy-OPLS-2005>
144.415725708008

> <r_mmod_Electrostatic_Energy-OPLS-2005>
-473.491577148438

> <r_mmod_Solvation_Energy-OPLS-2005>
-189.693939208984

> <b_mmod_Minimization_Converged-OPLS-2005>
0

> <r_mmod_RMS_Derivative-OPLS-2005>
1.90591633319855

$$$$
35
                    3D
 Structure written by MMmdl.
163171  0  0  1  0            999 V2000
  -30.6206  -14.7091   20.4709 C   0  0  0  0  0  0
  -30.4199  -12.4262   19.4767 C   0  0  0  0  0  0
  -29.5057  -12.5171   18.2334 C   0  0  0  0  0  0
  -28.0203  -12.3688   18.6196 C   0  0  0  0  0  0
  -27.6393  -13.2382   19.8481 C   0  0  2  0  0  0
  -28.6818  -13.1300   20.9833 C   0  0  0  0  0  0
  -25.2482  -13.8209   20.5656 C   0  0  0  0  0  0
  -24.1776  -13.0450   20.9156 C   0  0  0  0  0  0
  -24.6360  -11.6913   20.8685 C   0  0  0  0  0  0
  -23.9060  -10.4278   21.0382 C   0  0  0  0  0  0
  -24.3635   -9.4218   21.9177 C   0  0  0  0  0  0
  -23.6313   -8.2255   22.0754 C   0  0  0  0  0  0
  -22.4298   -8.0261   21.3536 C   0  0  0  0  0  0
  -21.9916   -9.0232   20.4648 C   0  0  0  0  0  0
  -22.7228  -10.2111   20.3039 C   0  0  0  0  0  0
  -21.6869   -6.0739   22.5280 C   0  0  0  0  0  0
  -21.4034   -6.5655   23.8210 C   0  0  0  0  0  0
  -21.3655   -5.6800   24.9178 C   0  0  0  0  0  0
  -21.6048   -4.3062   24.7222 C   0  0  0  0  0  0
  -21.8823   -3.8155   23.4343 C   0  0  0  0  0  0
  -21.9204   -4.6971   22.3400 C   0  0  0  0  0  0
  -22.7796  -13.5193   21.1841 C   0  0  0  0  0  0
  -22.1656   -4.2148   21.0976 F   0  0  0  0  0  0
  -21.5613   -3.4545   25.7746 F   0  0  0  0  0  0
  -29.9964  -13.4807   20.4250 N   0  0  0  0  0  0
  -26.2899  -12.9420   20.3219 N   0  0  0  0  0  0
  -25.9284  -11.6551   20.5680 N   0  0  0  0  0  0
  -22.0495  -12.8159   22.0416 N   0  0  0  0  0  0
  -25.4212  -15.1938   20.4074 N   0  0  0  0  0  0
  -31.7885  -14.8294   20.0899 O   0  0  0  0  0  0
  -21.6645   -6.8884   21.4239 O   0  0  0  0  0  0
  -22.3429  -14.5485   20.6697 O   0  0  0  0  0  0
  -24.6311  -31.8548   23.1988 C   0  0  0  0  0  0
  -25.9139  -32.4757   23.8344 C   0  0  1  0  0  0
  -27.2289  -27.2487   20.1213 C   0  0  0  0  0  0
  -25.5945  -33.8554   24.2261 N   0  0  0  0  0  0
  -23.4249  -30.4732   21.5424 C   0  0  2  0  0  0
  -24.8720  -28.9161   20.1104 C   0  0  0  0  0  0
  -22.7495  -29.4586   22.4947 C   0  0  0  0  0  0
  -18.0276  -28.1369   22.8459 C   0  0  0  0  0  0
  -24.1484  -36.7283   23.2645 C   0  0  0  0  0  0
  -25.9704  -30.7573   21.3778 C   0  0  0  0  0  0
  -26.0432  -29.3753   20.7270 C   0  0  0  0  0  0
  -27.2155  -28.5518   20.7282 C   0  0  0  0  0  0
  -26.0335  -26.8650   19.4671 C   0  0  0  0  0  0
  -24.8746  -27.6662   19.4732 C   0  0  0  0  0  0
  -23.6414  -29.8036   20.1579 C   0  0  0  0  0  0
  -25.4116  -36.3087   24.0337 C   0  0  1  0  0  0
  -20.5872  -28.3693   23.1253 C   0  0  2  0  0  0
  -20.6757  -26.9413   22.5405 C   0  0  0  0  0  0
  -19.5751  -26.6356   21.5202 C   0  0  0  0  0  0
  -18.1924  -26.7905   22.1601 C   0  0  0  0  0  0
  -19.1530  -28.8847   23.2839 C   0  0  0  0  0  0
  -18.9460  -30.1431   23.8873 C   0  0  0  0  0  0
  -17.6466  -30.6579   24.0527 C   0  0  0  0  0  0
  -25.9060  -34.9456   23.5097 C   0  0  0  0  0  0
  -16.5355  -29.9067   23.6314 C   0  0  0  0  0  0
  -16.7267  -28.6474   23.0361 C   0  0  0  0  0  0
  -26.4520  -31.6570   25.0731 C   0  0  0  0  0  0
  -25.3740  -31.3670   26.1442 C   0  0  0  0  0  0
  -27.0340  -30.2990   24.6168 C   0  0  0  0  0  0
  -27.6081  -32.4310   25.7480 C   0  0  0  0  0  0
  -27.5559  -37.1805   24.8467 C   0  0  0  0  0  0
  -21.4206  -29.3038   22.3679 N   0  0  0  0  0  0
  -26.4281  -37.3792   23.9411 N   0  0  0  0  0  0
  -24.6944  -31.0502   22.0940 N   0  0  0  0  0  0
  -23.4205  -28.8110   23.3032 O   0  0  0  0  0  0
  -28.3399  -26.3676   20.1982 O   0  0  0  0  0  0
  -26.5633  -34.8927   22.4666 O   0  0  0  0  0  0
  -23.5463  -32.1349   23.7282 O   0  0  0  0  0  0
  -28.9224  -22.0945   18.4796 C   0  0  0  0  0  0
  -29.2341  -20.8434   17.9263 C   0  0  0  0  0  0
  -29.0652  -22.2668   19.8668 C   0  0  0  0  0  0
  -29.6190  -19.9328   20.0053 C   0  0  0  0  0  0
  -29.1941  -20.6090   16.4297 C   0  0  0  0  0  0
  -30.5979  -24.1196   20.5290 C   0  0  0  0  0  0
  -28.5948  -23.6525   21.9583 C   0  0  0  0  0  0
  -31.3461  -18.7682   21.4927 C   0  0  0  0  0  0
  -29.9429  -17.1955   20.0197 C   0  0  0  0  0  0
  -28.2684  -24.9177   19.7648 C   0  0  0  0  0  0
  -29.1076  -23.7347   20.5066 C   0  0  0  0  0  0
  -29.9655  -18.5990   20.8307 C   0  0  2  0  0  0
  -29.5994  -19.7962   18.6825 N   0  0  0  0  0  0
  -29.4122  -21.1454   20.6071 N   0  0  0  0  0  0
  -29.8463  -15.8243   20.6961 N   0  0  0  0  0  0
  -29.0480  -18.4708   21.7962 F   0  0  0  0  0  0
  -31.4676  -12.5303   19.1847 H   0  0  0  0  0  0
  -30.3293  -11.4426   19.9418 H   0  0  0  0  0  0
  -29.7789  -11.7518   17.5064 H   0  0  0  0  0  0
  -29.6548  -13.4816   17.7441 H   0  0  0  0  0  0
  -27.8302  -11.3146   18.8285 H   0  0  0  0  0  0
  -27.3826  -12.6274   17.7686 H   0  0  0  0  0  0
  -27.6407  -14.2705   19.4993 H   0  0  0  0  0  0
  -28.6996  -12.1125   21.3730 H   0  0  0  0  0  0
  -28.4171  -13.7747   21.8205 H   0  0  0  0  0  0
  -25.2781   -9.5689   22.4729 H   0  0  0  0  0  0
  -24.0034   -7.4648   22.7470 H   0  0  0  0  0  0
  -21.0845   -8.8726   19.8952 H   0  0  0  0  0  0
  -22.3674  -10.9642   19.6130 H   0  0  0  0  0  0
  -21.2032   -7.6158   23.9702 H   0  0  0  0  0  0
  -21.1470   -6.0541   25.9079 H   0  0  0  0  0  0
  -22.0613   -2.7608   23.2837 H   0  0  0  0  0  0
  -22.4146  -11.9800   22.4729 H   0  0  0  0  0  0
  -21.1103  -13.1155   22.2742 H   0  0  0  0  0  0
  -24.6614  -15.8567   20.5173 H   0  0  0  0  0  0
  -26.2739  -15.6239   20.0725 H   0  0  0  0  0  0
  -26.7199  -32.5367   23.1069 H   0  0  0  0  0  0
  -25.0154  -33.9705   25.0443 H   0  0  0  0  0  0
  -22.7241  -31.2979   21.3994 H   0  0  0  0  0  0
  -23.3758  -35.9606   23.3325 H   0  0  0  0  0  0
  -24.3569  -36.8891   22.2055 H   0  0  0  0  0  0
  -23.7212  -37.6487   23.6644 H   0  0  0  0  0  0
  -26.1042  -31.5085   20.5971 H   0  0  0  0  0  0
  -26.8495  -30.8109   22.0070 H   0  0  0  0  0  0
  -28.1064  -28.8916   21.2395 H   0  0  0  0  0  0
  -25.9569  -25.9246   18.9484 H   0  0  0  0  0  0
  -23.9811  -27.3084   18.9799 H   0  0  0  0  0  0
  -23.7641  -30.5777   19.4011 H   0  0  0  0  0  0
  -22.7545  -29.2423   19.8522 H   0  0  0  0  0  0
  -25.1290  -36.1962   25.0835 H   0  0  0  0  0  0
  -20.9930  -28.3269   24.1384 H   0  0  0  0  0  0
  -20.5593  -26.2342   23.3629 H   0  0  0  0  0  0
  -21.6639  -26.7406   22.1246 H   0  0  0  0  0  0
  -19.6929  -25.6247   21.1264 H   0  0  0  0  0  0
  -19.6683  -27.3135   20.6693 H   0  0  0  0  0  0
  -17.4192  -26.6645   21.4002 H   0  0  0  0  0  0
  -18.0333  -26.0050   22.8981 H   0  0  0  0  0  0
  -19.7947  -30.7219   24.2284 H   0  0  0  0  0  0
  -17.5032  -31.6256   24.5124 H   0  0  0  0  0  0
  -15.5355  -30.2956   23.7656 H   0  0  0  0  0  0
  -15.8670  -28.0753   22.7145 H   0  0  0  0  0  0
  -24.6000  -30.6926   25.7763 H   0  0  0  0  0  0
  -24.8812  -32.2790   26.4813 H   0  0  0  0  0  0
  -25.8073  -30.8906   27.0244 H   0  0  0  0  0  0
  -26.2883  -29.6764   24.1211 H   0  0  0  0  0  0
  -27.4052  -29.7232   25.4656 H   0  0  0  0  0  0
  -27.8765  -30.4292   23.9379 H   0  0  0  0  0  0
  -27.2747  -33.3673   26.1960 H   0  0  0  0  0  0
  -28.3932  -32.6753   25.0313 H   0  0  0  0  0  0
  -28.0703  -31.8486   26.5467 H   0  0  0  0  0  0
  -28.2607  -38.0073   24.7515 H   0  0  0  0  0  0
  -28.1036  -36.2610   24.6312 H   0  0  0  0  0  0
  -27.2278  -37.1475   25.8872 H   0  0  0  0  0  0
  -20.9436  -29.8830   21.6917 H   0  0  0  0  0  0
  -26.0171  -38.2875   24.1412 H   0  0  0  0  0  0
  -28.6514  -22.9082   17.8229 H   0  0  0  0  0  0
  -28.1941  -20.8171   16.0526 H   0  0  0  0  0  0
  -29.4597  -19.5814   16.1740 H   0  0  0  0  0  0
  -29.8937  -21.2744   15.9225 H   0  0  0  0  0  0
  -31.1625  -23.4158   21.1415 H   0  0  0  0  0  0
  -30.7666  -25.1116   20.9403 H   0  0  0  0  0  0
  -31.0275  -24.0934   19.5276 H   0  0  0  0  0  0
  -29.1861  -22.9460   22.5431 H   0  0  0  0  0  0
  -27.5585  -23.3205   21.9983 H   0  0  0  0  0  0
  -28.6609  -24.6155   22.4632 H   0  0  0  0  0  0
  -32.1158  -18.9066   20.7321 H   0  0  0  0  0  0
  -31.6182  -17.9014   22.0966 H   0  0  0  0  0  0
  -31.3708  -19.6469   22.1396 H   0  0  0  0  0  0
  -29.0577  -17.2361   19.3840 H   0  0  0  0  0  0
  -30.7862  -17.1968   19.3251 H   0  0  0  0  0  0
  -27.2436  -24.5524   19.7808 H   0  0  0  0  0  0
  -28.5561  -24.9260   18.7145 H   0  0  0  0  0  0
  -28.9300  -15.6159   21.0676 H   0  0  0  0  0  0
  1 25  1  0  0  0
  1 30  2  0  0  0
  1 85  1  0  0  0
  2  3  1  0  0  0
  2 25  1  0  0  0
  2 87  1  0  0  0
  2 88  1  0  0  0
  3  4  1  0  0  0
  3 89  1  0  0  0
  3 90  1  0  0  0
  4  5  1  0  0  0
  4 91  1  0  0  0
  4 92  1  0  0  0
  5  6  1  0  0  0
  5 26  1  0  0  0
  5 93  1  0  0  0
  6 25  1  0  0  0
  6 94  1  0  0  0
  6 95  1  0  0  0
  7  8  2  0  0  0
  7 26  1  0  0  0
  7 29  1  0  0  0
  8  9  1  0  0  0
  8 22  1  0  0  0
  9 10  1  0  0  0
  9 27  2  0  0  0
 10 11  2  0  0  0
 10 15  1  0  0  0
 11 12  1  0  0  0
 11 96  1  0  0  0
 12 13  2  0  0  0
 12 97  1  0  0  0
 13 14  1  0  0  0
 13 31  1  0  0  0
 14 15  2  0  0  0
 14 98  1  0  0  0
 15 99  1  0  0  0
 16 17  2  0  0  0
 16 21  1  0  0  0
 16 31  1  0  0  0
 17 18  1  0  0  0
 17100  1  0  0  0
 18 19  2  0  0  0
 18101  1  0  0  0
 19 20  1  0  0  0
 19 24  1  0  0  0
 20 21  2  0  0  0
 20102  1  0  0  0
 21 23  1  0  0  0
 22 28  1  0  0  0
 22 32  2  0  0  0
 26 27  1  0  0  0
 28103  1  0  0  0
 28104  1  0  0  0
 29105  1  0  0  0
 29106  1  0  0  0
 33 34  1  0  0  0
 33 66  1  0  0  0
 33 70  2  0  0  0
 34 36  1  0  0  0
 34 59  1  0  0  0
 34107  1  0  0  0
 35 44  2  0  0  0
 35 45  1  0  0  0
 35 68  1  0  0  0
 36 56  1  0  0  0
 36108  1  0  0  0
 37 39  1  0  0  0
 37 47  1  0  0  0
 37 66  1  0  0  0
 37109  1  0  0  0
 38 43  2  0  0  0
 38 46  1  0  0  0
 38 47  1  0  0  0
 39 64  1  0  0  0
 39 67  2  0  0  0
 40 52  1  0  0  0
 40 53  2  0  0  0
 40 58  1  0  0  0
 41110  1  0  0  0
 41111  1  0  0  0
 41112  1  0  0  0
 41 48  1  0  0  0
 42 43  1  0  0  0
 42 66  1  0  0  0
 42113  1  0  0  0
 42114  1  0  0  0
 43 44  1  0  0  0
 44115  1  0  0  0
 45 46  2  0  0  0
 45116  1  0  0  0
 46117  1  0  0  0
 47118  1  0  0  0
 47119  1  0  0  0
 48 56  1  0  0  0
 48 65  1  0  0  0
 48120  1  0  0  0
 49 50  1  0  0  0
 49 53  1  0  0  0
 49 64  1  0  0  0
 49121  1  0  0  0
 50 51  1  0  0  0
 50122  1  0  0  0
 50123  1  0  0  0
 51 52  1  0  0  0
 51124  1  0  0  0
 51125  1  0  0  0
 52126  1  0  0  0
 52127  1  0  0  0
 53 54  1  0  0  0
 54 55  2  0  0  0
 54128  1  0  0  0
 55 57  1  0  0  0
 55129  1  0  0  0
 56 69  2  0  0  0
 57 58  2  0  0  0
 57130  1  0  0  0
 58131  1  0  0  0
 59 60  1  0  0  0
 59 61  1  0  0  0
 59 62  1  0  0  0
 60132  1  0  0  0
 60133  1  0  0  0
 60134  1  0  0  0
 61135  1  0  0  0
 61136  1  0  0  0
 61137  1  0  0  0
 62138  1  0  0  0
 62139  1  0  0  0
 62140  1  0  0  0
 63 65  1  0  0  0
 63141  1  0  0  0
 63142  1  0  0  0
 63143  1  0  0  0
 64144  1  0  0  0
 65145  1  0  0  0
 68 80  1  0  0  0
 71 72  2  0  0  0
 71 73  1  0  0  0
 71146  1  0  0  0
 72 75  1  0  0  0
 72 83  1  0  0  0
 73 81  1  0  0  0
 73 84  2  0  0  0
 74 82  1  0  0  0
 74 83  2  0  0  0
 74 84  1  0  0  0
 75147  1  0  0  0
 75148  1  0  0  0
 75149  1  0  0  0
 76150  1  0  0  0
 76151  1  0  0  0
 76152  1  0  0  0
 76 81  1  0  0  0
 77 81  1  0  0  0
 77153  1  0  0  0
 77154  1  0  0  0
 77155  1  0  0  0
 78156  1  0  0  0
 78157  1  0  0  0
 78158  1  0  0  0
 78 82  1  0  0  0
 79 82  1  0  0  0
 79 85  1  0  0  0
 79159  1  0  0  0
 79160  1  0  0  0
 80 81  1  0  0  0
 80161  1  0  0  0
 80162  1  0  0  0
 82 86  1  0  0  0
 85163  1  0  0  0
M  ISO  4   1 100  68 101  80 101  85 100
M  END
> <chiral flag>
0

> <version>
0

> <s_m_source_file>
/data/baiqing/PycharmProjects/Reinvent-master-3.2/result/LINK_invent/BTK/process_docking_weight1_custom_sum_contain_oxygen_bond_distance_aromatic_linkinvent_7_9_3/rearranged_h_0064.sdf

> <i_m_source_file_index>
35

> <r_mmod_Potential_Energy-OPLS-2005>
-240.684509277344

> <r_mmod_Stretch_Energy-OPLS-2005>
127.358108520508

> <r_mmod_Bend_Energy-OPLS-2005>
178.170104980469

> <r_mmod_Torsional_Energy-OPLS-2005>
222.031875610352

> <r_mmod_Improper_Torsional_Energy-OPLS-2005>
9.07406616210938

> <r_mmod_Van_der_Waal_Energy-OPLS-2005>
145.147674560547

> <r_mmod_Electrostatic_Energy-OPLS-2005>
-782.836608886719

> <r_mmod_Solvation_Energy-OPLS-2005>
-217.160995483398

> <b_mmod_Minimization_Converged-OPLS-2005>
0

> <r_mmod_RMS_Derivative-OPLS-2005>
5.56923866271973

$$$$
36
                    3D
 Structure written by MMmdl.
172180  0  0  1  0            999 V2000
  -30.1747  -15.5794   20.6400 C   0  0  0  0  0  0
  -30.4093  -13.0588   19.6846 C   0  0  0  0  0  0
  -29.5742  -12.7112   18.4067 C   0  0  0  0  0  0
  -28.1281  -12.3457   18.7724 C   0  0  0  0  0  0
  -27.5944  -13.3040   19.8617 C   0  0  2  0  0  0
  -28.5565  -13.5222   21.0521 C   0  0  0  0  0  0
  -25.2217  -13.8267   20.5751 C   0  0  0  0  0  0
  -24.1619  -13.0403   20.9216 C   0  0  0  0  0  0
  -24.6328  -11.6914   20.8695 C   0  0  0  0  0  0
  -23.9066  -10.4270   21.0361 C   0  0  0  0  0  0
  -24.3632   -9.4198   21.9145 C   0  0  0  0  0  0
  -23.6308   -8.2233   22.0733 C   0  0  0  0  0  0
  -22.4282   -8.0266   21.3535 C   0  0  0  0  0  0
  -21.9905   -9.0225   20.4631 C   0  0  0  0  0  0
  -22.7233  -10.2099   20.3020 C   0  0  0  0  0  0
  -21.6863   -6.0732   22.5282 C   0  0  0  0  0  0
  -21.4032   -6.5638   23.8216 C   0  0  0  0  0  0
  -21.3660   -5.6788   24.9175 C   0  0  0  0  0  0
  -21.6047   -4.3051   24.7224 C   0  0  0  0  0  0
  -21.8818   -3.8141   23.4345 C   0  0  0  0  0  0
  -21.9196   -4.6959   22.3402 C   0  0  0  0  0  0
  -22.7654  -13.5133   21.1922 C   0  0  0  0  0  0
  -22.1663   -4.2145   21.0980 F   0  0  0  0  0  0
  -21.5615   -3.4537   25.7736 F   0  0  0  0  0  0
  -29.7619  -14.1783   20.5297 N   0  0  0  0  0  0
  -26.2635  -12.9585   20.3190 N   0  0  0  0  0  0
  -25.9260  -11.6651   20.5639 N   0  0  0  0  0  0
  -22.0393  -12.8075   22.0504 N   0  0  0  0  0  0
  -25.3848  -15.2018   20.4338 N   0  0  0  0  0  0
  -31.3367  -15.6519   20.1861 O   0  0  0  0  0  0
  -21.6643   -6.8867   21.4241 O   0  0  0  0  0  0
  -22.3321  -14.5448   20.6808 O   0  0  0  0  0  0
  -24.7719  -31.5650   23.3986 C   0  0  0  0  0  0
  -25.9685  -32.3995   23.9175 C   0  0  1  0  0  0
  -27.4554  -27.3075   19.3838 C   0  0  0  0  0  0
  -25.5651  -33.7986   24.2062 N   0  0  0  0  0  0
  -23.5557  -29.8143   21.9375 C   0  0  2  0  0  0
  -25.2641  -28.7089   19.5626 C   0  0  0  0  0  0
  -22.5657  -29.2414   22.8258 C   0  0  0  0  0  0
  -17.9409  -28.1286   22.8260 C   0  0  0  0  0  0
  -24.1468  -36.7044   23.2585 C   0  0  0  0  0  0
  -26.5772  -30.0422   21.9869 C   0  0  0  0  0  0
  -26.6525  -29.1712   20.3467 C   0  0  0  0  0  0
  -27.7615  -28.4450   20.1246 C   0  0  0  0  0  0
  -26.4944  -27.2242   18.3708 C   0  0  0  0  0  0
  -25.3068  -27.9423   18.4437 C   0  0  0  0  0  0
  -23.6596  -28.9077   20.3510 C   0  0  0  0  0  0
  -25.4075  -36.2701   24.0244 C   0  0  1  0  0  0
  -20.4460  -28.2774   23.1550 C   0  0  2  0  0  0
  -20.5598  -26.8611   22.5608 C   0  0  0  0  0  0
  -19.4914  -26.6031   21.5081 C   0  0  0  0  0  0
  -18.1028  -26.7842   22.1326 C   0  0  0  0  0  0
  -19.0623  -28.8563   23.2752 C   0  0  0  0  0  0
  -18.8990  -30.1210   23.8794 C   0  0  0  0  0  0
  -17.6148  -30.6603   24.0491 C   0  0  0  0  0  0
  -25.9014  -34.8955   23.5047 C   0  0  0  0  0  0
  -16.4917  -29.9264   23.6274 C   0  0  0  0  0  0
  -16.6547  -28.6649   23.0218 C   0  0  0  0  0  0
  -26.5436  -31.7187   25.2125 C   0  0  0  0  0  0
  -25.4507  -31.4027   26.2644 C   0  0  0  0  0  0
  -27.2974  -30.4092   24.9357 C   0  0  0  0  0  0
  -27.6245  -32.6128   25.8426 C   0  0  0  0  0  0
  -27.5486  -37.1609   24.8454 C   0  0  0  0  0  0
  -21.3156  -29.1607   22.4219 N   0  0  0  0  0  0
  -26.4235  -37.3445   23.9349 N   0  0  0  0  0  0
  -24.9926  -30.3836   22.7095 N   0  0  0  0  0  0
  -22.9257  -28.8277   23.8983 O   0  0  0  0  0  0
  -27.0246  -26.3093   20.1238 O   0  0  0  0  0  0
  -26.5887  -34.8484   22.4810 O   0  0  0  0  0  0
  -23.6375  -32.0016   23.6656 O   0  0  0  0  0  0
  -27.9323  -26.0113   22.5434 C   0  0  0  0  0  0
  -28.4182  -24.6686   22.4325 C   0  0  0  0  0  0
  -26.4917  -26.2518   22.3105 C   0  0  0  0  0  0
  -26.3112  -24.7052   22.4203 C   0  0  0  0  0  0
  -27.4376  -21.3360   23.6082 C   0  0  0  0  0  0
  -25.0488  -30.7948   20.4403 C   0  0  0  0  0  0
  -25.3263  -27.7673   23.4546 C   0  0  0  0  0  0
  -29.1418  -21.0245   20.1430 C   0  0  0  0  0  0
  -30.0936  -20.4909   22.3544 C   0  0  0  0  0  0
  -28.7350  -18.4937   20.9900 C   0  0  0  0  0  0
  -25.5973  -26.5723   20.8007 C   0  0  0  0  0  0
  -27.6279  -21.8223   22.1580 C   0  0  2  0  0  0
  -25.3832  -27.9433   21.8571 C   0  0  0  0  0  0
  -24.9602  -24.0246   22.5735 C   0  0  0  0  0  0
  -28.8127  -20.3959   21.5068 C   0  0  0  0  0  0
  -27.4585  -23.6436   22.2554 N   0  0  0  0  0  0
  -29.3576  -16.8107   21.1652 N   0  0  0  0  0  0
  -23.9513  -24.8775   22.7535 F   0  0  0  0  0  0
  -24.6679  -23.2813   21.5050 F   0  0  0  0  0  0
  -24.9230  -23.2259   23.6349 F   0  0  0  0  0  0
  -31.4205  -13.3322   19.3826 H   0  0  0  0  0  0
  -30.5398  -12.1621   20.2929 H   0  0  0  0  0  0
  -30.0400  -11.8955   17.8533 H   0  0  0  0  0  0
  -29.5704  -13.5739   17.7385 H   0  0  0  0  0  0
  -28.1178  -11.3204   19.1405 H   0  0  0  0  0  0
  -27.4884  -12.3671   17.8899 H   0  0  0  0  0  0
  -27.5031  -14.2660   19.3550 H   0  0  0  0  0  0
  -28.7740  -12.5881   21.5728 H   0  0  0  0  0  0
  -28.0932  -14.1801   21.7880 H   0  0  0  0  0  0
  -25.2789   -9.5683   22.4698 H   0  0  0  0  0  0
  -24.0026   -7.4630   22.7452 H   0  0  0  0  0  0
  -21.0832   -8.8736   19.8951 H   0  0  0  0  0  0
  -22.3685  -10.9623   19.6115 H   0  0  0  0  0  0
  -21.2048   -7.6151   23.9724 H   0  0  0  0  0  0
  -21.1483   -6.0517   25.9078 H   0  0  0  0  0  0
  -22.0600   -2.7606   23.2848 H   0  0  0  0  0  0
  -22.4111  -11.9726   22.4791 H   0  0  0  0  0  0
  -21.1024  -13.1026   22.2842 H   0  0  0  0  0  0
  -24.6149  -15.8491   20.5622 H   0  0  0  0  0  0
  -26.2340  -15.6545   20.1181 H   0  0  0  0  0  0
  -26.7550  -32.4506   23.1703 H   0  0  0  0  0  0
  -24.9282  -33.9158   24.9797 H   0  0  0  0  0  0
  -22.9633  -30.7012   21.6885 H   0  0  0  0  0  0
  -23.3668  -35.9434   23.3218 H   0  0  0  0  0  0
  -24.3560  -36.8722   22.2012 H   0  0  0  0  0  0
  -23.7327  -37.6263   23.6658 H   0  0  0  0  0  0
  -27.1887  -30.9349   21.8799 H   0  0  0  0  0  0
  -27.1923  -29.4241   22.6335 H   0  0  0  0  0  0
  -28.5536  -28.4498   20.8596 H   0  0  0  0  0  0
  -26.4900  -26.3540   17.7276 H   0  0  0  0  0  0
  -24.4358  -27.6703   17.8657 H   0  0  0  0  0  0
  -22.9852  -29.3796   19.6346 H   0  0  0  0  0  0
  -23.1938  -27.9301   20.4789 H   0  0  0  0  0  0
  -25.1242  -36.1509   25.0732 H   0  0  0  0  0  0
  -20.7283  -28.1855   24.2077 H   0  0  0  0  0  0
  -20.4136  -26.1388   23.3659 H   0  0  0  0  0  0
  -21.5570  -26.6536   22.1702 H   0  0  0  0  0  0
  -19.5930  -25.5965   21.1013 H   0  0  0  0  0  0
  -19.6189  -27.2939   20.6742 H   0  0  0  0  0  0
  -17.3389  -26.6792   21.3608 H   0  0  0  0  0  0
  -17.9139  -25.9949   22.8629 H   0  0  0  0  0  0
  -19.7639  -30.6731   24.2240 H   0  0  0  0  0  0
  -17.4889  -31.6291   24.5144 H   0  0  0  0  0  0
  -15.4988  -30.3358   23.7653 H   0  0  0  0  0  0
  -15.7817  -28.1179   22.6949 H   0  0  0  0  0  0
  -24.7617  -30.6192   25.9437 H   0  0  0  0  0  0
  -24.8589  -32.2829   26.5134 H   0  0  0  0  0  0
  -25.8960  -31.0476   27.1942 H   0  0  0  0  0  0
  -26.6522  -29.5982   24.6835 H   0  0  0  0  0  0
  -27.7925  -30.0571   25.8419 H   0  0  0  0  0  0
  -28.0945  -30.5334   24.2043 H   0  0  0  0  0  0
  -27.2262  -33.5678   26.1813 H   0  0  0  0  0  0
  -28.4246  -32.8317   25.1333 H   0  0  0  0  0  0
  -28.0827  -32.1496   26.7180 H   0  0  0  0  0  0
  -28.2513  -37.9884   24.7394 H   0  0  0  0  0  0
  -28.0974  -36.2399   24.6415 H   0  0  0  0  0  0
  -27.2170  -37.1397   25.8849 H   0  0  0  0  0  0
  -21.0186  -29.5301   21.5289 H   0  0  0  0  0  0
  -26.0065  -38.2523   24.1192 H   0  0  0  0  0  0
  -28.6351  -26.8259   22.6443 H   0  0  0  0  0  0
  -29.4523  -24.3487   22.4859 H   0  0  0  0  0  0
  -27.2897  -20.2555   23.6390 H   0  0  0  0  0  0
  -26.5911  -21.7770   24.1206 H   0  0  0  0  0  0
  -28.3168  -21.5589   24.2086 H   0  0  0  0  0  0
  -25.9454  -31.3811   20.1803 H   0  0  0  0  0  0
  -24.5011  -31.6612   20.8360 H   0  0  0  0  0  0
  -24.5961  -30.8817   19.4399 H   0  0  0  0  0  0
  -26.2883  -27.6351   23.9591 H   0  0  0  0  0  0
  -24.6809  -26.9399   23.7491 H   0  0  0  0  0  0
  -25.0474  -28.5657   24.1069 H   0  0  0  0  0  0
  -29.9902  -20.5410   19.6555 H   0  0  0  0  0  0
  -29.3764  -22.0866   20.2339 H   0  0  0  0  0  0
  -28.2862  -20.9388   19.4713 H   0  0  0  0  0  0
  -30.9440  -20.0280   21.8504 H   0  0  0  0  0  0
  -29.9778  -19.9830   23.3128 H   0  0  0  0  0  0
  -30.3606  -21.5297   22.5569 H   0  0  0  0  0  0
  -28.7407  -18.5443   19.9000 H   0  0  0  0  0  0
  -27.6870  -18.2921   21.2025 H   0  0  0  0  0  0
  -24.7943  -26.5029   20.0824 H   0  0  0  0  0  0
  -24.9448  -25.7029   20.9092 H   0  0  0  0  0  0
  -26.7061  -21.5641   21.6339 H   0  0  0  0  0  0
  -28.6562  -16.3558   21.7346 H   0  0  0  0  0  0
  1 25  1  0  0  0
  1 30  2  0  0  0
  1 87  1  0  0  0
  2  3  1  0  0  0
  2 25  1  0  0  0
  2 91  1  0  0  0
  2 92  1  0  0  0
  3  4  1  0  0  0
  3 93  1  0  0  0
  3 94  1  0  0  0
  4  5  1  0  0  0
  4 95  1  0  0  0
  4 96  1  0  0  0
  5  6  1  0  0  0
  5 26  1  0  0  0
  5 97  1  0  0  0
  6 25  1  0  0  0
  6 98  1  0  0  0
  6 99  1  0  0  0
  7  8  2  0  0  0
  7 26  1  0  0  0
  7 29  1  0  0  0
  8  9  1  0  0  0
  8 22  1  0  0  0
  9 10  1  0  0  0
  9 27  2  0  0  0
 10 11  2  0  0  0
 10 15  1  0  0  0
 11 12  1  0  0  0
 11100  1  0  0  0
 12 13  2  0  0  0
 12101  1  0  0  0
 13 14  1  0  0  0
 13 31  1  0  0  0
 14 15  2  0  0  0
 14102  1  0  0  0
 15103  1  0  0  0
 16 17  2  0  0  0
 16 21  1  0  0  0
 16 31  1  0  0  0
 17 18  1  0  0  0
 17104  1  0  0  0
 18 19  2  0  0  0
 18105  1  0  0  0
 19 20  1  0  0  0
 19 24  1  0  0  0
 20 21  2  0  0  0
 20106  1  0  0  0
 21 23  1  0  0  0
 22 28  1  0  0  0
 22 32  2  0  0  0
 26 27  1  0  0  0
 28107  1  0  0  0
 28108  1  0  0  0
 29109  1  0  0  0
 29110  1  0  0  0
 33 34  1  0  0  0
 33 66  1  0  0  0
 33 70  2  0  0  0
 34 36  1  0  0  0
 34 59  1  0  0  0
 34111  1  0  0  0
 35 44  2  0  0  0
 35 45  1  0  0  0
 35 68  1  0  0  0
 36 56  1  0  0  0
 36112  1  0  0  0
 37 39  1  0  0  0
 37 47  1  0  0  0
 37 66  1  0  0  0
 37113  1  0  0  0
 38 43  2  0  0  0
 38 46  1  0  0  0
 38 47  1  0  0  0
 39 64  1  0  0  0
 39 67  2  0  0  0
 40 52  1  0  0  0
 40 53  2  0  0  0
 40 58  1  0  0  0
 41114  1  0  0  0
 41115  1  0  0  0
 41116  1  0  0  0
 41 48  1  0  0  0
 42 43  1  0  0  0
 42 66  1  0  0  0
 42117  1  0  0  0
 42118  1  0  0  0
 43 44  1  0  0  0
 44119  1  0  0  0
 45 46  2  0  0  0
 45120  1  0  0  0
 46121  1  0  0  0
 47122  1  0  0  0
 47123  1  0  0  0
 48 56  1  0  0  0
 48 65  1  0  0  0
 48124  1  0  0  0
 49 50  1  0  0  0
 49 53  1  0  0  0
 49 64  1  0  0  0
 49125  1  0  0  0
 50 51  1  0  0  0
 50126  1  0  0  0
 50127  1  0  0  0
 51 52  1  0  0  0
 51128  1  0  0  0
 51129  1  0  0  0
 52130  1  0  0  0
 52131  1  0  0  0
 53 54  1  0  0  0
 54 55  2  0  0  0
 54132  1  0  0  0
 55 57  1  0  0  0
 55133  1  0  0  0
 56 69  2  0  0  0
 57 58  2  0  0  0
 57134  1  0  0  0
 58135  1  0  0  0
 59 60  1  0  0  0
 59 61  1  0  0  0
 59 62  1  0  0  0
 60136  1  0  0  0
 60137  1  0  0  0
 60138  1  0  0  0
 61139  1  0  0  0
 61140  1  0  0  0
 61141  1  0  0  0
 62142  1  0  0  0
 62143  1  0  0  0
 62144  1  0  0  0
 63 65  1  0  0  0
 63145  1  0  0  0
 63146  1  0  0  0
 63147  1  0  0  0
 64148  1  0  0  0
 65149  1  0  0  0
 68 81  1  0  0  0
 71 72  2  0  0  0
 71 73  1  0  0  0
 71150  1  0  0  0
 72 86  1  0  0  0
 72151  1  0  0  0
 73 74  2  0  0  0
 73 83  1  0  0  0
 74 84  1  0  0  0
 74 86  1  0  0  0
 75152  1  0  0  0
 75153  1  0  0  0
 75154  1  0  0  0
 75 82  1  0  0  0
 76155  1  0  0  0
 76156  1  0  0  0
 76157  1  0  0  0
 76 83  1  0  0  0
 77 83  1  0  0  0
 77158  1  0  0  0
 77159  1  0  0  0
 77160  1  0  0  0
 78161  1  0  0  0
 78162  1  0  0  0
 78163  1  0  0  0
 78 85  1  0  0  0
 79 85  1  0  0  0
 79164  1  0  0  0
 79165  1  0  0  0
 79166  1  0  0  0
 80 85  1  0  0  0
 80 87  1  0  0  0
 80167  1  0  0  0
 80168  1  0  0  0
 81 83  1  0  0  0
 81169  1  0  0  0
 81170  1  0  0  0
 82 85  1  0  0  0
 82 86  1  0  0  0
 82171  1  0  0  0
 84 88  1  0  0  0
 84 89  1  0  0  0
 84 90  1  0  0  0
 87172  1  0  0  0
M  ISO  4   1 100  68 101  81 101  87 100
M  END
> <chiral flag>
0

> <version>
0

> <s_m_source_file>
/data/baiqing/PycharmProjects/Reinvent-master-3.2/result/LINK_invent/BTK/process_docking_weight1_custom_sum_contain_oxygen_bond_distance_aromatic_linkinvent_7_9_3/rearranged_h_0064.sdf

> <i_m_source_file_index>
36

> <r_mmod_Potential_Energy-OPLS-2005>
11109.87890625

> <r_mmod_Stretch_Energy-OPLS-2005>
5589.7822265625

> <r_mmod_Bend_Energy-OPLS-2005>
1631.0166015625

> <r_mmod_Torsional_Energy-OPLS-2005>
561.228820800781

> <r_mmod_Improper_Torsional_Energy-OPLS-2005>
39.7110061645508

> <r_mmod_Van_der_Waal_Energy-OPLS-2005>
2001.61987304688

> <r_mmod_Electrostatic_Energy-OPLS-2005>
-348.518127441406

> <r_mmod_Solvation_Energy-OPLS-2005>
-202.920776367188

> <b_mmod_Minimization_Converged-OPLS-2005>
0

> <r_mmod_RMS_Derivative-OPLS-2005>
5.98161315917969

$$$$
37
                    3D
 Structure written by MMmdl.
158166  0  0  1  0            999 V2000
  -30.5137  -14.8834   20.5140 C   0  0  0  0  0  0
  -30.4359  -12.5623   19.4670 C   0  0  0  0  0  0
  -29.5086  -12.5647   18.2319 C   0  0  0  0  0  0
  -28.0285  -12.3807   18.6273 C   0  0  0  0  0  0
  -27.6294  -13.2490   19.8463 C   0  0  2  0  0  0
  -28.6719  -13.1706   20.9762 C   0  0  0  0  0  0
  -25.2435  -13.8199   20.5632 C   0  0  0  0  0  0
  -24.1762  -13.0450   20.9149 C   0  0  0  0  0  0
  -24.6367  -11.6917   20.8747 C   0  0  0  0  0  0
  -23.9065  -10.4308   21.0415 C   0  0  0  0  0  0
  -24.3653   -9.4244   21.9205 C   0  0  0  0  0  0
  -23.6338   -8.2255   22.0744 C   0  0  0  0  0  0
  -22.4313   -8.0283   21.3525 C   0  0  0  0  0  0
  -21.9932   -9.0244   20.4615 C   0  0  0  0  0  0
  -22.7248  -10.2134   20.3048 C   0  0  0  0  0  0
  -21.6851   -6.0772   22.5287 C   0  0  0  0  0  0
  -21.4001   -6.5663   23.8240 C   0  0  0  0  0  0
  -21.3655   -5.6805   24.9189 C   0  0  0  0  0  0
  -21.6057   -4.3064   24.7226 C   0  0  0  0  0  0
  -21.8817   -3.8180   23.4322 C   0  0  0  0  0  0
  -21.9193   -4.6991   22.3414 C   0  0  0  0  0  0
  -22.7784  -13.5202   21.1800 C   0  0  0  0  0  0
  -22.1655   -4.2198   21.0977 F   0  0  0  0  0  0
  -21.5614   -3.4532   25.7730 F   0  0  0  0  0  0
  -29.9578  -13.6094   20.4171 N   0  0  0  0  0  0
  -26.2870  -12.9435   20.3262 N   0  0  0  0  0  0
  -25.9308  -11.6562   20.5762 N   0  0  0  0  0  0
  -22.0417  -12.8278   22.0389 N   0  0  0  0  0  0
  -25.4119  -15.1970   20.3956 N   0  0  0  0  0  0
  -31.6269  -15.0714   20.0096 O   0  0  0  0  0  0
  -21.6623   -6.8912   21.4256 O   0  0  0  0  0  0
  -22.3498  -14.5507   20.6613 O   0  0  0  0  0  0
  -24.6446  -31.8454   23.1878 C   0  0  0  0  0  0
  -25.9235  -32.4682   23.8265 C   0  0  1  0  0  0
  -27.2278  -27.1472   20.1179 C   0  0  0  0  0  0
  -25.6022  -33.8506   24.2180 N   0  0  0  0  0  0
  -23.4465  -30.4587   21.5377 C   0  0  2  0  0  0
  -24.8945  -28.8879   20.1038 C   0  0  0  0  0  0
  -22.7553  -29.4473   22.4858 C   0  0  0  0  0  0
  -18.0281  -28.1421   22.8544 C   0  0  0  0  0  0
  -24.1478  -36.7250   23.2642 C   0  0  0  0  0  0
  -26.0003  -30.7087   21.3921 C   0  0  0  0  0  0
  -26.0679  -29.3267   20.7230 C   0  0  0  0  0  0
  -27.2296  -28.4667   20.7279 C   0  0  0  0  0  0
  -26.0326  -26.8196   19.4454 C   0  0  0  0  0  0
  -24.8888  -27.6459   19.4500 C   0  0  0  0  0  0
  -23.6695  -29.7869   20.1547 C   0  0  0  0  0  0
  -25.4123  -36.3023   24.0298 C   0  0  1  0  0  0
  -20.5882  -28.3679   23.1288 C   0  0  2  0  0  0
  -20.6720  -26.9412   22.5408 C   0  0  0  0  0  0
  -19.5663  -26.6425   21.5221 C   0  0  0  0  0  0
  -18.1875  -26.7941   22.1703 C   0  0  0  0  0  0
  -19.1554  -28.8866   23.2911 C   0  0  0  0  0  0
  -18.9516  -30.1490   23.8922 C   0  0  0  0  0  0
  -17.6543  -30.6621   24.0632 C   0  0  0  0  0  0
  -25.9084  -34.9413   23.5038 C   0  0  0  0  0  0
  -16.5418  -29.9162   23.6414 C   0  0  0  0  0  0
  -16.7294  -28.6588   23.0412 C   0  0  0  0  0  0
  -26.4549  -31.6606   25.0753 C   0  0  0  0  0  0
  -25.3738  -31.3819   26.1457 C   0  0  0  0  0  0
  -27.0420  -30.2978   24.6394 C   0  0  0  0  0  0
  -27.5997  -32.4429   25.7555 C   0  0  0  0  0  0
  -27.5531  -37.1804   24.8448 C   0  0  0  0  0  0
  -21.4218  -29.3048   22.3674 N   0  0  0  0  0  0
  -26.4251  -37.3768   23.9404 N   0  0  0  0  0  0
  -24.7153  -31.0276   22.0928 N   0  0  0  0  0  0
  -23.4203  -28.7972   23.2987 O   0  0  0  0  0  0
  -28.3030  -26.1903   20.2116 O   0  0  0  0  0  0
  -26.5605  -34.8881   22.4565 O   0  0  0  0  0  0
  -23.5565  -32.1362   23.7057 O   0  0  0  0  0  0
  -30.2543  -18.2169   19.9641 C   0  0  0  0  0  0
  -29.5091  -17.3874   20.8529 C   0  0  0  0  0  0
  -28.4572  -18.1929   21.4293 C   0  0  0  0  0  0
  -29.0038  -20.2573   20.3193 C   0  0  0  0  0  0
  -27.3808  -17.6088   22.3339 C   0  0  0  0  0  0
  -27.7792  -23.3256   21.7897 C   0  0  0  0  0  0
  -29.9283  -15.6821   22.6577 C   0  0  0  0  0  0
  -28.3130  -24.7307   19.6648 C   0  0  0  0  0  0
  -28.5243  -21.7738   19.7936 C   0  0  0  0  0  0
  -28.6584  -23.3099   20.5222 C   0  0  2  0  0  0
  -30.0042  -19.5623   19.7117 N   0  0  0  0  0  0
  -28.2480  -19.5402   21.1780 N   0  0  0  0  0  0
  -29.8327  -15.9203   21.2059 N   0  0  0  0  0  0
  -30.0382  -23.4263   20.8950 O   0  0  0  0  0  0
  -27.2085  -21.6261   19.6057 F   0  0  0  0  0  0
  -29.0425  -21.9220   18.5678 F   0  0  0  0  0  0
  -31.4621  -12.7436   19.1472 H   0  0  0  0  0  0
  -30.4481  -11.5800   19.9421 H   0  0  0  0  0  0
  -29.8125  -11.7782   17.5391 H   0  0  0  0  0  0
  -29.6265  -13.5118   17.6977 H   0  0  0  0  0  0
  -27.8566  -11.3264   18.8438 H   0  0  0  0  0  0
  -27.3928  -12.6274   17.7747 H   0  0  0  0  0  0
  -27.6190  -14.2809   19.4892 H   0  0  0  0  0  0
  -28.7494  -12.1544   21.3580 H   0  0  0  0  0  0
  -28.3495  -13.7858   21.8140 H   0  0  0  0  0  0
  -25.2775   -9.5719   22.4812 H   0  0  0  0  0  0
  -24.0046   -7.4620   22.7426 H   0  0  0  0  0  0
  -21.0878   -8.8724   19.8933 H   0  0  0  0  0  0
  -22.3679  -10.9658   19.6165 H   0  0  0  0  0  0
  -21.1971   -7.6170   23.9762 H   0  0  0  0  0  0
  -21.1492   -6.0511   25.9094 H   0  0  0  0  0  0
  -22.0619   -2.7623   23.2792 H   0  0  0  0  0  0
  -22.3971  -11.9956   22.4903 H   0  0  0  0  0  0
  -21.0995  -13.1297   22.2468 H   0  0  0  0  0  0
  -24.6331  -15.8436   20.4132 H   0  0  0  0  0  0
  -26.2776  -15.6250   20.0916 H   0  0  0  0  0  0
  -26.7282  -32.5250   23.0953 H   0  0  0  0  0  0
  -25.0300  -33.9664   25.0411 H   0  0  0  0  0  0
  -22.7479  -31.2843   21.3783 H   0  0  0  0  0  0
  -23.3732  -35.9585   23.3297 H   0  0  0  0  0  0
  -24.3538  -36.8920   22.2056 H   0  0  0  0  0  0
  -23.7249  -37.6451   23.6689 H   0  0  0  0  0  0
  -26.1638  -31.4633   20.6214 H   0  0  0  0  0  0
  -26.8712  -30.7506   22.0366 H   0  0  0  0  0  0
  -28.1188  -28.8023   21.2434 H   0  0  0  0  0  0
  -25.9275  -25.8886   18.9144 H   0  0  0  0  0  0
  -23.9983  -27.2999   18.9468 H   0  0  0  0  0  0
  -23.8077  -30.5646   19.4012 H   0  0  0  0  0  0
  -22.7848  -29.2315   19.8383 H   0  0  0  0  0  0
  -25.1308  -36.1796   25.0786 H   0  0  0  0  0  0
  -20.9926  -28.3194   24.1431 H   0  0  0  0  0  0
  -20.5553  -26.2331   23.3591 H   0  0  0  0  0  0
  -21.6572  -26.7370   22.1220 H   0  0  0  0  0  0
  -19.6790  -25.6384   21.1163 H   0  0  0  0  0  0
  -19.6501  -27.3357   20.6803 H   0  0  0  0  0  0
  -17.4102  -26.6687   21.4167 H   0  0  0  0  0  0
  -18.0287  -26.0122   22.9134 H   0  0  0  0  0  0
  -19.8007  -30.7295   24.2274 H   0  0  0  0  0  0
  -17.5161  -31.6262   24.5297 H   0  0  0  0  0  0
  -15.5444  -30.3107   23.7840 H   0  0  0  0  0  0
  -15.8672  -28.0948   22.7143 H   0  0  0  0  0  0
  -24.5867  -30.7201   25.7807 H   0  0  0  0  0  0
  -24.9017  -32.3044   26.4830 H   0  0  0  0  0  0
  -25.8088  -30.9036   27.0245 H   0  0  0  0  0  0
  -26.3093  -29.6687   24.1332 H   0  0  0  0  0  0
  -27.3904  -29.7262   25.5006 H   0  0  0  0  0  0
  -27.9028  -30.4152   23.9810 H   0  0  0  0  0  0
  -27.2483  -33.3698   26.2048 H   0  0  0  0  0  0
  -28.3862  -32.7080   25.0501 H   0  0  0  0  0  0
  -28.0594  -31.8678   26.5588 H   0  0  0  0  0  0
  -28.2555  -38.0093   24.7492 H   0  0  0  0  0  0
  -28.1032  -36.2638   24.6280 H   0  0  0  0  0  0
  -27.2237  -37.1433   25.8846 H   0  0  0  0  0  0
  -20.9380  -29.9022   21.7097 H   0  0  0  0  0  0
  -26.0071  -38.2799   24.1480 H   0  0  0  0  0  0
  -31.0959  -17.7886   19.4475 H   0  0  0  0  0  0
  -27.1076  -16.6018   22.0141 H   0  0  0  0  0  0
  -26.4684  -18.2060   22.3071 H   0  0  0  0  0  0
  -27.6822  -17.5762   23.3800 H   0  0  0  0  0  0
  -26.7153  -23.3361   21.5331 H   0  0  0  0  0  0
  -27.9618  -24.1934   22.4257 H   0  0  0  0  0  0
  -27.9511  -22.4364   22.3899 H   0  0  0  0  0  0
  -30.6370  -16.3813   23.1052 H   0  0  0  0  0  0
  -30.2949  -14.6838   22.9176 H   0  0  0  0  0  0
  -28.9766  -15.7759   23.1717 H   0  0  0  0  0  0
  -27.4005  -24.5277   19.1151 H   0  0  0  0  0  0
  -29.0350  -24.7866   18.8469 H   0  0  0  0  0  0
  -30.1921  -24.2418   21.3659 H   0  0  0  0  0  0
  1 25  1  0  0  0
  1 30  2  0  0  0
  1 83  1  0  0  0
  2  3  1  0  0  0
  2 25  1  0  0  0
  2 87  1  0  0  0
  2 88  1  0  0  0
  3  4  1  0  0  0
  3 89  1  0  0  0
  3 90  1  0  0  0
  4  5  1  0  0  0
  4 91  1  0  0  0
  4 92  1  0  0  0
  5  6  1  0  0  0
  5 26  1  0  0  0
  5 93  1  0  0  0
  6 25  1  0  0  0
  6 94  1  0  0  0
  6 95  1  0  0  0
  7  8  2  0  0  0
  7 26  1  0  0  0
  7 29  1  0  0  0
  8  9  1  0  0  0
  8 22  1  0  0  0
  9 10  1  0  0  0
  9 27  2  0  0  0
 10 11  2  0  0  0
 10 15  1  0  0  0
 11 12  1  0  0  0
 11 96  1  0  0  0
 12 13  2  0  0  0
 12 97  1  0  0  0
 13 14  1  0  0  0
 13 31  1  0  0  0
 14 15  2  0  0  0
 14 98  1  0  0  0
 15 99  1  0  0  0
 16 17  2  0  0  0
 16 21  1  0  0  0
 16 31  1  0  0  0
 17 18  1  0  0  0
 17100  1  0  0  0
 18 19  2  0  0  0
 18101  1  0  0  0
 19 20  1  0  0  0
 19 24  1  0  0  0
 20 21  2  0  0  0
 20102  1  0  0  0
 21 23  1  0  0  0
 22 28  1  0  0  0
 22 32  2  0  0  0
 26 27  1  0  0  0
 28103  1  0  0  0
 28104  1  0  0  0
 29105  1  0  0  0
 29106  1  0  0  0
 33 34  1  0  0  0
 33 66  1  0  0  0
 33 70  2  0  0  0
 34 36  1  0  0  0
 34 59  1  0  0  0
 34107  1  0  0  0
 35 44  2  0  0  0
 35 45  1  0  0  0
 35 68  1  0  0  0
 36 56  1  0  0  0
 36108  1  0  0  0
 37 39  1  0  0  0
 37 47  1  0  0  0
 37 66  1  0  0  0
 37109  1  0  0  0
 38 43  2  0  0  0
 38 46  1  0  0  0
 38 47  1  0  0  0
 39 64  1  0  0  0
 39 67  2  0  0  0
 40 52  1  0  0  0
 40 53  2  0  0  0
 40 58  1  0  0  0
 41110  1  0  0  0
 41111  1  0  0  0
 41112  1  0  0  0
 41 48  1  0  0  0
 42 43  1  0  0  0
 42 66  1  0  0  0
 42113  1  0  0  0
 42114  1  0  0  0
 43 44  1  0  0  0
 44115  1  0  0  0
 45 46  2  0  0  0
 45116  1  0  0  0
 46117  1  0  0  0
 47118  1  0  0  0
 47119  1  0  0  0
 48 56  1  0  0  0
 48 65  1  0  0  0
 48120  1  0  0  0
 49 50  1  0  0  0
 49 53  1  0  0  0
 49 64  1  0  0  0
 49121  1  0  0  0
 50 51  1  0  0  0
 50122  1  0  0  0
 50123  1  0  0  0
 51 52  1  0  0  0
 51124  1  0  0  0
 51125  1  0  0  0
 52126  1  0  0  0
 52127  1  0  0  0
 53 54  1  0  0  0
 54 55  2  0  0  0
 54128  1  0  0  0
 55 57  1  0  0  0
 55129  1  0  0  0
 56 69  2  0  0  0
 57 58  2  0  0  0
 57130  1  0  0  0
 58131  1  0  0  0
 59 60  1  0  0  0
 59 61  1  0  0  0
 59 62  1  0  0  0
 60132  1  0  0  0
 60133  1  0  0  0
 60134  1  0  0  0
 61135  1  0  0  0
 61136  1  0  0  0
 61137  1  0  0  0
 62138  1  0  0  0
 62139  1  0  0  0
 62140  1  0  0  0
 63 65  1  0  0  0
 63141  1  0  0  0
 63142  1  0  0  0
 63143  1  0  0  0
 64144  1  0  0  0
 65145  1  0  0  0
 68 78  1  0  0  0
 71 72  2  0  0  0
 71 81  1  0  0  0
 71146  1  0  0  0
 72 73  1  0  0  0
 72 83  1  0  0  0
 73 75  1  0  0  0
 73 82  2  0  0  0
 74 79  1  0  0  0
 74 81  2  0  0  0
 74 82  1  0  0  0
 75147  1  0  0  0
 75148  1  0  0  0
 75149  1  0  0  0
 76150  1  0  0  0
 76151  1  0  0  0
 76152  1  0  0  0
 76 80  1  0  0  0
 77 83  1  0  0  0
 77153  1  0  0  0
 77154  1  0  0  0
 77155  1  0  0  0
 78 80  1  0  0  0
 78156  1  0  0  0
 78157  1  0  0  0
 79 80  1  0  0  0
 79 85  1  0  0  0
 79 86  1  0  0  0
 80 84  1  0  0  0
 84158  1  0  0  0
M  ISO  4   1 100  68 101  78 101  83 100
M  END
> <chiral flag>
0

> <version>
0

> <s_m_source_file>
/data/baiqing/PycharmProjects/Reinvent-master-3.2/result/LINK_invent/BTK/process_docking_weight1_custom_sum_contain_oxygen_bond_distance_aromatic_linkinvent_7_9_3/rearranged_h_0064.sdf

> <i_m_source_file_index>
37

> <r_mmod_Potential_Energy-OPLS-2005>
382.408996582031

> <r_mmod_Stretch_Energy-OPLS-2005>
259.173309326172

> <r_mmod_Bend_Energy-OPLS-2005>
285.078338623047

> <r_mmod_Torsional_Energy-OPLS-2005>
303.176635742188

> <r_mmod_Improper_Torsional_Energy-OPLS-2005>
5.82655811309814

> <r_mmod_Van_der_Waal_Energy-OPLS-2005>
143.272994995117

> <r_mmod_Electrostatic_Energy-OPLS-2005>
-559.970825195312

> <r_mmod_Solvation_Energy-OPLS-2005>
-220.091079711914

> <b_mmod_Minimization_Converged-OPLS-2005>
0

> <r_mmod_RMS_Derivative-OPLS-2005>
9.55318546295166

$$$$
38
                    3D
 Structure written by MMmdl.
161169  0  0  1  0            999 V2000
  -30.7089  -14.5333   20.6015 C   0  0  0  0  0  0
  -30.4259  -12.3636   19.4260 C   0  0  0  0  0  0
  -29.4959  -12.5185   18.2077 C   0  0  0  0  0  0
  -28.0192  -12.3675   18.6209 C   0  0  0  0  0  0
  -27.6565  -13.2192   19.8682 C   0  0  2  0  0  0
  -28.6996  -13.0362   20.9915 C   0  0  0  0  0  0
  -25.2575  -13.8193   20.5721 C   0  0  0  0  0  0
  -24.1818  -13.0443   20.9134 C   0  0  0  0  0  0
  -24.6395  -11.6917   20.8697 C   0  0  0  0  0  0
  -23.9074  -10.4299   21.0366 C   0  0  0  0  0  0
  -24.3626   -9.4218   21.9151 C   0  0  0  0  0  0
  -23.6305   -8.2250   22.0736 C   0  0  0  0  0  0
  -22.4283   -8.0276   21.3535 C   0  0  0  0  0  0
  -21.9917   -9.0247   20.4638 C   0  0  0  0  0  0
  -22.7237  -10.2128   20.3028 C   0  0  0  0  0  0
  -21.6858   -6.0728   22.5281 C   0  0  0  0  0  0
  -21.4016   -6.5630   23.8213 C   0  0  0  0  0  0
  -21.3660   -5.6782   24.9175 C   0  0  0  0  0  0
  -21.6043   -4.3043   24.7227 C   0  0  0  0  0  0
  -21.8820   -3.8137   23.4343 C   0  0  0  0  0  0
  -21.9202   -4.6959   22.3404 C   0  0  0  0  0  0
  -22.7841  -13.5229   21.1815 C   0  0  0  0  0  0
  -22.1659   -4.2144   21.0979 F   0  0  0  0  0  0
  -21.5646   -3.4526   25.7737 F   0  0  0  0  0  0
  -30.0218  -13.3624   20.4333 N   0  0  0  0  0  0
  -26.3013  -12.9387   20.3365 N   0  0  0  0  0  0
  -25.9334  -11.6530   20.5742 N   0  0  0  0  0  0
  -22.0489  -12.8233   22.0388 N   0  0  0  0  0  0
  -25.4319  -15.1927   20.4304 N   0  0  0  0  0  0
  -31.8165  -14.7100   20.0798 O   0  0  0  0  0  0
  -21.6642   -6.8876   21.4242 O   0  0  0  0  0  0
  -22.3522  -14.5531   20.6661 O   0  0  0  0  0  0
  -24.6241  -31.8648   23.2095 C   0  0  0  0  0  0
  -25.9108  -32.4801   23.8395 C   0  0  1  0  0  0
  -27.2069  -27.3569   20.0875 C   0  0  0  0  0  0
  -25.5939  -33.8601   24.2316 N   0  0  0  0  0  0
  -23.4122  -30.4966   21.5518 C   0  0  2  0  0  0
  -24.8513  -28.9657   20.1079 C   0  0  0  0  0  0
  -22.7451  -29.4666   22.4946 C   0  0  0  0  0  0
  -18.0288  -28.1389   22.8485 C   0  0  0  0  0  0
  -24.1486  -36.7309   23.2632 C   0  0  0  0  0  0
  -25.9530  -30.8065   21.3748 C   0  0  0  0  0  0
  -26.0218  -29.4385   20.7138 C   0  0  0  0  0  0
  -27.2013  -28.6419   20.7041 C   0  0  0  0  0  0
  -26.0149  -26.9454   19.4409 C   0  0  0  0  0  0
  -24.8469  -27.7211   19.4673 C   0  0  0  0  0  0
  -23.6214  -29.8437   20.1622 C   0  0  0  0  0  0
  -25.4103  -36.3093   24.0332 C   0  0  1  0  0  0
  -20.5883  -28.3687   23.1292 C   0  0  2  0  0  0
  -20.6782  -26.9415   22.5406 C   0  0  0  0  0  0
  -19.5752  -26.6385   21.5216 C   0  0  0  0  0  0
  -18.1933  -26.7932   22.1630 C   0  0  0  0  0  0
  -19.1536  -28.8854   23.2888 C   0  0  0  0  0  0
  -18.9457  -30.1459   23.8899 C   0  0  0  0  0  0
  -17.6455  -30.6586   24.0564 C   0  0  0  0  0  0
  -25.9043  -34.9460   23.5115 C   0  0  0  0  0  0
  -16.5348  -29.9085   23.6324 C   0  0  0  0  0  0
  -16.7276  -28.6509   23.0335 C   0  0  0  0  0  0
  -26.4498  -31.6594   25.0749 C   0  0  0  0  0  0
  -25.3752  -31.3732   26.1495 C   0  0  0  0  0  0
  -27.0311  -30.3012   24.6175 C   0  0  0  0  0  0
  -27.6060  -32.4316   25.7523 C   0  0  0  0  0  0
  -27.5575  -37.1808   24.8461 C   0  0  0  0  0  0
  -21.4169  -29.3055   22.3687 N   0  0  0  0  0  0
  -26.4281  -37.3787   23.9412 N   0  0  0  0  0  0
  -24.6821  -31.0708   22.1022 N   0  0  0  0  0  0
  -23.4204  -28.8182   23.2984 O   0  0  0  0  0  0
  -28.3254  -26.5175   20.1399 O   0  0  0  0  0  0
  -26.5593  -34.8920   22.4670 O   0  0  0  0  0  0
  -23.5414  -32.1430   23.7452 O   0  0  0  0  0  0
  -28.0516  -18.1707   20.9665 C   0  0  0  0  0  0
  -29.4748  -16.6618   20.9555 C   0  0  0  0  0  0
  -31.2123  -22.6092   18.2378 C   0  0  0  0  0  0
  -30.7043  -15.5696   22.7683 C   0  0  0  0  0  0
  -29.6762  -22.6225   18.1640 C   0  0  0  0  0  0
  -29.2877  -21.2977   20.3697 C   0  0  0  0  0  0
  -29.0987  -24.0021   20.2691 C   0  0  0  0  0  0
  -29.2383  -19.9408   19.5646 C   0  0  0  0  0  0
  -28.1363  -25.1203   19.7323 C   0  0  0  0  0  0
  -28.9541  -22.6031   19.5352 C   0  0  1  0  0  0
  -28.2102  -16.9199   21.4081 N   0  0  0  0  0  0
  -30.0698  -17.6824   20.3085 N   0  0  0  0  0  0
  -29.1113  -18.6708   20.3214 N   0  0  0  0  0  0
  -30.1545  -15.4772   21.4140 N   0  0  0  0  0  0
  -31.4661  -12.4821   19.1173 H   0  0  0  0  0  0
  -30.3556  -11.3575   19.8438 H   0  0  0  0  0  0
  -29.7503  -11.7788   17.4466 H   0  0  0  0  0  0
  -29.6519  -13.4961   17.7486 H   0  0  0  0  0  0
  -27.8395  -11.3128   18.8259 H   0  0  0  0  0  0
  -27.3693  -12.6271   17.7844 H   0  0  0  0  0  0
  -27.6866  -14.2631   19.5560 H   0  0  0  0  0  0
  -28.6973  -12.0058   21.3504 H   0  0  0  0  0  0
  -28.4441  -13.6519   21.8551 H   0  0  0  0  0  0
  -25.2770   -9.5699   22.4723 H   0  0  0  0  0  0
  -24.0020   -7.4646   22.7446 H   0  0  0  0  0  0
  -21.0848   -8.8748   19.8956 H   0  0  0  0  0  0
  -22.3674  -10.9653   19.6134 H   0  0  0  0  0  0
  -21.1985   -7.6135   23.9717 H   0  0  0  0  0  0
  -21.1488   -6.0507   25.9083 H   0  0  0  0  0  0
  -22.0603   -2.7601   23.2840 H   0  0  0  0  0  0
  -22.4114  -11.9934   22.4826 H   0  0  0  0  0  0
  -21.1081  -13.1234   22.2546 H   0  0  0  0  0  0
  -24.6800  -15.8466   20.6185 H   0  0  0  0  0  0
  -26.3403  -15.6409   20.3765 H   0  0  0  0  0  0
  -26.7178  -32.5475   23.1148 H   0  0  0  0  0  0
  -25.0106  -33.9755   25.0473 H   0  0  0  0  0  0
  -22.7048  -31.3176   21.4182 H   0  0  0  0  0  0
  -23.3742  -35.9647   23.3281 H   0  0  0  0  0  0
  -24.3588  -36.8938   22.2051 H   0  0  0  0  0  0
  -23.7243  -37.6512   23.6656 H   0  0  0  0  0  0
  -26.0795  -31.5732   20.6085 H   0  0  0  0  0  0
  -26.8374  -30.8537   21.9984 H   0  0  0  0  0  0
  -28.0978  -28.9977   21.1910 H   0  0  0  0  0  0
  -25.9395  -26.0141   18.9004 H   0  0  0  0  0  0
  -23.9513  -27.3597   18.9802 H   0  0  0  0  0  0
  -23.7399  -30.6276   19.4131 H   0  0  0  0  0  0
  -22.7398  -29.2777   19.8566 H   0  0  0  0  0  0
  -25.1276  -36.1944   25.0824 H   0  0  0  0  0  0
  -20.9996  -28.3259   24.1405 H   0  0  0  0  0  0
  -20.5699  -26.2293   23.3601 H   0  0  0  0  0  0
  -21.6647  -26.7453   22.1187 H   0  0  0  0  0  0
  -19.6910  -25.6292   21.1249 H   0  0  0  0  0  0
  -19.6693  -27.3190   20.6742 H   0  0  0  0  0  0
  -17.4203  -26.6675   21.4034 H   0  0  0  0  0  0
  -18.0334  -26.0080   22.9031 H   0  0  0  0  0  0
  -19.7929  -30.7281   24.2264 H   0  0  0  0  0  0
  -17.5005  -31.6269   24.5162 H   0  0  0  0  0  0
  -15.5347  -30.2985   23.7649 H   0  0  0  0  0  0
  -15.8679  -28.0839   22.7028 H   0  0  0  0  0  0
  -24.5924  -30.7069   25.7855 H   0  0  0  0  0  0
  -24.8952  -32.2902   26.4926 H   0  0  0  0  0  0
  -25.8108  -30.8928   27.0266 H   0  0  0  0  0  0
  -26.2868  -29.6790   24.1193 H   0  0  0  0  0  0
  -27.3997  -29.7239   25.4664 H   0  0  0  0  0  0
  -27.8749  -30.4284   23.9389 H   0  0  0  0  0  0
  -27.2671  -33.3621   26.2090 H   0  0  0  0  0  0
  -28.3891  -32.6863   25.0370 H   0  0  0  0  0  0
  -28.0701  -31.8443   26.5459 H   0  0  0  0  0  0
  -28.2580  -38.0115   24.7508 H   0  0  0  0  0  0
  -28.1079  -36.2645   24.6271 H   0  0  0  0  0  0
  -27.2300  -37.1442   25.8866 H   0  0  0  0  0  0
  -20.9323  -29.8806   21.6936 H   0  0  0  0  0  0
  -26.0158  -38.2857   24.1429 H   0  0  0  0  0  0
  -27.1315  -18.7259   21.0881 H   0  0  0  0  0  0
  -31.6409  -22.6273   17.2354 H   0  0  0  0  0  0
  -31.5896  -21.7149   18.7335 H   0  0  0  0  0  0
  -31.6057  -23.4739   18.7713 H   0  0  0  0  0  0
  -29.9602  -15.9736   23.4556 H   0  0  0  0  0  0
  -31.5673  -16.2354   22.7804 H   0  0  0  0  0  0
  -31.0129  -14.5972   23.1569 H   0  0  0  0  0  0
  -29.3453  -21.7740   17.5638 H   0  0  0  0  0  0
  -29.3633  -23.4957   17.5923 H   0  0  0  0  0  0
  -30.2712  -21.3977   20.8297 H   0  0  0  0  0  0
  -28.5817  -21.2391   21.1991 H   0  0  0  0  0  0
  -28.8928  -23.8713   21.3319 H   0  0  0  0  0  0
  -30.1269  -24.3558   20.2161 H   0  0  0  0  0  0
  -30.1143  -19.8640   18.9202 H   0  0  0  0  0  0
  -28.3841  -19.9724   18.8867 H   0  0  0  0  0  0
  -27.1546  -24.7683   20.0516 H   0  0  0  0  0  0
  -28.1351  -25.1060   18.6419 H   0  0  0  0  0  0
  -27.8909  -22.5096   19.3058 H   0  0  0  0  0  0
  1 25  1  0  0  0
  1 30  2  0  0  0
  1 84  1  0  0  0
  2  3  1  0  0  0
  2 25  1  0  0  0
  2 85  1  0  0  0
  2 86  1  0  0  0
  3  4  1  0  0  0
  3 87  1  0  0  0
  3 88  1  0  0  0
  4  5  1  0  0  0
  4 89  1  0  0  0
  4 90  1  0  0  0
  5  6  1  0  0  0
  5 26  1  0  0  0
  5 91  1  0  0  0
  6 25  1  0  0  0
  6 92  1  0  0  0
  6 93  1  0  0  0
  7  8  2  0  0  0
  7 26  1  0  0  0
  7 29  1  0  0  0
  8  9  1  0  0  0
  8 22  1  0  0  0
  9 10  1  0  0  0
  9 27  2  0  0  0
 10 11  2  0  0  0
 10 15  1  0  0  0
 11 12  1  0  0  0
 11 94  1  0  0  0
 12 13  2  0  0  0
 12 95  1  0  0  0
 13 14  1  0  0  0
 13 31  1  0  0  0
 14 15  2  0  0  0
 14 96  1  0  0  0
 15 97  1  0  0  0
 16 17  2  0  0  0
 16 21  1  0  0  0
 16 31  1  0  0  0
 17 18  1  0  0  0
 17 98  1  0  0  0
 18 19  2  0  0  0
 18 99  1  0  0  0
 19 20  1  0  0  0
 19 24  1  0  0  0
 20 21  2  0  0  0
 20100  1  0  0  0
 21 23  1  0  0  0
 22 28  1  0  0  0
 22 32  2  0  0  0
 26 27  1  0  0  0
 28101  1  0  0  0
 28102  1  0  0  0
 29103  1  0  0  0
 29104  1  0  0  0
 33 34  1  0  0  0
 33 66  1  0  0  0
 33 70  2  0  0  0
 34 36  1  0  0  0
 34 59  1  0  0  0
 34105  1  0  0  0
 35 44  2  0  0  0
 35 45  1  0  0  0
 35 68  1  0  0  0
 36 56  1  0  0  0
 36106  1  0  0  0
 37 39  1  0  0  0
 37 47  1  0  0  0
 37 66  1  0  0  0
 37107  1  0  0  0
 38 43  2  0  0  0
 38 46  1  0  0  0
 38 47  1  0  0  0
 39 64  1  0  0  0
 39 67  2  0  0  0
 40 52  1  0  0  0
 40 53  2  0  0  0
 40 58  1  0  0  0
 41108  1  0  0  0
 41109  1  0  0  0
 41110  1  0  0  0
 41 48  1  0  0  0
 42 43  1  0  0  0
 42 66  1  0  0  0
 42111  1  0  0  0
 42112  1  0  0  0
 43 44  1  0  0  0
 44113  1  0  0  0
 45 46  2  0  0  0
 45114  1  0  0  0
 46115  1  0  0  0
 47116  1  0  0  0
 47117  1  0  0  0
 48 56  1  0  0  0
 48 65  1  0  0  0
 48118  1  0  0  0
 49 50  1  0  0  0
 49 53  1  0  0  0
 49 64  1  0  0  0
 49119  1  0  0  0
 50 51  1  0  0  0
 50120  1  0  0  0
 50121  1  0  0  0
 51 52  1  0  0  0
 51122  1  0  0  0
 51123  1  0  0  0
 52124  1  0  0  0
 52125  1  0  0  0
 53 54  1  0  0  0
 54 55  2  0  0  0
 54126  1  0  0  0
 55 57  1  0  0  0
 55127  1  0  0  0
 56 69  2  0  0  0
 57 58  2  0  0  0
 57128  1  0  0  0
 58129  1  0  0  0
 59 60  1  0  0  0
 59 61  1  0  0  0
 59 62  1  0  0  0
 60130  1  0  0  0
 60131  1  0  0  0
 60132  1  0  0  0
 61133  1  0  0  0
 61134  1  0  0  0
 61135  1  0  0  0
 62136  1  0  0  0
 62137  1  0  0  0
 62138  1  0  0  0
 63 65  1  0  0  0
 63139  1  0  0  0
 63140  1  0  0  0
 63141  1  0  0  0
 64142  1  0  0  0
 65143  1  0  0  0
 68 79  1  0  0  0
 71 81  2  0  0  0
 71 83  1  0  0  0
 71144  1  0  0  0
 72 81  1  0  0  0
 72 82  2  0  0  0
 72 84  1  0  0  0
 73 75  1  0  0  0
 73145  1  0  0  0
 73146  1  0  0  0
 73147  1  0  0  0
 74 84  1  0  0  0
 74148  1  0  0  0
 74149  1  0  0  0
 74150  1  0  0  0
 75151  1  0  0  0
 75152  1  0  0  0
 75 80  1  0  0  0
 76 78  1  0  0  0
 76 80  1  0  0  0
 76153  1  0  0  0
 76154  1  0  0  0
 77 79  1  0  0  0
 77 80  1  0  0  0
 77155  1  0  0  0
 77156  1  0  0  0
 78 83  1  0  0  0
 78157  1  0  0  0
 78158  1  0  0  0
 79159  1  0  0  0
 79160  1  0  0  0
 80161  1  0  0  0
 82 83  1  0  0  0
M  ISO  4   1 100  68 101  79 101  84 100
M  END
> <chiral flag>
0

> <version>
0

> <s_m_source_file>
/data/baiqing/PycharmProjects/Reinvent-master-3.2/result/LINK_invent/BTK/process_docking_weight1_custom_sum_contain_oxygen_bond_distance_aromatic_linkinvent_7_9_3/rearranged_h_0064.sdf

> <i_m_source_file_index>
38

> <r_mmod_Potential_Energy-OPLS-2005>
162.211608886719

> <r_mmod_Stretch_Energy-OPLS-2005>
60.7578468322754

> <r_mmod_Bend_Energy-OPLS-2005>
131.452301025391

> <r_mmod_Torsional_Energy-OPLS-2005>
309.515106201172

> <r_mmod_Improper_Torsional_Energy-OPLS-2005>
6.14463996887207

> <r_mmod_Van_der_Waal_Energy-OPLS-2005>
125.454734802246

> <r_mmod_Electrostatic_Energy-OPLS-2005>
-301.105529785156

> <r_mmod_Solvation_Energy-OPLS-2005>
-199.011627197266

> <b_mmod_Minimization_Converged-OPLS-2005>
0

> <r_mmod_RMS_Derivative-OPLS-2005>
1.66913902759552

$$$$
39
                    3D
 Structure written by MMmdl.
175183  0  0  1  0            999 V2000
  -30.6756  -14.8157   20.4277 C   0  0  0  0  0  0
  -30.4307  -12.5008   19.4934 C   0  0  0  0  0  0
  -29.5163  -12.4680   18.2508 C   0  0  0  0  0  0
  -28.0517  -12.2575   18.6782 C   0  0  0  0  0  0
  -27.6204  -13.1993   19.8298 C   0  0  2  0  0  0
  -28.6754  -13.2842   20.9625 C   0  0  0  0  0  0
  -25.2459  -13.8053   20.5758 C   0  0  0  0  0  0
  -24.1741  -13.0359   20.9285 C   0  0  0  0  0  0
  -24.6311  -11.6821   20.8812 C   0  0  0  0  0  0
  -23.8978  -10.4234   21.0428 C   0  0  0  0  0  0
  -24.3536   -9.4164   21.9220 C   0  0  0  0  0  0
  -23.6253   -8.2191   22.0770 C   0  0  0  0  0  0
  -22.4261   -8.0212   21.3535 C   0  0  0  0  0  0
  -21.9855   -9.0179   20.4656 C   0  0  0  0  0  0
  -22.7143  -10.2083   20.3097 C   0  0  0  0  0  0
  -21.6854   -6.0682   22.5278 C   0  0  0  0  0  0
  -21.3991   -6.5605   23.8198 C   0  0  0  0  0  0
  -21.3673   -5.6778   24.9188 C   0  0  0  0  0  0
  -21.6081   -4.3045   24.7255 C   0  0  0  0  0  0
  -21.8816   -3.8108   23.4383 C   0  0  0  0  0  0
  -21.9188   -4.6906   22.3422 C   0  0  0  0  0  0
  -22.7778  -13.5164   21.1941 C   0  0  0  0  0  0
  -22.1687   -4.2091   21.1004 F   0  0  0  0  0  0
  -21.5639   -3.4543   25.7775 F   0  0  0  0  0  0
  -29.9700  -13.6233   20.3494 N   0  0  0  0  0  0
  -26.2828  -12.9195   20.3279 N   0  0  0  0  0  0
  -25.9220  -11.6380   20.5798 N   0  0  0  0  0  0
  -22.0384  -12.8186   22.0468 N   0  0  0  0  0  0
  -25.4121  -15.1793   20.4194 N   0  0  0  0  0  0
  -31.8994  -14.7611   20.3076 O   0  0  0  0  0  0
  -21.6643   -6.8813   21.4233 O   0  0  0  0  0  0
  -22.3481  -14.5478   20.6759 O   0  0  0  0  0  0
  -24.6309  -31.8574   23.1953 C   0  0  0  0  0  0
  -25.9120  -32.4787   23.8329 C   0  0  1  0  0  0
  -27.2400  -27.2686   20.1566 C   0  0  0  0  0  0
  -25.5918  -33.8595   24.2256 N   0  0  0  0  0  0
  -23.4275  -30.4700   21.5435 C   0  0  2  0  0  0
  -24.8820  -28.9130   20.1182 C   0  0  0  0  0  0
  -22.7511  -29.4566   22.4978 C   0  0  0  0  0  0
  -18.0263  -28.1386   22.8472 C   0  0  0  0  0  0
  -24.1494  -36.7279   23.2642 C   0  0  0  0  0  0
  -25.9685  -30.7769   21.3667 C   0  0  0  0  0  0
  -26.0519  -29.3941   20.7210 C   0  0  0  0  0  0
  -27.2361  -28.5890   20.7188 C   0  0  0  0  0  0
  -26.0503  -26.8455   19.5303 C   0  0  0  0  0  0
  -24.8861  -27.6455   19.5078 C   0  0  0  0  0  0
  -23.6468  -29.7965   20.1636 C   0  0  0  0  0  0
  -25.4125  -36.3095   24.0333 C   0  0  1  0  0  0
  -20.5864  -28.3688   23.1295 C   0  0  2  0  0  0
  -20.6752  -26.9410   22.5418 C   0  0  0  0  0  0
  -19.5752  -26.6388   21.5205 C   0  0  0  0  0  0
  -18.1925  -26.7922   22.1612 C   0  0  0  0  0  0
  -19.1514  -28.8853   23.2871 C   0  0  0  0  0  0
  -18.9447  -30.1450   23.8900 C   0  0  0  0  0  0
  -17.6448  -30.6594   24.0541 C   0  0  0  0  0  0
  -25.9062  -34.9465   23.5098 C   0  0  0  0  0  0
  -16.5336  -29.9089   23.6317 C   0  0  0  0  0  0
  -16.7246  -28.6496   23.0354 C   0  0  0  0  0  0
  -26.4486  -31.6578   25.0690 C   0  0  0  0  0  0
  -25.3724  -31.3730   26.1426 C   0  0  0  0  0  0
  -27.0295  -30.3008   24.6087 C   0  0  0  0  0  0
  -27.6052  -32.4280   25.7475 C   0  0  0  0  0  0
  -27.5584  -37.1790   24.8467 C   0  0  0  0  0  0
  -21.4217  -29.3035   22.3712 N   0  0  0  0  0  0
  -26.4294  -37.3791   23.9417 N   0  0  0  0  0  0
  -24.6947  -31.0520   22.0933 N   0  0  0  0  0  0
  -23.4181  -28.8142   23.3132 O   0  0  0  0  0  0
  -28.3490  -26.3922   20.1466 O   0  0  0  0  0  0
  -26.5640  -34.8929   22.4677 O   0  0  0  0  0  0
  -23.5443  -32.1414   23.7213 O   0  0  0  0  0  0
  -30.0185  -20.1495   20.6945 C   0  0  0  0  0  0
  -29.8794  -18.7716   20.9697 C   0  0  0  0  0  0
  -28.3032  -19.9894   22.0710 C   0  0  0  0  0  0
  -31.6990  -17.7686   19.5220 C   0  0  0  0  0  0
  -26.7087  -18.6728   23.5487 C   0  0  0  0  0  0
  -25.9105  -20.7552   22.5780 C   0  0  0  0  0  0
  -27.7287  -20.7313   24.4290 C   0  0  0  0  0  0
  -29.9696  -23.7101   19.5097 C   0  0  0  0  0  0
  -27.5286  -23.1329   19.5087 C   0  0  0  0  0  0
  -28.8413  -16.2785   19.6102 C   0  0  0  0  0  0
  -28.3047  -25.1089   20.9337 C   0  0  0  0  0  0
  -30.7141  -17.4447   20.6666 C   0  0  2  0  0  0
  -27.1935  -20.0896   23.1245 C   0  0  0  0  0  0
  -28.7011  -23.6056   20.3823 C   0  0  0  0  0  0
  -28.9654  -22.4857   21.5521 C   0  0  0  0  0  0
  -29.0425  -20.9134   21.3719 N   0  0  0  0  0  0
  -28.8064  -18.7657   21.8072 N   0  3  0  0  0  0
  -30.0363  -16.0765   20.4318 N   0  0  0  0  0  0
  -30.0827  -22.8468   22.1858 F   0  0  0  0  0  0
  -27.9813  -22.7802   22.3836 F   0  0  0  0  0  0
  -31.4726  -12.6091   19.1889 H   0  0  0  0  0  0
  -30.3764  -11.5550   20.0385 H   0  0  0  0  0  0
  -29.8257  -11.6606   17.5895 H   0  0  0  0  0  0
  -29.6254  -13.3918   17.6805 H   0  0  0  0  0  0
  -27.9594  -11.2230   19.0103 H   0  0  0  0  0  0
  -27.3857  -12.3728   17.8232 H   0  0  0  0  0  0
  -27.5256  -14.1538   19.3351 H   0  0  0  0  0  0
  -28.7424  -12.3451   21.5153 H   0  0  0  0  0  0
  -28.3884  -14.0459   21.6903 H   0  0  0  0  0  0
  -25.2668   -9.5696   22.4803 H   0  0  0  0  0  0
  -23.9985   -7.4606   22.7500 H   0  0  0  0  0  0
  -21.0789   -8.8677   19.8962 H   0  0  0  0  0  0
  -22.3563  -10.9637   19.6245 H   0  0  0  0  0  0
  -21.1952   -7.6114   23.9676 H   0  0  0  0  0  0
  -21.1533   -6.0534   25.9089 H   0  0  0  0  0  0
  -22.0575   -2.7567   23.2913 H   0  0  0  0  0  0
  -22.3939  -11.9826   22.4859 H   0  0  0  0  0  0
  -21.1020  -13.1250   22.2691 H   0  0  0  0  0  0
  -24.6333  -15.8194   20.5241 H   0  0  0  0  0  0
  -26.2444  -15.6151   20.0475 H   0  0  0  0  0  0
  -26.7180  -32.5434   23.1074 H   0  0  0  0  0  0
  -25.0051  -33.9742   25.0385 H   0  0  0  0  0  0
  -22.7229  -31.2888   21.3939 H   0  0  0  0  0  0
  -23.3778  -35.9582   23.3304 H   0  0  0  0  0  0
  -24.3577  -36.8901   22.2049 H   0  0  0  0  0  0
  -23.7193  -37.6467   23.6658 H   0  0  0  0  0  0
  -26.0792  -31.5305   20.5852 H   0  0  0  0  0  0
  -26.8569  -30.8494   21.9817 H   0  0  0  0  0  0
  -28.1381  -28.9644   21.1787 H   0  0  0  0  0  0
  -26.0185  -25.8719   19.0627 H   0  0  0  0  0  0
  -23.9925  -27.2682   19.0293 H   0  0  0  0  0  0
  -23.7590  -30.5714   19.4061 H   0  0  0  0  0  0
  -22.7689  -29.2236   19.8618 H   0  0  0  0  0  0
  -25.1284  -36.1970   25.0818 H   0  0  0  0  0  0
  -20.9891  -28.3247   24.1439 H   0  0  0  0  0  0
  -20.5649  -26.2294   23.3619 H   0  0  0  0  0  0
  -21.6633  -26.7453   22.1229 H   0  0  0  0  0  0
  -19.6939  -25.6303   21.1239 H   0  0  0  0  0  0
  -19.6702  -27.3196   20.6738 H   0  0  0  0  0  0
  -17.4185  -26.6634   21.4017 H   0  0  0  0  0  0
  -18.0347  -26.0068   22.9024 H   0  0  0  0  0  0
  -19.7931  -30.7241   24.2298 H   0  0  0  0  0  0
  -17.5012  -31.6277   24.5150 H   0  0  0  0  0  0
  -15.5341  -30.2999   23.7658 H   0  0  0  0  0  0
  -15.8635  -28.0812   22.7103 H   0  0  0  0  0  0
  -24.5926  -30.7033   25.7786 H   0  0  0  0  0  0
  -24.8881  -32.2894   26.4814 H   0  0  0  0  0  0
  -25.8067  -30.8975   27.0230 H   0  0  0  0  0  0
  -26.2844  -29.6808   24.1088 H   0  0  0  0  0  0
  -27.4009  -29.7209   25.4547 H   0  0  0  0  0  0
  -27.8703  -30.4326   23.9271 H   0  0  0  0  0  0
  -27.2690  -33.3594   26.2055 H   0  0  0  0  0  0
  -28.3879  -32.6810   25.0306 H   0  0  0  0  0  0
  -28.0698  -31.8393   26.5404 H   0  0  0  0  0  0
  -28.2594  -38.0097   24.7519 H   0  0  0  0  0  0
  -28.1086  -36.2616   24.6287 H   0  0  0  0  0  0
  -27.2294  -37.1423   25.8871 H   0  0  0  0  0  0
  -20.9424  -29.8739   21.6888 H   0  0  0  0  0  0
  -26.0192  -38.2868   24.1448 H   0  0  0  0  0  0
  -30.7942  -20.6485   20.1295 H   0  0  0  0  0  0
  -32.4123  -16.9677   19.3319 H   0  0  0  0  0  0
  -32.2966  -18.6492   19.7573 H   0  0  0  0  0  0
  -31.1715  -17.9673   18.5881 H   0  0  0  0  0  0
  -26.3222  -18.0984   22.7017 H   0  0  0  0  0  0
  -25.8977  -18.7351   24.2759 H   0  0  0  0  0  0
  -27.4931  -18.0816   24.0258 H   0  0  0  0  0  0
  -25.5343  -20.1973   21.7195 H   0  0  0  0  0  0
  -26.0089  -21.7862   22.2574 H   0  0  0  0  0  0
  -25.1230  -20.7557   23.3341 H   0  0  0  0  0  0
  -28.5254  -20.1232   24.8571 H   0  0  0  0  0  0
  -26.9419  -20.7987   25.1820 H   0  0  0  0  0  0
  -28.1481  -21.7254   24.3273 H   0  0  0  0  0  0
  -29.8483  -24.4764   18.7456 H   0  0  0  0  0  0
  -30.2061  -22.7725   19.0061 H   0  0  0  0  0  0
  -30.8407  -23.9874   20.1044 H   0  0  0  0  0  0
  -27.3942  -23.7714   18.6354 H   0  0  0  0  0  0
  -26.5943  -23.1447   20.0720 H   0  0  0  0  0  0
  -27.6858  -22.1141   19.1571 H   0  0  0  0  0  0
  -28.8816  -15.6538   18.7174 H   0  0  0  0  0  0
  -28.7497  -17.2905   19.2162 H   0  0  0  0  0  0
  -27.9459  -16.0833   20.1941 H   0  0  0  0  0  0
  -28.9679  -25.3065   21.7775 H   0  0  0  0  0  0
  -27.3155  -25.0432   21.3912 H   0  0  0  0  0  0
  -31.3213  -17.2845   21.5595 H   0  0  0  0  0  0
  -28.4588  -17.9357   22.2713 H   0  0  0  0  0  0
  1 25  1  0  0  0
  1 30  2  0  0  0
  1 88  1  0  0  0
  2  3  1  0  0  0
  2 25  1  0  0  0
  2 91  1  0  0  0
  2 92  1  0  0  0
  3  4  1  0  0  0
  3 93  1  0  0  0
  3 94  1  0  0  0
  4  5  1  0  0  0
  4 95  1  0  0  0
  4 96  1  0  0  0
  5  6  1  0  0  0
  5 26  1  0  0  0
  5 97  1  0  0  0
  6 25  1  0  0  0
  6 98  1  0  0  0
  6 99  1  0  0  0
  7  8  2  0  0  0
  7 26  1  0  0  0
  7 29  1  0  0  0
  8  9  1  0  0  0
  8 22  1  0  0  0
  9 10  1  0  0  0
  9 27  2  0  0  0
 10 11  2  0  0  0
 10 15  1  0  0  0
 11 12  1  0  0  0
 11100  1  0  0  0
 12 13  2  0  0  0
 12101  1  0  0  0
 13 14  1  0  0  0
 13 31  1  0  0  0
 14 15  2  0  0  0
 14102  1  0  0  0
 15103  1  0  0  0
 16 17  2  0  0  0
 16 21  1  0  0  0
 16 31  1  0  0  0
 17 18  1  0  0  0
 17104  1  0  0  0
 18 19  2  0  0  0
 18105  1  0  0  0
 19 20  1  0  0  0
 19 24  1  0  0  0
 20 21  2  0  0  0
 20106  1  0  0  0
 21 23  1  0  0  0
 22 28  1  0  0  0
 22 32  2  0  0  0
 26 27  1  0  0  0
 28107  1  0  0  0
 28108  1  0  0  0
 29109  1  0  0  0
 29110  1  0  0  0
 33 34  1  0  0  0
 33 66  1  0  0  0
 33 70  2  0  0  0
 34 36  1  0  0  0
 34 59  1  0  0  0
 34111  1  0  0  0
 35 44  2  0  0  0
 35 45  1  0  0  0
 35 68  1  0  0  0
 36 56  1  0  0  0
 36112  1  0  0  0
 37 39  1  0  0  0
 37 47  1  0  0  0
 37 66  1  0  0  0
 37113  1  0  0  0
 38 43  2  0  0  0
 38 46  1  0  0  0
 38 47  1  0  0  0
 39 64  1  0  0  0
 39 67  2  0  0  0
 40 52  1  0  0  0
 40 53  2  0  0  0
 40 58  1  0  0  0
 41114  1  0  0  0
 41115  1  0  0  0
 41116  1  0  0  0
 41 48  1  0  0  0
 42 43  1  0  0  0
 42 66  1  0  0  0
 42117  1  0  0  0
 42118  1  0  0  0
 43 44  1  0  0  0
 44119  1  0  0  0
 45 46  2  0  0  0
 45120  1  0  0  0
 46121  1  0  0  0
 47122  1  0  0  0
 47123  1  0  0  0
 48 56  1  0  0  0
 48 65  1  0  0  0
 48124  1  0  0  0
 49 50  1  0  0  0
 49 53  1  0  0  0
 49 64  1  0  0  0
 49125  1  0  0  0
 50 51  1  0  0  0
 50126  1  0  0  0
 50127  1  0  0  0
 51 52  1  0  0  0
 51128  1  0  0  0
 51129  1  0  0  0
 52130  1  0  0  0
 52131  1  0  0  0
 53 54  1  0  0  0
 54 55  2  0  0  0
 54132  1  0  0  0
 55 57  1  0  0  0
 55133  1  0  0  0
 56 69  2  0  0  0
 57 58  2  0  0  0
 57134  1  0  0  0
 58135  1  0  0  0
 59 60  1  0  0  0
 59 61  1  0  0  0
 59 62  1  0  0  0
 60136  1  0  0  0
 60137  1  0  0  0
 60138  1  0  0  0
 61139  1  0  0  0
 61140  1  0  0  0
 61141  1  0  0  0
 62142  1  0  0  0
 62143  1  0  0  0
 62144  1  0  0  0
 63 65  1  0  0  0
 63145  1  0  0  0
 63146  1  0  0  0
 63147  1  0  0  0
 64148  1  0  0  0
 65149  1  0  0  0
 68 81  1  0  0  0
 71 72  2  0  0  0
 71 86  1  0  0  0
 71150  1  0  0  0
 72 82  1  0  0  0
 72 87  1  0  0  0
 73 83  1  0  0  0
 73 86  1  0  0  0
 73 87  2  0  0  0
 74151  1  0  0  0
 74152  1  0  0  0
 74153  1  0  0  0
 74 82  1  0  0  0
 75154  1  0  0  0
 75155  1  0  0  0
 75156  1  0  0  0
 75 83  1  0  0  0
 76 83  1  0  0  0
 76157  1  0  0  0
 76158  1  0  0  0
 76159  1  0  0  0
 77 83  1  0  0  0
 77160  1  0  0  0
 77161  1  0  0  0
 77162  1  0  0  0
 78163  1  0  0  0
 78164  1  0  0  0
 78165  1  0  0  0
 78 84  1  0  0  0
 79 84  1  0  0  0
 79166  1  0  0  0
 79167  1  0  0  0
 79168  1  0  0  0
 80 88  1  0  0  0
 80169  1  0  0  0
 80170  1  0  0  0
 80171  1  0  0  0
 81 84  1  0  0  0
 81172  1  0  0  0
 81173  1  0  0  0
 82 88  1  0  0  0
 82174  1  0  0  0
 84 85  1  0  0  0
 85 86  1  0  0  0
 85 89  1  0  0  0
 85 90  1  0  0  0
 87175  1  0  0  0
M  CHG  1  87   1
M  ISO  4   1 100  68 101  81 101  88 100
M  END
> <chiral flag>
0

> <version>
0

> <s_m_source_file>
/data/baiqing/PycharmProjects/Reinvent-master-3.2/result/LINK_invent/BTK/process_docking_weight1_custom_sum_contain_oxygen_bond_distance_aromatic_linkinvent_7_9_3/rearranged_h_0064.sdf

> <i_m_source_file_index>
39

> <r_mmod_Potential_Energy-OPLS-2005>
438.847717285156

> <r_mmod_Stretch_Energy-OPLS-2005>
164.343643188477

> <r_mmod_Bend_Energy-OPLS-2005>
238.776504516602

> <r_mmod_Torsional_Energy-OPLS-2005>
357.406494140625

> <r_mmod_Improper_Torsional_Energy-OPLS-2005>
8.98387908935547

> <r_mmod_Van_der_Waal_Energy-OPLS-2005>
135.867034912109

> <r_mmod_Electrostatic_Energy-OPLS-2005>
-201.330093383789

> <r_mmod_Solvation_Energy-OPLS-2005>
-378.030517578125

> <b_mmod_Minimization_Converged-OPLS-2005>
0

> <r_mmod_RMS_Derivative-OPLS-2005>
4.76436424255371

$$$$
40
                    3D
 Structure written by MMmdl.
171179  0  0  1  0            999 V2000
  -30.6867  -14.7450   20.4368 C   0  0  0  0  0  0
  -30.4028  -12.4500   19.4831 C   0  0  0  0  0  0
  -29.5026  -12.5025   18.2341 C   0  0  0  0  0  0
  -28.0290  -12.3434   18.6443 C   0  0  0  0  0  0
  -27.6346  -13.2511   19.8436 C   0  0  2  0  0  0
  -28.6827  -13.2359   20.9795 C   0  0  0  0  0  0
  -25.2479  -13.8274   20.5746 C   0  0  0  0  0  0
  -24.1799  -13.0482   20.9248 C   0  0  0  0  0  0
  -24.6419  -11.6960   20.8783 C   0  0  0  0  0  0
  -23.9118  -10.4326   21.0450 C   0  0  0  0  0  0
  -24.3666   -9.4227   21.9204 C   0  0  0  0  0  0
  -23.6342   -8.2257   22.0756 C   0  0  0  0  0  0
  -22.4323   -8.0303   21.3540 C   0  0  0  0  0  0
  -21.9964   -9.0281   20.4652 C   0  0  0  0  0  0
  -22.7300  -10.2163   20.3089 C   0  0  0  0  0  0
  -21.6870   -6.0767   22.5291 C   0  0  0  0  0  0
  -21.4009   -6.5659   23.8229 C   0  0  0  0  0  0
  -21.3663   -5.6808   24.9185 C   0  0  0  0  0  0
  -21.6064   -4.3074   24.7234 C   0  0  0  0  0  0
  -21.8813   -3.8160   23.4348 C   0  0  0  0  0  0
  -21.9199   -4.6986   22.3412 C   0  0  0  0  0  0
  -22.7816  -13.5240   21.1885 C   0  0  0  0  0  0
  -22.1664   -4.2179   21.0989 F   0  0  0  0  0  0
  -21.5633   -3.4551   25.7743 F   0  0  0  0  0  0
  -29.9804  -13.5595   20.3766 N   0  0  0  0  0  0
  -26.2915  -12.9507   20.3305 N   0  0  0  0  0  0
  -25.9346  -11.6629   20.5777 N   0  0  0  0  0  0
  -22.0466  -12.8213   22.0438 N   0  0  0  0  0  0
  -25.4152  -15.2011   20.4176 N   0  0  0  0  0  0
  -31.8692  -14.6900   20.1187 O   0  0  0  0  0  0
  -21.6647   -6.8918   21.4263 O   0  0  0  0  0  0
  -22.3506  -14.5539   20.6743 O   0  0  0  0  0  0
  -24.6308  -31.8530   23.1936 C   0  0  0  0  0  0
  -25.9125  -32.4731   23.8284 C   0  0  1  0  0  0
  -27.2374  -27.2653   20.1257 C   0  0  0  0  0  0
  -25.5936  -33.8540   24.2223 N   0  0  0  0  0  0
  -23.4277  -30.4727   21.5357 C   0  0  2  0  0  0
  -24.8750  -28.9079   20.1069 C   0  0  0  0  0  0
  -22.7485  -29.4588   22.4894 C   0  0  0  0  0  0
  -18.0294  -28.1388   22.8480 C   0  0  0  0  0  0
  -24.1496  -36.7276   23.2643 C   0  0  0  0  0  0
  -25.9693  -30.7690   21.3685 C   0  0  0  0  0  0
  -26.0415  -29.3905   20.7099 C   0  0  0  0  0  0
  -27.2175  -28.5803   20.7023 C   0  0  0  0  0  0
  -26.0392  -26.8270   19.5251 C   0  0  0  0  0  0
  -24.8773  -27.6352   19.5078 C   0  0  0  0  0  0
  -23.6445  -29.7958   20.1539 C   0  0  0  0  0  0
  -25.4131  -36.3065   24.0318 C   0  0  1  0  0  0
  -20.5899  -28.3694   23.1272 C   0  0  2  0  0  0
  -20.6773  -26.9412   22.5408 C   0  0  0  0  0  0
  -19.5757  -26.6378   21.5205 C   0  0  0  0  0  0
  -18.1939  -26.7932   22.1615 C   0  0  0  0  0  0
  -19.1551  -28.8855   23.2872 C   0  0  0  0  0  0
  -18.9465  -30.1464   23.8880 C   0  0  0  0  0  0
  -17.6462  -30.6591   24.0563 C   0  0  0  0  0  0
  -25.9065  -34.9433   23.5080 C   0  0  0  0  0  0
  -16.5357  -29.9083   23.6339 C   0  0  0  0  0  0
  -16.7279  -28.6509   23.0349 C   0  0  0  0  0  0
  -26.4486  -31.6569   25.0683 C   0  0  0  0  0  0
  -25.3698  -31.3757   26.1401 C   0  0  0  0  0  0
  -27.0326  -30.2972   24.6194 C   0  0  0  0  0  0
  -27.6022  -32.4310   25.7496 C   0  0  0  0  0  0
  -27.5593  -37.1804   24.8466 C   0  0  0  0  0  0
  -21.4192  -29.3040   22.3641 N   0  0  0  0  0  0
  -26.4297  -37.3764   23.9407 N   0  0  0  0  0  0
  -24.6947  -31.0506   22.0894 N   0  0  0  0  0  0
  -23.4184  -28.8151   23.3007 O   0  0  0  0  0  0
  -28.3893  -26.4538   20.2477 O   0  0  0  0  0  0
  -26.5636  -34.8914   22.4647 O   0  0  0  0  0  0
  -23.5454  -32.1332   23.7245 O   0  0  0  0  0  0
  -27.9787  -19.1730   18.7646 C   0  0  0  0  0  0
  -28.9457  -20.8384   19.9165 C   0  0  0  0  0  0
  -29.5616  -18.6054   20.2347 C   0  0  0  0  0  0
  -26.9828  -18.7467   17.7080 C   0  0  0  0  0  0
  -32.9390  -16.9783   21.7076 C   0  0  0  0  0  0
  -32.4790  -19.2122   20.9378 C   0  0  0  0  0  0
  -32.5476  -17.5074   19.1974 C   0  0  0  0  0  0
  -30.2886  -25.3066   19.8030 C   0  0  0  0  0  0
  -28.4729  -25.1802   18.1088 C   0  0  0  0  0  0
  -29.3554  -22.3856   19.8922 C   0  0  0  0  0  0
  -28.3870  -23.6592   20.2334 C   0  0  0  0  0  0
  -30.5071  -17.4461   20.8418 C   0  0  2  0  0  0
  -32.0735  -17.7401   20.6576 C   0  0  0  0  0  0
  -28.7648  -25.1337   19.6233 C   0  0  0  0  0  0
  -28.0641  -20.4853   18.9912 N   0  0  0  0  0  0
  -28.6914  -18.1943   19.3202 N   0  0  0  0  0  0
  -29.6722  -19.9185   20.6125 N   0  0  0  0  0  0
  -30.0491  -15.9641   20.6702 N   0  0  0  0  0  0
  -31.4507  -12.5088   19.1838 H   0  0  0  0  0  0
  -30.3002  -11.4894   19.9926 H   0  0  0  0  0  0
  -29.7803  -11.7145   17.5318 H   0  0  0  0  0  0
  -29.6477  -13.4519   17.7159 H   0  0  0  0  0  0
  -27.8763  -11.2952   18.9024 H   0  0  0  0  0  0
  -27.3801  -12.5461   17.7933 H   0  0  0  0  0  0
  -27.6142  -14.2677   19.4461 H   0  0  0  0  0  0
  -28.7208  -12.2614   21.4705 H   0  0  0  0  0  0
  -28.4209  -13.9647   21.7494 H   0  0  0  0  0  0
  -25.2820   -9.5689   22.4767 H   0  0  0  0  0  0
  -24.0069   -7.4649   22.7465 H   0  0  0  0  0  0
  -21.0899   -8.8821   19.8941 H   0  0  0  0  0  0
  -22.3788  -10.9709   19.6196 H   0  0  0  0  0  0
  -21.1980   -7.6156   23.9742 H   0  0  0  0  0  0
  -21.1494   -6.0523   25.9096 H   0  0  0  0  0  0
  -22.0586   -2.7620   23.2836 H   0  0  0  0  0  0
  -22.4107  -11.9874   22.4812 H   0  0  0  0  0  0
  -21.1065  -13.1184   22.2645 H   0  0  0  0  0  0
  -24.6465  -15.8531   20.5380 H   0  0  0  0  0  0
  -26.2646  -15.6435   20.0895 H   0  0  0  0  0  0
  -26.7184  -32.5362   23.1022 H   0  0  0  0  0  0
  -25.0070  -33.9654   25.0366 H   0  0  0  0  0  0
  -22.7261  -31.2955   21.3840 H   0  0  0  0  0  0
  -23.3750  -35.9612   23.3297 H   0  0  0  0  0  0
  -24.3591  -36.8906   22.2059 H   0  0  0  0  0  0
  -23.7247  -37.6479   23.6662 H   0  0  0  0  0  0
  -26.1079  -31.5304   20.6015 H   0  0  0  0  0  0
  -26.8465  -30.8158   22.0019 H   0  0  0  0  0  0
  -28.1143  -28.9489   21.1784 H   0  0  0  0  0  0
  -25.9637  -25.8310   19.1208 H   0  0  0  0  0  0
  -23.9734  -27.2468   19.0599 H   0  0  0  0  0  0
  -23.7664  -30.5666   19.3935 H   0  0  0  0  0  0
  -22.7628  -29.2279   19.8523 H   0  0  0  0  0  0
  -25.1312  -36.1906   25.0802 H   0  0  0  0  0  0
  -21.0014  -28.3268   24.1381 H   0  0  0  0  0  0
  -20.5669  -26.2297   23.3605 H   0  0  0  0  0  0
  -21.6644  -26.7415   22.1216 H   0  0  0  0  0  0
  -19.6923  -25.6281   21.1255 H   0  0  0  0  0  0
  -19.6726  -27.3162   20.6720 H   0  0  0  0  0  0
  -17.4220  -26.6686   21.4008 H   0  0  0  0  0  0
  -18.0341  -26.0067   22.9009 H   0  0  0  0  0  0
  -19.7941  -30.7293   24.2243 H   0  0  0  0  0  0
  -17.5017  -31.6277   24.5162 H   0  0  0  0  0  0
  -15.5367  -30.2983   23.7668 H   0  0  0  0  0  0
  -15.8679  -28.0833   22.7051 H   0  0  0  0  0  0
  -24.5866  -30.7108   25.7750 H   0  0  0  0  0  0
  -24.8891  -32.2937   26.4781 H   0  0  0  0  0  0
  -25.7995  -30.8971   27.0211 H   0  0  0  0  0  0
  -26.2908  -29.6742   24.1178 H   0  0  0  0  0  0
  -27.3941  -29.7230   25.4745 H   0  0  0  0  0  0
  -27.8820  -30.4228   23.9470 H   0  0  0  0  0  0
  -27.2592  -33.3594   26.2084 H   0  0  0  0  0  0
  -28.3856  -32.6899   25.0357 H   0  0  0  0  0  0
  -28.0654  -31.8418   26.5430 H   0  0  0  0  0  0
  -28.2597  -38.0114   24.7503 H   0  0  0  0  0  0
  -28.1095  -36.2638   24.6287 H   0  0  0  0  0  0
  -27.2303  -37.1454   25.8866 H   0  0  0  0  0  0
  -20.9368  -29.8733   21.6822 H   0  0  0  0  0  0
  -26.0176  -38.2840   24.1382 H   0  0  0  0  0  0
  -26.4545  -19.6039   17.2888 H   0  0  0  0  0  0
  -26.2460  -18.0684   18.1352 H   0  0  0  0  0  0
  -27.4895  -18.2375   16.8889 H   0  0  0  0  0  0
  -32.8735  -17.4506   22.6884 H   0  0  0  0  0  0
  -33.9944  -16.9821   21.4278 H   0  0  0  0  0  0
  -32.6620  -15.9490   21.8990 H   0  0  0  0  0  0
  -33.5624  -19.3278   20.9966 H   0  0  0  0  0  0
  -32.0743  -19.5723   21.8838 H   0  0  0  0  0  0
  -32.1597  -19.8993   20.1548 H   0  0  0  0  0  0
  -33.6286  -17.6206   19.1004 H   0  0  0  0  0  0
  -32.0944  -18.2351   18.5227 H   0  0  0  0  0  0
  -32.2934  -16.5426   18.7765 H   0  0  0  0  0  0
  -30.6309  -26.2540   19.3816 H   0  0  0  0  0  0
  -30.8679  -24.5241   19.3156 H   0  0  0  0  0  0
  -30.5676  -25.3040   20.8567 H   0  0  0  0  0  0
  -28.6820  -26.1639   17.6882 H   0  0  0  0  0  0
  -27.4383  -24.9378   17.8802 H   0  0  0  0  0  0
  -29.0828  -24.4605   17.5625 H   0  0  0  0  0  0
  -29.7043  -22.5382   18.8707 H   0  0  0  0  0  0
  -30.2596  -22.4776   20.4948 H   0  0  0  0  0  0
  -27.3806  -23.4107   19.8991 H   0  0  0  0  0  0
  -28.3163  -23.7342   21.3192 H   0  0  0  0  0  0
  -30.3382  -17.5907   21.9092 H   0  0  0  0  0  0
  -29.0469  -15.8893   20.7533 H   0  0  0  0  0  0
  1 25  1  0  0  0
  1 30  2  0  0  0
  1 88  1  0  0  0
  2  3  1  0  0  0
  2 25  1  0  0  0
  2 89  1  0  0  0
  2 90  1  0  0  0
  3  4  1  0  0  0
  3 91  1  0  0  0
  3 92  1  0  0  0
  4  5  1  0  0  0
  4 93  1  0  0  0
  4 94  1  0  0  0
  5  6  1  0  0  0
  5 26  1  0  0  0
  5 95  1  0  0  0
  6 25  1  0  0  0
  6 96  1  0  0  0
  6 97  1  0  0  0
  7  8  2  0  0  0
  7 26  1  0  0  0
  7 29  1  0  0  0
  8  9  1  0  0  0
  8 22  1  0  0  0
  9 10  1  0  0  0
  9 27  2  0  0  0
 10 11  2  0  0  0
 10 15  1  0  0  0
 11 12  1  0  0  0
 11 98  1  0  0  0
 12 13  2  0  0  0
 12 99  1  0  0  0
 13 14  1  0  0  0
 13 31  1  0  0  0
 14 15  2  0  0  0
 14100  1  0  0  0
 15101  1  0  0  0
 16 17  2  0  0  0
 16 21  1  0  0  0
 16 31  1  0  0  0
 17 18  1  0  0  0
 17102  1  0  0  0
 18 19  2  0  0  0
 18103  1  0  0  0
 19 20  1  0  0  0
 19 24  1  0  0  0
 20 21  2  0  0  0
 20104  1  0  0  0
 21 23  1  0  0  0
 22 28  1  0  0  0
 22 32  2  0  0  0
 26 27  1  0  0  0
 28105  1  0  0  0
 28106  1  0  0  0
 29107  1  0  0  0
 29108  1  0  0  0
 33 34  1  0  0  0
 33 66  1  0  0  0
 33 70  2  0  0  0
 34 36  1  0  0  0
 34 59  1  0  0  0
 34109  1  0  0  0
 35 44  2  0  0  0
 35 45  1  0  0  0
 35 68  1  0  0  0
 36 56  1  0  0  0
 36110  1  0  0  0
 37 39  1  0  0  0
 37 47  1  0  0  0
 37 66  1  0  0  0
 37111  1  0  0  0
 38 43  2  0  0  0
 38 46  1  0  0  0
 38 47  1  0  0  0
 39 64  1  0  0  0
 39 67  2  0  0  0
 40 52  1  0  0  0
 40 53  2  0  0  0
 40 58  1  0  0  0
 41112  1  0  0  0
 41113  1  0  0  0
 41114  1  0  0  0
 41 48  1  0  0  0
 42 43  1  0  0  0
 42 66  1  0  0  0
 42115  1  0  0  0
 42116  1  0  0  0
 43 44  1  0  0  0
 44117  1  0  0  0
 45 46  2  0  0  0
 45118  1  0  0  0
 46119  1  0  0  0
 47120  1  0  0  0
 47121  1  0  0  0
 48 56  1  0  0  0
 48 65  1  0  0  0
 48122  1  0  0  0
 49 50  1  0  0  0
 49 53  1  0  0  0
 49 64  1  0  0  0
 49123  1  0  0  0
 50 51  1  0  0  0
 50124  1  0  0  0
 50125  1  0  0  0
 51 52  1  0  0  0
 51126  1  0  0  0
 51127  1  0  0  0
 52128  1  0  0  0
 52129  1  0  0  0
 53 54  1  0  0  0
 54 55  2  0  0  0
 54130  1  0  0  0
 55 57  1  0  0  0
 55131  1  0  0  0
 56 69  2  0  0  0
 57 58  2  0  0  0
 57132  1  0  0  0
 58133  1  0  0  0
 59 60  1  0  0  0
 59 61  1  0  0  0
 59 62  1  0  0  0
 60134  1  0  0  0
 60135  1  0  0  0
 60136  1  0  0  0
 61137  1  0  0  0
 61138  1  0  0  0
 61139  1  0  0  0
 62140  1  0  0  0
 62141  1  0  0  0
 62142  1  0  0  0
 63 65  1  0  0  0
 63143  1  0  0  0
 63144  1  0  0  0
 63145  1  0  0  0
 64146  1  0  0  0
 65147  1  0  0  0
 68 84  1  0  0  0
 71 74  1  0  0  0
 71 85  2  0  0  0
 71 86  1  0  0  0
 72 80  1  0  0  0
 72 85  1  0  0  0
 72 87  2  0  0  0
 73 82  1  0  0  0
 73 86  2  0  0  0
 73 87  1  0  0  0
 74148  1  0  0  0
 74149  1  0  0  0
 74150  1  0  0  0
 75151  1  0  0  0
 75152  1  0  0  0
 75153  1  0  0  0
 75 83  1  0  0  0
 76 83  1  0  0  0
 76154  1  0  0  0
 76155  1  0  0  0
 76156  1  0  0  0
 77 83  1  0  0  0
 77157  1  0  0  0
 77158  1  0  0  0
 77159  1  0  0  0
 78160  1  0  0  0
 78161  1  0  0  0
 78162  1  0  0  0
 78 84  1  0  0  0
 79 84  1  0  0  0
 79163  1  0  0  0
 79164  1  0  0  0
 79165  1  0  0  0
 80 81  1  0  0  0
 80166  1  0  0  0
 80167  1  0  0  0
 81 84  1  0  0  0
 81168  1  0  0  0
 81169  1  0  0  0
 82 83  1  0  0  0
 82 88  1  0  0  0
 82170  1  0  0  0
 88171  1  0  0  0
M  ISO  4   1 100  68 101  84 101  88 100
M  END
> <chiral flag>
0

> <version>
0

> <s_m_source_file>
/data/baiqing/PycharmProjects/Reinvent-master-3.2/result/LINK_invent/BTK/process_docking_weight1_custom_sum_contain_oxygen_bond_distance_aromatic_linkinvent_7_9_3/rearranged_h_0064.sdf

> <i_m_source_file_index>
40

> <r_mmod_Potential_Energy-OPLS-2005>
-492.873779296875

> <r_mmod_Stretch_Energy-OPLS-2005>
151.203308105469

> <r_mmod_Bend_Energy-OPLS-2005>
273.029266357422

> <r_mmod_Torsional_Energy-OPLS-2005>
210.472793579102

> <r_mmod_Improper_Torsional_Energy-OPLS-2005>
6.27761888504028

> <r_mmod_Van_der_Waal_Energy-OPLS-2005>
175.686187744141

> <r_mmod_Electrostatic_Energy-OPLS-2005>
-1185.00830078125

> <r_mmod_Solvation_Energy-OPLS-2005>
-210.189025878906

> <b_mmod_Minimization_Converged-OPLS-2005>
0

> <r_mmod_RMS_Derivative-OPLS-2005>
3.04108786582947

$$$$
41
                    3D
 Structure written by MMmdl.
154162  0  0  1  0            999 V2000
  -30.4444  -15.2317   20.3692 C   0  0  0  0  0  0
  -30.4383  -12.7852   19.5160 C   0  0  0  0  0  0
  -29.5301  -12.5640   18.2811 C   0  0  0  0  0  0
  -28.0793  -12.2929   18.7153 C   0  0  0  0  0  0
  -27.6113  -13.2710   19.8211 C   0  0  2  0  0  0
  -28.6485  -13.4336   20.9525 C   0  0  0  0  0  0
  -25.2389  -13.8242   20.5758 C   0  0  0  0  0  0
  -24.1739  -13.0430   20.9265 C   0  0  0  0  0  0
  -24.6396  -11.6930   20.8767 C   0  0  0  0  0  0
  -23.9090  -10.4287   21.0399 C   0  0  0  0  0  0
  -24.3632   -9.4206   21.9179 C   0  0  0  0  0  0
  -23.6299   -8.2242   22.0747 C   0  0  0  0  0  0
  -22.4283   -8.0277   21.3531 C   0  0  0  0  0  0
  -21.9921   -9.0259   20.4639 C   0  0  0  0  0  0
  -22.7257  -10.2132   20.3047 C   0  0  0  0  0  0
  -21.6856   -6.0739   22.5278 C   0  0  0  0  0  0
  -21.4018   -6.5639   23.8218 C   0  0  0  0  0  0
  -21.3657   -5.6782   24.9175 C   0  0  0  0  0  0
  -21.6049   -4.3048   24.7224 C   0  0  0  0  0  0
  -21.8815   -3.8143   23.4348 C   0  0  0  0  0  0
  -21.9195   -4.6964   22.3403 C   0  0  0  0  0  0
  -22.7763  -13.5190   21.1914 C   0  0  0  0  0  0
  -22.1662   -4.2148   21.0978 F   0  0  0  0  0  0
  -21.5628   -3.4533   25.7739 F   0  0  0  0  0  0
  -29.8823  -13.9294   20.3223 N   0  0  0  0  0  0
  -26.2815  -12.9515   20.3225 N   0  0  0  0  0  0
  -25.9331  -11.6623   20.5741 N   0  0  0  0  0  0
  -22.0424  -12.8159   22.0464 N   0  0  0  0  0  0
  -25.4006  -15.1976   20.4210 N   0  0  0  0  0  0
  -31.6677  -15.2442   20.1771 O   0  0  0  0  0  0
  -21.6638   -6.8880   21.4237 O   0  0  0  0  0  0
  -22.3440  -14.5497   20.6775 O   0  0  0  0  0  0
  -24.6590  -31.8253   23.1707 C   0  0  0  0  0  0
  -25.9290  -32.4589   23.8161 C   0  0  1  0  0  0
  -27.2252  -26.9489   20.1896 C   0  0  0  0  0  0
  -25.5973  -33.8407   24.2070 N   0  0  0  0  0  0
  -23.4724  -30.4355   21.5178 C   0  0  2  0  0  0
  -24.9262  -28.8183   20.1150 C   0  0  0  0  0  0
  -22.7633  -29.4456   22.4782 C   0  0  0  0  0  0
  -18.0321  -28.1407   22.8467 C   0  0  0  0  0  0
  -24.1494  -36.7209   23.2647 C   0  0  0  0  0  0
  -26.0375  -30.6378   21.3975 C   0  0  0  0  0  0
  -26.1058  -29.2271   20.7486 C   0  0  0  0  0  0
  -27.2462  -28.3104   20.7636 C   0  0  0  0  0  0
  -26.0184  -26.6822   19.5084 C   0  0  0  0  0  0
  -24.9053  -27.5651   19.4773 C   0  0  0  0  0  0
  -23.7119  -29.7457   20.1452 C   0  0  0  0  0  0
  -25.4135  -36.2968   24.0297 C   0  0  1  0  0  0
  -20.5937  -28.3765   23.1193 C   0  0  2  0  0  0
  -20.6805  -26.9442   22.5414 C   0  0  0  0  0  0
  -19.5784  -26.6355   21.5228 C   0  0  0  0  0  0
  -18.1962  -26.7932   22.1628 C   0  0  0  0  0  0
  -19.1574  -28.8903   23.2821 C   0  0  0  0  0  0
  -18.9486  -30.1494   23.8846 C   0  0  0  0  0  0
  -17.6477  -30.6596   24.0553 C   0  0  0  0  0  0
  -25.9099  -34.9353   23.5004 C   0  0  0  0  0  0
  -16.5370  -29.9079   23.6338 C   0  0  0  0  0  0
  -16.7303  -28.6503   23.0353 C   0  0  0  0  0  0
  -26.4559  -31.6532   25.0681 C   0  0  0  0  0  0
  -25.3692  -31.3786   26.1340 C   0  0  0  0  0  0
  -27.0454  -30.2898   24.6408 C   0  0  0  0  0  0
  -27.6047  -32.4345   25.7489 C   0  0  0  0  0  0
  -27.5567  -37.1762   24.8467 C   0  0  0  0  0  0
  -21.4304  -29.3062   22.3528 N   0  0  0  0  0  0
  -26.4278  -37.3698   23.9407 N   0  0  0  0  0  0
  -24.7438  -30.9939   22.0824 N   0  0  0  0  0  0
  -23.4185  -28.8034   23.3023 O   0  0  0  0  0  0
  -28.2853  -25.9084   20.2258 O   0  0  0  0  0  0
  -26.5711  -34.8888   22.4600 O   0  0  0  0  0  0
  -23.5671  -32.1216   23.6829 O   0  0  0  0  0  0
  -28.9339  -23.4871   21.2249 C   0  0  0  0  0  0
  -27.9867  -23.4150   19.1962 C   0  0  0  0  0  0
  -28.3075  -24.3698   20.2394 C   0  0  0  0  0  0
  -28.8138  -21.2517   20.1487 C   0  0  0  0  0  0
  -28.5634  -19.1865   18.5968 C   0  0  0  0  0  0
  -29.8937  -18.1444   20.4670 C   0  0  0  0  0  0
  -28.7413  -19.4782   20.1108 C   0  0  2  0  0  0
  -27.4526  -19.0383   20.8814 C   0  0  0  0  0  0
  -26.2031  -19.9579   20.8478 C   0  0  0  0  0  0
  -29.1413  -22.0714   21.1991 N   0  0  0  0  0  0
  -28.2027  -22.0106   19.1752 N   0  0  0  0  0  0
  -29.6623  -16.4843   20.4331 N   0  0  0  0  0  0
  -27.7815  -18.8963   22.1682 F   0  0  0  0  0  0
  -27.0750  -17.8312   20.4438 F   0  0  0  0  0  0
  -25.2032  -19.3308   21.4703 F   0  0  0  0  0  0
  -26.3857  -21.1123   21.4862 F   0  0  0  0  0  0
  -25.8056  -20.2082   19.6016 F   0  0  0  0  0  0
  -31.4577  -12.9869   19.1848 H   0  0  0  0  0  0
  -30.4988  -11.8783   20.1198 H   0  0  0  0  0  0
  -29.9018  -11.7360   17.6755 H   0  0  0  0  0  0
  -29.5623  -13.4491   17.6435 H   0  0  0  0  0  0
  -28.0375  -11.2718   19.0957 H   0  0  0  0  0  0
  -27.4063  -12.3282   17.8581 H   0  0  0  0  0  0
  -27.5286  -14.2387   19.3245 H   0  0  0  0  0  0
  -28.8119  -12.4948   21.4835 H   0  0  0  0  0  0
  -28.2988  -14.1549   21.6930 H   0  0  0  0  0  0
  -25.2780   -9.5688   22.4752 H   0  0  0  0  0  0
  -24.0011   -7.4633   22.7467 H   0  0  0  0  0  0
  -21.0855   -8.8779   19.8948 H   0  0  0  0  0  0
  -22.3713  -10.9671   19.6149 H   0  0  0  0  0  0
  -21.2006   -7.6146   23.9722 H   0  0  0  0  0  0
  -21.1483   -6.0514   25.9078 H   0  0  0  0  0  0
  -22.0598   -2.7607   23.2848 H   0  0  0  0  0  0
  -22.4059  -11.9827   22.4838 H   0  0  0  0  0  0
  -21.1033  -13.1164   22.2684 H   0  0  0  0  0  0
  -24.6302  -15.8434   20.5493 H   0  0  0  0  0  0
  -26.2427  -15.6507   20.0956 H   0  0  0  0  0  0
  -26.7349  -32.5141   23.0869 H   0  0  0  0  0  0
  -25.0070  -33.9477   25.0190 H   0  0  0  0  0  0
  -22.7848  -31.2665   21.3455 H   0  0  0  0  0  0
  -23.3758  -35.9534   23.3291 H   0  0  0  0  0  0
  -24.3565  -36.8876   22.2062 H   0  0  0  0  0  0
  -23.7249  -37.6394   23.6715 H   0  0  0  0  0  0
  -26.2125  -31.3784   20.6163 H   0  0  0  0  0  0
  -26.8983  -30.6974   22.0516 H   0  0  0  0  0  0
  -28.1439  -28.6260   21.2768 H   0  0  0  0  0  0
  -25.9134  -25.7255   19.0191 H   0  0  0  0  0  0
  -24.0079  -27.2449   18.9665 H   0  0  0  0  0  0
  -23.8680  -30.5119   19.3848 H   0  0  0  0  0  0
  -22.8219  -29.1997   19.8294 H   0  0  0  0  0  0
  -25.1332  -36.1762   25.0783 H   0  0  0  0  0  0
  -21.0029  -28.3383   24.1317 H   0  0  0  0  0  0
  -20.5699  -26.2387   23.3664 H   0  0  0  0  0  0
  -21.6677  -26.7436   22.1226 H   0  0  0  0  0  0
  -19.6732  -27.3109   20.6714 H   0  0  0  0  0  0
  -19.6955  -25.6242   21.1324 H   0  0  0  0  0  0
  -17.4236  -26.6676   21.4026 H   0  0  0  0  0  0
  -18.0358  -26.0085   22.9039 H   0  0  0  0  0  0
  -19.7961  -30.7327   24.2192 H   0  0  0  0  0  0
  -17.5029  -31.6272   24.5159 H   0  0  0  0  0  0
  -15.5372  -30.2968   23.7678 H   0  0  0  0  0  0
  -15.8707  -28.0809   22.7087 H   0  0  0  0  0  0
  -24.5889  -30.7115   25.7656 H   0  0  0  0  0  0
  -24.8864  -32.2989   26.4636 H   0  0  0  0  0  0
  -25.7926  -30.9045   27.0204 H   0  0  0  0  0  0
  -26.3115  -29.6566   24.1407 H   0  0  0  0  0  0
  -27.3979  -29.7271   25.5066 H   0  0  0  0  0  0
  -27.9061  -30.4077   23.9817 H   0  0  0  0  0  0
  -27.2606  -33.3686   26.1946 H   0  0  0  0  0  0
  -28.3924  -32.6845   25.0367 H   0  0  0  0  0  0
  -28.0640  -31.8554   26.5513 H   0  0  0  0  0  0
  -28.2574  -38.0065   24.7496 H   0  0  0  0  0  0
  -28.1073  -36.2593   24.6318 H   0  0  0  0  0  0
  -27.2283  -37.1431   25.8869 H   0  0  0  0  0  0
  -20.9543  -29.8740   21.6661 H   0  0  0  0  0  0
  -26.0131  -38.2756   24.1410 H   0  0  0  0  0  0
  -29.3359  -23.9523   22.1124 H   0  0  0  0  0  0
  -27.5477  -23.7983   18.2877 H   0  0  0  0  0  0
  -29.4318  -19.5392   18.0395 H   0  0  0  0  0  0
  -27.6903  -19.6753   18.1693 H   0  0  0  0  0  0
  -28.4581  -18.1226   18.3854 H   0  0  0  0  0  0
  -30.7754  -18.3224   19.8510 H   0  0  0  0  0  0
  -30.2452  -18.3367   21.4815 H   0  0  0  0  0  0
  -28.6803  -16.2691   20.5133 H   0  0  0  0  0  0
  1 25  1  0  0  0
  1 30  2  0  0  0
  1 82  1  0  0  0
  2  3  1  0  0  0
  2 25  1  0  0  0
  2 88  1  0  0  0
  2 89  1  0  0  0
  3  4  1  0  0  0
  3 90  1  0  0  0
  3 91  1  0  0  0
  4  5  1  0  0  0
  4 92  1  0  0  0
  4 93  1  0  0  0
  5  6  1  0  0  0
  5 26  1  0  0  0
  5 94  1  0  0  0
  6 25  1  0  0  0
  6 95  1  0  0  0
  6 96  1  0  0  0
  7  8  2  0  0  0
  7 26  1  0  0  0
  7 29  1  0  0  0
  8  9  1  0  0  0
  8 22  1  0  0  0
  9 10  1  0  0  0
  9 27  2  0  0  0
 10 11  2  0  0  0
 10 15  1  0  0  0
 11 12  1  0  0  0
 11 97  1  0  0  0
 12 13  2  0  0  0
 12 98  1  0  0  0
 13 14  1  0  0  0
 13 31  1  0  0  0
 14 15  2  0  0  0
 14 99  1  0  0  0
 15100  1  0  0  0
 16 17  2  0  0  0
 16 21  1  0  0  0
 16 31  1  0  0  0
 17 18  1  0  0  0
 17101  1  0  0  0
 18 19  2  0  0  0
 18102  1  0  0  0
 19 20  1  0  0  0
 19 24  1  0  0  0
 20 21  2  0  0  0
 20103  1  0  0  0
 21 23  1  0  0  0
 22 28  1  0  0  0
 22 32  2  0  0  0
 26 27  1  0  0  0
 28104  1  0  0  0
 28105  1  0  0  0
 29106  1  0  0  0
 29107  1  0  0  0
 33 34  1  0  0  0
 33 66  1  0  0  0
 33 70  2  0  0  0
 34 36  1  0  0  0
 34 59  1  0  0  0
 34108  1  0  0  0
 35 44  2  0  0  0
 35 45  1  0  0  0
 35 68  1  0  0  0
 36 56  1  0  0  0
 36109  1  0  0  0
 37 39  1  0  0  0
 37 47  1  0  0  0
 37 66  1  0  0  0
 37110  1  0  0  0
 38 43  2  0  0  0
 38 46  1  0  0  0
 38 47  1  0  0  0
 39 64  1  0  0  0
 39 67  2  0  0  0
 40 52  1  0  0  0
 40 53  2  0  0  0
 40 58  1  0  0  0
 41111  1  0  0  0
 41112  1  0  0  0
 41113  1  0  0  0
 41 48  1  0  0  0
 42 43  1  0  0  0
 42 66  1  0  0  0
 42114  1  0  0  0
 42115  1  0  0  0
 43 44  1  0  0  0
 44116  1  0  0  0
 45 46  2  0  0  0
 45117  1  0  0  0
 46118  1  0  0  0
 47119  1  0  0  0
 47120  1  0  0  0
 48 56  1  0  0  0
 48 65  1  0  0  0
 48121  1  0  0  0
 49 50  1  0  0  0
 49 53  1  0  0  0
 49 64  1  0  0  0
 49122  1  0  0  0
 50 51  1  0  0  0
 50123  1  0  0  0
 50124  1  0  0  0
 51 52  1  0  0  0
 51125  1  0  0  0
 51126  1  0  0  0
 52127  1  0  0  0
 52128  1  0  0  0
 53 54  1  0  0  0
 54 55  2  0  0  0
 54129  1  0  0  0
 55 57  1  0  0  0
 55130  1  0  0  0
 56 69  2  0  0  0
 57 58  2  0  0  0
 57131  1  0  0  0
 58132  1  0  0  0
 59 60  1  0  0  0
 59 61  1  0  0  0
 59 62  1  0  0  0
 60133  1  0  0  0
 60134  1  0  0  0
 60135  1  0  0  0
 61136  1  0  0  0
 61137  1  0  0  0
 61138  1  0  0  0
 62139  1  0  0  0
 62140  1  0  0  0
 62141  1  0  0  0
 63 65  1  0  0  0
 63142  1  0  0  0
 63143  1  0  0  0
 63144  1  0  0  0
 64145  1  0  0  0
 65146  1  0  0  0
 68 73  1  0  0  0
 71 73  2  0  0  0
 71 80  1  0  0  0
 71147  1  0  0  0
 72 73  1  0  0  0
 72 81  2  0  0  0
 72148  1  0  0  0
 74 77  1  0  0  0
 74 80  2  0  0  0
 74 81  1  0  0  0
 75149  1  0  0  0
 75150  1  0  0  0
 75151  1  0  0  0
 75 77  1  0  0  0
 76 77  1  0  0  0
 76 82  1  0  0  0
 76152  1  0  0  0
 76153  1  0  0  0
 77 78  1  0  0  0
 78 79  1  0  0  0
 78 83  1  0  0  0
 78 84  1  0  0  0
 79 85  1  0  0  0
 79 86  1  0  0  0
 79 87  1  0  0  0
 82154  1  0  0  0
M  ISO  4   1 100  68 101  73 101  82 100
M  END
> <chiral flag>
0

> <version>
0

> <s_m_source_file>
/data/baiqing/PycharmProjects/Reinvent-master-3.2/result/LINK_invent/BTK/process_docking_weight1_custom_sum_contain_oxygen_bond_distance_aromatic_linkinvent_7_9_3/rearranged_h_0064.sdf

> <i_m_source_file_index>
41

> <r_mmod_Potential_Energy-OPLS-2005>
764.578491210938

> <r_mmod_Stretch_Energy-OPLS-2005>
506.779907226562

> <r_mmod_Bend_Energy-OPLS-2005>
457.296234130859

> <r_mmod_Torsional_Energy-OPLS-2005>
196.04963684082

> <r_mmod_Improper_Torsional_Energy-OPLS-2005>
7.06743621826172

> <r_mmod_Van_der_Waal_Energy-OPLS-2005>
142.991317749023

> <r_mmod_Electrostatic_Energy-OPLS-2005>
-743.235656738281

> <r_mmod_Solvation_Energy-OPLS-2005>
-218.986343383789

> <b_mmod_Minimization_Converged-OPLS-2005>
0

> <r_mmod_RMS_Derivative-OPLS-2005>
1.47604858875275

$$$$
42
                    3D
 Structure written by MMmdl.
160168  0  0  1  0            999 V2000
  -30.5981  -14.7392   20.4520 C   0  0  0  0  0  0
  -30.4342  -12.4549   19.4611 C   0  0  0  0  0  0
  -29.5047  -12.5018   18.2273 C   0  0  0  0  0  0
  -28.0276  -12.3402   18.6402 C   0  0  0  0  0  0
  -27.6398  -13.2310   19.8494 C   0  0  2  0  0  0
  -28.6902  -13.1544   20.9787 C   0  0  0  0  0  0
  -25.2503  -13.8170   20.5700 C   0  0  0  0  0  0
  -24.1791  -13.0406   20.9184 C   0  0  0  0  0  0
  -24.6385  -11.6907   20.8744 C   0  0  0  0  0  0
  -23.9072  -10.4280   21.0437 C   0  0  0  0  0  0
  -24.3641   -9.4195   21.9193 C   0  0  0  0  0  0
  -23.6320   -8.2229   22.0748 C   0  0  0  0  0  0
  -22.4305   -8.0269   21.3549 C   0  0  0  0  0  0
  -21.9946   -9.0229   20.4646 C   0  0  0  0  0  0
  -22.7264  -10.2117   20.3073 C   0  0  0  0  0  0
  -21.6843   -6.0740   22.5291 C   0  0  0  0  0  0
  -21.3995   -6.5641   23.8225 C   0  0  0  0  0  0
  -21.3661   -5.6807   24.9185 C   0  0  0  0  0  0
  -21.6055   -4.3074   24.7243 C   0  0  0  0  0  0
  -21.8817   -3.8160   23.4364 C   0  0  0  0  0  0
  -21.9188   -4.6969   22.3422 C   0  0  0  0  0  0
  -22.7833  -13.5201   21.1886 C   0  0  0  0  0  0
  -22.1667   -4.2165   21.1003 F   0  0  0  0  0  0
  -21.5636   -3.4550   25.7747 F   0  0  0  0  0  0
  -29.9869  -13.5096   20.3944 N   0  0  0  0  0  0
  -26.2937  -12.9394   20.3315 N   0  0  0  0  0  0
  -25.9321  -11.6537   20.5779 N   0  0  0  0  0  0
  -22.0524  -12.8141   22.0436 N   0  0  0  0  0  0
  -25.4130  -15.1881   20.4129 N   0  0  0  0  0  0
  -31.7870  -14.8596   20.1462 O   0  0  0  0  0  0
  -21.6637   -6.8890   21.4266 O   0  0  0  0  0  0
  -22.3513  -14.5537   20.6787 O   0  0  0  0  0  0
  -24.6286  -31.8561   23.1982 C   0  0  0  0  0  0
  -25.9106  -32.4765   23.8329 C   0  0  1  0  0  0
  -27.2261  -27.2809   20.1346 C   0  0  0  0  0  0
  -25.5906  -33.8567   24.2266 N   0  0  0  0  0  0
  -23.4246  -30.4780   21.5433 C   0  0  2  0  0  0
  -24.8711  -28.9142   20.1214 C   0  0  0  0  0  0
  -22.7486  -29.4611   22.4937 C   0  0  0  0  0  0
  -18.0288  -28.1363   22.8497 C   0  0  0  0  0  0
  -24.1489  -36.7291   23.2659 C   0  0  0  0  0  0
  -25.9671  -30.7752   21.3751 C   0  0  0  0  0  0
  -26.0421  -29.3966   20.7192 C   0  0  0  0  0  0
  -27.2258  -28.5953   20.7062 C   0  0  0  0  0  0
  -26.0326  -26.8460   19.5240 C   0  0  0  0  0  0
  -24.8692  -27.6463   19.5146 C   0  0  0  0  0  0
  -23.6418  -29.8028   20.1639 C   0  0  0  0  0  0
  -25.4123  -36.3096   24.0342 C   0  0  1  0  0  0
  -20.5902  -28.3687   23.1284 C   0  0  2  0  0  0
  -20.6769  -26.9401   22.5429 C   0  0  0  0  0  0
  -19.5730  -26.6366   21.5234 C   0  0  0  0  0  0
  -18.1913  -26.7904   22.1641 C   0  0  0  0  0  0
  -19.1550  -28.8841   23.2873 C   0  0  0  0  0  0
  -18.9466  -30.1448   23.8873 C   0  0  0  0  0  0
  -17.6460  -30.6576   24.0574 C   0  0  0  0  0  0
  -25.9035  -34.9452   23.5110 C   0  0  0  0  0  0
  -16.5350  -29.9080   23.6340 C   0  0  0  0  0  0
  -16.7276  -28.6501   23.0368 C   0  0  0  0  0  0
  -26.4485  -31.6579   25.0716 C   0  0  0  0  0  0
  -25.3718  -31.3716   26.1450 C   0  0  0  0  0  0
  -27.0389  -30.3010   24.6210 C   0  0  0  0  0  0
  -27.6029  -32.4352   25.7477 C   0  0  0  0  0  0
  -27.5584  -37.1804   24.8472 C   0  0  0  0  0  0
  -21.4208  -29.3037   22.3659 N   0  0  0  0  0  0
  -26.4308  -37.3788   23.9397 N   0  0  0  0  0  0
  -24.6926  -31.0540   22.0961 N   0  0  0  0  0  0
  -23.4198  -28.8175   23.3047 O   0  0  0  0  0  0
  -28.3564  -26.4444   20.0989 O   0  0  0  0  0  0
  -26.5630  -34.8933   22.4690 O   0  0  0  0  0  0
  -23.5447  -32.1372   23.7306 O   0  0  0  0  0  0
  -30.6213  -22.5773   20.1858 C   0  0  0  0  0  0
  -31.4130  -21.4238   20.2816 C   0  0  0  0  0  0
  -29.2286  -22.4369   20.1224 C   0  0  0  0  0  0
  -29.5531  -20.0543   20.3685 C   0  0  0  0  0  0
  -32.9237  -21.5026   20.2138 C   0  0  0  0  0  0
  -28.3642  -18.2260   19.0592 C   0  0  0  0  0  0
  -28.3508  -23.7163   19.7450 C   0  0  0  0  0  0
  -30.1603  -17.3501   20.6198 C   0  0  0  0  0  0
  -28.3220  -25.0521   20.6574 C   0  0  0  0  0  0
  -29.0271  -18.5262   20.4186 C   0  0  1  0  0  0
  -27.9958  -18.3786   21.5815 C   0  0  0  0  0  0
  -30.8788  -20.1928   20.3698 N   0  0  0  0  0  0
  -28.7232  -21.1441   20.2027 N   0  0  0  0  0  0
  -29.7985  -15.8522   20.6438 N   0  0  0  0  0  0
  -26.9626  -19.2175   21.4700 F   0  0  0  0  0  0
  -28.5792  -18.5889   22.7644 F   0  0  0  0  0  0
  -27.4932  -17.1398   21.5909 F   0  0  0  0  0  0
  -31.4756  -12.5804   19.1614 H   0  0  0  0  0  0
  -30.3846  -11.4802   19.9479 H   0  0  0  0  0  0
  -29.7831  -11.7250   17.5125 H   0  0  0  0  0  0
  -29.6316  -13.4534   17.7081 H   0  0  0  0  0  0
  -27.8654  -11.2916   18.8892 H   0  0  0  0  0  0
  -27.3768  -12.5543   17.7920 H   0  0  0  0  0  0
  -27.6340  -14.2521   19.4681 H   0  0  0  0  0  0
  -28.7260  -12.1518   21.4081 H   0  0  0  0  0  0
  -28.4360  -13.8293   21.7966 H   0  0  0  0  0  0
  -25.2789   -9.5651   22.4752 H   0  0  0  0  0  0
  -24.0031   -7.4611   22.7442 H   0  0  0  0  0  0
  -21.0897   -8.8743   19.8917 H   0  0  0  0  0  0
  -22.3743  -10.9654   19.6174 H   0  0  0  0  0  0
  -21.1966   -7.6150   23.9731 H   0  0  0  0  0  0
  -21.1499   -6.0537   25.9097 H   0  0  0  0  0  0
  -22.0596   -2.7627   23.2862 H   0  0  0  0  0  0
  -22.4223  -11.9814   22.4793 H   0  0  0  0  0  0
  -21.1126  -13.1090   22.2693 H   0  0  0  0  0  0
  -24.6416  -15.8317   20.5455 H   0  0  0  0  0  0
  -26.2714  -15.6536   20.1557 H   0  0  0  0  0  0
  -26.7170  -32.5446   23.1070 H   0  0  0  0  0  0
  -25.0007  -33.9692   25.0384 H   0  0  0  0  0  0
  -22.7210  -31.3010   21.3949 H   0  0  0  0  0  0
  -23.3781  -35.9594   23.3333 H   0  0  0  0  0  0
  -24.3554  -36.8900   22.2066 H   0  0  0  0  0  0
  -23.7196  -37.6477   23.6673 H   0  0  0  0  0  0
  -26.1077  -31.5378   20.6088 H   0  0  0  0  0  0
  -26.8429  -30.8245   22.0110 H   0  0  0  0  0  0
  -28.1328  -28.9646   21.1642 H   0  0  0  0  0  0
  -26.0003  -25.8742   19.0514 H   0  0  0  0  0  0
  -23.9683  -27.2728   19.0470 H   0  0  0  0  0  0
  -23.7685  -30.5747   19.4033 H   0  0  0  0  0  0
  -22.7580  -29.2386   19.8628 H   0  0  0  0  0  0
  -25.1301  -36.1968   25.0838 H   0  0  0  0  0  0
  -20.9985  -28.3281   24.1413 H   0  0  0  0  0  0
  -20.5695  -26.2292   23.3641 H   0  0  0  0  0  0
  -21.6622  -26.7418   22.1199 H   0  0  0  0  0  0
  -19.6891  -25.6295   21.1223 H   0  0  0  0  0  0
  -19.6652  -27.3230   20.6807 H   0  0  0  0  0  0
  -17.4188  -26.6710   21.4036 H   0  0  0  0  0  0
  -18.0249  -26.0039   22.9015 H   0  0  0  0  0  0
  -19.7958  -30.7270   24.2213 H   0  0  0  0  0  0
  -17.5038  -31.6252   24.5193 H   0  0  0  0  0  0
  -15.5361  -30.2982   23.7662 H   0  0  0  0  0  0
  -15.8675  -28.0816   22.7079 H   0  0  0  0  0  0
  -24.5867  -30.7093   25.7768 H   0  0  0  0  0  0
  -24.8940  -32.2895   26.4896 H   0  0  0  0  0  0
  -25.8033  -30.8860   27.0210 H   0  0  0  0  0  0
  -26.3000  -29.6672   24.1287 H   0  0  0  0  0  0
  -27.4165  -29.7337   25.4721 H   0  0  0  0  0  0
  -27.8811  -30.4316   23.9413 H   0  0  0  0  0  0
  -27.2614  -33.3663   26.2017 H   0  0  0  0  0  0
  -28.3829  -32.6890   25.0286 H   0  0  0  0  0  0
  -28.0709  -31.8508   26.5415 H   0  0  0  0  0  0
  -28.2619  -38.0097   24.7535 H   0  0  0  0  0  0
  -28.1071  -36.2622   24.6302 H   0  0  0  0  0  0
  -27.2277  -37.1426   25.8873 H   0  0  0  0  0  0
  -20.9393  -29.8751   21.6856 H   0  0  0  0  0  0
  -26.0214  -38.2861   24.1440 H   0  0  0  0  0  0
  -31.0792  -23.5529   20.0878 H   0  0  0  0  0  0
  -33.2407  -21.6035   19.1751 H   0  0  0  0  0  0
  -33.3819  -20.6009   20.6173 H   0  0  0  0  0  0
  -33.2955  -22.3627   20.7736 H   0  0  0  0  0  0
  -29.0792  -18.3571   18.2454 H   0  0  0  0  0  0
  -27.5260  -18.8978   18.8735 H   0  0  0  0  0  0
  -27.9897  -17.2053   19.0111 H   0  0  0  0  0  0
  -27.3249  -23.3875   19.5806 H   0  0  0  0  0  0
  -28.7031  -24.0206   18.7608 H   0  0  0  0  0  0
  -30.6707  -17.5523   21.5615 H   0  0  0  0  0  0
  -30.9211  -17.4825   19.8504 H   0  0  0  0  0  0
  -29.2132  -25.0064   21.2808 H   0  0  0  0  0  0
  -27.5015  -24.9723   21.3718 H   0  0  0  0  0  0
  -28.8291  -15.6456   20.8309 H   0  0  0  0  0  0
  1 25  1  0  0  0
  1 30  2  0  0  0
  1 84  1  0  0  0
  2  3  1  0  0  0
  2 25  1  0  0  0
  2 88  1  0  0  0
  2 89  1  0  0  0
  3  4  1  0  0  0
  3 90  1  0  0  0
  3 91  1  0  0  0
  4  5  1  0  0  0
  4 92  1  0  0  0
  4 93  1  0  0  0
  5  6  1  0  0  0
  5 26  1  0  0  0
  5 94  1  0  0  0
  6 25  1  0  0  0
  6 95  1  0  0  0
  6 96  1  0  0  0
  7  8  2  0  0  0
  7 26  1  0  0  0
  7 29  1  0  0  0
  8  9  1  0  0  0
  8 22  1  0  0  0
  9 10  1  0  0  0
  9 27  2  0  0  0
 10 11  2  0  0  0
 10 15  1  0  0  0
 11 12  1  0  0  0
 11 97  1  0  0  0
 12 13  2  0  0  0
 12 98  1  0  0  0
 13 14  1  0  0  0
 13 31  1  0  0  0
 14 15  2  0  0  0
 14 99  1  0  0  0
 15100  1  0  0  0
 16 17  2  0  0  0
 16 21  1  0  0  0
 16 31  1  0  0  0
 17 18  1  0  0  0
 17101  1  0  0  0
 18 19  2  0  0  0
 18102  1  0  0  0
 19 20  1  0  0  0
 19 24  1  0  0  0
 20 21  2  0  0  0
 20103  1  0  0  0
 21 23  1  0  0  0
 22 28  1  0  0  0
 22 32  2  0  0  0
 26 27  1  0  0  0
 28104  1  0  0  0
 28105  1  0  0  0
 29106  1  0  0  0
 29107  1  0  0  0
 33 34  1  0  0  0
 33 66  1  0  0  0
 33 70  2  0  0  0
 34 36  1  0  0  0
 34 59  1  0  0  0
 34108  1  0  0  0
 35 44  2  0  0  0
 35 45  1  0  0  0
 35 68  1  0  0  0
 36 56  1  0  0  0
 36109  1  0  0  0
 37 39  1  0  0  0
 37 47  1  0  0  0
 37 66  1  0  0  0
 37110  1  0  0  0
 38 43  2  0  0  0
 38 46  1  0  0  0
 38 47  1  0  0  0
 39 64  1  0  0  0
 39 67  2  0  0  0
 40 52  1  0  0  0
 40 53  2  0  0  0
 40 58  1  0  0  0
 41111  1  0  0  0
 41112  1  0  0  0
 41113  1  0  0  0
 41 48  1  0  0  0
 42 43  1  0  0  0
 42 66  1  0  0  0
 42114  1  0  0  0
 42115  1  0  0  0
 43 44  1  0  0  0
 44116  1  0  0  0
 45 46  2  0  0  0
 45117  1  0  0  0
 46118  1  0  0  0
 47119  1  0  0  0
 47120  1  0  0  0
 48 56  1  0  0  0
 48 65  1  0  0  0
 48121  1  0  0  0
 49 50  1  0  0  0
 49 53  1  0  0  0
 49 64  1  0  0  0
 49122  1  0  0  0
 50 51  1  0  0  0
 50123  1  0  0  0
 50124  1  0  0  0
 51 52  1  0  0  0
 51125  1  0  0  0
 51126  1  0  0  0
 52127  1  0  0  0
 52128  1  0  0  0
 53 54  1  0  0  0
 54 55  2  0  0  0
 54129  1  0  0  0
 55 57  1  0  0  0
 55130  1  0  0  0
 56 69  2  0  0  0
 57 58  2  0  0  0
 57131  1  0  0  0
 58132  1  0  0  0
 59 60  1  0  0  0
 59 61  1  0  0  0
 59 62  1  0  0  0
 60133  1  0  0  0
 60134  1  0  0  0
 60135  1  0  0  0
 61136  1  0  0  0
 61137  1  0  0  0
 61138  1  0  0  0
 62139  1  0  0  0
 62140  1  0  0  0
 62141  1  0  0  0
 63 65  1  0  0  0
 63142  1  0  0  0
 63143  1  0  0  0
 63144  1  0  0  0
 64145  1  0  0  0
 65146  1  0  0  0
 68 79  1  0  0  0
 71 72  2  0  0  0
 71 73  1  0  0  0
 71147  1  0  0  0
 72 75  1  0  0  0
 72 82  1  0  0  0
 73 77  1  0  0  0
 73 83  2  0  0  0
 74 80  1  0  0  0
 74 82  2  0  0  0
 74 83  1  0  0  0
 75148  1  0  0  0
 75149  1  0  0  0
 75150  1  0  0  0
 76151  1  0  0  0
 76152  1  0  0  0
 76153  1  0  0  0
 76 80  1  0  0  0
 77 79  1  0  0  0
 77154  1  0  0  0
 77155  1  0  0  0
 78 80  1  0  0  0
 78 84  1  0  0  0
 78156  1  0  0  0
 78157  1  0  0  0
 79158  1  0  0  0
 79159  1  0  0  0
 80 81  1  0  0  0
 81 85  1  0  0  0
 81 86  1  0  0  0
 81 87  1  0  0  0
 84160  1  0  0  0
M  ISO  4   1 100  68 101  79 101  84 100
M  END
> <chiral flag>
0

> <version>
0

> <s_m_source_file>
/data/baiqing/PycharmProjects/Reinvent-master-3.2/result/LINK_invent/BTK/process_docking_weight1_custom_sum_contain_oxygen_bond_distance_aromatic_linkinvent_7_9_3/rearranged_h_0064.sdf

> <i_m_source_file_index>
42

> <r_mmod_Potential_Energy-OPLS-2005>
-67.7922210693359

> <r_mmod_Stretch_Energy-OPLS-2005>
129.72998046875

> <r_mmod_Bend_Energy-OPLS-2005>
181.356262207031

> <r_mmod_Torsional_Energy-OPLS-2005>
243.327438354492

> <r_mmod_Improper_Torsional_Energy-OPLS-2005>
6.11975574493408

> <r_mmod_Van_der_Waal_Energy-OPLS-2005>
137.521240234375

> <r_mmod_Electrostatic_Energy-OPLS-2005>
-620.156860351562

> <r_mmod_Solvation_Energy-OPLS-2005>
-220.734909057617

> <b_mmod_Minimization_Converged-OPLS-2005>
0

> <r_mmod_RMS_Derivative-OPLS-2005>
3.79583668708801

$$$$
43
                    3D
 Structure written by MMmdl.
170178  0  0  1  0            999 V2000
  -30.6172  -14.7306   20.4807 C   0  0  0  0  0  0
  -30.4326  -12.4460   19.4804 C   0  0  0  0  0  0
  -29.5118  -12.5211   18.2410 C   0  0  0  0  0  0
  -28.0359  -12.3513   18.6493 C   0  0  0  0  0  0
  -27.6474  -13.2387   19.8621 C   0  0  2  0  0  0
  -28.6915  -13.1519   21.0010 C   0  0  0  0  0  0
  -25.2525  -13.8243   20.5762 C   0  0  0  0  0  0
  -24.1804  -13.0479   20.9255 C   0  0  0  0  0  0
  -24.6369  -11.6962   20.8738 C   0  0  0  0  0  0
  -23.9025  -10.4336   21.0405 C   0  0  0  0  0  0
  -24.3578   -9.4257   21.9178 C   0  0  0  0  0  0
  -23.6274   -8.2278   22.0743 C   0  0  0  0  0  0
  -22.4249   -8.0303   21.3552 C   0  0  0  0  0  0
  -21.9872   -9.0264   20.4653 C   0  0  0  0  0  0
  -22.7194  -10.2153   20.3050 C   0  0  0  0  0  0
  -21.6848   -6.0724   22.5265 C   0  0  0  0  0  0
  -21.4007   -6.5629   23.8186 C   0  0  0  0  0  0
  -21.3686   -5.6796   24.9156 C   0  0  0  0  0  0
  -21.6058   -4.3050   24.7213 C   0  0  0  0  0  0
  -21.8829   -3.8132   23.4339 C   0  0  0  0  0  0
  -21.9204   -4.6949   22.3396 C   0  0  0  0  0  0
  -22.7823  -13.5251   21.1900 C   0  0  0  0  0  0
  -22.1671   -4.2132   21.0980 F   0  0  0  0  0  0
  -21.5633   -3.4550   25.7723 F   0  0  0  0  0  0
  -30.0018  -13.4974   20.4358 N   0  0  0  0  0  0
  -26.2951  -12.9456   20.3329 N   0  0  0  0  0  0
  -25.9305  -11.6594   20.5733 N   0  0  0  0  0  0
  -22.0442  -12.8243   22.0460 N   0  0  0  0  0  0
  -25.4235  -15.1971   20.4213 N   0  0  0  0  0  0
  -31.7792  -14.8533   20.0842 O   0  0  0  0  0  0
  -21.6650   -6.8870   21.4230 O   0  0  0  0  0  0
  -22.3493  -14.5534   20.6705 O   0  0  0  0  0  0
  -24.6323  -31.8568   23.2009 C   0  0  0  0  0  0
  -25.9153  -32.4757   23.8344 C   0  0  1  0  0  0
  -27.2133  -27.2463   20.1461 C   0  0  0  0  0  0
  -25.5964  -33.8561   24.2251 N   0  0  0  0  0  0
  -23.4289  -30.4781   21.5462 C   0  0  2  0  0  0
  -24.8806  -28.9287   20.1095 C   0  0  0  0  0  0
  -22.7500  -29.4594   22.4943 C   0  0  0  0  0  0
  -18.0284  -28.1397   22.8484 C   0  0  0  0  0  0
  -24.1501  -36.7262   23.2630 C   0  0  0  0  0  0
  -25.9765  -30.7647   21.3846 C   0  0  0  0  0  0
  -26.0512  -29.3858   20.7289 C   0  0  0  0  0  0
  -27.2245  -28.5572   20.7359 C   0  0  0  0  0  0
  -26.0285  -26.8748   19.4722 C   0  0  0  0  0  0
  -24.8762  -27.6830   19.4654 C   0  0  0  0  0  0
  -23.6483  -29.8153   20.1610 C   0  0  0  0  0  0
  -25.4135  -36.3055   24.0307 C   0  0  1  0  0  0
  -20.5889  -28.3706   23.1276 C   0  0  2  0  0  0
  -20.6785  -26.9428   22.5413 C   0  0  0  0  0  0
  -19.5762  -26.6393   21.5215 C   0  0  0  0  0  0
  -18.1938  -26.7938   22.1626 C   0  0  0  0  0  0
  -19.1540  -28.8869   23.2869 C   0  0  0  0  0  0
  -18.9462  -30.1471   23.8887 C   0  0  0  0  0  0
  -17.6466  -30.6602   24.0559 C   0  0  0  0  0  0
  -25.9075  -34.9434   23.5073 C   0  0  0  0  0  0
  -16.5356  -29.9097   23.6341 C   0  0  0  0  0  0
  -16.7272  -28.6512   23.0361 C   0  0  0  0  0  0
  -26.4514  -31.6583   25.0737 C   0  0  0  0  0  0
  -25.3730  -31.3758   26.1453 C   0  0  0  0  0  0
  -27.0356  -30.3002   24.6212 C   0  0  0  0  0  0
  -27.6064  -32.4336   25.7515 C   0  0  0  0  0  0
  -27.5575  -37.1792   24.8461 C   0  0  0  0  0  0
  -21.4206  -29.3044   22.3657 N   0  0  0  0  0  0
  -26.4300  -37.3763   23.9394 N   0  0  0  0  0  0
  -24.6983  -31.0508   22.1005 N   0  0  0  0  0  0
  -23.4195  -28.8147   23.3053 O   0  0  0  0  0  0
  -28.2671  -26.2985   20.1963 O   0  0  0  0  0  0
  -26.5646  -34.8911   22.4637 O   0  0  0  0  0  0
  -23.5472  -32.1415   23.7284 O   0  0  0  0  0  0
  -29.0356  -21.3849   20.3610 C   0  0  0  0  0  0
  -28.6464  -23.5602   20.3167 C   0  0  0  0  0  0
  -27.8374  -19.4030   19.3257 C   0  0  0  0  0  0
  -31.2495  -19.3052   20.8671 C   0  0  0  0  0  0
  -31.7593  -24.0544   18.6678 C   0  0  0  0  0  0
  -29.7517  -25.3844   17.9952 C   0  0  0  0  0  0
  -30.1620  -23.1915   16.9266 C   0  0  0  0  0  0
  -27.9040  -24.9268   20.7123 C   0  0  0  0  0  0
  -29.9239  -17.2495   20.1273 C   0  0  0  0  0  0
  -28.7338  -19.8296   20.5035 C   0  0  1  0  0  0
  -29.8371  -18.6795   20.9579 C   0  0  2  0  0  0
  -30.2731  -23.9663   18.2662 C   0  0  0  0  0  0
  -29.5685  -18.3875   22.4617 C   0  0  0  0  0  0
  -28.3142  -22.4047   20.9743 N   0  0  0  0  0  0
  -29.8080  -21.8738   19.3963 N   0  0  0  0  0  0
  -29.5369  -23.2349   19.3286 N   0  0  0  0  0  0
  -29.8407  -15.8458   20.7473 N   0  0  0  0  0  0
  -29.5737  -19.5154   23.1739 F   0  0  0  0  0  0
  -30.5005  -17.5857   22.9769 F   0  0  0  0  0  0
  -28.3811  -17.7997   22.6214 F   0  0  0  0  0  0
  -31.4723  -12.5671   19.1758 H   0  0  0  0  0  0
  -30.3723  -11.4574   19.9392 H   0  0  0  0  0  0
  -29.7841  -11.7512   17.5175 H   0  0  0  0  0  0
  -29.6513  -13.4800   17.7383 H   0  0  0  0  0  0
  -27.8849  -11.2991   18.8943 H   0  0  0  0  0  0
  -27.3807  -12.5618   17.8029 H   0  0  0  0  0  0
  -27.6472  -14.2655   19.4970 H   0  0  0  0  0  0
  -28.7183  -12.1477   21.4264 H   0  0  0  0  0  0
  -28.4274  -13.8227   21.8207 H   0  0  0  0  0  0
  -25.2698   -9.5744   22.4772 H   0  0  0  0  0  0
  -24.0006   -7.4679   22.7452 H   0  0  0  0  0  0
  -21.0805   -8.8760   19.8961 H   0  0  0  0  0  0
  -22.3623  -10.9670   19.6154 H   0  0  0  0  0  0
  -21.1961   -7.6120   23.9670 H   0  0  0  0  0  0
  -21.1512   -6.0533   25.9053 H   0  0  0  0  0  0
  -22.0579   -2.7595   23.2843 H   0  0  0  0  0  0
  -22.4064  -11.9964   22.4957 H   0  0  0  0  0  0
  -21.1011  -13.1205   22.2520 H   0  0  0  0  0  0
  -26.2640  -15.6315   20.0645 H   0  0  0  0  0  0
  -24.6733  -15.8597   20.5895 H   0  0  0  0  0  0
  -26.7212  -32.5397   23.1077 H   0  0  0  0  0  0
  -25.0119  -33.9725   25.0398 H   0  0  0  0  0  0
  -22.7247  -31.3003   21.4034 H   0  0  0  0  0  0
  -23.3771  -35.9583   23.3312 H   0  0  0  0  0  0
  -24.3566  -36.8882   22.2035 H   0  0  0  0  0  0
  -23.7268  -37.6468   23.6663 H   0  0  0  0  0  0
  -26.1140  -31.5249   20.6143 H   0  0  0  0  0  0
  -26.8534  -30.8150   22.0177 H   0  0  0  0  0  0
  -28.1140  -28.8986   21.2460 H   0  0  0  0  0  0
  -25.9766  -25.9268   18.9575 H   0  0  0  0  0  0
  -23.9875  -27.3359   18.9573 H   0  0  0  0  0  0
  -23.7636  -30.5963   19.4087 H   0  0  0  0  0  0
  -22.7671  -29.2472   19.8569 H   0  0  0  0  0  0
  -25.1321  -36.1884   25.0800 H   0  0  0  0  0  0
  -20.9961  -28.3293   24.1406 H   0  0  0  0  0  0
  -20.5708  -26.2311   23.3613 H   0  0  0  0  0  0
  -21.6649  -26.7473   22.1195 H   0  0  0  0  0  0
  -19.6940  -25.6299   21.1258 H   0  0  0  0  0  0
  -19.6717  -27.3192   20.6738 H   0  0  0  0  0  0
  -17.4208  -26.6675   21.4032 H   0  0  0  0  0  0
  -18.0354  -26.0078   22.9024 H   0  0  0  0  0  0
  -19.7939  -30.7283   24.2264 H   0  0  0  0  0  0
  -17.5023  -31.6280   24.5159 H   0  0  0  0  0  0
  -15.5357  -30.3000   23.7675 H   0  0  0  0  0  0
  -15.8667  -28.0824   22.7103 H   0  0  0  0  0  0
  -24.5875  -30.7151   25.7778 H   0  0  0  0  0  0
  -24.8964  -32.2943   26.4889 H   0  0  0  0  0  0
  -25.8022  -30.8918   27.0231 H   0  0  0  0  0  0
  -26.2950  -29.6787   24.1167 H   0  0  0  0  0  0
  -27.3979  -29.7226   25.4723 H   0  0  0  0  0  0
  -27.8850  -30.4297   23.9502 H   0  0  0  0  0  0
  -27.2650  -33.3619   26.2110 H   0  0  0  0  0  0
  -28.3856  -32.6934   25.0336 H   0  0  0  0  0  0
  -28.0749  -31.8467   26.5426 H   0  0  0  0  0  0
  -28.2591  -38.0091   24.7490 H   0  0  0  0  0  0
  -28.1076  -36.2613   24.6315 H   0  0  0  0  0  0
  -27.2270  -37.1454   25.8861 H   0  0  0  0  0  0
  -20.9416  -29.8724   21.6812 H   0  0  0  0  0  0
  -26.0165  -38.2825   24.1430 H   0  0  0  0  0  0
  -27.0277  -20.1212   19.1843 H   0  0  0  0  0  0
  -27.3597  -18.4403   19.5111 H   0  0  0  0  0  0
  -28.3970  -19.3433   18.3931 H   0  0  0  0  0  0
  -31.4890  -19.5804   19.8408 H   0  0  0  0  0  0
  -32.0176  -18.6087   21.2070 H   0  0  0  0  0  0
  -31.3438  -20.2027   21.4805 H   0  0  0  0  0  0
  -32.3548  -24.5488   17.8996 H   0  0  0  0  0  0
  -32.1939  -23.0679   18.8334 H   0  0  0  0  0  0
  -31.8831  -24.6208   19.5901 H   0  0  0  0  0  0
  -30.1531  -25.7889   17.0645 H   0  0  0  0  0  0
  -30.0786  -26.0771   18.7687 H   0  0  0  0  0  0
  -28.6651  -25.4058   17.9044 H   0  0  0  0  0  0
  -30.6202  -23.7328   16.0978 H   0  0  0  0  0  0
  -29.1178  -23.0228   16.6602 H   0  0  0  0  0  0
  -30.6525  -22.2183   16.9642 H   0  0  0  0  0  0
  -27.9998  -25.0114   21.7949 H   0  0  0  0  0  0
  -26.8446  -24.7256   20.5661 H   0  0  0  0  0  0
  -30.8289  -17.2671   19.5174 H   0  0  0  0  0  0
  -29.1429  -17.2174   19.3736 H   0  0  0  0  0  0
  -28.0098  -19.8151   21.3165 H   0  0  0  0  0  0
  -28.9447  -15.6256   21.1552 H   0  0  0  0  0  0
  1 25  1  0  0  0
  1 30  2  0  0  0
  1 87  1  0  0  0
  2  3  1  0  0  0
  2 25  1  0  0  0
  2 91  1  0  0  0
  2 92  1  0  0  0
  3  4  1  0  0  0
  3 93  1  0  0  0
  3 94  1  0  0  0
  4  5  1  0  0  0
  4 95  1  0  0  0
  4 96  1  0  0  0
  5  6  1  0  0  0
  5 26  1  0  0  0
  5 97  1  0  0  0
  6 25  1  0  0  0
  6 98  1  0  0  0
  6 99  1  0  0  0
  7  8  2  0  0  0
  7 26  1  0  0  0
  7 29  1  0  0  0
  8  9  1  0  0  0
  8 22  1  0  0  0
  9 10  1  0  0  0
  9 27  2  0  0  0
 10 11  2  0  0  0
 10 15  1  0  0  0
 11 12  1  0  0  0
 11100  1  0  0  0
 12 13  2  0  0  0
 12101  1  0  0  0
 13 14  1  0  0  0
 13 31  1  0  0  0
 14 15  2  0  0  0
 14102  1  0  0  0
 15103  1  0  0  0
 16 17  2  0  0  0
 16 21  1  0  0  0
 16 31  1  0  0  0
 17 18  1  0  0  0
 17104  1  0  0  0
 18 19  2  0  0  0
 18105  1  0  0  0
 19 20  1  0  0  0
 19 24  1  0  0  0
 20 21  2  0  0  0
 20106  1  0  0  0
 21 23  1  0  0  0
 22 28  1  0  0  0
 22 32  2  0  0  0
 26 27  1  0  0  0
 28107  1  0  0  0
 28108  1  0  0  0
 29109  1  0  0  0
 29110  1  0  0  0
 33 34  1  0  0  0
 33 66  1  0  0  0
 33 70  2  0  0  0
 34 36  1  0  0  0
 34 59  1  0  0  0
 34111  1  0  0  0
 35 44  2  0  0  0
 35 45  1  0  0  0
 35 68  1  0  0  0
 36 56  1  0  0  0
 36112  1  0  0  0
 37 39  1  0  0  0
 37 47  1  0  0  0
 37 66  1  0  0  0
 37113  1  0  0  0
 38 43  2  0  0  0
 38 46  1  0  0  0
 38 47  1  0  0  0
 39 64  1  0  0  0
 39 67  2  0  0  0
 40 52  1  0  0  0
 40 53  2  0  0  0
 40 58  1  0  0  0
 41114  1  0  0  0
 41115  1  0  0  0
 41116  1  0  0  0
 41 48  1  0  0  0
 42 43  1  0  0  0
 42 66  1  0  0  0
 42117  1  0  0  0
 42118  1  0  0  0
 43 44  1  0  0  0
 44119  1  0  0  0
 45 46  2  0  0  0
 45120  1  0  0  0
 46121  1  0  0  0
 47122  1  0  0  0
 47123  1  0  0  0
 48 56  1  0  0  0
 48 65  1  0  0  0
 48124  1  0  0  0
 49 50  1  0  0  0
 49 53  1  0  0  0
 49 64  1  0  0  0
 49125  1  0  0  0
 50 51  1  0  0  0
 50126  1  0  0  0
 50127  1  0  0  0
 51 52  1  0  0  0
 51128  1  0  0  0
 51129  1  0  0  0
 52130  1  0  0  0
 52131  1  0  0  0
 53 54  1  0  0  0
 54 55  2  0  0  0
 54132  1  0  0  0
 55 57  1  0  0  0
 55133  1  0  0  0
 56 69  2  0  0  0
 57 58  2  0  0  0
 57134  1  0  0  0
 58135  1  0  0  0
 59 60  1  0  0  0
 59 61  1  0  0  0
 59 62  1  0  0  0
 60136  1  0  0  0
 60137  1  0  0  0
 60138  1  0  0  0
 61139  1  0  0  0
 61140  1  0  0  0
 61141  1  0  0  0
 62142  1  0  0  0
 62143  1  0  0  0
 62144  1  0  0  0
 63 65  1  0  0  0
 63145  1  0  0  0
 63146  1  0  0  0
 63147  1  0  0  0
 64148  1  0  0  0
 65149  1  0  0  0
 68 78  1  0  0  0
 71 80  1  0  0  0
 71 84  1  0  0  0
 71 85  2  0  0  0
 72 78  1  0  0  0
 72 84  2  0  0  0
 72 86  1  0  0  0
 73150  1  0  0  0
 73151  1  0  0  0
 73152  1  0  0  0
 73 80  1  0  0  0
 74153  1  0  0  0
 74154  1  0  0  0
 74155  1  0  0  0
 74 81  1  0  0  0
 75156  1  0  0  0
 75157  1  0  0  0
 75158  1  0  0  0
 75 82  1  0  0  0
 76 82  1  0  0  0
 76159  1  0  0  0
 76160  1  0  0  0
 76161  1  0  0  0
 77 82  1  0  0  0
 77162  1  0  0  0
 77163  1  0  0  0
 77164  1  0  0  0
 78165  1  0  0  0
 78166  1  0  0  0
 79 81  1  0  0  0
 79 87  1  0  0  0
 79167  1  0  0  0
 79168  1  0  0  0
 80 81  1  0  0  0
 80169  1  0  0  0
 81 83  1  0  0  0
 82 86  1  0  0  0
 83 88  1  0  0  0
 83 89  1  0  0  0
 83 90  1  0  0  0
 85 86  1  0  0  0
 87170  1  0  0  0
M  ISO  4   1 100  68 101  78 101  87 100
M  END
> <chiral flag>
0

> <version>
0

> <s_m_source_file>
/data/baiqing/PycharmProjects/Reinvent-master-3.2/result/LINK_invent/BTK/process_docking_weight1_custom_sum_contain_oxygen_bond_distance_aromatic_linkinvent_7_9_3/rearranged_h_0064.sdf

> <i_m_source_file_index>
43

> <r_mmod_Potential_Energy-OPLS-2005>
351.653045654297

> <r_mmod_Stretch_Energy-OPLS-2005>
154.22688293457

> <r_mmod_Bend_Energy-OPLS-2005>
260.739898681641

> <r_mmod_Torsional_Energy-OPLS-2005>
291.76171875

> <r_mmod_Improper_Torsional_Energy-OPLS-2005>
8.86929512023926

> <r_mmod_Van_der_Waal_Energy-OPLS-2005>
136.811187744141

> <r_mmod_Electrostatic_Energy-OPLS-2005>
-387.596710205078

> <r_mmod_Solvation_Energy-OPLS-2005>
-202.347595214844

> <b_mmod_Minimization_Converged-OPLS-2005>
0

> <r_mmod_RMS_Derivative-OPLS-2005>
3.2671205997467

$$$$
44
                    3D
 Structure written by MMmdl.
167175  0  0  1  0            999 V2000
  -30.5984  -14.7467   20.4727 C   0  0  0  0  0  0
  -30.4568  -12.4657   19.4575 C   0  0  0  0  0  0
  -29.5155  -12.5011   18.2317 C   0  0  0  0  0  0
  -28.0471  -12.3082   18.6585 C   0  0  0  0  0  0
  -27.6466  -13.2188   19.8479 C   0  0  2  0  0  0
  -28.6969  -13.1474   20.9781 C   0  0  0  0  0  0
  -25.2555  -13.8168   20.5658 C   0  0  0  0  0  0
  -24.1822  -13.0425   20.9200 C   0  0  0  0  0  0
  -24.6399  -11.6908   20.8755 C   0  0  0  0  0  0
  -23.9074  -10.4283   21.0410 C   0  0  0  0  0  0
  -24.3626   -9.4195   21.9176 C   0  0  0  0  0  0
  -23.6300   -8.2234   22.0751 C   0  0  0  0  0  0
  -22.4278   -8.0285   21.3553 C   0  0  0  0  0  0
  -21.9915   -9.0260   20.4653 C   0  0  0  0  0  0
  -22.7252  -10.2128   20.3064 C   0  0  0  0  0  0
  -21.6855   -6.0736   22.5278 C   0  0  0  0  0  0
  -21.4010   -6.5639   23.8215 C   0  0  0  0  0  0
  -21.3657   -5.6788   24.9173 C   0  0  0  0  0  0
  -21.6045   -4.3055   24.7218 C   0  0  0  0  0  0
  -21.8821   -3.8149   23.4340 C   0  0  0  0  0  0
  -21.9189   -4.6963   22.3395 C   0  0  0  0  0  0
  -22.7850  -13.5229   21.1841 C   0  0  0  0  0  0
  -22.1661   -4.2153   21.0973 F   0  0  0  0  0  0
  -21.5625   -3.4537   25.7728 F   0  0  0  0  0  0
  -29.9995  -13.5114   20.3945 N   0  0  0  0  0  0
  -26.2965  -12.9337   20.3269 N   0  0  0  0  0  0
  -25.9328  -11.6499   20.5774 N   0  0  0  0  0  0
  -22.0501  -12.8235   22.0418 N   0  0  0  0  0  0
  -25.4247  -15.1876   20.4039 N   0  0  0  0  0  0
  -31.7952  -14.8924   20.2164 O   0  0  0  0  0  0
  -21.6646   -6.8883   21.4247 O   0  0  0  0  0  0
  -22.3532  -14.5519   20.6681 O   0  0  0  0  0  0
  -24.6351  -31.8551   23.2020 C   0  0  0  0  0  0
  -25.9175  -32.4752   23.8346 C   0  0  1  0  0  0
  -27.2069  -27.2443   20.0919 C   0  0  0  0  0  0
  -25.5973  -33.8556   24.2263 N   0  0  0  0  0  0
  -23.4321  -30.4840   21.5476 C   0  0  2  0  0  0
  -24.8745  -28.9525   20.1084 C   0  0  0  0  0  0
  -22.7553  -29.4569   22.4898 C   0  0  0  0  0  0
  -18.0292  -28.1383   22.8485 C   0  0  0  0  0  0
  -24.1497  -36.7291   23.2622 C   0  0  0  0  0  0
  -25.9867  -30.7606   21.3925 C   0  0  0  0  0  0
  -26.0547  -29.3874   20.7247 C   0  0  0  0  0  0
  -27.2215  -28.5453   20.7142 C   0  0  0  0  0  0
  -26.0018  -26.9249   19.4237 C   0  0  0  0  0  0
  -24.8545  -27.7246   19.4518 C   0  0  0  0  0  0
  -23.6503  -29.8408   20.1579 C   0  0  0  0  0  0
  -25.4120  -36.3065   24.0307 C   0  0  1  0  0  0
  -20.5910  -28.3694   23.1278 C   0  0  2  0  0  0
  -20.6800  -26.9411   22.5420 C   0  0  0  0  0  0
  -19.5770  -26.6382   21.5232 C   0  0  0  0  0  0
  -18.1942  -26.7923   22.1628 C   0  0  0  0  0  0
  -19.1551  -28.8856   23.2867 C   0  0  0  0  0  0
  -18.9462  -30.1455   23.8884 C   0  0  0  0  0  0
  -17.6460  -30.6580   24.0560 C   0  0  0  0  0  0
  -25.9068  -34.9433   23.5081 C   0  0  0  0  0  0
  -16.5350  -29.9080   23.6329 C   0  0  0  0  0  0
  -16.7275  -28.6497   23.0355 C   0  0  0  0  0  0
  -26.4508  -31.6579   25.0748 C   0  0  0  0  0  0
  -25.3718  -31.3802   26.1471 C   0  0  0  0  0  0
  -27.0331  -30.2964   24.6293 C   0  0  0  0  0  0
  -27.6055  -32.4318   25.7527 C   0  0  0  0  0  0
  -27.5581  -37.1808   24.8452 C   0  0  0  0  0  0
  -21.4249  -29.3034   22.3668 N   0  0  0  0  0  0
  -26.4288  -37.3769   23.9401 N   0  0  0  0  0  0
  -24.7031  -31.0530   22.1001 N   0  0  0  0  0  0
  -23.4259  -28.8066   23.2958 O   0  0  0  0  0  0
  -28.2684  -26.2813   20.1567 O   0  0  0  0  0  0
  -26.5632  -34.8902   22.4647 O   0  0  0  0  0  0
  -23.5496  -32.1348   23.7323 O   0  0  0  0  0  0
  -29.4889  -19.9414   20.3469 C   0  0  0  0  0  0
  -27.8386  -21.2792   20.4042 C   0  0  0  0  0  0
  -26.3894  -21.6485   20.4215 C   0  0  0  0  0  0
  -30.4602  -24.0544   19.7587 C   0  0  0  0  0  0
  -31.7490  -18.7981   20.4402 C   0  0  0  0  0  0
  -27.6227  -24.3933   18.6328 C   0  0  0  0  0  0
  -26.8677  -24.5838   21.1534 C   0  0  0  0  0  0
  -29.7888  -17.3067   21.0143 C   0  0  0  0  0  0
  -29.1563  -23.6576   20.4900 C   0  0  1  0  0  0
  -30.2627  -18.5660   20.0858 C   0  0  1  0  0  0
  -28.0002  -24.7641   20.1006 C   0  0  0  0  0  0
  -30.1821  -18.2269   18.5686 C   0  0  0  0  0  0
  -28.1287  -19.9716   20.3987 N   0  0  0  0  0  0
  -30.0061  -21.2070   20.3341 N   0  0  0  0  0  0
  -28.9240  -22.1075   20.3684 N   0  0  0  0  0  0
  -29.7407  -15.8111   20.6516 N   0  0  0  0  0  0
  -30.5838  -19.2576   17.8206 F   0  0  0  0  0  0
  -28.9362  -17.9131   18.2083 F   0  0  0  0  0  0
  -30.9660  -17.1926   18.2621 F   0  0  0  0  0  0
  -31.4889  -12.6322   19.1409 H   0  0  0  0  0  0
  -30.4400  -11.4898   19.9463 H   0  0  0  0  0  0
  -29.8020  -11.7290   17.5165 H   0  0  0  0  0  0
  -29.6197  -13.4554   17.7123 H   0  0  0  0  0  0
  -27.9279  -11.2632   18.9460 H   0  0  0  0  0  0
  -27.3786  -12.4672   17.8128 H   0  0  0  0  0  0
  -27.6415  -14.2360   19.4587 H   0  0  0  0  0  0
  -28.7381  -12.1460   21.4107 H   0  0  0  0  0  0
  -28.4258  -13.8189   21.7943 H   0  0  0  0  0  0
  -25.2781   -9.5653   22.4734 H   0  0  0  0  0  0
  -24.0012   -7.4620   22.7460 H   0  0  0  0  0  0
  -21.0851   -8.8779   19.8963 H   0  0  0  0  0  0
  -22.3723  -10.9663   19.6168 H   0  0  0  0  0  0
  -21.2013   -7.6150   23.9718 H   0  0  0  0  0  0
  -21.1478   -6.0517   25.9072 H   0  0  0  0  0  0
  -22.0604   -2.7612   23.2834 H   0  0  0  0  0  0
  -22.4160  -11.9931   22.4821 H   0  0  0  0  0  0
  -21.1114  -13.1244   22.2638 H   0  0  0  0  0  0
  -24.6459  -15.8330   20.4878 H   0  0  0  0  0  0
  -26.2556  -15.6232   20.0263 H   0  0  0  0  0  0
  -26.7254  -32.5373   23.1090 H   0  0  0  0  0  0
  -25.0163  -33.9696   25.0439 H   0  0  0  0  0  0
  -22.7240  -31.3029   21.4131 H   0  0  0  0  0  0
  -23.3757  -35.9630   23.3270 H   0  0  0  0  0  0
  -24.3586  -36.8933   22.2042 H   0  0  0  0  0  0
  -23.7261  -37.6488   23.6659 H   0  0  0  0  0  0
  -26.1455  -31.5279   20.6328 H   0  0  0  0  0  0
  -26.8554  -30.7905   22.0375 H   0  0  0  0  0  0
  -28.1162  -28.8707   21.2249 H   0  0  0  0  0  0
  -25.8628  -26.0267   18.8663 H   0  0  0  0  0  0
  -23.9597  -27.3847   18.9492 H   0  0  0  0  0  0
  -23.7860  -30.6264   19.4127 H   0  0  0  0  0  0
  -22.7667  -29.2833   19.8400 H   0  0  0  0  0  0
  -25.1308  -36.1894   25.0798 H   0  0  0  0  0  0
  -20.9982  -28.3274   24.1406 H   0  0  0  0  0  0
  -20.5750  -26.2292   23.3622 H   0  0  0  0  0  0
  -21.6662  -26.7462   22.1183 H   0  0  0  0  0  0
  -19.6941  -25.6300   21.1246 H   0  0  0  0  0  0
  -19.6710  -27.3213   20.6782 H   0  0  0  0  0  0
  -17.4228  -26.6668   21.4013 H   0  0  0  0  0  0
  -18.0313  -26.0059   22.9014 H   0  0  0  0  0  0
  -19.7930  -30.7274   24.2258 H   0  0  0  0  0  0
  -17.5004  -31.6254   24.5172 H   0  0  0  0  0  0
  -15.5348  -30.2981   23.7652 H   0  0  0  0  0  0
  -15.8671  -28.0810   22.7093 H   0  0  0  0  0  0
  -24.5922  -30.7083   25.7870 H   0  0  0  0  0  0
  -24.8869  -32.2995   26.4762 H   0  0  0  0  0  0
  -25.8025  -30.9122   27.0329 H   0  0  0  0  0  0
  -26.2925  -29.6736   24.1262 H   0  0  0  0  0  0
  -27.3901  -29.7216   25.4847 H   0  0  0  0  0  0
  -27.8864  -30.4196   23.9623 H   0  0  0  0  0  0
  -27.2656  -33.3629   26.2076 H   0  0  0  0  0  0
  -28.3887  -32.6853   25.0370 H   0  0  0  0  0  0
  -28.0691  -31.8453   26.5469 H   0  0  0  0  0  0
  -28.2588  -38.0116   24.7499 H   0  0  0  0  0  0
  -28.1086  -36.2643   24.6268 H   0  0  0  0  0  0
  -27.2304  -37.1456   25.8857 H   0  0  0  0  0  0
  -20.9432  -29.8781   21.6896 H   0  0  0  0  0  0
  -26.0157  -38.2836   24.1408 H   0  0  0  0  0  0
  -25.7987  -20.8350   19.9981 H   0  0  0  0  0  0
  -26.1787  -22.5076   19.8001 H   0  0  0  0  0  0
  -26.0362  -21.8118   21.4404 H   0  0  0  0  0  0
  -30.7090  -25.0965   19.9589 H   0  0  0  0  0  0
  -30.3630  -23.9409   18.6792 H   0  0  0  0  0  0
  -31.3188  -23.4615   20.0751 H   0  0  0  0  0  0
  -32.3289  -17.8800   20.3500 H   0  0  0  0  0  0
  -31.8660  -19.1668   21.4594 H   0  0  0  0  0  0
  -32.2004  -19.5364   19.7780 H   0  0  0  0  0  0
  -28.0969  -23.4775   18.2802 H   0  0  0  0  0  0
  -27.9404  -25.1733   17.9395 H   0  0  0  0  0  0
  -26.5636  -24.2086   18.4803 H   0  0  0  0  0  0
  -25.8723  -24.5325   20.7117 H   0  0  0  0  0  0
  -26.8519  -25.3940   21.8823 H   0  0  0  0  0  0
  -27.0079  -23.7030   21.7701 H   0  0  0  0  0  0
  -28.7313  -17.4965   21.1998 H   0  0  0  0  0  0
  -30.2371  -17.3977   22.0042 H   0  0  0  0  0  0
  -29.3662  -23.8163   21.5479 H   0  0  0  0  0  0
  -28.7978  -15.4583   20.7114 H   0  0  0  0  0  0
  1 25  1  0  0  0
  1 30  2  0  0  0
  1 86  1  0  0  0
  2  3  1  0  0  0
  2 25  1  0  0  0
  2 90  1  0  0  0
  2 91  1  0  0  0
  3  4  1  0  0  0
  3 92  1  0  0  0
  3 93  1  0  0  0
  4  5  1  0  0  0
  4 94  1  0  0  0
  4 95  1  0  0  0
  5  6  1  0  0  0
  5 26  1  0  0  0
  5 96  1  0  0  0
  6 25  1  0  0  0
  6 97  1  0  0  0
  6 98  1  0  0  0
  7  8  2  0  0  0
  7 26  1  0  0  0
  7 29  1  0  0  0
  8  9  1  0  0  0
  8 22  1  0  0  0
  9 10  1  0  0  0
  9 27  2  0  0  0
 10 11  2  0  0  0
 10 15  1  0  0  0
 11 12  1  0  0  0
 11 99  1  0  0  0
 12 13  2  0  0  0
 12100  1  0  0  0
 13 14  1  0  0  0
 13 31  1  0  0  0
 14 15  2  0  0  0
 14101  1  0  0  0
 15102  1  0  0  0
 16 17  2  0  0  0
 16 21  1  0  0  0
 16 31  1  0  0  0
 17 18  1  0  0  0
 17103  1  0  0  0
 18 19  2  0  0  0
 18104  1  0  0  0
 19 20  1  0  0  0
 19 24  1  0  0  0
 20 21  2  0  0  0
 20105  1  0  0  0
 21 23  1  0  0  0
 22 28  1  0  0  0
 22 32  2  0  0  0
 26 27  1  0  0  0
 28106  1  0  0  0
 28107  1  0  0  0
 29108  1  0  0  0
 29109  1  0  0  0
 33 34  1  0  0  0
 33 66  1  0  0  0
 33 70  2  0  0  0
 34 36  1  0  0  0
 34 59  1  0  0  0
 34110  1  0  0  0
 35 44  2  0  0  0
 35 45  1  0  0  0
 35 68  1  0  0  0
 36 56  1  0  0  0
 36111  1  0  0  0
 37 39  1  0  0  0
 37 47  1  0  0  0
 37 66  1  0  0  0
 37112  1  0  0  0
 38 43  2  0  0  0
 38 46  1  0  0  0
 38 47  1  0  0  0
 39 64  1  0  0  0
 39 67  2  0  0  0
 40 52  1  0  0  0
 40 53  2  0  0  0
 40 58  1  0  0  0
 41113  1  0  0  0
 41114  1  0  0  0
 41115  1  0  0  0
 41 48  1  0  0  0
 42 43  1  0  0  0
 42 66  1  0  0  0
 42116  1  0  0  0
 42117  1  0  0  0
 43 44  1  0  0  0
 44118  1  0  0  0
 45 46  2  0  0  0
 45119  1  0  0  0
 46120  1  0  0  0
 47121  1  0  0  0
 47122  1  0  0  0
 48 56  1  0  0  0
 48 65  1  0  0  0
 48123  1  0  0  0
 49 50  1  0  0  0
 49 53  1  0  0  0
 49 64  1  0  0  0
 49124  1  0  0  0
 50 51  1  0  0  0
 50125  1  0  0  0
 50126  1  0  0  0
 51 52  1  0  0  0
 51127  1  0  0  0
 51128  1  0  0  0
 52129  1  0  0  0
 52130  1  0  0  0
 53 54  1  0  0  0
 54 55  2  0  0  0
 54131  1  0  0  0
 55 57  1  0  0  0
 55132  1  0  0  0
 56 69  2  0  0  0
 57 58  2  0  0  0
 57133  1  0  0  0
 58134  1  0  0  0
 59 60  1  0  0  0
 59 61  1  0  0  0
 59 62  1  0  0  0
 60135  1  0  0  0
 60136  1  0  0  0
 60137  1  0  0  0
 61138  1  0  0  0
 61139  1  0  0  0
 61140  1  0  0  0
 62141  1  0  0  0
 62142  1  0  0  0
 62143  1  0  0  0
 63 65  1  0  0  0
 63144  1  0  0  0
 63145  1  0  0  0
 63146  1  0  0  0
 64147  1  0  0  0
 65148  1  0  0  0
 68 81  1  0  0  0
 71 80  1  0  0  0
 71 83  1  0  0  0
 71 84  2  0  0  0
 72 73  1  0  0  0
 72 83  2  0  0  0
 72 85  1  0  0  0
 73149  1  0  0  0
 73150  1  0  0  0
 73151  1  0  0  0
 74152  1  0  0  0
 74153  1  0  0  0
 74154  1  0  0  0
 74 79  1  0  0  0
 75155  1  0  0  0
 75156  1  0  0  0
 75157  1  0  0  0
 75 80  1  0  0  0
 76158  1  0  0  0
 76159  1  0  0  0
 76160  1  0  0  0
 76 81  1  0  0  0
 77 81  1  0  0  0
 77161  1  0  0  0
 77162  1  0  0  0
 77163  1  0  0  0
 78 80  1  0  0  0
 78 86  1  0  0  0
 78164  1  0  0  0
 78165  1  0  0  0
 79 81  1  0  0  0
 79 85  1  0  0  0
 79166  1  0  0  0
 80 82  1  0  0  0
 82 87  1  0  0  0
 82 88  1  0  0  0
 82 89  1  0  0  0
 84 85  1  0  0  0
 86167  1  0  0  0
M  ISO  4   1 100  68 101  81 101  86 100
M  END
> <chiral flag>
0

> <version>
0

> <s_m_source_file>
/data/baiqing/PycharmProjects/Reinvent-master-3.2/result/LINK_invent/BTK/process_docking_weight1_custom_sum_contain_oxygen_bond_distance_aromatic_linkinvent_7_9_3/rearranged_h_0064.sdf

> <i_m_source_file_index>
44

> <r_mmod_Potential_Energy-OPLS-2005>
441.864898681641

> <r_mmod_Stretch_Energy-OPLS-2005>
169.068008422852

> <r_mmod_Bend_Energy-OPLS-2005>
255.975082397461

> <r_mmod_Torsional_Energy-OPLS-2005>
267.485473632812

> <r_mmod_Improper_Torsional_Energy-OPLS-2005>
6.30891847610474

> <r_mmod_Van_der_Waal_Energy-OPLS-2005>
150.951553344727

> <r_mmod_Electrostatic_Energy-OPLS-2005>
-300.718292236328

> <r_mmod_Solvation_Energy-OPLS-2005>
-207.054382324219

> <b_mmod_Minimization_Converged-OPLS-2005>
0

> <r_mmod_RMS_Derivative-OPLS-2005>
3.09051012992859

$$$$
45
                    3D
 Structure written by MMmdl.
174182  0  0  1  0            999 V2000
  -30.7648  -14.4673   20.6553 C   0  0  0  0  0  0
  -30.4136  -12.3281   19.4401 C   0  0  0  0  0  0
  -29.4950  -12.5143   18.2158 C   0  0  0  0  0  0
  -28.0190  -12.3450   18.6197 C   0  0  0  0  0  0
  -27.6568  -13.1953   19.8615 C   0  0  2  0  0  0
  -28.6962  -13.0028   20.9923 C   0  0  0  0  0  0
  -25.2527  -13.8099   20.5585 C   0  0  0  0  0  0
  -24.1799  -13.0389   20.9131 C   0  0  0  0  0  0
  -24.6371  -11.6868   20.8723 C   0  0  0  0  0  0
  -23.9044  -10.4267   21.0407 C   0  0  0  0  0  0
  -24.3603   -9.4190   21.9187 C   0  0  0  0  0  0
  -23.6280   -8.2227   22.0757 C   0  0  0  0  0  0
  -22.4263   -8.0267   21.3545 C   0  0  0  0  0  0
  -21.9894   -9.0238   20.4648 C   0  0  0  0  0  0
  -22.7220  -10.2115   20.3055 C   0  0  0  0  0  0
  -21.6847   -6.0728   22.5281 C   0  0  0  0  0  0
  -21.4010   -6.5635   23.8214 C   0  0  0  0  0  0
  -21.3658   -5.6789   24.9177 C   0  0  0  0  0  0
  -21.6044   -4.3052   24.7228 C   0  0  0  0  0  0
  -21.8820   -3.8142   23.4350 C   0  0  0  0  0  0
  -21.9191   -4.6957   22.3405 C   0  0  0  0  0  0
  -22.7833  -13.5205   21.1829 C   0  0  0  0  0  0
  -22.1660   -4.2143   21.0982 F   0  0  0  0  0  0
  -21.5630   -3.4537   25.7742 F   0  0  0  0  0  0
  -30.0326  -13.3226   20.4675 N   0  0  0  0  0  0
  -26.2983  -12.9271   20.3286 N   0  0  0  0  0  0
  -25.9295  -11.6444   20.5751 N   0  0  0  0  0  0
  -22.0494  -12.8210   22.0412 N   0  0  0  0  0  0
  -25.4152  -15.1802   20.3949 N   0  0  0  0  0  0
  -31.8225  -14.6036   20.0292 O   0  0  0  0  0  0
  -21.6629   -6.8866   21.4241 O   0  0  0  0  0  0
  -22.3509  -14.5516   20.6696 O   0  0  0  0  0  0
  -24.6126  -31.8693   23.2116 C   0  0  0  0  0  0
  -25.9026  -32.4829   23.8408 C   0  0  1  0  0  0
  -27.2374  -27.4460   20.1055 C   0  0  0  0  0  0
  -25.5891  -33.8628   24.2342 N   0  0  0  0  0  0
  -23.4013  -30.4909   21.5512 C   0  0  2  0  0  0
  -24.8509  -28.9529   20.1227 C   0  0  0  0  0  0
  -22.7403  -29.4659   22.5005 C   0  0  0  0  0  0
  -18.0270  -28.1370   22.8495 C   0  0  0  0  0  0
  -24.1487  -36.7321   23.2639 C   0  0  0  0  0  0
  -25.9281  -30.8355   21.3661 C   0  0  0  0  0  0
  -26.0077  -29.4659   20.7253 C   0  0  0  0  0  0
  -27.2056  -28.7160   20.7228 C   0  0  0  0  0  0
  -26.0715  -26.9450   19.4943 C   0  0  0  0  0  0
  -24.8753  -27.6877   19.5087 C   0  0  0  0  0  0
  -23.6121  -29.8193   20.1674 C   0  0  0  0  0  0
  -25.4106  -36.3119   24.0342 C   0  0  1  0  0  0
  -20.5860  -28.3656   23.1322 C   0  0  2  0  0  0
  -20.6764  -26.9394   22.5418 C   0  0  0  0  0  0
  -19.5744  -26.6381   21.5212 C   0  0  0  0  0  0
  -18.1920  -26.7918   22.1623 C   0  0  0  0  0  0
  -19.1518  -28.8829   23.2907 C   0  0  0  0  0  0
  -18.9448  -30.1437   23.8916 C   0  0  0  0  0  0
  -17.6451  -30.6580   24.0562 C   0  0  0  0  0  0
  -25.9030  -34.9480   23.5139 C   0  0  0  0  0  0
  -16.5343  -29.9083   23.6322 C   0  0  0  0  0  0
  -16.7259  -28.6497   23.0347 C   0  0  0  0  0  0
  -26.4464  -31.6594   25.0723 C   0  0  0  0  0  0
  -25.3738  -31.3693   26.1478 C   0  0  0  0  0  0
  -27.0287  -30.3035   24.6079 C   0  0  0  0  0  0
  -27.6048  -32.4307   25.7479 C   0  0  0  0  0  0
  -27.5583  -37.1815   24.8466 C   0  0  0  0  0  0
  -21.4133  -29.3027   22.3734 N   0  0  0  0  0  0
  -26.4297  -37.3798   23.9408 N   0  0  0  0  0  0
  -24.6651  -31.0801   22.1015 N   0  0  0  0  0  0
  -23.4174  -28.8210   23.3053 O   0  0  0  0  0  0
  -28.3947  -26.7133   20.0108 O   0  0  0  0  0  0
  -26.5591  -34.8928   22.4700 O   0  0  0  0  0  0
  -23.5321  -32.1443   23.7512 O   0  0  0  0  0  0
  -27.9402  -19.1630   23.2842 C   0  0  0  0  0  0
  -28.8863  -19.0821   20.7678 C   0  0  0  0  0  0
  -27.8153  -20.2989   22.4336 C   0  0  0  0  0  0
  -28.8946  -17.9205   21.5841 C   0  0  0  0  0  0
  -26.0911  -21.9768   21.6455 C   0  0  0  0  0  0
  -25.9318  -21.1133   23.9065 C   0  0  0  0  0  0
  -31.5859  -16.6245   21.7277 C   0  0  0  0  0  0
  -30.0809  -15.1749   23.0515 C   0  0  0  0  0  0
  -27.0244  -23.7010   24.3600 C   0  0  0  0  0  0
  -28.7980  -25.9862   21.1764 C   0  0  0  0  0  0
  -26.9807  -21.5576   22.8400 C   0  0  0  0  0  0
  -29.1749  -16.5183   21.0046 C   0  0  0  0  0  0
  -30.3596  -15.6707   21.6044 C   0  0  0  0  0  0
  -27.8447  -22.7772   23.4136 C   0  0  1  0  0  0
  -27.9810  -24.6895   21.4428 C   0  0  0  0  0  0
  -28.6951  -23.6809   22.4237 C   0  0  0  0  0  0
  -28.3568  -20.2612   21.1858 N   0  0  0  0  0  0
  -28.4548  -17.9817   22.8648 N   0  0  0  0  0  0
  -28.7817  -22.2031   24.3212 O   0  0  0  0  0  0
  -28.0336  -15.8577   21.1430 F   0  0  0  0  0  0
  -29.3786  -16.6520   19.6906 F   0  0  0  0  0  0
  -26.7941  -25.0749   21.9069 F   0  0  0  0  0  0
  -27.7967  -24.1041   20.2592 F   0  0  0  0  0  0
  -29.5153  -22.9196   21.6971 F   0  0  0  0  0  0
  -29.4811  -24.4374   23.2000 F   0  0  0  0  0  0
  -31.4592  -12.3992   19.1367 H   0  0  0  0  0  0
  -30.3055  -11.3198   19.8430 H   0  0  0  0  0  0
  -29.7534  -11.7951   17.4376 H   0  0  0  0  0  0
  -29.6509  -13.5046   17.7848 H   0  0  0  0  0  0
  -27.8473  -11.2885   18.8294 H   0  0  0  0  0  0
  -27.3662  -12.5996   17.7840 H   0  0  0  0  0  0
  -27.6894  -14.2274   19.5199 H   0  0  0  0  0  0
  -28.6825  -11.9688   21.3402 H   0  0  0  0  0  0
  -28.4155  -13.5878   21.8587 H   0  0  0  0  0  0
  -25.2751   -9.5668   22.4756 H   0  0  0  0  0  0
  -23.9991   -7.4618   22.7475 H   0  0  0  0  0  0
  -21.0825   -8.8754   19.8954 H   0  0  0  0  0  0
  -22.3682  -10.9653   19.6162 H   0  0  0  0  0  0
  -21.2001   -7.6143   23.9715 H   0  0  0  0  0  0
  -21.1480   -6.0520   25.9079 H   0  0  0  0  0  0
  -22.0601   -2.7605   23.2852 H   0  0  0  0  0  0
  -22.4110  -11.9865   22.4788 H   0  0  0  0  0  0
  -21.1124  -13.1251   22.2646 H   0  0  0  0  0  0
  -24.6629  -15.8413   20.5485 H   0  0  0  0  0  0
  -26.3091  -15.6235   20.2226 H   0  0  0  0  0  0
  -26.7102  -32.5557   23.1182 H   0  0  0  0  0  0
  -25.0049  -33.9792   25.0492 H   0  0  0  0  0  0
  -22.6891  -31.3066   21.4101 H   0  0  0  0  0  0
  -23.3744  -35.9660   23.3315 H   0  0  0  0  0  0
  -24.3583  -36.8919   22.2052 H   0  0  0  0  0  0
  -23.7245  -37.6533   23.6640 H   0  0  0  0  0  0
  -26.0361  -31.5960   20.5915 H   0  0  0  0  0  0
  -26.8177  -30.8958   21.9811 H   0  0  0  0  0  0
  -28.1032  -29.1142   21.1751 H   0  0  0  0  0  0
  -26.0937  -25.9805   19.0066 H   0  0  0  0  0  0
  -23.9880  -27.2870   19.0384 H   0  0  0  0  0  0
  -23.7205  -30.5918   19.4051 H   0  0  0  0  0  0
  -22.7372  -29.2372   19.8728 H   0  0  0  0  0  0
  -25.1281  -36.1993   25.0835 H   0  0  0  0  0  0
  -20.9951  -28.3221   24.1442 H   0  0  0  0  0  0
  -20.5669  -26.2262   23.3603 H   0  0  0  0  0  0
  -21.6636  -26.7441   22.1211 H   0  0  0  0  0  0
  -19.6908  -25.6297   21.1231 H   0  0  0  0  0  0
  -19.6685  -27.3203   20.6751 H   0  0  0  0  0  0
  -17.4193  -26.6666   21.4024 H   0  0  0  0  0  0
  -18.0322  -26.0054   22.9013 H   0  0  0  0  0  0
  -19.7925  -30.7242   24.2300 H   0  0  0  0  0  0
  -17.5008  -31.6264   24.5157 H   0  0  0  0  0  0
  -15.5345  -30.2992   23.7634 H   0  0  0  0  0  0
  -15.8658  -28.0823   22.7054 H   0  0  0  0  0  0
  -24.5906  -30.7045   25.7816 H   0  0  0  0  0  0
  -24.8934  -32.2845   26.4949 H   0  0  0  0  0  0
  -25.8098  -30.8846   27.0221 H   0  0  0  0  0  0
  -26.2820  -29.6806   24.1139 H   0  0  0  0  0  0
  -27.4069  -29.7260   25.4524 H   0  0  0  0  0  0
  -27.8652  -30.4361   23.9212 H   0  0  0  0  0  0
  -27.2673  -33.3593   26.2094 H   0  0  0  0  0  0
  -28.3834  -32.6889   25.0287 H   0  0  0  0  0  0
  -28.0741  -31.8407   26.5362 H   0  0  0  0  0  0
  -28.2610  -38.0105   24.7507 H   0  0  0  0  0  0
  -28.1070  -36.2637   24.6295 H   0  0  0  0  0  0
  -27.2301  -37.1470   25.8869 H   0  0  0  0  0  0
  -20.9293  -29.8746   21.6954 H   0  0  0  0  0  0
  -26.0192  -38.2881   24.1400 H   0  0  0  0  0  0
  -27.5600  -19.1509   24.2937 H   0  0  0  0  0  0
  -29.2195  -19.0523   19.7408 H   0  0  0  0  0  0
  -25.3978  -21.1802   21.3731 H   0  0  0  0  0  0
  -26.6689  -22.1791   20.7494 H   0  0  0  0  0  0
  -25.4942  -22.8608   21.8670 H   0  0  0  0  0  0
  -25.3849  -20.2263   23.5835 H   0  0  0  0  0  0
  -25.1717  -21.8737   24.0866 H   0  0  0  0  0  0
  -26.3812  -20.8842   24.8722 H   0  0  0  0  0  0
  -31.4068  -17.4386   22.4299 H   0  0  0  0  0  0
  -31.8334  -17.0857   20.7706 H   0  0  0  0  0  0
  -32.4736  -16.0975   22.0806 H   0  0  0  0  0  0
  -30.4404  -15.8795   23.8015 H   0  0  0  0  0  0
  -30.5661  -14.2211   23.2617 H   0  0  0  0  0  0
  -29.0183  -15.0636   23.2580 H   0  0  0  0  0  0
  -26.1049  -24.0522   23.8945 H   0  0  0  0  0  0
  -27.5861  -24.5857   24.6587 H   0  0  0  0  0  0
  -26.7284  -23.2117   25.2881 H   0  0  0  0  0  0
  -29.8409  -25.7147   21.0108 H   0  0  0  0  0  0
  -28.7897  -26.6358   22.0533 H   0  0  0  0  0  0
  -28.2941  -21.8063   25.0302 H   0  0  0  0  0  0
  1 25  1  0  0  0
  1 30  2  0  0  0
  1 83  1  0  0  0
  2  3  1  0  0  0
  2 25  1  0  0  0
  2 96  1  0  0  0
  2 97  1  0  0  0
  3  4  1  0  0  0
  3 98  1  0  0  0
  3 99  1  0  0  0
  4  5  1  0  0  0
  4100  1  0  0  0
  4101  1  0  0  0
  5  6  1  0  0  0
  5 26  1  0  0  0
  5102  1  0  0  0
  6 25  1  0  0  0
  6103  1  0  0  0
  6104  1  0  0  0
  7  8  2  0  0  0
  7 26  1  0  0  0
  7 29  1  0  0  0
  8  9  1  0  0  0
  8 22  1  0  0  0
  9 10  1  0  0  0
  9 27  2  0  0  0
 10 11  2  0  0  0
 10 15  1  0  0  0
 11 12  1  0  0  0
 11105  1  0  0  0
 12 13  2  0  0  0
 12106  1  0  0  0
 13 14  1  0  0  0
 13 31  1  0  0  0
 14 15  2  0  0  0
 14107  1  0  0  0
 15108  1  0  0  0
 16 17  2  0  0  0
 16 21  1  0  0  0
 16 31  1  0  0  0
 17 18  1  0  0  0
 17109  1  0  0  0
 18 19  2  0  0  0
 18110  1  0  0  0
 19 20  1  0  0  0
 19 24  1  0  0  0
 20 21  2  0  0  0
 20111  1  0  0  0
 21 23  1  0  0  0
 22 28  1  0  0  0
 22 32  2  0  0  0
 26 27  1  0  0  0
 28112  1  0  0  0
 28113  1  0  0  0
 29114  1  0  0  0
 29115  1  0  0  0
 33 34  1  0  0  0
 33 66  1  0  0  0
 33 70  2  0  0  0
 34 36  1  0  0  0
 34 59  1  0  0  0
 34116  1  0  0  0
 35 44  2  0  0  0
 35 45  1  0  0  0
 35 68  1  0  0  0
 36 56  1  0  0  0
 36117  1  0  0  0
 37 39  1  0  0  0
 37 47  1  0  0  0
 37 66  1  0  0  0
 37118  1  0  0  0
 38 43  2  0  0  0
 38 46  1  0  0  0
 38 47  1  0  0  0
 39 64  1  0  0  0
 39 67  2  0  0  0
 40 52  1  0  0  0
 40 53  2  0  0  0
 40 58  1  0  0  0
 41119  1  0  0  0
 41120  1  0  0  0
 41121  1  0  0  0
 41 48  1  0  0  0
 42 43  1  0  0  0
 42 66  1  0  0  0
 42122  1  0  0  0
 42123  1  0  0  0
 43 44  1  0  0  0
 44124  1  0  0  0
 45 46  2  0  0  0
 45125  1  0  0  0
 46126  1  0  0  0
 47127  1  0  0  0
 47128  1  0  0  0
 48 56  1  0  0  0
 48 65  1  0  0  0
 48129  1  0  0  0
 49 50  1  0  0  0
 49 53  1  0  0  0
 49 64  1  0  0  0
 49130  1  0  0  0
 50 51  1  0  0  0
 50131  1  0  0  0
 50132  1  0  0  0
 51 52  1  0  0  0
 51133  1  0  0  0
 51134  1  0  0  0
 52135  1  0  0  0
 52136  1  0  0  0
 53 54  1  0  0  0
 54 55  2  0  0  0
 54137  1  0  0  0
 55 57  1  0  0  0
 55138  1  0  0  0
 56 69  2  0  0  0
 57 58  2  0  0  0
 57139  1  0  0  0
 58140  1  0  0  0
 59 60  1  0  0  0
 59 61  1  0  0  0
 59 62  1  0  0  0
 60141  1  0  0  0
 60142  1  0  0  0
 60143  1  0  0  0
 61144  1  0  0  0
 61145  1  0  0  0
 61146  1  0  0  0
 62147  1  0  0  0
 62148  1  0  0  0
 62149  1  0  0  0
 63 65  1  0  0  0
 63150  1  0  0  0
 63151  1  0  0  0
 63152  1  0  0  0
 64153  1  0  0  0
 65154  1  0  0  0
 68 80  1  0  0  0
 71 73  2  0  0  0
 71 88  1  0  0  0
 71155  1  0  0  0
 72 74  1  0  0  0
 72 87  2  0  0  0
 72156  1  0  0  0
 73 81  1  0  0  0
 73 87  1  0  0  0
 74 82  1  0  0  0
 74 88  2  0  0  0
 75157  1  0  0  0
 75158  1  0  0  0
 75159  1  0  0  0
 75 81  1  0  0  0
 76 81  1  0  0  0
 76160  1  0  0  0
 76161  1  0  0  0
 76162  1  0  0  0
 77163  1  0  0  0
 77164  1  0  0  0
 77165  1  0  0  0
 77 83  1  0  0  0
 78 83  1  0  0  0
 78166  1  0  0  0
 78167  1  0  0  0
 78168  1  0  0  0
 79169  1  0  0  0
 79170  1  0  0  0
 79171  1  0  0  0
 79 84  1  0  0  0
 80 85  1  0  0  0
 80172  1  0  0  0
 80173  1  0  0  0
 81 84  1  0  0  0
 82 83  1  0  0  0
 82 90  1  0  0  0
 82 91  1  0  0  0
 84 86  1  0  0  0
 84 89  1  0  0  0
 85 86  1  0  0  0
 85 92  1  0  0  0
 85 93  1  0  0  0
 86 94  1  0  0  0
 86 95  1  0  0  0
 89174  1  0  0  0
M  ISO  4   1 100  68 101  80 101  83 100
M  END
> <chiral flag>
0

> <version>
0

> <s_m_source_file>
/data/baiqing/PycharmProjects/Reinvent-master-3.2/result/LINK_invent/BTK/process_docking_weight1_custom_sum_contain_oxygen_bond_distance_aromatic_linkinvent_7_9_3/rearranged_h_0064.sdf

> <i_m_source_file_index>
45

> <r_mmod_Potential_Energy-OPLS-2005>
289.275726318359

> <r_mmod_Stretch_Energy-OPLS-2005>
66.7345809936523

> <r_mmod_Bend_Energy-OPLS-2005>
148.307525634766

> <r_mmod_Torsional_Energy-OPLS-2005>
230.523132324219

> <r_mmod_Improper_Torsional_Energy-OPLS-2005>
3.12734031677246

> <r_mmod_Van_der_Waal_Energy-OPLS-2005>
202.421142578125

> <r_mmod_Electrostatic_Energy-OPLS-2005>
-183.168838500977

> <r_mmod_Solvation_Energy-OPLS-2005>
-190.10285949707

> <b_mmod_Minimization_Converged-OPLS-2005>
0

> <r_mmod_RMS_Derivative-OPLS-2005>
0.252560198307037

$$$$
46
                    3D
 Structure written by MMmdl.
162170  0  0  1  0            999 V2000
  -30.6188  -14.7472   20.4773 C   0  0  0  0  0  0
  -30.4576  -12.4574   19.4977 C   0  0  0  0  0  0
  -29.5461  -12.5301   18.2552 C   0  0  0  0  0  0
  -28.0642  -12.3413   18.6576 C   0  0  0  0  0  0
  -27.6563  -13.2335   19.8614 C   0  0  2  0  0  0
  -28.6993  -13.1566   20.9982 C   0  0  0  0  0  0
  -25.2561  -13.8208   20.5666 C   0  0  0  0  0  0
  -24.1853  -13.0447   20.9171 C   0  0  0  0  0  0
  -24.6437  -11.6903   20.8698 C   0  0  0  0  0  0
  -23.9089  -10.4280   21.0394 C   0  0  0  0  0  0
  -24.3630   -9.4211   21.9190 C   0  0  0  0  0  0
  -23.6298   -8.2246   22.0778 C   0  0  0  0  0  0
  -22.4281   -8.0286   21.3551 C   0  0  0  0  0  0
  -21.9916   -9.0254   20.4635 C   0  0  0  0  0  0
  -22.7254  -10.2142   20.3040 C   0  0  0  0  0  0
  -21.6851   -6.0728   22.5259 C   0  0  0  0  0  0
  -21.3990   -6.5606   23.8198 C   0  0  0  0  0  0
  -21.3680   -5.6742   24.9161 C   0  0  0  0  0  0
  -21.6088   -4.3015   24.7205 C   0  0  0  0  0  0
  -21.8814   -3.8124   23.4310 C   0  0  0  0  0  0
  -21.9177   -4.6950   22.3380 C   0  0  0  0  0  0
  -22.7869  -13.5215   21.1820 C   0  0  0  0  0  0
  -22.1659   -4.2138   21.0964 F   0  0  0  0  0  0
  -21.5684   -3.4494   25.7730 F   0  0  0  0  0  0
  -30.0037  -13.5163   20.4246 N   0  0  0  0  0  0
  -26.3018  -12.9412   20.3283 N   0  0  0  0  0  0
  -25.9370  -11.6562   20.5705 N   0  0  0  0  0  0
  -22.0470  -12.8250   22.0362 N   0  0  0  0  0  0
  -25.4290  -15.1951   20.4068 N   0  0  0  0  0  0
  -31.8048  -14.8567   20.1578 O   0  0  0  0  0  0
  -21.6653   -6.8891   21.4234 O   0  0  0  0  0  0
  -22.3541  -14.5499   20.6630 O   0  0  0  0  0  0
  -24.6333  -31.8576   23.1980 C   0  0  0  0  0  0
  -25.9158  -32.4775   23.8342 C   0  0  1  0  0  0
  -27.2237  -27.2583   20.1428 C   0  0  0  0  0  0
  -25.5952  -33.8576   24.2258 N   0  0  0  0  0  0
  -23.4297  -30.4818   21.5407 C   0  0  2  0  0  0
  -24.8756  -28.9247   20.1173 C   0  0  0  0  0  0
  -22.7495  -29.4646   22.4885 C   0  0  0  0  0  0
  -18.0309  -28.1405   22.8471 C   0  0  0  0  0  0
  -24.1494  -36.7278   23.2652 C   0  0  0  0  0  0
  -25.9771  -30.7724   21.3777 C   0  0  0  0  0  0
  -26.0505  -29.3963   20.7143 C   0  0  0  0  0  0
  -27.2319  -28.5854   20.6998 C   0  0  0  0  0  0
  -26.0199  -26.8469   19.5379 C   0  0  0  0  0  0
  -24.8668  -27.6558   19.5154 C   0  0  0  0  0  0
  -23.6490  -29.8167   20.1579 C   0  0  0  0  0  0
  -25.4126  -36.3074   24.0330 C   0  0  1  0  0  0
  -20.5905  -28.3741   23.1228 C   0  0  2  0  0  0
  -20.6797  -26.9450   22.5390 C   0  0  0  0  0  0
  -19.5767  -26.6399   21.5203 C   0  0  0  0  0  0
  -18.1947  -26.7952   22.1613 C   0  0  0  0  0  0
  -19.1563  -28.8890   23.2855 C   0  0  0  0  0  0
  -18.9488  -30.1479   23.8882 C   0  0  0  0  0  0
  -17.6493  -30.6611   24.0573 C   0  0  0  0  0  0
  -25.9076  -34.9459   23.5102 C   0  0  0  0  0  0
  -16.5378  -29.9095   23.6353 C   0  0  0  0  0  0
  -16.7297  -28.6530   23.0351 C   0  0  0  0  0  0
  -26.4514  -31.6602   25.0743 C   0  0  0  0  0  0
  -25.3735  -31.3716   26.1459 C   0  0  0  0  0  0
  -27.0403  -30.3028   24.6270 C   0  0  0  0  0  0
  -27.6071  -32.4366   25.7490 C   0  0  0  0  0  0
  -27.5580  -37.1780   24.8468 C   0  0  0  0  0  0
  -21.4217  -29.3075   22.3608 N   0  0  0  0  0  0
  -26.4284  -37.3779   23.9429 N   0  0  0  0  0  0
  -24.6984  -31.0539   22.0945 N   0  0  0  0  0  0
  -23.4186  -28.8194   23.3023 O   0  0  0  0  0  0
  -28.3412  -26.3924   20.1133 O   0  0  0  0  0  0
  -26.5634  -34.8932   22.4664 O   0  0  0  0  0  0
  -23.5493  -32.1403   23.7265 O   0  0  0  0  0  0
  -30.2577  -22.0069   20.9802 C   0  0  0  0  0  0
  -30.4073  -20.6379   21.1134 C   0  0  0  0  0  0
  -29.0230  -22.2445   20.3046 C   0  0  0  0  0  0
  -27.1140  -23.3561   19.0218 C   0  0  0  0  0  0
  -29.4680  -24.0388   18.5829 C   0  0  0  0  0  0
  -28.0395  -18.2077   21.7035 C   0  0  0  0  0  0
  -28.1842  -18.1615   19.2143 C   0  0  0  0  0  0
  -30.1825  -17.3671   20.5741 C   0  0  0  0  0  0
  -28.2943  -24.9662   20.6290 C   0  0  0  0  0  0
  -28.4789  -23.6367   19.6869 C   0  0  0  0  0  0
  -28.9808  -18.4712   20.5031 C   0  0  0  0  0  0
  -28.5018  -21.0000   20.0350 N   0  0  0  0  0  0
  -29.3403  -19.9814   20.5154 N   0  0  0  0  0  0
  -29.8336  -15.8720   20.6822 N   0  0  0  0  0  0
  -31.5118  -12.5661   19.2328 H   0  0  0  0  0  0
  -30.3753  -11.4775   19.9659 H   0  0  0  0  0  0
  -29.8455  -11.7786   17.5235 H   0  0  0  0  0  0
  -29.6845  -13.5012   17.7779 H   0  0  0  0  0  0
  -27.9220  -11.2895   18.9122 H   0  0  0  0  0  0
  -27.4165  -12.5408   17.8053 H   0  0  0  0  0  0
  -27.6524  -14.2586   19.4861 H   0  0  0  0  0  0
  -28.7380  -12.1451   21.4084 H   0  0  0  0  0  0
  -28.4434  -13.8154   21.8296 H   0  0  0  0  0  0
  -25.2800   -9.5705   22.4752 H   0  0  0  0  0  0
  -24.0016   -7.4638   22.7501 H   0  0  0  0  0  0
  -21.0854   -8.8748   19.8925 H   0  0  0  0  0  0
  -22.3713  -10.9679   19.6122 H   0  0  0  0  0  0
  -21.1969   -7.6102   23.9697 H   0  0  0  0  0  0
  -21.1537   -6.0475   25.9058 H   0  0  0  0  0  0
  -22.0595   -2.7578   23.2813 H   0  0  0  0  0  0
  -22.3967  -11.9942   22.4917 H   0  0  0  0  0  0
  -21.1081  -13.1382   22.2416 H   0  0  0  0  0  0
  -24.6590  -15.8482   20.5015 H   0  0  0  0  0  0
  -26.2721  -15.6372   20.0645 H   0  0  0  0  0  0
  -26.7223  -32.5388   23.1080 H   0  0  0  0  0  0
  -25.0094  -33.9727   25.0401 H   0  0  0  0  0  0
  -22.7295  -31.3071   21.3926 H   0  0  0  0  0  0
  -23.3775  -35.9580   23.3293 H   0  0  0  0  0  0
  -24.3604  -36.8931   22.2070 H   0  0  0  0  0  0
  -23.7201  -37.6457   23.6701 H   0  0  0  0  0  0
  -26.1339  -31.5427   20.6204 H   0  0  0  0  0  0
  -26.8469  -30.8033   22.0219 H   0  0  0  0  0  0
  -28.1416  -28.9650   21.1434 H   0  0  0  0  0  0
  -25.9563  -25.8782   19.0749 H   0  0  0  0  0  0
  -23.9654  -27.2867   19.0454 H   0  0  0  0  0  0
  -23.7823  -30.5992   19.4090 H   0  0  0  0  0  0
  -22.7642  -29.2622   19.8444 H   0  0  0  0  0  0
  -25.1286  -36.1927   25.0811 H   0  0  0  0  0  0
  -21.0018  -28.3342   24.1339 H   0  0  0  0  0  0
  -20.5710  -26.2354   23.3614 H   0  0  0  0  0  0
  -21.6659  -26.7478   22.1167 H   0  0  0  0  0  0
  -19.6948  -25.6306   21.1249 H   0  0  0  0  0  0
  -19.6706  -27.3200   20.6725 H   0  0  0  0  0  0
  -17.4212  -26.6708   21.4023 H   0  0  0  0  0  0
  -18.0360  -26.0088   22.9006 H   0  0  0  0  0  0
  -19.7964  -30.7299   24.2238 H   0  0  0  0  0  0
  -17.5054  -31.6290   24.5169 H   0  0  0  0  0  0
  -15.5381  -30.3001   23.7707 H   0  0  0  0  0  0
  -15.8688  -28.0861   22.7044 H   0  0  0  0  0  0
  -24.5892  -30.7113   25.7743 H   0  0  0  0  0  0
  -24.8955  -32.2869   26.4969 H   0  0  0  0  0  0
  -25.8047  -30.8804   27.0192 H   0  0  0  0  0  0
  -26.3013  -29.6709   24.1338 H   0  0  0  0  0  0
  -27.4129  -29.7366   25.4816 H   0  0  0  0  0  0
  -27.8861  -30.4317   23.9512 H   0  0  0  0  0  0
  -27.2702  -33.3677   26.2064 H   0  0  0  0  0  0
  -28.3859  -32.6928   25.0290 H   0  0  0  0  0  0
  -28.0789  -31.8515   26.5397 H   0  0  0  0  0  0
  -28.2566  -38.0109   24.7562 H   0  0  0  0  0  0
  -28.1099  -36.2639   24.6222 H   0  0  0  0  0  0
  -27.2314  -37.1336   25.8874 H   0  0  0  0  0  0
  -20.9432  -29.8748   21.6738 H   0  0  0  0  0  0
  -26.0163  -38.2842   24.1465 H   0  0  0  0  0  0
  -30.9755  -22.7518   21.2936 H   0  0  0  0  0  0
  -31.2135  -20.0834   21.5769 H   0  0  0  0  0  0
  -27.1282  -22.4495   18.4172 H   0  0  0  0  0  0
  -26.8231  -24.1529   18.3435 H   0  0  0  0  0  0
  -26.3302  -23.2385   19.7676 H   0  0  0  0  0  0
  -29.5681  -23.2528   17.8361 H   0  0  0  0  0  0
  -30.4581  -24.2542   18.9861 H   0  0  0  0  0  0
  -29.1270  -24.9354   18.0676 H   0  0  0  0  0  0
  -27.6728  -17.1805   21.7180 H   0  0  0  0  0  0
  -27.1697  -18.8648   21.6625 H   0  0  0  0  0  0
  -28.5319  -18.3747   22.6617 H   0  0  0  0  0  0
  -27.8901  -17.1118   19.1545 H   0  0  0  0  0  0
  -28.7680  -18.3819   18.3185 H   0  0  0  0  0  0
  -27.2691  -18.7506   19.1490 H   0  0  0  0  0  0
  -30.8275  -17.6018   21.4248 H   0  0  0  0  0  0
  -30.8126  -17.4959   19.6903 H   0  0  0  0  0  0
  -29.1235  -24.9457   21.3372 H   0  0  0  0  0  0
  -27.4169  -24.8416   21.2624 H   0  0  0  0  0  0
  -28.8687  -15.6729   20.8941 H   0  0  0  0  0  0
  1 25  1  0  0  0
  1 30  2  0  0  0
  1 84  1  0  0  0
  2  3  1  0  0  0
  2 25  1  0  0  0
  2 85  1  0  0  0
  2 86  1  0  0  0
  3  4  1  0  0  0
  3 87  1  0  0  0
  3 88  1  0  0  0
  4  5  1  0  0  0
  4 89  1  0  0  0
  4 90  1  0  0  0
  5  6  1  0  0  0
  5 26  1  0  0  0
  5 91  1  0  0  0
  6 25  1  0  0  0
  6 92  1  0  0  0
  6 93  1  0  0  0
  7  8  2  0  0  0
  7 26  1  0  0  0
  7 29  1  0  0  0
  8  9  1  0  0  0
  8 22  1  0  0  0
  9 10  1  0  0  0
  9 27  2  0  0  0
 10 11  2  0  0  0
 10 15  1  0  0  0
 11 12  1  0  0  0
 11 94  1  0  0  0
 12 13  2  0  0  0
 12 95  1  0  0  0
 13 14  1  0  0  0
 13 31  1  0  0  0
 14 15  2  0  0  0
 14 96  1  0  0  0
 15 97  1  0  0  0
 16 17  2  0  0  0
 16 21  1  0  0  0
 16 31  1  0  0  0
 17 18  1  0  0  0
 17 98  1  0  0  0
 18 19  2  0  0  0
 18 99  1  0  0  0
 19 20  1  0  0  0
 19 24  1  0  0  0
 20 21  2  0  0  0
 20100  1  0  0  0
 21 23  1  0  0  0
 22 28  1  0  0  0
 22 32  2  0  0  0
 26 27  1  0  0  0
 28101  1  0  0  0
 28102  1  0  0  0
 29103  1  0  0  0
 29104  1  0  0  0
 33 34  1  0  0  0
 33 66  1  0  0  0
 33 70  2  0  0  0
 34 36  1  0  0  0
 34 59  1  0  0  0
 34105  1  0  0  0
 35 44  2  0  0  0
 35 45  1  0  0  0
 35 68  1  0  0  0
 36 56  1  0  0  0
 36106  1  0  0  0
 37 39  1  0  0  0
 37 47  1  0  0  0
 37 66  1  0  0  0
 37107  1  0  0  0
 38 43  2  0  0  0
 38 46  1  0  0  0
 38 47  1  0  0  0
 39 64  1  0  0  0
 39 67  2  0  0  0
 40 52  1  0  0  0
 40 53  2  0  0  0
 40 58  1  0  0  0
 41108  1  0  0  0
 41109  1  0  0  0
 41110  1  0  0  0
 41 48  1  0  0  0
 42 43  1  0  0  0
 42 66  1  0  0  0
 42111  1  0  0  0
 42112  1  0  0  0
 43 44  1  0  0  0
 44113  1  0  0  0
 45 46  2  0  0  0
 45114  1  0  0  0
 46115  1  0  0  0
 47116  1  0  0  0
 47117  1  0  0  0
 48 56  1  0  0  0
 48 65  1  0  0  0
 48118  1  0  0  0
 49 50  1  0  0  0
 49 53  1  0  0  0
 49 64  1  0  0  0
 49119  1  0  0  0
 50 51  1  0  0  0
 50120  1  0  0  0
 50121  1  0  0  0
 51 52  1  0  0  0
 51122  1  0  0  0
 51123  1  0  0  0
 52124  1  0  0  0
 52125  1  0  0  0
 53 54  1  0  0  0
 54 55  2  0  0  0
 54126  1  0  0  0
 55 57  1  0  0  0
 55127  1  0  0  0
 56 69  2  0  0  0
 57 58  2  0  0  0
 57128  1  0  0  0
 58129  1  0  0  0
 59 60  1  0  0  0
 59 61  1  0  0  0
 59 62  1  0  0  0
 60130  1  0  0  0
 60131  1  0  0  0
 60132  1  0  0  0
 61133  1  0  0  0
 61134  1  0  0  0
 61135  1  0  0  0
 62136  1  0  0  0
 62137  1  0  0  0
 62138  1  0  0  0
 63 65  1  0  0  0
 63139  1  0  0  0
 63140  1  0  0  0
 63141  1  0  0  0
 64142  1  0  0  0
 65143  1  0  0  0
 68 79  1  0  0  0
 71 72  2  0  0  0
 71 73  1  0  0  0
 71144  1  0  0  0
 72 83  1  0  0  0
 72145  1  0  0  0
 73 80  1  0  0  0
 73 82  2  0  0  0
 74146  1  0  0  0
 74147  1  0  0  0
 74148  1  0  0  0
 74 80  1  0  0  0
 75 80  1  0  0  0
 75149  1  0  0  0
 75150  1  0  0  0
 75151  1  0  0  0
 76152  1  0  0  0
 76153  1  0  0  0
 76154  1  0  0  0
 76 81  1  0  0  0
 77 81  1  0  0  0
 77155  1  0  0  0
 77156  1  0  0  0
 77157  1  0  0  0
 78 81  1  0  0  0
 78 84  1  0  0  0
 78158  1  0  0  0
 78159  1  0  0  0
 79 80  1  0  0  0
 79160  1  0  0  0
 79161  1  0  0  0
 81 83  1  0  0  0
 82 83  1  0  0  0
 84162  1  0  0  0
M  ISO  4   1 100  68 101  79 101  84 100
M  END
> <chiral flag>
0

> <version>
0

> <s_m_source_file>
/data/baiqing/PycharmProjects/Reinvent-master-3.2/result/LINK_invent/BTK/process_docking_weight1_custom_sum_contain_oxygen_bond_distance_aromatic_linkinvent_7_9_3/rearranged_h_0064.sdf

> <i_m_source_file_index>
46

> <r_mmod_Potential_Energy-OPLS-2005>
149.31867980957

> <r_mmod_Stretch_Energy-OPLS-2005>
147.798538208008

> <r_mmod_Bend_Energy-OPLS-2005>
191.23388671875

> <r_mmod_Torsional_Energy-OPLS-2005>
272.743408203125

> <r_mmod_Improper_Torsional_Energy-OPLS-2005>
6.66658496856689

> <r_mmod_Van_der_Waal_Energy-OPLS-2005>
110.272369384766

> <r_mmod_Electrostatic_Energy-OPLS-2005>
-453.711853027344

> <r_mmod_Solvation_Energy-OPLS-2005>
-207.880035400391

> <b_mmod_Minimization_Converged-OPLS-2005>
0

> <r_mmod_RMS_Derivative-OPLS-2005>
5.31834268569946

$$$$
47
                    3D
 Structure written by MMmdl.
171179  0  0  1  0            999 V2000
  -30.7267  -14.5185   20.6082 C   0  0  0  0  0  0
  -30.4171  -12.3485   19.4451 C   0  0  0  0  0  0
  -29.4992  -12.5210   18.2170 C   0  0  0  0  0  0
  -28.0195  -12.3693   18.6181 C   0  0  0  0  0  0
  -27.6551  -13.2152   19.8657 C   0  0  2  0  0  0
  -28.6883  -13.0060   20.9888 C   0  0  0  0  0  0
  -25.2563  -13.8193   20.5661 C   0  0  0  0  0  0
  -24.1824  -13.0453   20.9156 C   0  0  0  0  0  0
  -24.6391  -11.6921   20.8714 C   0  0  0  0  0  0
  -23.9066  -10.4299   21.0396 C   0  0  0  0  0  0
  -24.3623   -9.4217   21.9178 C   0  0  0  0  0  0
  -23.6294   -8.2254   22.0757 C   0  0  0  0  0  0
  -22.4273   -8.0288   21.3549 C   0  0  0  0  0  0
  -21.9912   -9.0262   20.4650 C   0  0  0  0  0  0
  -22.7241  -10.2137   20.3051 C   0  0  0  0  0  0
  -21.6856   -6.0732   22.5278 C   0  0  0  0  0  0
  -21.4015   -6.5636   23.8212 C   0  0  0  0  0  0
  -21.3661   -5.6792   24.9175 C   0  0  0  0  0  0
  -21.6047   -4.3053   24.7229 C   0  0  0  0  0  0
  -21.8819   -3.8143   23.4351 C   0  0  0  0  0  0
  -21.9193   -4.6959   22.3402 C   0  0  0  0  0  0
  -22.7845  -13.5239   21.1838 C   0  0  0  0  0  0
  -22.1655   -4.2141   21.0979 F   0  0  0  0  0  0
  -21.5636   -3.4537   25.7745 F   0  0  0  0  0  0
  -30.0180  -13.3522   20.4565 N   0  0  0  0  0  0
  -26.2986  -12.9370   20.3297 N   0  0  0  0  0  0
  -25.9314  -11.6522   20.5720 N   0  0  0  0  0  0
  -22.0499  -12.8223   22.0402 N   0  0  0  0  0  0
  -25.4311  -15.1916   20.4111 N   0  0  0  0  0  0
  -31.8343  -14.6450   20.0738 O   0  0  0  0  0  0
  -21.6641   -6.8880   21.4242 O   0  0  0  0  0  0
  -22.3517  -14.5544   20.6693 O   0  0  0  0  0  0
  -24.6180  -31.8652   23.2120 C   0  0  0  0  0  0
  -25.9059  -32.4805   23.8399 C   0  0  1  0  0  0
  -27.2125  -27.3824   20.1045 C   0  0  0  0  0  0
  -25.5912  -33.8604   24.2318 N   0  0  0  0  0  0
  -23.4076  -30.4936   21.5534 C   0  0  2  0  0  0
  -24.8512  -28.9674   20.1051 C   0  0  0  0  0  0
  -22.7429  -29.4640   22.4962 C   0  0  0  0  0  0
  -18.0274  -28.1368   22.8477 C   0  0  0  0  0  0
  -24.1493  -36.7313   23.2637 C   0  0  0  0  0  0
  -25.9429  -30.8154   21.3759 C   0  0  0  0  0  0
  -26.0156  -29.4502   20.7151 C   0  0  0  0  0  0
  -27.1989  -28.6661   20.7115 C   0  0  0  0  0  0
  -26.0362  -26.9549   19.4428 C   0  0  0  0  0  0
  -24.8603  -27.7227   19.4608 C   0  0  0  0  0  0
  -23.6170  -29.8394   20.1629 C   0  0  0  0  0  0
  -25.4111  -36.3094   24.0332 C   0  0  1  0  0  0
  -20.5867  -28.3656   23.1297 C   0  0  2  0  0  0
  -20.6766  -26.9383   22.5413 C   0  0  0  0  0  0
  -19.5747  -26.6378   21.5201 C   0  0  0  0  0  0
  -18.1922  -26.7913   22.1614 C   0  0  0  0  0  0
  -19.1529  -28.8827   23.2883 C   0  0  0  0  0  0
  -18.9459  -30.1433   23.8890 C   0  0  0  0  0  0
  -17.6459  -30.6574   24.0558 C   0  0  0  0  0  0
  -25.9038  -34.9458   23.5120 C   0  0  0  0  0  0
  -16.5345  -29.9068   23.6331 C   0  0  0  0  0  0
  -16.7265  -28.6493   23.0335 C   0  0  0  0  0  0
  -26.4477  -31.6587   25.0734 C   0  0  0  0  0  0
  -25.3733  -31.3704   26.1474 C   0  0  0  0  0  0
  -27.0309  -30.3023   24.6125 C   0  0  0  0  0  0
  -27.6042  -32.4316   25.7503 C   0  0  0  0  0  0
  -27.5580  -37.1815   24.8463 C   0  0  0  0  0  0
  -21.4152  -29.3030   22.3706 N   0  0  0  0  0  0
  -26.4299  -37.3779   23.9401 N   0  0  0  0  0  0
  -24.6742  -31.0729   22.1043 N   0  0  0  0  0  0
  -23.4180  -28.8154   23.2999 O   0  0  0  0  0  0
  -28.3433  -26.5711   20.1752 O   0  0  0  0  0  0
  -26.5601  -34.8908   22.4679 O   0  0  0  0  0  0
  -23.5368  -32.1429   23.7502 O   0  0  0  0  0  0
  -27.7141  -20.0146   20.0635 C   0  0  0  0  0  0
  -27.5596  -18.7165   19.5625 C   0  0  0  0  0  0
  -28.8390  -20.2738   20.8567 C   0  0  0  0  0  0
  -29.5030  -18.0627   20.5563 C   0  0  0  0  0  0
  -27.7202  -21.6661   23.6720 C   0  0  0  0  0  0
  -30.3197  -21.8953   23.6591 C   0  0  0  0  0  0
  -28.5716  -24.8048   22.4543 C   0  0  0  0  0  0
  -30.4207  -24.2848   20.7702 C   0  0  0  0  0  0
  -29.6019  -15.6125   22.5283 C   0  0  0  0  0  0
  -30.5742  -16.9781   20.7385 C   0  0  0  0  0  0
  -28.3772  -22.7164   20.8765 C   0  0  0  0  0  0
  -28.1504  -25.1260   20.0505 C   0  0  0  0  0  0
  -29.0588  -21.3313   22.9815 C   0  0  0  0  0  0
  -28.9118  -24.2045   21.0691 C   0  0  0  0  0  0
  -28.4507  -17.7398   19.8152 N   0  0  0  0  0  0
  -29.7352  -19.2776   21.0748 N   0  0  0  0  0  0
  -29.0338  -21.5282   21.5155 N   0  0  0  0  0  0
  -30.1198  -15.6167   21.1530 N   0  0  0  0  0  0
  -31.4631  -12.4341   19.1455 H   0  0  0  0  0  0
  -30.3191  -11.3418   19.8540 H   0  0  0  0  0  0
  -29.7545  -11.7901   17.4485 H   0  0  0  0  0  0
  -29.6622  -13.5035   17.7715 H   0  0  0  0  0  0
  -27.8384  -11.3129   18.8228 H   0  0  0  0  0  0
  -27.3723  -12.6326   17.7814 H   0  0  0  0  0  0
  -27.6967  -14.2635   19.5682 H   0  0  0  0  0  0
  -28.6835  -11.9655   21.3166 H   0  0  0  0  0  0
  -28.3889  -13.5656   21.8673 H   0  0  0  0  0  0
  -25.2772   -9.5690   22.4743 H   0  0  0  0  0  0
  -24.0001   -7.4651   22.7481 H   0  0  0  0  0  0
  -21.0844   -8.8792   19.8954 H   0  0  0  0  0  0
  -22.3714  -10.9677   19.6154 H   0  0  0  0  0  0
  -21.2003   -7.6146   23.9714 H   0  0  0  0  0  0
  -21.1484   -6.0520   25.9079 H   0  0  0  0  0  0
  -22.0595   -2.7605   23.2858 H   0  0  0  0  0  0
  -22.4114  -11.9872   22.4766 H   0  0  0  0  0  0
  -21.1124  -13.1249   22.2626 H   0  0  0  0  0  0
  -24.6723  -15.8528   20.5332 H   0  0  0  0  0  0
  -26.3021  -15.6303   20.1353 H   0  0  0  0  0  0
  -26.7119  -32.5498   23.1143 H   0  0  0  0  0  0
  -25.0056  -33.9767   25.0460 H   0  0  0  0  0  0
  -22.6987  -31.3132   21.4204 H   0  0  0  0  0  0
  -23.3741  -35.9661   23.3304 H   0  0  0  0  0  0
  -24.3587  -36.8930   22.2050 H   0  0  0  0  0  0
  -23.7268  -37.6525   23.6656 H   0  0  0  0  0  0
  -26.0631  -31.5844   20.6115 H   0  0  0  0  0  0
  -26.8274  -30.8619   21.9987 H   0  0  0  0  0  0
  -28.0911  -29.0268   21.2042 H   0  0  0  0  0  0
  -25.9936  -26.0219   18.9006 H   0  0  0  0  0  0
  -23.9730  -27.3569   18.9625 H   0  0  0  0  0  0
  -23.7287  -30.6230   19.4123 H   0  0  0  0  0  0
  -22.7376  -29.2668   19.8605 H   0  0  0  0  0  0
  -25.1290  -36.1955   25.0829 H   0  0  0  0  0  0
  -20.9962  -28.3230   24.1414 H   0  0  0  0  0  0
  -20.5687  -26.2250   23.3605 H   0  0  0  0  0  0
  -21.6634  -26.7441   22.1188 H   0  0  0  0  0  0
  -19.6911  -25.6295   21.1212 H   0  0  0  0  0  0
  -19.6687  -27.3210   20.6745 H   0  0  0  0  0  0
  -17.4198  -26.6660   21.4010 H   0  0  0  0  0  0
  -18.0316  -26.0064   22.9021 H   0  0  0  0  0  0
  -19.7945  -30.7239   24.2265 H   0  0  0  0  0  0
  -17.5025  -31.6260   24.5143 H   0  0  0  0  0  0
  -15.5350  -30.2960   23.7674 H   0  0  0  0  0  0
  -15.8670  -28.0823   22.7021 H   0  0  0  0  0  0
  -24.5922  -30.7026   25.7825 H   0  0  0  0  0  0
  -24.8896  -32.2860   26.4894 H   0  0  0  0  0  0
  -25.8082  -30.8906   27.0254 H   0  0  0  0  0  0
  -26.2857  -29.6794   24.1155 H   0  0  0  0  0  0
  -27.4033  -29.7248   25.4599 H   0  0  0  0  0  0
  -27.8720  -30.4324   23.9310 H   0  0  0  0  0  0
  -27.2649  -33.3616   26.2078 H   0  0  0  0  0  0
  -28.3856  -32.6866   25.0335 H   0  0  0  0  0  0
  -28.0694  -31.8433   26.5429 H   0  0  0  0  0  0
  -28.2589  -38.0118   24.7499 H   0  0  0  0  0  0
  -28.1081  -36.2643   24.6298 H   0  0  0  0  0  0
  -27.2291  -37.1468   25.8864 H   0  0  0  0  0  0
  -20.9304  -29.8787   21.6962 H   0  0  0  0  0  0
  -26.0178  -38.2853   24.1410 H   0  0  0  0  0  0
  -26.9511  -20.7508   19.8604 H   0  0  0  0  0  0
  -26.7028  -18.4520   18.9616 H   0  0  0  0  0  0
  -27.7693  -21.4445   24.7388 H   0  0  0  0  0  0
  -26.9099  -21.0614   23.2619 H   0  0  0  0  0  0
  -27.4215  -22.7056   23.5812 H   0  0  0  0  0  0
  -30.2683  -21.7608   24.7400 H   0  0  0  0  0  0
  -30.5110  -22.9453   23.4729 H   0  0  0  0  0  0
  -31.2023  -21.3571   23.3146 H   0  0  0  0  0  0
  -28.9571  -24.2504   23.2982 H   0  0  0  0  0  0
  -27.4924  -24.8772   22.5937 H   0  0  0  0  0  0
  -28.9659  -25.8164   22.5535 H   0  0  0  0  0  0
  -31.0031  -23.6299   21.4146 H   0  0  0  0  0  0
  -30.7964  -25.3007   20.9011 H   0  0  0  0  0  0
  -30.6328  -23.9924   19.7413 H   0  0  0  0  0  0
  -28.5185  -15.7307   22.5216 H   0  0  0  0  0  0
  -30.0122  -16.4332   23.1180 H   0  0  0  0  0  0
  -29.8542  -14.6978   23.0683 H   0  0  0  0  0  0
  -31.3266  -17.3278   21.4472 H   0  0  0  0  0  0
  -31.0918  -16.9431   19.7778 H   0  0  0  0  0  0
  -28.3976  -22.5342   19.8010 H   0  0  0  0  0  0
  -27.3198  -22.6923   21.1444 H   0  0  0  0  0  0
  -27.1076  -24.8541   20.2020 H   0  0  0  0  0  0
  -28.3880  -24.8399   19.0253 H   0  0  0  0  0  0
  -29.1461  -20.2642   23.1918 H   0  0  0  0  0  0
  1 25  1  0  0  0
  1 30  2  0  0  0
  1 88  1  0  0  0
  2  3  1  0  0  0
  2 25  1  0  0  0
  2 89  1  0  0  0
  2 90  1  0  0  0
  3  4  1  0  0  0
  3 91  1  0  0  0
  3 92  1  0  0  0
  4  5  1  0  0  0
  4 93  1  0  0  0
  4 94  1  0  0  0
  5  6  1  0  0  0
  5 26  1  0  0  0
  5 95  1  0  0  0
  6 25  1  0  0  0
  6 96  1  0  0  0
  6 97  1  0  0  0
  7  8  2  0  0  0
  7 26  1  0  0  0
  7 29  1  0  0  0
  8  9  1  0  0  0
  8 22  1  0  0  0
  9 10  1  0  0  0
  9 27  2  0  0  0
 10 11  2  0  0  0
 10 15  1  0  0  0
 11 12  1  0  0  0
 11 98  1  0  0  0
 12 13  2  0  0  0
 12 99  1  0  0  0
 13 14  1  0  0  0
 13 31  1  0  0  0
 14 15  2  0  0  0
 14100  1  0  0  0
 15101  1  0  0  0
 16 17  2  0  0  0
 16 21  1  0  0  0
 16 31  1  0  0  0
 17 18  1  0  0  0
 17102  1  0  0  0
 18 19  2  0  0  0
 18103  1  0  0  0
 19 20  1  0  0  0
 19 24  1  0  0  0
 20 21  2  0  0  0
 20104  1  0  0  0
 21 23  1  0  0  0
 22 28  1  0  0  0
 22 32  2  0  0  0
 26 27  1  0  0  0
 28105  1  0  0  0
 28106  1  0  0  0
 29107  1  0  0  0
 29108  1  0  0  0
 33 34  1  0  0  0
 33 66  1  0  0  0
 33 70  2  0  0  0
 34 36  1  0  0  0
 34 59  1  0  0  0
 34109  1  0  0  0
 35 44  2  0  0  0
 35 45  1  0  0  0
 35 68  1  0  0  0
 36 56  1  0  0  0
 36110  1  0  0  0
 37 39  1  0  0  0
 37 47  1  0  0  0
 37 66  1  0  0  0
 37111  1  0  0  0
 38 43  2  0  0  0
 38 46  1  0  0  0
 38 47  1  0  0  0
 39 64  1  0  0  0
 39 67  2  0  0  0
 40 52  1  0  0  0
 40 53  2  0  0  0
 40 58  1  0  0  0
 41112  1  0  0  0
 41113  1  0  0  0
 41114  1  0  0  0
 41 48  1  0  0  0
 42 43  1  0  0  0
 42 66  1  0  0  0
 42115  1  0  0  0
 42116  1  0  0  0
 43 44  1  0  0  0
 44117  1  0  0  0
 45 46  2  0  0  0
 45118  1  0  0  0
 46119  1  0  0  0
 47120  1  0  0  0
 47121  1  0  0  0
 48 56  1  0  0  0
 48 65  1  0  0  0
 48122  1  0  0  0
 49 50  1  0  0  0
 49 53  1  0  0  0
 49 64  1  0  0  0
 49123  1  0  0  0
 50 51  1  0  0  0
 50124  1  0  0  0
 50125  1  0  0  0
 51 52  1  0  0  0
 51126  1  0  0  0
 51127  1  0  0  0
 52128  1  0  0  0
 52129  1  0  0  0
 53 54  1  0  0  0
 54 55  2  0  0  0
 54130  1  0  0  0
 55 57  1  0  0  0
 55131  1  0  0  0
 56 69  2  0  0  0
 57 58  2  0  0  0
 57132  1  0  0  0
 58133  1  0  0  0
 59 60  1  0  0  0
 59 61  1  0  0  0
 59 62  1  0  0  0
 60134  1  0  0  0
 60135  1  0  0  0
 60136  1  0  0  0
 61137  1  0  0  0
 61138  1  0  0  0
 61139  1  0  0  0
 62140  1  0  0  0
 62141  1  0  0  0
 62142  1  0  0  0
 63 65  1  0  0  0
 63143  1  0  0  0
 63144  1  0  0  0
 63145  1  0  0  0
 64146  1  0  0  0
 65147  1  0  0  0
 68 82  1  0  0  0
 71 72  2  0  0  0
 71 73  1  0  0  0
 71148  1  0  0  0
 72 85  1  0  0  0
 72149  1  0  0  0
 73 86  2  0  0  0
 73 87  1  0  0  0
 74 80  1  0  0  0
 74 85  2  0  0  0
 74 86  1  0  0  0
 75150  1  0  0  0
 75151  1  0  0  0
 75152  1  0  0  0
 75 83  1  0  0  0
 76 83  1  0  0  0
 76153  1  0  0  0
 76154  1  0  0  0
 76155  1  0  0  0
 77156  1  0  0  0
 77157  1  0  0  0
 77158  1  0  0  0
 77 84  1  0  0  0
 78 84  1  0  0  0
 78159  1  0  0  0
 78160  1  0  0  0
 78161  1  0  0  0
 79 88  1  0  0  0
 79162  1  0  0  0
 79163  1  0  0  0
 79164  1  0  0  0
 80 88  1  0  0  0
 80165  1  0  0  0
 80166  1  0  0  0
 81 84  1  0  0  0
 81 87  1  0  0  0
 81167  1  0  0  0
 81168  1  0  0  0
 82 84  1  0  0  0
 82169  1  0  0  0
 82170  1  0  0  0
 83 87  1  0  0  0
 83171  1  0  0  0
M  ISO  4   1 100  68 101  82 101  88 100
M  END
> <chiral flag>
0

> <version>
0

> <s_m_source_file>
/data/baiqing/PycharmProjects/Reinvent-master-3.2/result/LINK_invent/BTK/process_docking_weight1_custom_sum_contain_oxygen_bond_distance_aromatic_linkinvent_7_9_3/rearranged_h_0064.sdf

> <i_m_source_file_index>
47

> <r_mmod_Potential_Energy-OPLS-2005>
-409.749755859375

> <r_mmod_Stretch_Energy-OPLS-2005>
61.8845977783203

> <r_mmod_Bend_Energy-OPLS-2005>
158.375244140625

> <r_mmod_Torsional_Energy-OPLS-2005>
287.128601074219

> <r_mmod_Improper_Torsional_Energy-OPLS-2005>
10.4488096237183

> <r_mmod_Van_der_Waal_Energy-OPLS-2005>
186.562255859375

> <r_mmod_Electrostatic_Energy-OPLS-2005>
-931.980285644531

> <r_mmod_Solvation_Energy-OPLS-2005>
-205.926788330078

> <b_mmod_Minimization_Converged-OPLS-2005>
0

> <r_mmod_RMS_Derivative-OPLS-2005>
1.70828652381897

$$$$
48
                    3D
 Structure written by MMmdl.
186194  0  0  1  0            999 V2000
  -30.7468  -14.4858   20.3633 C   0  0  0  0  0  0
  -30.3944  -12.2753   19.3887 C   0  0  0  0  0  0
  -29.4495  -12.4268   18.1795 C   0  0  0  0  0  0
  -27.9786  -12.3464   18.6166 C   0  0  0  0  0  0
  -27.6491  -13.2196   19.8600 C   0  0  2  0  0  0
  -28.7243  -13.0890   20.9641 C   0  0  0  0  0  0
  -25.2499  -13.8199   20.5696 C   0  0  0  0  0  0
  -24.1808  -13.0447   20.9177 C   0  0  0  0  0  0
  -24.6414  -11.6943   20.8774 C   0  0  0  0  0  0
  -23.9099  -10.4329   21.0376 C   0  0  0  0  0  0
  -24.3674   -9.4272   21.9154 C   0  0  0  0  0  0
  -23.6362   -8.2296   22.0758 C   0  0  0  0  0  0
  -22.4327   -8.0329   21.3536 C   0  0  0  0  0  0
  -21.9969   -9.0287   20.4628 C   0  0  0  0  0  0
  -22.7272  -10.2174   20.3012 C   0  0  0  0  0  0
  -21.6842   -6.0756   22.5257 C   0  0  0  0  0  0
  -21.3983   -6.5649   23.8188 C   0  0  0  0  0  0
  -21.3700   -5.6797   24.9154 C   0  0  0  0  0  0
  -21.6086   -4.3065   24.7230 C   0  0  0  0  0  0
  -21.8810   -3.8154   23.4339 C   0  0  0  0  0  0
  -21.9175   -4.6974   22.3392 C   0  0  0  0  0  0
  -22.7827  -13.5179   21.1890 C   0  0  0  0  0  0
  -22.1618   -4.2149   21.0962 F   0  0  0  0  0  0
  -21.5759   -3.4560   25.7760 F   0  0  0  0  0  0
  -30.0287  -13.3325   20.3373 N   0  0  0  0  0  0
  -26.3007  -12.9422   20.3436 N   0  0  0  0  0  0
  -25.9357  -11.6580   20.5884 N   0  0  0  0  0  0
  -22.0533  -12.8096   22.0437 N   0  0  0  0  0  0
  -25.4088  -15.1928   20.4041 N   0  0  0  0  0  0
  -31.9775  -14.4966   20.3516 O   0  0  0  0  0  0
  -21.6687   -6.8912   21.4217 O   0  0  0  0  0  0
  -22.3455  -14.5488   20.6767 O   0  0  0  0  0  0
  -24.6110  -31.8699   23.2121 C   0  0  0  0  0  0
  -25.9025  -32.4827   23.8414 C   0  0  1  0  0  0
  -27.2471  -27.4671   20.0856 C   0  0  0  0  0  0
  -25.5887  -33.8623   24.2350 N   0  0  0  0  0  0
  -23.3972  -30.4950   21.5514 C   0  0  2  0  0  0
  -24.8446  -28.9638   20.1130 C   0  0  0  0  0  0
  -22.7389  -29.4678   22.4991 C   0  0  0  0  0  0
  -18.0271  -28.1379   22.8487 C   0  0  0  0  0  0
  -24.1482  -36.7321   23.2638 C   0  0  0  0  0  0
  -25.9230  -30.8426   21.3615 C   0  0  0  0  0  0
  -25.9990  -29.4773   20.7145 C   0  0  0  0  0  0
  -27.1957  -28.7321   20.7067 C   0  0  0  0  0  0
  -26.0711  -26.9587   19.4815 C   0  0  0  0  0  0
  -24.8739  -27.6999   19.4974 C   0  0  0  0  0  0
  -23.6039  -29.8265   20.1642 C   0  0  0  0  0  0
  -25.4098  -36.3118   24.0348 C   0  0  1  0  0  0
  -20.5857  -28.3664   23.1309 C   0  0  2  0  0  0
  -20.6759  -26.9404   22.5404 C   0  0  0  0  0  0
  -19.5741  -26.6394   21.5199 C   0  0  0  0  0  0
  -18.1920  -26.7925   22.1614 C   0  0  0  0  0  0
  -19.1514  -28.8841   23.2900 C   0  0  0  0  0  0
  -18.9447  -30.1443   23.8919 C   0  0  0  0  0  0
  -17.6451  -30.6585   24.0571 C   0  0  0  0  0  0
  -25.9025  -34.9479   23.5150 C   0  0  0  0  0  0
  -16.5344  -29.9093   23.6319 C   0  0  0  0  0  0
  -16.7262  -28.6507   23.0342 C   0  0  0  0  0  0
  -26.4466  -31.6593   25.0725 C   0  0  0  0  0  0
  -25.3762  -31.3664   26.1489 C   0  0  0  0  0  0
  -27.0292  -30.3050   24.6064 C   0  0  0  0  0  0
  -27.6051  -32.4300   25.7474 C   0  0  0  0  0  0
  -27.5582  -37.1808   24.8467 C   0  0  0  0  0  0
  -21.4115  -29.3037   22.3720 N   0  0  0  0  0  0
  -26.4290  -37.3799   23.9417 N   0  0  0  0  0  0
  -24.6624  -31.0836   22.0998 N   0  0  0  0  0  0
  -23.4174  -28.8218   23.3019 O   0  0  0  0  0  0
  -28.4506  -26.7941   20.1123 O   0  0  0  0  0  0
  -26.5586  -34.8925   22.4707 O   0  0  0  0  0  0
  -23.5316  -32.1436   23.7541 O   0  0  0  0  0  0
  -29.1668  -19.0802   20.1617 C   0  0  0  0  0  0
  -28.9877  -20.3791   20.5989 C   0  0  0  0  0  0
  -29.6204  -20.4328   18.4804 C   0  0  0  0  0  0
  -28.5645  -20.8639   21.9525 C   0  0  0  0  0  0
  -31.4696  -15.5101   17.6827 C   0  0  0  0  0  0
  -29.0093  -16.2124   17.7498 C   0  0  0  0  0  0
  -30.4040  -19.5862   16.2115 C   0  0  0  0  0  0
  -31.5336  -21.5113   17.2483 C   0  0  0  0  0  0
  -29.1953  -21.7235   16.2923 C   0  0  0  0  0  0
  -31.0132  -25.9636   20.1851 C   0  0  0  0  0  0
  -30.7058  -25.0683   17.9212 C   0  0  0  0  0  0
  -28.9114  -17.7437   20.8628 C   0  0  0  0  0  0
  -30.0662  -23.6367   19.9647 C   0  0  0  0  0  0
  -28.9402  -22.6812   19.4886 C   0  0  0  0  0  0
  -30.0980  -16.7312   20.9318 C   0  0  0  0  0  0
  -28.6450  -25.7018   19.2236 C   0  0  0  0  0  0
  -30.3302  -16.1196   18.5510 C   0  0  0  0  0  0
  -30.1610  -20.8345   17.1011 C   0  0  0  0  0  0
  -30.0774  -25.0740   19.3328 C   0  0  0  0  0  0
  -29.5480  -19.1542   18.8353 N   0  0  0  0  0  0
  -29.2134  -21.2362   19.5016 N   0  0  0  0  0  0
  -30.0997  -15.6093   19.9466 N   0  0  0  0  0  0
  -31.4393  -12.3365   19.0756 H   0  0  0  0  0  0
  -30.2700  -11.2904   19.8369 H   0  0  0  0  0  0
  -29.6623  -11.6721   17.4233 H   0  0  0  0  0  0
  -29.6056  -13.3747   17.6837 H   0  0  0  0  0  0
  -27.7618  -11.2986   18.8274 H   0  0  0  0  0  0
  -27.3316  -12.6309   17.7853 H   0  0  0  0  0  0
  -27.6659  -14.2536   19.5245 H   0  0  0  0  0  0
  -28.7137  -12.0996   21.4252 H   0  0  0  0  0  0
  -28.5438  -13.8041   21.7665 H   0  0  0  0  0  0
  -25.2843   -9.5851   22.4702 H   0  0  0  0  0  0
  -24.0157   -7.4723   22.7486 H   0  0  0  0  0  0
  -21.0927   -8.8790   19.8899 H   0  0  0  0  0  0
  -22.3732  -10.9742   19.6156 H   0  0  0  0  0  0
  -21.1888   -7.6134   23.9694 H   0  0  0  0  0  0
  -21.1544   -6.0513   25.9050 H   0  0  0  0  0  0
  -22.0544   -2.7619   23.2813 H   0  0  0  0  0  0
  -22.4226  -11.9774   22.4808 H   0  0  0  0  0  0
  -21.1126  -13.1039   22.2633 H   0  0  0  0  0  0
  -24.6348  -15.8397   20.5197 H   0  0  0  0  0  0
  -26.2612  -15.6450   20.1022 H   0  0  0  0  0  0
  -26.7094  -32.5554   23.1177 H   0  0  0  0  0  0
  -25.0045  -33.9789   25.0501 H   0  0  0  0  0  0
  -22.6854  -31.3113   21.4141 H   0  0  0  0  0  0
  -23.3736  -35.9661   23.3307 H   0  0  0  0  0  0
  -24.3584  -36.8921   22.2051 H   0  0  0  0  0  0
  -23.7236  -37.6532   23.6640 H   0  0  0  0  0  0
  -26.0334  -31.6060   20.5901 H   0  0  0  0  0  0
  -26.8121  -30.8972   21.9778 H   0  0  0  0  0  0
  -28.0889  -29.1312   21.1684 H   0  0  0  0  0  0
  -26.0514  -25.9969   18.9935 H   0  0  0  0  0  0
  -23.9881  -27.2968   19.0260 H   0  0  0  0  0  0
  -23.7055  -30.6024   19.4037 H   0  0  0  0  0  0
  -22.7279  -29.2448   19.8710 H   0  0  0  0  0  0
  -25.1265  -36.1993   25.0842 H   0  0  0  0  0  0
  -20.9963  -28.3238   24.1424 H   0  0  0  0  0  0
  -20.5653  -26.2283   23.3591 H   0  0  0  0  0  0
  -21.6632  -26.7442   22.1205 H   0  0  0  0  0  0
  -19.6902  -25.6311   21.1218 H   0  0  0  0  0  0
  -19.6675  -27.3212   20.6737 H   0  0  0  0  0  0
  -17.4182  -26.6660   21.4026 H   0  0  0  0  0  0
  -18.0335  -26.0067   22.9014 H   0  0  0  0  0  0
  -19.7926  -30.7248   24.2301 H   0  0  0  0  0  0
  -17.5010  -31.6261   24.5167 H   0  0  0  0  0  0
  -15.5349  -30.3005   23.7633 H   0  0  0  0  0  0
  -15.8656  -28.0843   22.7044 H   0  0  0  0  0  0
  -24.5931  -30.7011   25.7831 H   0  0  0  0  0  0
  -24.8958  -32.2807   26.4991 H   0  0  0  0  0  0
  -25.8149  -30.8800   27.0216 H   0  0  0  0  0  0
  -26.2819  -29.6800   24.1161 H   0  0  0  0  0  0
  -27.4135  -29.7278   25.4488 H   0  0  0  0  0  0
  -27.8623  -30.4379   23.9153 H   0  0  0  0  0  0
  -27.2683  -33.3582   26.2099 H   0  0  0  0  0  0
  -28.3835  -32.6887   25.0283 H   0  0  0  0  0  0
  -28.0758  -31.8401   26.5351 H   0  0  0  0  0  0
  -28.2595  -38.0110   24.7524 H   0  0  0  0  0  0
  -28.1083  -36.2645   24.6275 H   0  0  0  0  0  0
  -27.2310  -37.1440   25.8873 H   0  0  0  0  0  0
  -20.9279  -29.8778   21.6954 H   0  0  0  0  0  0
  -26.0184  -38.2879   24.1418 H   0  0  0  0  0  0
  -28.4045  -20.0386   22.6457 H   0  0  0  0  0  0
  -27.6360  -21.4333   21.8989 H   0  0  0  0  0  0
  -29.3385  -21.4939   22.3923 H   0  0  0  0  0  0
  -32.4487  -15.6544   18.1441 H   0  0  0  0  0  0
  -31.5235  -16.0186   16.7190 H   0  0  0  0  0  0
  -31.3698  -14.4514   17.4672 H   0  0  0  0  0  0
  -29.1673  -16.7322   16.8041 H   0  0  0  0  0  0
  -28.2550  -16.7908   18.2800 H   0  0  0  0  0  0
  -28.5670  -15.2442   17.5240 H   0  0  0  0  0  0
  -31.1141  -18.8931   16.6700 H   0  0  0  0  0  0
  -30.8128  -19.8507   15.2349 H   0  0  0  0  0  0
  -29.4777  -19.0410   16.0311 H   0  0  0  0  0  0
  -32.2716  -20.8303   17.6745 H   0  0  0  0  0  0
  -31.4847  -22.3704   17.9033 H   0  0  0  0  0  0
  -31.9198  -21.8565   16.2904 H   0  0  0  0  0  0
  -28.1688  -21.3585   16.3489 H   0  0  0  0  0  0
  -29.4746  -21.7564   15.2401 H   0  0  0  0  0  0
  -29.2122  -22.7595   16.6013 H   0  0  0  0  0  0
  -32.0326  -25.5750   20.2000 H   0  0  0  0  0  0
  -30.6757  -26.0373   21.2184 H   0  0  0  0  0  0
  -31.0647  -26.9790   19.7866 H   0  0  0  0  0  0
  -31.6524  -24.5314   17.8911 H   0  0  0  0  0  0
  -30.9234  -26.0845   17.5877 H   0  0  0  0  0  0
  -30.0441  -24.6426   17.1711 H   0  0  0  0  0  0
  -28.0190  -17.2583   20.4683 H   0  0  0  0  0  0
  -28.6520  -17.9566   21.9011 H   0  0  0  0  0  0
  -31.0479  -23.1770   19.8468 H   0  0  0  0  0  0
  -29.9471  -23.7350   21.0447 H   0  0  0  0  0  0
  -28.5664  -22.9567   18.5124 H   0  0  0  0  0  0
  -28.0810  -22.8481   20.1349 H   0  0  0  0  0  0
  -30.0274  -16.2809   21.9247 H   0  0  0  0  0  0
  -31.0550  -17.2600   20.9369 H   0  0  0  0  0  0
  -27.8735  -24.9606   19.4085 H   0  0  0  0  0  0
  -28.4698  -26.0734   18.2126 H   0  0  0  0  0  0
  -30.7248  -17.1203   18.6636 H   0  0  0  0  0  0
  1 25  1  0  0  0
  1 30  2  0  0  0
  1 92  1  0  0  0
  2  3  1  0  0  0
  2 25  1  0  0  0
  2 93  1  0  0  0
  2 94  1  0  0  0
  3  4  1  0  0  0
  3 95  1  0  0  0
  3 96  1  0  0  0
  4  5  1  0  0  0
  4 97  1  0  0  0
  4 98  1  0  0  0
  5  6  1  0  0  0
  5 26  1  0  0  0
  5 99  1  0  0  0
  6 25  1  0  0  0
  6100  1  0  0  0
  6101  1  0  0  0
  7  8  2  0  0  0
  7 26  1  0  0  0
  7 29  1  0  0  0
  8  9  1  0  0  0
  8 22  1  0  0  0
  9 10  1  0  0  0
  9 27  2  0  0  0
 10 11  2  0  0  0
 10 15  1  0  0  0
 11 12  1  0  0  0
 11102  1  0  0  0
 12 13  2  0  0  0
 12103  1  0  0  0
 13 14  1  0  0  0
 13 31  1  0  0  0
 14 15  2  0  0  0
 14104  1  0  0  0
 15105  1  0  0  0
 16 17  2  0  0  0
 16 21  1  0  0  0
 16 31  1  0  0  0
 17 18  1  0  0  0
 17106  1  0  0  0
 18 19  2  0  0  0
 18107  1  0  0  0
 19 20  1  0  0  0
 19 24  1  0  0  0
 20 21  2  0  0  0
 20108  1  0  0  0
 21 23  1  0  0  0
 22 28  1  0  0  0
 22 32  2  0  0  0
 26 27  1  0  0  0
 28109  1  0  0  0
 28110  1  0  0  0
 29111  1  0  0  0
 29112  1  0  0  0
 33 34  1  0  0  0
 33 66  1  0  0  0
 33 70  2  0  0  0
 34 36  1  0  0  0
 34 59  1  0  0  0
 34113  1  0  0  0
 35 44  2  0  0  0
 35 45  1  0  0  0
 35 68  1  0  0  0
 36 56  1  0  0  0
 36114  1  0  0  0
 37 39  1  0  0  0
 37 47  1  0  0  0
 37 66  1  0  0  0
 37115  1  0  0  0
 38 43  2  0  0  0
 38 46  1  0  0  0
 38 47  1  0  0  0
 39 64  1  0  0  0
 39 67  2  0  0  0
 40 52  1  0  0  0
 40 53  2  0  0  0
 40 58  1  0  0  0
 41116  1  0  0  0
 41117  1  0  0  0
 41118  1  0  0  0
 41 48  1  0  0  0
 42 43  1  0  0  0
 42 66  1  0  0  0
 42119  1  0  0  0
 42120  1  0  0  0
 43 44  1  0  0  0
 44121  1  0  0  0
 45 46  2  0  0  0
 45122  1  0  0  0
 46123  1  0  0  0
 47124  1  0  0  0
 47125  1  0  0  0
 48 56  1  0  0  0
 48 65  1  0  0  0
 48126  1  0  0  0
 49 50  1  0  0  0
 49 53  1  0  0  0
 49 64  1  0  0  0
 49127  1  0  0  0
 50 51  1  0  0  0
 50128  1  0  0  0
 50129  1  0  0  0
 51 52  1  0  0  0
 51130  1  0  0  0
 51131  1  0  0  0
 52132  1  0  0  0
 52133  1  0  0  0
 53 54  1  0  0  0
 54 55  2  0  0  0
 54134  1  0  0  0
 55 57  1  0  0  0
 55135  1  0  0  0
 56 69  2  0  0  0
 57 58  2  0  0  0
 57136  1  0  0  0
 58137  1  0  0  0
 59 60  1  0  0  0
 59 61  1  0  0  0
 59 62  1  0  0  0
 60138  1  0  0  0
 60139  1  0  0  0
 60140  1  0  0  0
 61141  1  0  0  0
 61142  1  0  0  0
 61143  1  0  0  0
 62144  1  0  0  0
 62145  1  0  0  0
 62146  1  0  0  0
 63 65  1  0  0  0
 63147  1  0  0  0
 63148  1  0  0  0
 63149  1  0  0  0
 64150  1  0  0  0
 65151  1  0  0  0
 68 86  1  0  0  0
 71 72  2  0  0  0
 71 82  1  0  0  0
 71 90  1  0  0  0
 72 74  1  0  0  0
 72 91  1  0  0  0
 73 88  1  0  0  0
 73 90  2  0  0  0
 73 91  1  0  0  0
 74152  1  0  0  0
 74153  1  0  0  0
 74154  1  0  0  0
 75155  1  0  0  0
 75156  1  0  0  0
 75157  1  0  0  0
 75 87  1  0  0  0
 76 87  1  0  0  0
 76158  1  0  0  0
 76159  1  0  0  0
 76160  1  0  0  0
 77161  1  0  0  0
 77162  1  0  0  0
 77163  1  0  0  0
 77 88  1  0  0  0
 78 88  1  0  0  0
 78164  1  0  0  0
 78165  1  0  0  0
 78166  1  0  0  0
 79 88  1  0  0  0
 79167  1  0  0  0
 79168  1  0  0  0
 79169  1  0  0  0
 80170  1  0  0  0
 80171  1  0  0  0
 80172  1  0  0  0
 80 89  1  0  0  0
 81 89  1  0  0  0
 81173  1  0  0  0
 81174  1  0  0  0
 81175  1  0  0  0
 82 85  1  0  0  0
 82176  1  0  0  0
 82177  1  0  0  0
 83 84  1  0  0  0
 83 89  1  0  0  0
 83178  1  0  0  0
 83179  1  0  0  0
 84 91  1  0  0  0
 84180  1  0  0  0
 84181  1  0  0  0
 85 92  1  0  0  0
 85182  1  0  0  0
 85183  1  0  0  0
 86 89  1  0  0  0
 86184  1  0  0  0
 86185  1  0  0  0
 87 92  1  0  0  0
 87186  1  0  0  0
M  ISO  4   1 100  68 101  86 101  92 100
M  END
> <chiral flag>
0

> <version>
0

> <s_m_source_file>
/data/baiqing/PycharmProjects/Reinvent-master-3.2/result/LINK_invent/BTK/process_docking_weight1_custom_sum_contain_oxygen_bond_distance_aromatic_linkinvent_7_9_3/rearranged_h_0064.sdf

> <i_m_source_file_index>
48

> <r_mmod_Potential_Energy-OPLS-2005>
329.221405029297

> <r_mmod_Stretch_Energy-OPLS-2005>
54.3961944580078

> <r_mmod_Bend_Energy-OPLS-2005>
172.460983276367

> <r_mmod_Torsional_Energy-OPLS-2005>
383.938415527344

> <r_mmod_Improper_Torsional_Energy-OPLS-2005>
17.4783000946045

> <r_mmod_Van_der_Waal_Energy-OPLS-2005>
151.83918762207

> <r_mmod_Electrostatic_Energy-OPLS-2005>
-309.994903564453

> <r_mmod_Solvation_Energy-OPLS-2005>
-181.894973754883

> <b_mmod_Minimization_Converged-OPLS-2005>
0

> <r_mmod_RMS_Derivative-OPLS-2005>
4.75638151168823

$$$$
49
                    3D
 Structure written by MMmdl.
173181  0  0  1  0            999 V2000
  -30.8081  -14.3985   20.6962 C   0  0  0  0  0  0
  -30.4026  -12.3243   19.4047 C   0  0  0  0  0  0
  -29.4768  -12.5503   18.1949 C   0  0  0  0  0  0
  -27.9956  -12.4192   18.6030 C   0  0  0  0  0  0
  -27.6565  -13.2203   19.8868 C   0  0  2  0  0  0
  -28.7094  -12.9591   20.9870 C   0  0  0  0  0  0
  -25.2267  -13.7823   20.5429 C   0  0  0  0  0  0
  -24.1644  -13.0162   20.9168 C   0  0  0  0  0  0
  -24.6370  -11.6752   20.8760 C   0  0  0  0  0  0
  -23.9053  -10.4183   21.0396 C   0  0  0  0  0  0
  -24.3596   -9.4158   21.9200 C   0  0  0  0  0  0
  -23.6281   -8.2191   22.0740 C   0  0  0  0  0  0
  -22.4264   -8.0244   21.3509 C   0  0  0  0  0  0
  -21.9877   -9.0222   20.4620 C   0  0  0  0  0  0
  -22.7226  -10.2093   20.3035 C   0  0  0  0  0  0
  -21.6876   -6.0713   22.5275 C   0  0  0  0  0  0
  -21.4041   -6.5616   23.8220 C   0  0  0  0  0  0
  -21.3649   -5.6762   24.9163 C   0  0  0  0  0  0
  -21.6032   -4.3021   24.7215 C   0  0  0  0  0  0
  -21.8842   -3.8121   23.4330 C   0  0  0  0  0  0
  -21.9224   -4.6935   22.3396 C   0  0  0  0  0  0
  -22.7695  -13.5066   21.1865 C   0  0  0  0  0  0
  -22.1669   -4.2129   21.0966 F   0  0  0  0  0  0
  -21.5606   -3.4506   25.7721 F   0  0  0  0  0  0
  -30.0401  -13.2918   20.4598 N   0  0  0  0  0  0
  -26.2968  -12.9269   20.3447 N   0  0  0  0  0  0
  -25.9341  -11.6411   20.5846 N   0  0  0  0  0  0
  -22.0325  -12.8142   22.0477 N   0  0  0  0  0  0
  -25.3311  -15.1343   20.3435 N   0  0  0  0  0  0
  -31.8554  -14.5468   20.0560 O   0  0  0  0  0  0
  -21.6630   -6.8842   21.4235 O   0  0  0  0  0  0
  -22.3454  -14.5407   20.6750 O   0  0  0  0  0  0
  -24.6087  -31.8739   23.2134 C   0  0  0  0  0  0
  -25.9022  -32.4833   23.8401 C   0  0  1  0  0  0
  -27.2538  -27.5050   20.0747 C   0  0  0  0  0  0
  -25.5910  -33.8647   24.2355 N   0  0  0  0  0  0
  -23.3921  -30.4956   21.5517 C   0  0  2  0  0  0
  -24.8370  -28.9602   20.1204 C   0  0  0  0  0  0
  -22.7386  -29.4683   22.5015 C   0  0  0  0  0  0
  -18.0269  -28.1407   22.8484 C   0  0  0  0  0  0
  -24.1472  -36.7340   23.2631 C   0  0  0  0  0  0
  -25.9093  -30.8552   21.3568 C   0  0  0  0  0  0
  -25.9889  -29.4911   20.7103 C   0  0  0  0  0  0
  -27.1964  -28.7730   20.6788 C   0  0  0  0  0  0
  -26.0798  -26.9562   19.5000 C   0  0  0  0  0  0
  -24.8732  -27.6887   19.5181 C   0  0  0  0  0  0
  -23.5974  -29.8250   20.1653 C   0  0  0  0  0  0
  -25.4101  -36.3132   24.0328 C   0  0  1  0  0  0
  -20.5846  -28.3682   23.1333 C   0  0  2  0  0  0
  -20.6770  -26.9432   22.5432 C   0  0  0  0  0  0
  -19.5738  -26.6421   21.5240 C   0  0  0  0  0  0
  -18.1917  -26.7948   22.1642 C   0  0  0  0  0  0
  -19.1516  -28.8867   23.2892 C   0  0  0  0  0  0
  -18.9444  -30.1479   23.8893 C   0  0  0  0  0  0
  -17.6448  -30.6588   24.0590 C   0  0  0  0  0  0
  -25.9024  -34.9493   23.5137 C   0  0  0  0  0  0
  -16.5339  -29.9111   23.6325 C   0  0  0  0  0  0
  -16.7267  -28.6548   23.0310 C   0  0  0  0  0  0
  -26.4496  -31.6583   25.0709 C   0  0  0  0  0  0
  -25.3801  -31.3640   26.1475 C   0  0  0  0  0  0
  -27.0319  -30.3019   24.6075 C   0  0  0  0  0  0
  -27.6091  -32.4275   25.7471 C   0  0  0  0  0  0
  -27.5578  -37.1838   24.8464 C   0  0  0  0  0  0
  -21.4119  -29.3041   22.3735 N   0  0  0  0  0  0
  -26.4299  -37.3817   23.9400 N   0  0  0  0  0  0
  -24.6536  -31.0909   22.0990 N   0  0  0  0  0  0
  -23.4178  -28.8239   23.3055 O   0  0  0  0  0  0
  -28.4911  -26.9115   20.0265 O   0  0  0  0  0  0
  -26.5562  -34.8939   22.4681 O   0  0  0  0  0  0
  -23.5302  -32.1472   23.7595 O   0  0  0  0  0  0
  -27.3350  -19.6096   21.3209 C   0  0  0  0  0  0
  -28.5405  -21.2340   19.5387 C   0  0  0  0  0  0
  -27.9137  -19.1027   20.1262 C   0  0  0  0  0  0
  -27.9294  -21.7196   20.7157 C   0  0  0  0  0  0
  -28.0395  -16.1458   22.4121 C   0  0  0  0  0  0
  -27.2422  -17.4154   18.3078 C   0  0  0  0  0  0
  -31.7447  -16.4678   21.8959 C   0  0  0  0  0  0
  -30.5330  -14.8334   23.1716 C   0  0  0  0  0  0
  -30.0424  -17.2043   19.2750 C   0  0  0  0  0  0
  -28.3937  -25.1271   21.6451 C   0  0  0  0  0  0
  -28.5989  -25.5135   20.1711 C   0  0  0  0  0  0
  -28.6345  -23.6384   21.8512 C   0  0  0  0  0  0
  -29.2570  -16.4820   21.5033 C   0  0  1  0  0  0
  -27.7631  -17.6268   19.7492 C   0  0  1  0  0  0
  -30.5099  -15.5144   21.7729 C   0  0  0  0  0  0
  -28.5598  -19.9131   19.2478 N   0  0  0  0  0  0
  -27.3464  -20.9207   21.6286 N   0  0  0  0  0  0
  -28.8998  -16.7214   20.0659 N   0  0  0  0  0  0
  -27.7510  -23.0467   20.9213 O   0  0  0  0  0  0
  -26.6965  -17.2485   20.4105 F   0  0  0  0  0  0
  -31.4477  -12.3888   19.1003 H   0  0  0  0  0  0
  -30.2817  -11.3109   19.7853 H   0  0  0  0  0  0
  -29.7139  -11.8324   17.4089 H   0  0  0  0  0  0
  -29.6609  -13.5396   17.7695 H   0  0  0  0  0  0
  -27.7869  -11.3605   18.7575 H   0  0  0  0  0  0
  -27.3467  -12.7375   17.7852 H   0  0  0  0  0  0
  -27.7048  -14.2794   19.6371 H   0  0  0  0  0  0
  -28.6977  -11.9058   21.2664 H   0  0  0  0  0  0
  -28.4562  -13.4822   21.8955 H   0  0  0  0  0  0
  -25.2729   -9.5665   22.4777 H   0  0  0  0  0  0
  -24.0015   -7.4582   22.7439 H   0  0  0  0  0  0
  -21.0804   -8.8781   19.8906 H   0  0  0  0  0  0
  -22.3731  -10.9641   19.6125 H   0  0  0  0  0  0
  -21.2043   -7.6133   23.9717 H   0  0  0  0  0  0
  -21.1416   -6.0468   25.9071 H   0  0  0  0  0  0
  -22.0621   -2.7577   23.2836 H   0  0  0  0  0  0
  -22.3960  -11.9898   22.4989 H   0  0  0  0  0  0
  -21.0894  -13.1140   22.2573 H   0  0  0  0  0  0
  -24.5286  -15.7422   20.4456 H   0  0  0  0  0  0
  -26.1919  -15.6499   20.1892 H   0  0  0  0  0  0
  -26.7078  -32.5530   23.1147 H   0  0  0  0  0  0
  -25.0081  -33.9828   25.0506 H   0  0  0  0  0  0
  -22.6779  -31.3095   21.4172 H   0  0  0  0  0  0
  -23.3730  -35.9676   23.3315 H   0  0  0  0  0  0
  -24.3547  -36.8945   22.2040 H   0  0  0  0  0  0
  -23.7257  -37.6570   23.6628 H   0  0  0  0  0  0
  -26.0054  -31.6254   20.5897 H   0  0  0  0  0  0
  -26.8012  -30.9095   21.9673 H   0  0  0  0  0  0
  -28.0949  -29.2005   21.1031 H   0  0  0  0  0  0
  -26.0825  -25.9951   19.0062 H   0  0  0  0  0  0
  -23.9827  -27.2840   19.0556 H   0  0  0  0  0  0
  -23.7038  -30.6028   19.4070 H   0  0  0  0  0  0
  -22.7232  -29.2426   19.8680 H   0  0  0  0  0  0
  -25.1281  -36.2006   25.0825 H   0  0  0  0  0  0
  -20.9915  -28.3264   24.1462 H   0  0  0  0  0  0
  -20.5748  -26.2307   23.3625 H   0  0  0  0  0  0
  -21.6641  -26.7542   22.1197 H   0  0  0  0  0  0
  -19.6928  -25.6352   21.1236 H   0  0  0  0  0  0
  -19.6672  -27.3258   20.6787 H   0  0  0  0  0  0
  -17.4228  -26.6712   21.4002 H   0  0  0  0  0  0
  -18.0292  -26.0081   22.9025 H   0  0  0  0  0  0
  -19.7915  -30.7304   24.2260 H   0  0  0  0  0  0
  -17.4996  -31.6243   24.5222 H   0  0  0  0  0  0
  -15.5340  -30.3011   23.7657 H   0  0  0  0  0  0
  -15.8668  -28.0896   22.6983 H   0  0  0  0  0  0
  -24.5973  -30.6998   25.7792 H   0  0  0  0  0  0
  -24.8993  -32.2771   26.4989 H   0  0  0  0  0  0
  -25.8206  -30.8752   27.0177 H   0  0  0  0  0  0
  -26.2838  -29.6740   24.1224 H   0  0  0  0  0  0
  -27.4172  -29.7314   25.4541 H   0  0  0  0  0  0
  -27.8624  -30.4306   23.9132 H   0  0  0  0  0  0
  -27.2734  -33.3545   26.2122 H   0  0  0  0  0  0
  -28.3873  -32.6891   25.0288 H   0  0  0  0  0  0
  -28.0783  -31.8348   26.5333 H   0  0  0  0  0  0
  -28.2634  -38.0103   24.7505 H   0  0  0  0  0  0
  -28.1060  -36.2662   24.6303 H   0  0  0  0  0  0
  -27.2293  -37.1477   25.8866 H   0  0  0  0  0  0
  -20.9330  -29.8730   21.6885 H   0  0  0  0  0  0
  -26.0192  -38.2896   24.1417 H   0  0  0  0  0  0
  -26.7916  -18.9895   22.0167 H   0  0  0  0  0  0
  -28.9656  -21.9100   18.8108 H   0  0  0  0  0  0
  -28.3089  -15.9280   23.4425 H   0  0  0  0  0  0
  -27.4472  -15.3176   22.0362 H   0  0  0  0  0  0
  -27.3680  -16.9893   22.5406 H   0  0  0  0  0  0
  -27.8981  -17.8175   17.5391 H   0  0  0  0  0  0
  -26.2835  -17.9162   18.1689 H   0  0  0  0  0  0
  -27.0863  -16.3568   18.0936 H   0  0  0  0  0  0
  -31.5852  -17.2283   22.6608 H   0  0  0  0  0  0
  -31.9847  -16.9960   20.9758 H   0  0  0  0  0  0
  -32.6514  -15.9404   22.1909 H   0  0  0  0  0  0
  -30.5856  -15.5692   23.9759 H   0  0  0  0  0  0
  -31.4094  -14.1938   23.2895 H   0  0  0  0  0  0
  -29.6784  -14.1987   23.3806 H   0  0  0  0  0  0
  -30.4582  -18.1216   19.6963 H   0  0  0  0  0  0
  -29.7750  -17.4188   18.2442 H   0  0  0  0  0  0
  -30.8386  -16.4789   19.1732 H   0  0  0  0  0  0
  -27.3731  -25.3658   21.9462 H   0  0  0  0  0  0
  -29.0577  -25.6989   22.2922 H   0  0  0  0  0  0
  -29.6085  -25.2376   19.8662 H   0  0  0  0  0  0
  -27.9303  -24.9792   19.4978 H   0  0  0  0  0  0
  -28.4043  -23.3350   22.8750 H   0  0  0  0  0  0
  -29.6749  -23.3763   21.6393 H   0  0  0  0  0  0
  -29.5458  -17.4750   21.8530 H   0  0  0  0  0  0
  1 25  1  0  0  0
  1 30  2  0  0  0
  1 85  1  0  0  0
  2  3  1  0  0  0
  2 25  1  0  0  0
  2 91  1  0  0  0
  2 92  1  0  0  0
  3  4  1  0  0  0
  3 93  1  0  0  0
  3 94  1  0  0  0
  4  5  1  0  0  0
  4 95  1  0  0  0
  4 96  1  0  0  0
  5  6  1  0  0  0
  5 26  1  0  0  0
  5 97  1  0  0  0
  6 25  1  0  0  0
  6 98  1  0  0  0
  6 99  1  0  0  0
  7  8  2  0  0  0
  7 26  1  0  0  0
  7 29  1  0  0  0
  8  9  1  0  0  0
  8 22  1  0  0  0
  9 10  1  0  0  0
  9 27  2  0  0  0
 10 11  2  0  0  0
 10 15  1  0  0  0
 11 12  1  0  0  0
 11100  1  0  0  0
 12 13  2  0  0  0
 12101  1  0  0  0
 13 14  1  0  0  0
 13 31  1  0  0  0
 14 15  2  0  0  0
 14102  1  0  0  0
 15103  1  0  0  0
 16 17  2  0  0  0
 16 21  1  0  0  0
 16 31  1  0  0  0
 17 18  1  0  0  0
 17104  1  0  0  0
 18 19  2  0  0  0
 18105  1  0  0  0
 19 20  1  0  0  0
 19 24  1  0  0  0
 20 21  2  0  0  0
 20106  1  0  0  0
 21 23  1  0  0  0
 22 28  1  0  0  0
 22 32  2  0  0  0
 26 27  1  0  0  0
 28107  1  0  0  0
 28108  1  0  0  0
 29109  1  0  0  0
 29110  1  0  0  0
 33 34  1  0  0  0
 33 66  1  0  0  0
 33 70  2  0  0  0
 34 36  1  0  0  0
 34 59  1  0  0  0
 34111  1  0  0  0
 35 44  2  0  0  0
 35 45  1  0  0  0
 35 68  1  0  0  0
 36 56  1  0  0  0
 36112  1  0  0  0
 37 39  1  0  0  0
 37 47  1  0  0  0
 37 66  1  0  0  0
 37113  1  0  0  0
 38 43  2  0  0  0
 38 46  1  0  0  0
 38 47  1  0  0  0
 39 64  1  0  0  0
 39 67  2  0  0  0
 40 52  1  0  0  0
 40 53  2  0  0  0
 40 58  1  0  0  0
 41114  1  0  0  0
 41115  1  0  0  0
 41116  1  0  0  0
 41 48  1  0  0  0
 42 43  1  0  0  0
 42 66  1  0  0  0
 42117  1  0  0  0
 42118  1  0  0  0
 43 44  1  0  0  0
 44119  1  0  0  0
 45 46  2  0  0  0
 45120  1  0  0  0
 46121  1  0  0  0
 47122  1  0  0  0
 47123  1  0  0  0
 48 56  1  0  0  0
 48 65  1  0  0  0
 48124  1  0  0  0
 49 50  1  0  0  0
 49 53  1  0  0  0
 49 64  1  0  0  0
 49125  1  0  0  0
 50 51  1  0  0  0
 50126  1  0  0  0
 50127  1  0  0  0
 51 52  1  0  0  0
 51128  1  0  0  0
 51129  1  0  0  0
 52130  1  0  0  0
 52131  1  0  0  0
 53 54  1  0  0  0
 54 55  2  0  0  0
 54132  1  0  0  0
 55 57  1  0  0  0
 55133  1  0  0  0
 56 69  2  0  0  0
 57 58  2  0  0  0
 57134  1  0  0  0
 58135  1  0  0  0
 59 60  1  0  0  0
 59 61  1  0  0  0
 59 62  1  0  0  0
 60136  1  0  0  0
 60137  1  0  0  0
 60138  1  0  0  0
 61139  1  0  0  0
 61140  1  0  0  0
 61141  1  0  0  0
 62142  1  0  0  0
 62143  1  0  0  0
 62144  1  0  0  0
 63 65  1  0  0  0
 63145  1  0  0  0
 63146  1  0  0  0
 63147  1  0  0  0
 64148  1  0  0  0
 65149  1  0  0  0
 68 81  1  0  0  0
 71 73  2  0  0  0
 71 87  1  0  0  0
 71150  1  0  0  0
 72 74  1  0  0  0
 72 86  2  0  0  0
 72151  1  0  0  0
 73 84  1  0  0  0
 73 86  1  0  0  0
 74 87  2  0  0  0
 74 89  1  0  0  0
 75152  1  0  0  0
 75153  1  0  0  0
 75154  1  0  0  0
 75 83  1  0  0  0
 76155  1  0  0  0
 76156  1  0  0  0
 76157  1  0  0  0
 76 84  1  0  0  0
 77158  1  0  0  0
 77159  1  0  0  0
 77160  1  0  0  0
 77 85  1  0  0  0
 78 85  1  0  0  0
 78161  1  0  0  0
 78162  1  0  0  0
 78163  1  0  0  0
 79 88  1  0  0  0
 79164  1  0  0  0
 79165  1  0  0  0
 79166  1  0  0  0
 80 81  1  0  0  0
 80 82  1  0  0  0
 80167  1  0  0  0
 80168  1  0  0  0
 81169  1  0  0  0
 81170  1  0  0  0
 82 89  1  0  0  0
 82171  1  0  0  0
 82172  1  0  0  0
 83 85  1  0  0  0
 83 88  1  0  0  0
 83173  1  0  0  0
 84 88  1  0  0  0
 84 90  1  0  0  0
M  ISO  4   1 100  68 101  81 101  85 100
M  END
> <chiral flag>
0

> <version>
0

> <s_m_source_file>
/data/baiqing/PycharmProjects/Reinvent-master-3.2/result/LINK_invent/BTK/process_docking_weight1_custom_sum_contain_oxygen_bond_distance_aromatic_linkinvent_7_9_3/rearranged_h_0064.sdf

> <i_m_source_file_index>
49

> <r_mmod_Potential_Energy-OPLS-2005>
287.965179443359

> <r_mmod_Stretch_Energy-OPLS-2005>
56.594970703125

> <r_mmod_Bend_Energy-OPLS-2005>
173.094085693359

> <r_mmod_Torsional_Energy-OPLS-2005>
223.383560180664

> <r_mmod_Improper_Torsional_Energy-OPLS-2005>
2.72769522666931

> <r_mmod_Van_der_Waal_Energy-OPLS-2005>
224.235488891602

> <r_mmod_Electrostatic_Energy-OPLS-2005>
-234.697494506836

> <r_mmod_Solvation_Energy-OPLS-2005>
-173.337860107422

> <b_mmod_Minimization_Converged-OPLS-2005>
0

> <r_mmod_RMS_Derivative-OPLS-2005>
4.7246036529541

$$$$
50
                    3D
 Structure written by MMmdl.
164172  0  0  1  0            999 V2000
  -30.6063  -14.7672   20.4848 C   0  0  0  0  0  0
  -30.4340  -12.4801   19.4767 C   0  0  0  0  0  0
  -29.5119  -12.5226   18.2384 C   0  0  0  0  0  0
  -28.0396  -12.3321   18.6531 C   0  0  0  0  0  0
  -27.6407  -13.2323   19.8516 C   0  0  2  0  0  0
  -28.6832  -13.1687   20.9889 C   0  0  0  0  0  0
  -25.2503  -13.8197   20.5692 C   0  0  0  0  0  0
  -24.1786  -13.0440   20.9199 C   0  0  0  0  0  0
  -24.6380  -11.6913   20.8736 C   0  0  0  0  0  0
  -23.9048  -10.4296   21.0394 C   0  0  0  0  0  0
  -24.3606   -9.4207   21.9170 C   0  0  0  0  0  0
  -23.6300   -8.2231   22.0736 C   0  0  0  0  0  0
  -22.4275   -8.0269   21.3528 C   0  0  0  0  0  0
  -21.9895   -9.0238   20.4621 C   0  0  0  0  0  0
  -22.7220  -10.2123   20.3047 C   0  0  0  0  0  0
  -21.6859   -6.0729   22.5270 C   0  0  0  0  0  0
  -21.4012   -6.5628   23.8201 C   0  0  0  0  0  0
  -21.3669   -5.6776   24.9153 C   0  0  0  0  0  0
  -21.6054   -4.3045   24.7208 C   0  0  0  0  0  0
  -21.8825   -3.8143   23.4323 C   0  0  0  0  0  0
  -21.9193   -4.6962   22.3393 C   0  0  0  0  0  0
  -22.7809  -13.5232   21.1864 C   0  0  0  0  0  0
  -22.1673   -4.2135   21.0964 F   0  0  0  0  0  0
  -21.5630   -3.4534   25.7729 F   0  0  0  0  0  0
  -29.9822  -13.5400   20.4097 N   0  0  0  0  0  0
  -26.2927  -12.9399   20.3280 N   0  0  0  0  0  0
  -25.9308  -11.6537   20.5721 N   0  0  0  0  0  0
  -22.0456  -12.8224   22.0419 N   0  0  0  0  0  0
  -25.4236  -15.1917   20.4105 N   0  0  0  0  0  0
  -31.7919  -14.8693   20.1595 O   0  0  0  0  0  0
  -21.6627   -6.8880   21.4239 O   0  0  0  0  0  0
  -22.3492  -14.5550   20.6727 O   0  0  0  0  0  0
  -24.6325  -31.8541   23.1936 C   0  0  0  0  0  0
  -25.9141  -32.4750   23.8302 C   0  0  1  0  0  0
  -27.2344  -27.2504   20.1447 C   0  0  0  0  0  0
  -25.5919  -33.8554   24.2225 N   0  0  0  0  0  0
  -23.4318  -30.4739   21.5371 C   0  0  2  0  0  0
  -24.8801  -28.9094   20.1155 C   0  0  0  0  0  0
  -22.7516  -29.4609   22.4907 C   0  0  0  0  0  0
  -18.0298  -28.1379   22.8481 C   0  0  0  0  0  0
  -24.1487  -36.7285   23.2640 C   0  0  0  0  0  0
  -25.9768  -30.7636   21.3732 C   0  0  0  0  0  0
  -26.0507  -29.3824   20.7202 C   0  0  0  0  0  0
  -27.2299  -28.5699   20.7164 C   0  0  0  0  0  0
  -26.0365  -26.8393   19.5201 C   0  0  0  0  0  0
  -24.8793  -27.6455   19.5016 C   0  0  0  0  0  0
  -23.6517  -29.8000   20.1567 C   0  0  0  0  0  0
  -25.4116  -36.3071   24.0325 C   0  0  1  0  0  0
  -20.5903  -28.3712   23.1247 C   0  0  2  0  0  0
  -20.6781  -26.9426   22.5404 C   0  0  0  0  0  0
  -19.5754  -26.6376   21.5207 C   0  0  0  0  0  0
  -18.1938  -26.7915   22.1621 C   0  0  0  0  0  0
  -19.1555  -28.8852   23.2856 C   0  0  0  0  0  0
  -18.9471  -30.1449   23.8893 C   0  0  0  0  0  0
  -17.6479  -30.6578   24.0556 C   0  0  0  0  0  0
  -25.9063  -34.9446   23.5083 C   0  0  0  0  0  0
  -16.5367  -29.9084   23.6322 C   0  0  0  0  0  0
  -16.7290  -28.6488   23.0352 C   0  0  0  0  0  0
  -26.4487  -31.6587   25.0709 C   0  0  0  0  0  0
  -25.3693  -31.3755   26.1424 C   0  0  0  0  0  0
  -27.0340  -30.3003   24.6200 C   0  0  0  0  0  0
  -27.6038  -32.4331   25.7481 C   0  0  0  0  0  0
  -27.5583  -37.1798   24.8465 C   0  0  0  0  0  0
  -21.4224  -29.3057   22.3644 N   0  0  0  0  0  0
  -26.4278  -37.3785   23.9414 N   0  0  0  0  0  0
  -24.6997  -31.0496   22.0908 N   0  0  0  0  0  0
  -23.4194  -28.8165   23.3033 O   0  0  0  0  0  0
  -28.3554  -26.3833   20.1850 O   0  0  0  0  0  0
  -26.5663  -34.8927   22.4665 O   0  0  0  0  0  0
  -23.5471  -32.1370   23.7223 O   0  0  0  0  0  0
  -28.7618  -21.2605   20.3723 C   0  0  0  0  0  0
  -29.6204  -22.3644   20.3699 C   0  0  0  0  0  0
  -27.4684  -19.0107   18.4269 C   0  0  0  0  0  0
  -29.8452  -18.4136   17.7936 C   0  0  0  0  0  0
  -30.3003  -24.3597   18.9677 C   0  0  0  0  0  0
  -30.3591  -24.5172   21.4819 C   0  0  0  0  0  0
  -30.2314  -17.3954   20.7893 C   0  0  0  0  0  0
  -28.2063  -24.8737   20.2431 C   0  0  0  0  0  0
  -28.7270  -18.2303   18.8416 C   0  0  0  0  0  0
  -29.1897  -18.5563   20.2902 C   0  0  2  0  0  0
  -29.5659  -23.9777   20.2719 C   0  0  0  0  0  0
  -30.8925  -21.7556   20.4400 N   0  0  0  0  0  0
  -30.8411  -20.4458   20.4635 N   0  0  0  0  0  0
  -29.5475  -20.0584   20.4140 N   0  0  0  0  0  0
  -29.8429  -15.9003   20.7415 N   0  0  0  0  0  0
  -31.4740  -12.6197   19.1788 H   0  0  0  0  0  0
  -30.3873  -11.5029   19.9585 H   0  0  0  0  0  0
  -29.8062  -11.7547   17.5210 H   0  0  0  0  0  0
  -29.6212  -13.4799   17.7279 H   0  0  0  0  0  0
  -27.9079  -11.2835   18.9211 H   0  0  0  0  0  0
  -27.3793  -12.5153   17.8034 H   0  0  0  0  0  0
  -27.6341  -14.2531   19.4661 H   0  0  0  0  0  0
  -28.7243  -12.1656   21.4175 H   0  0  0  0  0  0
  -28.4089  -13.8389   21.8027 H   0  0  0  0  0  0
  -25.2764   -9.5699   22.4713 H   0  0  0  0  0  0
  -24.0023   -7.4631   22.7464 H   0  0  0  0  0  0
  -21.0816   -8.8758   19.8928 H   0  0  0  0  0  0
  -22.3693  -10.9647   19.6141 H   0  0  0  0  0  0
  -21.2000   -7.6136   23.9711 H   0  0  0  0  0  0
  -21.1499   -6.0491   25.9057 H   0  0  0  0  0  0
  -22.0603   -2.7614   23.2815 H   0  0  0  0  0  0
  -22.4101  -11.9909   22.4836 H   0  0  0  0  0  0
  -21.1068  -13.1232   22.2602 H   0  0  0  0  0  0
  -24.6609  -15.8512   20.5153 H   0  0  0  0  0  0
  -26.2704  -15.6209   20.0630 H   0  0  0  0  0  0
  -26.7219  -32.5394   23.1061 H   0  0  0  0  0  0
  -25.0059  -33.9675   25.0361 H   0  0  0  0  0  0
  -22.7280  -31.2955   21.3876 H   0  0  0  0  0  0
  -23.3757  -35.9610   23.3291 H   0  0  0  0  0  0
  -24.3596  -36.8919   22.2062 H   0  0  0  0  0  0
  -23.7225  -37.6470   23.6678 H   0  0  0  0  0  0
  -26.1169  -31.5166   20.5967 H   0  0  0  0  0  0
  -26.8530  -30.8161   22.0081 H   0  0  0  0  0  0
  -28.1285  -28.9342   21.1930 H   0  0  0  0  0  0
  -25.9727  -25.8731   19.0441 H   0  0  0  0  0  0
  -23.9849  -27.2723   19.0222 H   0  0  0  0  0  0
  -23.7832  -30.5718   19.3971 H   0  0  0  0  0  0
  -22.7679  -29.2366   19.8538 H   0  0  0  0  0  0
  -25.1299  -36.1923   25.0820 H   0  0  0  0  0  0
  -20.9995  -28.3296   24.1362 H   0  0  0  0  0  0
  -20.5660  -26.2343   23.3627 H   0  0  0  0  0  0
  -21.6654  -26.7439   22.1213 H   0  0  0  0  0  0
  -19.6923  -25.6286   21.1237 H   0  0  0  0  0  0
  -19.6653  -27.3181   20.6723 H   0  0  0  0  0  0
  -17.4206  -26.6658   21.4021 H   0  0  0  0  0  0
  -18.0336  -26.0053   22.9014 H   0  0  0  0  0  0
  -19.7958  -30.7246   24.2264 H   0  0  0  0  0  0
  -17.5044  -31.6258   24.5164 H   0  0  0  0  0  0
  -15.5371  -30.2986   23.7632 H   0  0  0  0  0  0
  -15.8689  -28.0802   22.7075 H   0  0  0  0  0  0
  -24.5837  -30.7151   25.7740 H   0  0  0  0  0  0
  -24.8915  -32.2934   26.4854 H   0  0  0  0  0  0
  -25.7975  -30.8906   27.0205 H   0  0  0  0  0  0
  -26.2935  -29.6747   24.1206 H   0  0  0  0  0  0
  -27.4015  -29.7274   25.4724 H   0  0  0  0  0  0
  -27.8807  -30.4286   23.9455 H   0  0  0  0  0  0
  -27.2649  -33.3639   26.2040 H   0  0  0  0  0  0
  -28.3844  -32.6884   25.0304 H   0  0  0  0  0  0
  -28.0713  -31.8472   26.5402 H   0  0  0  0  0  0
  -28.2596  -38.0106   24.7542 H   0  0  0  0  0  0
  -28.1078  -36.2639   24.6243 H   0  0  0  0  0  0
  -27.2315  -37.1404   25.8871 H   0  0  0  0  0  0
  -20.9430  -29.8786   21.6847 H   0  0  0  0  0  0
  -26.0159  -38.2853   24.1411 H   0  0  0  0  0  0
  -27.6831  -21.2260   20.3049 H   0  0  0  0  0  0
  -26.9955  -18.5412   17.5649 H   0  0  0  0  0  0
  -27.6961  -20.0401   18.1520 H   0  0  0  0  0  0
  -26.7311  -19.0309   19.2314 H   0  0  0  0  0  0
  -29.5012  -18.1597   16.7913 H   0  0  0  0  0  0
  -30.7052  -17.7782   18.0062 H   0  0  0  0  0  0
  -30.2020  -19.4433   17.7637 H   0  0  0  0  0  0
  -31.3186  -23.9681   18.9401 H   0  0  0  0  0  0
  -30.3683  -25.4404   18.8482 H   0  0  0  0  0  0
  -29.7738  -23.9693   18.0960 H   0  0  0  0  0  0
  -31.3793  -24.1322   21.5052 H   0  0  0  0  0  0
  -29.8790  -24.2343   22.4198 H   0  0  0  0  0  0
  -30.4384  -25.6037   21.4707 H   0  0  0  0  0  0
  -30.4698  -17.6153   21.8304 H   0  0  0  0  0  0
  -31.1749  -17.5148   20.2548 H   0  0  0  0  0  0
  -27.6151  -24.6393   21.1305 H   0  0  0  0  0  0
  -27.6166  -24.5343   19.3938 H   0  0  0  0  0  0
  -28.4382  -17.1801   18.8194 H   0  0  0  0  0  0
  -28.3163  -18.4320   20.9330 H   0  0  0  0  0  0
  -28.8820  -15.7026   20.9775 H   0  0  0  0  0  0
  1 25  1  0  0  0
  1 30  2  0  0  0
  1 85  1  0  0  0
  2  3  1  0  0  0
  2 25  1  0  0  0
  2 86  1  0  0  0
  2 87  1  0  0  0
  3  4  1  0  0  0
  3 88  1  0  0  0
  3 89  1  0  0  0
  4  5  1  0  0  0
  4 90  1  0  0  0
  4 91  1  0  0  0
  5  6  1  0  0  0
  5 26  1  0  0  0
  5 92  1  0  0  0
  6 25  1  0  0  0
  6 93  1  0  0  0
  6 94  1  0  0  0
  7  8  2  0  0  0
  7 26  1  0  0  0
  7 29  1  0  0  0
  8  9  1  0  0  0
  8 22  1  0  0  0
  9 10  1  0  0  0
  9 27  2  0  0  0
 10 11  2  0  0  0
 10 15  1  0  0  0
 11 12  1  0  0  0
 11 95  1  0  0  0
 12 13  2  0  0  0
 12 96  1  0  0  0
 13 14  1  0  0  0
 13 31  1  0  0  0
 14 15  2  0  0  0
 14 97  1  0  0  0
 15 98  1  0  0  0
 16 17  2  0  0  0
 16 21  1  0  0  0
 16 31  1  0  0  0
 17 18  1  0  0  0
 17 99  1  0  0  0
 18 19  2  0  0  0
 18100  1  0  0  0
 19 20  1  0  0  0
 19 24  1  0  0  0
 20 21  2  0  0  0
 20101  1  0  0  0
 21 23  1  0  0  0
 22 28  1  0  0  0
 22 32  2  0  0  0
 26 27  1  0  0  0
 28102  1  0  0  0
 28103  1  0  0  0
 29104  1  0  0  0
 29105  1  0  0  0
 33 34  1  0  0  0
 33 66  1  0  0  0
 33 70  2  0  0  0
 34 36  1  0  0  0
 34 59  1  0  0  0
 34106  1  0  0  0
 35 44  2  0  0  0
 35 45  1  0  0  0
 35 68  1  0  0  0
 36 56  1  0  0  0
 36107  1  0  0  0
 37 39  1  0  0  0
 37 47  1  0  0  0
 37 66  1  0  0  0
 37108  1  0  0  0
 38 43  2  0  0  0
 38 46  1  0  0  0
 38 47  1  0  0  0
 39 64  1  0  0  0
 39 67  2  0  0  0
 40 52  1  0  0  0
 40 53  2  0  0  0
 40 58  1  0  0  0
 41109  1  0  0  0
 41110  1  0  0  0
 41111  1  0  0  0
 41 48  1  0  0  0
 42 43  1  0  0  0
 42 66  1  0  0  0
 42112  1  0  0  0
 42113  1  0  0  0
 43 44  1  0  0  0
 44114  1  0  0  0
 45 46  2  0  0  0
 45115  1  0  0  0
 46116  1  0  0  0
 47117  1  0  0  0
 47118  1  0  0  0
 48 56  1  0  0  0
 48 65  1  0  0  0
 48119  1  0  0  0
 49 50  1  0  0  0
 49 53  1  0  0  0
 49 64  1  0  0  0
 49120  1  0  0  0
 50 51  1  0  0  0
 50121  1  0  0  0
 50122  1  0  0  0
 51 52  1  0  0  0
 51123  1  0  0  0
 51124  1  0  0  0
 52125  1  0  0  0
 52126  1  0  0  0
 53 54  1  0  0  0
 54 55  2  0  0  0
 54127  1  0  0  0
 55 57  1  0  0  0
 55128  1  0  0  0
 56 69  2  0  0  0
 57 58  2  0  0  0
 57129  1  0  0  0
 58130  1  0  0  0
 59 60  1  0  0  0
 59 61  1  0  0  0
 59 62  1  0  0  0
 60131  1  0  0  0
 60132  1  0  0  0
 60133  1  0  0  0
 61134  1  0  0  0
 61135  1  0  0  0
 61136  1  0  0  0
 62137  1  0  0  0
 62138  1  0  0  0
 62139  1  0  0  0
 63 65  1  0  0  0
 63140  1  0  0  0
 63141  1  0  0  0
 63142  1  0  0  0
 64143  1  0  0  0
 65144  1  0  0  0
 68 78  1  0  0  0
 71 72  2  0  0  0
 71 84  1  0  0  0
 71145  1  0  0  0
 72 81  1  0  0  0
 72 82  1  0  0  0
 73146  1  0  0  0
 73147  1  0  0  0
 73148  1  0  0  0
 73 79  1  0  0  0
 74 79  1  0  0  0
 74149  1  0  0  0
 74150  1  0  0  0
 74151  1  0  0  0
 75152  1  0  0  0
 75153  1  0  0  0
 75154  1  0  0  0
 75 81  1  0  0  0
 76 81  1  0  0  0
 76155  1  0  0  0
 76156  1  0  0  0
 76157  1  0  0  0
 77 85  1  0  0  0
 77158  1  0  0  0
 77159  1  0  0  0
 77 80  1  0  0  0
 78 81  1  0  0  0
 78160  1  0  0  0
 78161  1  0  0  0
 79 80  1  0  0  0
 79162  1  0  0  0
 80 84  1  0  0  0
 80163  1  0  0  0
 82 83  2  0  0  0
 83 84  1  0  0  0
 85164  1  0  0  0
M  ISO  4   1 100  68 101  78 101  85 100
M  END
> <chiral flag>
0

> <version>
0

> <s_m_source_file>
/data/baiqing/PycharmProjects/Reinvent-master-3.2/result/LINK_invent/BTK/process_docking_weight1_custom_sum_contain_oxygen_bond_distance_aromatic_linkinvent_7_9_3/rearranged_h_0064.sdf

> <i_m_source_file_index>
50

> <r_mmod_Potential_Energy-OPLS-2005>
181.367568969727

> <r_mmod_Stretch_Energy-OPLS-2005>
147.683242797852

> <r_mmod_Bend_Energy-OPLS-2005>
201.681259155273

> <r_mmod_Torsional_Energy-OPLS-2005>
225.403442382812

> <r_mmod_Improper_Torsional_Energy-OPLS-2005>
4.32280206680298

> <r_mmod_Van_der_Waal_Energy-OPLS-2005>
112.389533996582

> <r_mmod_Electrostatic_Energy-OPLS-2005>
-382.930572509766

> <r_mmod_Solvation_Energy-OPLS-2005>
-217.879486083984

> <b_mmod_Minimization_Converged-OPLS-2005>
0

> <r_mmod_RMS_Derivative-OPLS-2005>
3.44090247154236

$$$$
51
                    3D
 Structure written by MMmdl.
187195  0  0  1  0            999 V2000
  -30.8221  -14.4314   20.5656 C   0  0  0  0  0  0
  -30.3846  -12.2856   19.4446 C   0  0  0  0  0  0
  -29.4913  -12.5082   18.2116 C   0  0  0  0  0  0
  -28.0109  -12.3852   18.6120 C   0  0  0  0  0  0
  -27.6542  -13.2250   19.8696 C   0  0  2  0  0  0
  -28.7030  -13.0825   21.0005 C   0  0  0  0  0  0
  -25.2529  -13.8153   20.5700 C   0  0  0  0  0  0
  -24.1810  -13.0415   20.9186 C   0  0  0  0  0  0
  -24.6414  -11.6883   20.8770 C   0  0  0  0  0  0
  -23.9080  -10.4254   21.0425 C   0  0  0  0  0  0
  -24.3617   -9.4150   21.9197 C   0  0  0  0  0  0
  -23.6269   -8.2200   22.0768 C   0  0  0  0  0  0
  -22.4252   -8.0254   21.3545 C   0  0  0  0  0  0
  -21.9904   -9.0238   20.4643 C   0  0  0  0  0  0
  -22.7261  -10.2100   20.3051 C   0  0  0  0  0  0
  -21.6829   -6.0701   22.5273 C   0  0  0  0  0  0
  -21.4026   -6.5619   23.8210 C   0  0  0  0  0  0
  -21.3671   -5.6780   24.9185 C   0  0  0  0  0  0
  -21.6046   -4.3039   24.7248 C   0  0  0  0  0  0
  -21.8798   -3.8117   23.4371 C   0  0  0  0  0  0
  -21.9176   -4.6923   22.3416 C   0  0  0  0  0  0
  -22.7816  -13.5188   21.1844 C   0  0  0  0  0  0
  -22.1624   -4.2100   21.0991 F   0  0  0  0  0  0
  -21.5645   -3.4533   25.7769 F   0  0  0  0  0  0
  -30.0422  -13.3181   20.4383 N   0  0  0  0  0  0
  -26.3005  -12.9380   20.3382 N   0  0  0  0  0  0
  -25.9362  -11.6514   20.5800 N   0  0  0  0  0  0
  -22.0468  -12.8187   22.0394 N   0  0  0  0  0  0
  -25.4228  -15.1880   20.4053 N   0  0  0  0  0  0
  -31.9110  -14.5172   19.9941 O   0  0  0  0  0  0
  -21.6609   -6.8857   21.4237 O   0  0  0  0  0  0
  -22.3495  -14.5490   20.6670 O   0  0  0  0  0  0
  -24.6070  -31.8762   23.2178 C   0  0  0  0  0  0
  -25.8967  -32.4888   23.8444 C   0  0  1  0  0  0
  -27.2127  -27.4650   20.0701 C   0  0  0  0  0  0
  -25.5826  -33.8676   24.2383 N   0  0  0  0  0  0
  -23.3911  -30.5014   21.5634 C   0  0  2  0  0  0
  -24.8309  -28.9868   20.1032 C   0  0  0  0  0  0
  -22.7382  -29.4642   22.5042 C   0  0  0  0  0  0
  -18.0253  -28.1338   22.8480 C   0  0  0  0  0  0
  -24.1499  -36.7346   23.2649 C   0  0  0  0  0  0
  -25.9163  -30.8490   21.3665 C   0  0  0  0  0  0
  -25.9916  -29.4869   20.7085 C   0  0  0  0  0  0
  -27.1849  -28.7313   20.6939 C   0  0  0  0  0  0
  -26.0383  -26.9929   19.4347 C   0  0  0  0  0  0
  -24.8482  -27.7393   19.4600 C   0  0  0  0  0  0
  -23.5905  -29.8487   20.1716 C   0  0  0  0  0  0
  -25.4112  -36.3167   24.0360 C   0  0  1  0  0  0
  -20.5845  -28.3589   23.1368 C   0  0  2  0  0  0
  -20.6738  -26.9330   22.5434 C   0  0  0  0  0  0
  -19.5729  -26.6345   21.5208 C   0  0  0  0  0  0
  -18.1895  -26.7886   22.1592 C   0  0  0  0  0  0
  -19.1510  -28.8769   23.2925 C   0  0  0  0  0  0
  -18.9454  -30.1387   23.8910 C   0  0  0  0  0  0
  -17.6467  -30.6561   24.0536 C   0  0  0  0  0  0
  -25.8998  -34.9513   23.5168 C   0  0  0  0  0  0
  -16.5347  -29.9060   23.6333 C   0  0  0  0  0  0
  -16.7243  -28.6482   23.0337 C   0  0  0  0  0  0
  -26.4402  -31.6656   25.0741 C   0  0  0  0  0  0
  -25.3713  -31.3704   26.1536 C   0  0  0  0  0  0
  -27.0226  -30.3153   24.5978 C   0  0  0  0  0  0
  -27.6004  -32.4356   25.7481 C   0  0  0  0  0  0
  -27.5594  -37.1811   24.8451 C   0  0  0  0  0  0
  -21.4119  -29.2983   22.3807 N   0  0  0  0  0  0
  -26.4330  -37.3837   23.9383 N   0  0  0  0  0  0
  -24.6574  -31.0861   22.1084 N   0  0  0  0  0  0
  -23.4185  -28.8176   23.3047 O   0  0  0  0  0  0
  -28.3824  -26.7373   20.1037 O   0  0  0  0  0  0
  -26.5603  -34.8945   22.4753 O   0  0  0  0  0  0
  -23.5282  -32.1441   23.7613 O   0  0  0  0  0  0
  -31.5270  -20.4592   23.2680 C   0  0  0  0  0  0
  -32.4729  -19.5263   23.6920 C   0  0  0  0  0  0
  -30.2065  -20.0098   23.1172 C   0  0  0  0  0  0
  -30.8664  -17.8919   23.7693 C   0  0  0  0  0  0
  -34.7025  -19.6670   22.5309 C   0  0  0  0  0  0
  -31.2342  -17.2980   19.6756 C   0  0  0  0  0  0
  -28.7632  -16.8848   20.0009 C   0  0  0  0  0  0
  -28.4000  -20.2241   21.3662 C   0  0  0  0  0  0
  -28.0394  -21.0938   23.7102 C   0  0  0  0  0  0
  -29.0630  -16.0500   23.9304 C   0  0  0  0  0  0
  -31.2150  -15.8212   25.1122 C   0  0  0  0  0  0
  -33.9296  -19.9065   23.8315 C   0  0  0  0  0  0
  -28.6130  -23.2384   21.4188 C   0  0  0  0  0  0
  -29.1660  -24.6330   21.0840 C   0  0  0  0  0  0
  -29.6103  -22.3075   22.1373 C   0  0  0  0  0  0
  -31.1937  -15.6154   22.5822 C   0  0  0  0  0  0
  -28.2457  -25.3192   20.0655 C   0  0  0  0  0  0
  -30.1490  -16.7878   20.6527 C   0  0  0  0  0  0
  -29.0708  -20.9078   22.5811 C   0  0  0  0  0  0
  -30.5721  -16.3672   23.8142 C   0  0  0  0  0  0
  -32.1448  -18.2436   23.9054 N   0  0  0  0  0  0
  -29.8882  -18.7352   23.4365 N   0  0  0  0  0  0
  -30.3962  -15.4734   21.3263 N   0  0  0  0  0  0
  -31.4398  -12.2856   19.1626 H   0  0  0  0  0  0
  -30.2007  -11.2960   19.8649 H   0  0  0  0  0  0
  -29.7318  -11.7784   17.4375 H   0  0  0  0  0  0
  -29.6861  -13.4916   17.7773 H   0  0  0  0  0  0
  -27.8034  -11.3312   18.7988 H   0  0  0  0  0  0
  -27.3746  -12.6742   17.7751 H   0  0  0  0  0  0
  -27.6655  -14.2619   19.5478 H   0  0  0  0  0  0
  -28.6603  -12.0835   21.4366 H   0  0  0  0  0  0
  -28.4810  -13.7787   21.8102 H   0  0  0  0  0  0
  -25.2768   -9.5592   22.4774 H   0  0  0  0  0  0
  -23.9943   -7.4578   22.7491 H   0  0  0  0  0  0
  -21.0838   -8.8769   19.8946 H   0  0  0  0  0  0
  -22.3743  -10.9641   19.6143 H   0  0  0  0  0  0
  -21.2026   -7.6123   23.9710 H   0  0  0  0  0  0
  -21.1531   -6.0517   25.9087 H   0  0  0  0  0  0
  -22.0573   -2.7569   23.2894 H   0  0  0  0  0  0
  -22.4104  -11.9868   22.4803 H   0  0  0  0  0  0
  -21.1081  -13.1192   22.2604 H   0  0  0  0  0  0
  -24.6584  -15.8466   20.4977 H   0  0  0  0  0  0
  -26.2799  -15.6155   20.0854 H   0  0  0  0  0  0
  -26.7012  -32.5605   23.1191 H   0  0  0  0  0  0
  -24.9934  -33.9856   25.0493 H   0  0  0  0  0  0
  -22.6761  -31.3185   21.4416 H   0  0  0  0  0  0
  -23.3797  -35.9641   23.3310 H   0  0  0  0  0  0
  -24.3576  -36.8957   22.2059 H   0  0  0  0  0  0
  -23.7194  -37.6510   23.6673 H   0  0  0  0  0  0
  -26.0082  -31.6167   20.5965 H   0  0  0  0  0  0
  -26.8135  -30.9085   21.9703 H   0  0  0  0  0  0
  -28.0779  -29.1030   21.1738 H   0  0  0  0  0  0
  -26.0228  -26.0572   18.8939 H   0  0  0  0  0  0
  -23.9611  -27.3652   18.9639 H   0  0  0  0  0  0
  -23.6788  -30.6315   19.4182 H   0  0  0  0  0  0
  -22.7116  -29.2660   19.8886 H   0  0  0  0  0  0
  -25.1284  -36.2086   25.0856 H   0  0  0  0  0  0
  -20.9896  -28.3153   24.1506 H   0  0  0  0  0  0
  -20.5641  -26.2177   23.3600 H   0  0  0  0  0  0
  -21.6622  -26.7377   22.1224 H   0  0  0  0  0  0
  -19.6904  -25.6272   21.1208 H   0  0  0  0  0  0
  -19.6738  -27.3192   20.6773 H   0  0  0  0  0  0
  -17.4181  -26.6673   21.3970 H   0  0  0  0  0  0
  -18.0250  -26.0029   22.8982 H   0  0  0  0  0  0
  -19.7968  -30.7152   24.2327 H   0  0  0  0  0  0
  -17.5057  -31.6253   24.5102 H   0  0  0  0  0  0
  -15.5353  -30.2947   23.7667 H   0  0  0  0  0  0
  -15.8657  -28.0797   22.7041 H   0  0  0  0  0  0
  -24.5885  -30.7043   25.7883 H   0  0  0  0  0  0
  -24.8890  -32.2838   26.5043 H   0  0  0  0  0  0
  -25.8104  -30.8845   27.0272 H   0  0  0  0  0  0
  -26.2713  -29.6923   24.1118 H   0  0  0  0  0  0
  -27.4187  -29.7341   25.4300 H   0  0  0  0  0  0
  -27.8453  -30.4554   23.8968 H   0  0  0  0  0  0
  -27.2675  -33.3707   26.2014 H   0  0  0  0  0  0
  -28.3834  -32.6842   25.0299 H   0  0  0  0  0  0
  -28.0655  -31.8509   26.5423 H   0  0  0  0  0  0
  -28.2609  -38.0130   24.7532 H   0  0  0  0  0  0
  -28.1120  -36.2637   24.6287 H   0  0  0  0  0  0
  -27.2288  -37.1446   25.8859 H   0  0  0  0  0  0
  -20.9247  -29.8814   21.7150 H   0  0  0  0  0  0
  -26.0261  -38.2917   24.1441 H   0  0  0  0  0  0
  -31.8409  -21.4695   23.0532 H   0  0  0  0  0  0
  -35.7206  -20.0460   22.6086 H   0  0  0  0  0  0
  -34.2192  -20.1680   21.6941 H   0  0  0  0  0  0
  -34.7463  -18.6027   22.3008 H   0  0  0  0  0  0
  -31.0484  -18.3399   19.4127 H   0  0  0  0  0  0
  -31.2472  -16.7343   18.7432 H   0  0  0  0  0  0
  -32.2311  -17.2599   20.1184 H   0  0  0  0  0  0
  -28.6296  -16.1571   19.2042 H   0  0  0  0  0  0
  -28.6300  -17.8712   19.5547 H   0  0  0  0  0  0
  -27.9723  -16.7644   20.7419 H   0  0  0  0  0  0
  -27.9923  -19.2469   21.6238 H   0  0  0  0  0  0
  -29.1106  -20.0886   20.5510 H   0  0  0  0  0  0
  -27.5615  -20.8049   20.9831 H   0  0  0  0  0  0
  -27.6860  -20.1326   24.0854 H   0  0  0  0  0  0
  -27.1624  -21.6552   23.3880 H   0  0  0  0  0  0
  -28.4858  -21.6216   24.5525 H   0  0  0  0  0  0
  -28.6392  -16.4922   24.8323 H   0  0  0  0  0  0
  -28.8939  -14.9726   23.9808 H   0  0  0  0  0  0
  -28.4957  -16.4286   23.0819 H   0  0  0  0  0  0
  -30.8695  -16.3833   25.9818 H   0  0  0  0  0  0
  -32.3032  -15.9048   25.0862 H   0  0  0  0  0  0
  -30.9762  -14.7710   25.2815 H   0  0  0  0  0  0
  -34.3758  -19.3269   24.6407 H   0  0  0  0  0  0
  -33.9985  -20.9529   24.1296 H   0  0  0  0  0  0
  -28.3117  -22.7804   20.4791 H   0  0  0  0  0  0
  -27.7056  -23.3589   22.0097 H   0  0  0  0  0  0
  -30.1771  -24.5608   20.6779 H   0  0  0  0  0  0
  -29.2367  -25.2283   21.9961 H   0  0  0  0  0  0
  -30.0164  -22.8309   23.0028 H   0  0  0  0  0  0
  -30.4434  -22.1586   21.4489 H   0  0  0  0  0  0
  -31.4181  -14.6051   22.9366 H   0  0  0  0  0  0
  -32.1744  -16.0366   22.3449 H   0  0  0  0  0  0
  -27.2319  -25.0006   20.3108 H   0  0  0  0  0  0
  -28.4551  -24.9614   19.0563 H   0  0  0  0  0  0
  -30.1301  -17.5509   21.4002 H   0  0  0  0  0  0
  1 25  1  0  0  0
  1 30  2  0  0  0
  1 93  1  0  0  0
  2  3  1  0  0  0
  2 25  1  0  0  0
  2 94  1  0  0  0
  2 95  1  0  0  0
  3  4  1  0  0  0
  3 96  1  0  0  0
  3 97  1  0  0  0
  4  5  1  0  0  0
  4 98  1  0  0  0
  4 99  1  0  0  0
  5  6  1  0  0  0
  5 26  1  0  0  0
  5100  1  0  0  0
  6 25  1  0  0  0
  6101  1  0  0  0
  6102  1  0  0  0
  7  8  2  0  0  0
  7 26  1  0  0  0
  7 29  1  0  0  0
  8  9  1  0  0  0
  8 22  1  0  0  0
  9 10  1  0  0  0
  9 27  2  0  0  0
 10 11  2  0  0  0
 10 15  1  0  0  0
 11 12  1  0  0  0
 11103  1  0  0  0
 12 13  2  0  0  0
 12104  1  0  0  0
 13 14  1  0  0  0
 13 31  1  0  0  0
 14 15  2  0  0  0
 14105  1  0  0  0
 15106  1  0  0  0
 16 17  2  0  0  0
 16 21  1  0  0  0
 16 31  1  0  0  0
 17 18  1  0  0  0
 17107  1  0  0  0
 18 19  2  0  0  0
 18108  1  0  0  0
 19 20  1  0  0  0
 19 24  1  0  0  0
 20 21  2  0  0  0
 20109  1  0  0  0
 21 23  1  0  0  0
 22 28  1  0  0  0
 22 32  2  0  0  0
 26 27  1  0  0  0
 28110  1  0  0  0
 28111  1  0  0  0
 29112  1  0  0  0
 29113  1  0  0  0
 33 34  1  0  0  0
 33 66  1  0  0  0
 33 70  2  0  0  0
 34 36  1  0  0  0
 34 59  1  0  0  0
 34114  1  0  0  0
 35 44  2  0  0  0
 35 45  1  0  0  0
 35 68  1  0  0  0
 36 56  1  0  0  0
 36115  1  0  0  0
 37 39  1  0  0  0
 37 47  1  0  0  0
 37 66  1  0  0  0
 37116  1  0  0  0
 38 43  2  0  0  0
 38 46  1  0  0  0
 38 47  1  0  0  0
 39 64  1  0  0  0
 39 67  2  0  0  0
 40 52  1  0  0  0
 40 53  2  0  0  0
 40 58  1  0  0  0
 41117  1  0  0  0
 41118  1  0  0  0
 41119  1  0  0  0
 41 48  1  0  0  0
 42 43  1  0  0  0
 42 66  1  0  0  0
 42120  1  0  0  0
 42121  1  0  0  0
 43 44  1  0  0  0
 44122  1  0  0  0
 45 46  2  0  0  0
 45123  1  0  0  0
 46124  1  0  0  0
 47125  1  0  0  0
 47126  1  0  0  0
 48 56  1  0  0  0
 48 65  1  0  0  0
 48127  1  0  0  0
 49 50  1  0  0  0
 49 53  1  0  0  0
 49 64  1  0  0  0
 49128  1  0  0  0
 50 51  1  0  0  0
 50129  1  0  0  0
 50130  1  0  0  0
 51 52  1  0  0  0
 51131  1  0  0  0
 51132  1  0  0  0
 52133  1  0  0  0
 52134  1  0  0  0
 53 54  1  0  0  0
 54 55  2  0  0  0
 54135  1  0  0  0
 55 57  1  0  0  0
 55136  1  0  0  0
 56 69  2  0  0  0
 57 58  2  0  0  0
 57137  1  0  0  0
 58138  1  0  0  0
 59 60  1  0  0  0
 59 61  1  0  0  0
 59 62  1  0  0  0
 60139  1  0  0  0
 60140  1  0  0  0
 60141  1  0  0  0
 61142  1  0  0  0
 61143  1  0  0  0
 61144  1  0  0  0
 62145  1  0  0  0
 62146  1  0  0  0
 62147  1  0  0  0
 63 65  1  0  0  0
 63148  1  0  0  0
 63149  1  0  0  0
 63150  1  0  0  0
 64151  1  0  0  0
 65152  1  0  0  0
 68 87  1  0  0  0
 71 72  2  0  0  0
 71 73  1  0  0  0
 71153  1  0  0  0
 72 82  1  0  0  0
 72 91  1  0  0  0
 73 89  1  0  0  0
 73 92  2  0  0  0
 74 90  1  0  0  0
 74 91  2  0  0  0
 74 92  1  0  0  0
 75 82  1  0  0  0
 75154  1  0  0  0
 75155  1  0  0  0
 75156  1  0  0  0
 76157  1  0  0  0
 76158  1  0  0  0
 76159  1  0  0  0
 76 88  1  0  0  0
 77 88  1  0  0  0
 77160  1  0  0  0
 77161  1  0  0  0
 77162  1  0  0  0
 78163  1  0  0  0
 78164  1  0  0  0
 78165  1  0  0  0
 78 89  1  0  0  0
 79 89  1  0  0  0
 79166  1  0  0  0
 79167  1  0  0  0
 79168  1  0  0  0
 80169  1  0  0  0
 80170  1  0  0  0
 80171  1  0  0  0
 80 90  1  0  0  0
 81 90  1  0  0  0
 81172  1  0  0  0
 81173  1  0  0  0
 81174  1  0  0  0
 82175  1  0  0  0
 82176  1  0  0  0
 83 84  1  0  0  0
 83 85  1  0  0  0
 83177  1  0  0  0
 83178  1  0  0  0
 84 87  1  0  0  0
 84179  1  0  0  0
 84180  1  0  0  0
 85 89  1  0  0  0
 85181  1  0  0  0
 85182  1  0  0  0
 86 90  1  0  0  0
 86 93  1  0  0  0
 86183  1  0  0  0
 86184  1  0  0  0
 87185  1  0  0  0
 87186  1  0  0  0
 88 93  1  0  0  0
 88187  1  0  0  0
M  ISO  4   1 100  68 101  87 101  93 100
M  END
> <chiral flag>
0

> <version>
0

> <s_m_source_file>
/data/baiqing/PycharmProjects/Reinvent-master-3.2/result/LINK_invent/BTK/process_docking_weight1_custom_sum_contain_oxygen_bond_distance_aromatic_linkinvent_7_9_3/rearranged_h_0064.sdf

> <i_m_source_file_index>
51

> <r_mmod_Potential_Energy-OPLS-2005>
-254.728271484375

> <r_mmod_Stretch_Energy-OPLS-2005>
48.0961456298828

> <r_mmod_Bend_Energy-OPLS-2005>
146.184448242188

> <r_mmod_Torsional_Energy-OPLS-2005>
298.745208740234

> <r_mmod_Improper_Torsional_Energy-OPLS-2005>
7.04546356201172

> <r_mmod_Van_der_Waal_Energy-OPLS-2005>
187.747848510742

> <r_mmod_Electrostatic_Energy-OPLS-2005>
-777.291687011719

> <r_mmod_Solvation_Energy-OPLS-2005>
-184.429595947266

> <b_mmod_Minimization_Converged-OPLS-2005>
0

> <r_mmod_RMS_Derivative-OPLS-2005>
5.28203821182251

$$$$
52
                    3D
 Structure written by MMmdl.
183191  0  0  1  0            999 V2000
  -30.6704  -14.5087   20.4760 C   0  0  0  0  0  0
  -30.4223  -12.3123   19.4083 C   0  0  0  0  0  0
  -29.4866  -12.4981   18.1939 C   0  0  0  0  0  0
  -28.0055  -12.3642   18.6084 C   0  0  0  0  0  0
  -27.6530  -13.1858   19.8771 C   0  0  2  0  0  0
  -28.7074  -12.9749   20.9798 C   0  0  0  0  0  0
  -25.2577  -13.8070   20.5737 C   0  0  0  0  0  0
  -24.1817  -13.0387   20.9222 C   0  0  0  0  0  0
  -24.6363  -11.6849   20.8782 C   0  0  0  0  0  0
  -23.9023  -10.4257   21.0436 C   0  0  0  0  0  0
  -24.3585   -9.4169   21.9205 C   0  0  0  0  0  0
  -23.6265   -8.2205   22.0750 C   0  0  0  0  0  0
  -22.4240   -8.0264   21.3537 C   0  0  0  0  0  0
  -21.9875   -9.0238   20.4629 C   0  0  0  0  0  0
  -22.7199  -10.2120   20.3058 C   0  0  0  0  0  0
  -21.6826   -6.0720   22.5274 C   0  0  0  0  0  0
  -21.3991   -6.5625   23.8211 C   0  0  0  0  0  0
  -21.3675   -5.6798   24.9179 C   0  0  0  0  0  0
  -21.6057   -4.3052   24.7235 C   0  0  0  0  0  0
  -21.8810   -3.8138   23.4359 C   0  0  0  0  0  0
  -21.9186   -4.6950   22.3405 C   0  0  0  0  0  0
  -22.7864  -13.5219   21.1916 C   0  0  0  0  0  0
  -22.1655   -4.2133   21.0984 F   0  0  0  0  0  0
  -21.5661   -3.4540   25.7748 F   0  0  0  0  0  0
  -30.0207  -13.3117   20.4077 N   0  0  0  0  0  0
  -26.2987  -12.9195   20.3442 N   0  0  0  0  0  0
  -25.9285  -11.6375   20.5836 N   0  0  0  0  0  0
  -22.0485  -12.8182   22.0449 N   0  0  0  0  0  0
  -25.4315  -15.1781   20.4188 N   0  0  0  0  0  0
  -31.8671  -14.6101   20.1895 O   0  0  0  0  0  0
  -21.6613   -6.8863   21.4231 O   0  0  0  0  0  0
  -22.3577  -14.5551   20.6802 O   0  0  0  0  0  0
  -24.6107  -31.8676   23.2110 C   0  0  0  0  0  0
  -25.9019  -32.4819   23.8380 C   0  0  1  0  0  0
  -27.2494  -27.4603   20.0978 C   0  0  0  0  0  0
  -25.5876  -33.8620   24.2313 N   0  0  0  0  0  0
  -23.3972  -30.4896   21.5491 C   0  0  2  0  0  0
  -24.8459  -28.9532   20.1129 C   0  0  0  0  0  0
  -22.7386  -29.4656   22.5005 C   0  0  0  0  0  0
  -18.0261  -28.1382   22.8497 C   0  0  0  0  0  0
  -24.1474  -36.7323   23.2637 C   0  0  0  0  0  0
  -25.9202  -30.8396   21.3594 C   0  0  0  0  0  0
  -25.9979  -29.4743   20.7128 C   0  0  0  0  0  0
  -27.1931  -28.7300   20.7111 C   0  0  0  0  0  0
  -26.0799  -26.9419   19.4938 C   0  0  0  0  0  0
  -24.8799  -27.6850   19.5045 C   0  0  0  0  0  0
  -23.6030  -29.8163   20.1638 C   0  0  0  0  0  0
  -25.4100  -36.3106   24.0327 C   0  0  1  0  0  0
  -20.5849  -28.3651   23.1334 C   0  0  2  0  0  0
  -20.6754  -26.9392   22.5429 C   0  0  0  0  0  0
  -19.5741  -26.6381   21.5220 C   0  0  0  0  0  0
  -18.1914  -26.7928   22.1617 C   0  0  0  0  0  0
  -19.1506  -28.8830   23.2910 C   0  0  0  0  0  0
  -18.9440  -30.1443   23.8915 C   0  0  0  0  0  0
  -17.6442  -30.6585   24.0580 C   0  0  0  0  0  0
  -25.9027  -34.9477   23.5117 C   0  0  0  0  0  0
  -16.5330  -29.9093   23.6338 C   0  0  0  0  0  0
  -16.7252  -28.6508   23.0353 C   0  0  0  0  0  0
  -26.4462  -31.6601   25.0703 C   0  0  0  0  0  0
  -25.3758  -31.3694   26.1463 C   0  0  0  0  0  0
  -27.0310  -30.3047   24.6093 C   0  0  0  0  0  0
  -27.6026  -32.4344   25.7487 C   0  0  0  0  0  0
  -27.5577  -37.1816   24.8459 C   0  0  0  0  0  0
  -21.4126  -29.3012   22.3732 N   0  0  0  0  0  0
  -26.4283  -37.3794   23.9406 N   0  0  0  0  0  0
  -24.6605  -31.0794   22.0993 N   0  0  0  0  0  0
  -23.4166  -28.8218   23.3061 O   0  0  0  0  0  0
  -28.4561  -26.7984   20.1485 O   0  0  0  0  0  0
  -26.5611  -34.8929   22.4692 O   0  0  0  0  0  0
  -23.5306  -32.1430   23.7525 O   0  0  0  0  0  0
  -29.0441  -21.7675   23.8599 C   0  0  0  0  0  0
  -28.6236  -20.4577   23.5638 C   0  0  0  0  0  0
  -31.2618  -21.0995   23.2009 C   0  0  0  0  0  0
  -30.4013  -22.1183   23.6746 C   0  0  0  0  0  0
  -29.5671  -19.5241   23.1116 C   0  0  0  0  0  0
  -30.9961  -16.6732   18.3734 C   0  0  0  0  0  0
  -28.4993  -16.3745   18.4393 C   0  0  0  0  0  0
  -30.5947  -23.7061   25.5782 C   0  0  0  0  0  0
  -32.4798  -23.6014   24.0343 C   0  0  0  0  0  0
  -31.3780  -24.2774   21.0816 C   0  0  0  0  0  0
  -28.5440  -24.3400   19.8160 C   0  0  0  0  0  0
  -29.2951  -16.1408   21.6835 C   0  0  0  0  0  0
  -28.8851  -24.1017   21.3091 C   0  0  0  0  0  0
  -30.2660  -24.7165   23.3079 C   0  0  0  0  0  0
  -28.7555  -25.7539   19.2324 C   0  0  0  0  0  0
  -30.0978  -17.3233   22.2662 C   0  0  0  0  0  0
  -29.7613  -16.5796   19.2926 C   0  0  0  0  0  0
  -30.9303  -23.5137   24.0797 C   0  0  0  0  0  0
  -30.8639  -19.8423   22.9307 N   0  0  0  0  0  0
  -29.8611  -15.6073   20.4333 N   0  0  0  0  0  0
  -30.1590  -24.6946   21.8119 N   0  3  1  0  0  0
  -29.1613  -18.2342   22.8397 O   0  0  0  0  0  0
  -31.4631  -12.4208   19.0993 H   0  0  0  0  0  0
  -30.3346  -11.3036   19.8161 H   0  0  0  0  0  0
  -29.7219  -11.7751   17.4129 H   0  0  0  0  0  0
  -29.6563  -13.4785   17.7489 H   0  0  0  0  0  0
  -27.8104  -11.3086   18.7931 H   0  0  0  0  0  0
  -27.3529  -12.6542   17.7837 H   0  0  0  0  0  0
  -27.6744  -14.2318   19.6061 H   0  0  0  0  0  0
  -28.7073  -11.9332   21.3016 H   0  0  0  0  0  0
  -28.4620  -13.5480   21.8691 H   0  0  0  0  0  0
  -25.2725   -9.5634   22.4816 H   0  0  0  0  0  0
  -23.9954   -7.4577   22.7460 H   0  0  0  0  0  0
  -21.0811   -8.8749   19.8945 H   0  0  0  0  0  0
  -22.3654  -10.9670   19.6180 H   0  0  0  0  0  0
  -21.1944   -7.6129   23.9695 H   0  0  0  0  0  0
  -21.1535   -6.0537   25.9085 H   0  0  0  0  0  0
  -22.0582   -2.7600   23.2866 H   0  0  0  0  0  0
  -22.4039  -11.9767   22.4728 H   0  0  0  0  0  0
  -21.1145  -13.1271   22.2736 H   0  0  0  0  0  0
  -24.6688  -15.8368   20.5338 H   0  0  0  0  0  0
  -26.2989  -15.6139   20.1363 H   0  0  0  0  0  0
  -26.7092  -32.5526   23.1138 H   0  0  0  0  0  0
  -25.0004  -33.9779   25.0438 H   0  0  0  0  0  0
  -22.6848  -31.3051   21.4092 H   0  0  0  0  0  0
  -23.3726  -35.9665   23.3305 H   0  0  0  0  0  0
  -24.3567  -36.8944   22.2052 H   0  0  0  0  0  0
  -23.7243  -37.6531   23.6664 H   0  0  0  0  0  0
  -26.0272  -31.6048   20.5889 H   0  0  0  0  0  0
  -26.8095  -30.8958   21.9757 H   0  0  0  0  0  0
  -28.0841  -29.1310   21.1722 H   0  0  0  0  0  0
  -26.0748  -25.9692   19.0250 H   0  0  0  0  0  0
  -23.9923  -27.2769   19.0417 H   0  0  0  0  0  0
  -23.7051  -30.5878   19.4001 H   0  0  0  0  0  0
  -22.7286  -29.2297   19.8748 H   0  0  0  0  0  0
  -25.1287  -36.1961   25.0823 H   0  0  0  0  0  0
  -20.9939  -28.3215   24.1456 H   0  0  0  0  0  0
  -20.5658  -26.2267   23.3613 H   0  0  0  0  0  0
  -21.6630  -26.7446   22.1221 H   0  0  0  0  0  0
  -19.6905  -25.6294   21.1250 H   0  0  0  0  0  0
  -19.6700  -27.3199   20.6759 H   0  0  0  0  0  0
  -17.4201  -26.6699   21.4003 H   0  0  0  0  0  0
  -18.0290  -26.0054   22.8990 H   0  0  0  0  0  0
  -19.7912  -30.7261   24.2294 H   0  0  0  0  0  0
  -17.4993  -31.6274   24.5165 H   0  0  0  0  0  0
  -15.5336  -30.3005   23.7642 H   0  0  0  0  0  0
  -15.8646  -28.0834   22.7068 H   0  0  0  0  0  0
  -24.5899  -30.7074   25.7797 H   0  0  0  0  0  0
  -24.8975  -32.2840   26.4976 H   0  0  0  0  0  0
  -25.8103  -30.8807   27.0187 H   0  0  0  0  0  0
  -26.2851  -29.6793   24.1164 H   0  0  0  0  0  0
  -27.4089  -29.7294   25.4552 H   0  0  0  0  0  0
  -27.8672  -30.4350   23.9224 H   0  0  0  0  0  0
  -27.2615  -33.3624   26.2087 H   0  0  0  0  0  0
  -28.3829  -32.6951   25.0329 H   0  0  0  0  0  0
  -28.0707  -31.8473   26.5392 H   0  0  0  0  0  0
  -28.2583  -38.0127   24.7519 H   0  0  0  0  0  0
  -28.1085  -36.2657   24.6259 H   0  0  0  0  0  0
  -27.2301  -37.1435   25.8865 H   0  0  0  0  0  0
  -20.9278  -29.8710   21.6935 H   0  0  0  0  0  0
  -26.0164  -38.2863   24.1435 H   0  0  0  0  0  0
  -28.3277  -22.4855   24.2297 H   0  0  0  0  0  0
  -27.5906  -20.1704   23.6970 H   0  0  0  0  0  0
  -32.3153  -21.2618   23.0406 H   0  0  0  0  0  0
  -30.8660  -17.4590   17.6280 H   0  0  0  0  0  0
  -31.1745  -15.7446   17.8291 H   0  0  0  0  0  0
  -31.8948  -16.9215   18.9392 H   0  0  0  0  0  0
  -27.5945  -16.5147   19.0281 H   0  0  0  0  0  0
  -28.4627  -15.3976   17.9615 H   0  0  0  0  0  0
  -28.4492  -17.1115   17.6368 H   0  0  0  0  0  0
  -30.9825  -22.8849   26.1832 H   0  0  0  0  0  0
  -29.5235  -23.7574   25.7679 H   0  0  0  0  0  0
  -31.0257  -24.6263   25.9733 H   0  0  0  0  0  0
  -32.9374  -22.8780   24.7114 H   0  0  0  0  0  0
  -32.8355  -24.5818   24.3505 H   0  0  0  0  0  0
  -32.9100  -23.4151   23.0547 H   0  0  0  0  0  0
  -31.3094  -24.4998   20.0183 H   0  0  0  0  0  0
  -31.5591  -23.2078   21.1750 H   0  0  0  0  0  0
  -32.2495  -24.8223   21.4468 H   0  0  0  0  0  0
  -27.4972  -24.0703   19.6809 H   0  0  0  0  0  0
  -29.0946  -23.6308   19.1979 H   0  0  0  0  0  0
  -28.2638  -16.4351   21.4858 H   0  0  0  0  0  0
  -29.2448  -15.3856   22.4669 H   0  0  0  0  0  0
  -28.8927  -23.0271   21.4843 H   0  0  0  0  0  0
  -28.0589  -24.4981   21.8984 H   0  0  0  0  0  0
  -30.8100  -25.6260   23.5697 H   0  0  0  0  0  0
  -29.2672  -24.8868   23.7109 H   0  0  0  0  0  0
  -28.2310  -25.8722   18.2830 H   0  0  0  0  0  0
  -29.8075  -25.8737   18.9770 H   0  0  0  0  0  0
  -30.6927  -17.8119   21.4947 H   0  0  0  0  0  0
  -30.8073  -16.9798   23.0189 H   0  0  0  0  0  0
  -29.6320  -17.5854   19.6899 H   0  0  0  0  0  0
  -30.0584  -25.6750   21.5889 H   0  0  0  0  0  0
  1 25  1  0  0  0
  1 30  2  0  0  0
  1 90  1  0  0  0
  2  3  1  0  0  0
  2 25  1  0  0  0
  2 93  1  0  0  0
  2 94  1  0  0  0
  3  4  1  0  0  0
  3 95  1  0  0  0
  3 96  1  0  0  0
  4  5  1  0  0  0
  4 97  1  0  0  0
  4 98  1  0  0  0
  5  6  1  0  0  0
  5 26  1  0  0  0
  5 99  1  0  0  0
  6 25  1  0  0  0
  6100  1  0  0  0
  6101  1  0  0  0
  7  8  2  0  0  0
  7 26  1  0  0  0
  7 29  1  0  0  0
  8  9  1  0  0  0
  8 22  1  0  0  0
  9 10  1  0  0  0
  9 27  2  0  0  0
 10 11  2  0  0  0
 10 15  1  0  0  0
 11 12  1  0  0  0
 11102  1  0  0  0
 12 13  2  0  0  0
 12103  1  0  0  0
 13 14  1  0  0  0
 13 31  1  0  0  0
 14 15  2  0  0  0
 14104  1  0  0  0
 15105  1  0  0  0
 16 17  2  0  0  0
 16 21  1  0  0  0
 16 31  1  0  0  0
 17 18  1  0  0  0
 17106  1  0  0  0
 18 19  2  0  0  0
 18107  1  0  0  0
 19 20  1  0  0  0
 19 24  1  0  0  0
 20 21  2  0  0  0
 20108  1  0  0  0
 21 23  1  0  0  0
 22 28  1  0  0  0
 22 32  2  0  0  0
 26 27  1  0  0  0
 28109  1  0  0  0
 28110  1  0  0  0
 29111  1  0  0  0
 29112  1  0  0  0
 33 34  1  0  0  0
 33 66  1  0  0  0
 33 70  2  0  0  0
 34 36  1  0  0  0
 34 59  1  0  0  0
 34113  1  0  0  0
 35 44  2  0  0  0
 35 45  1  0  0  0
 35 68  1  0  0  0
 36 56  1  0  0  0
 36114  1  0  0  0
 37 39  1  0  0  0
 37 47  1  0  0  0
 37 66  1  0  0  0
 37115  1  0  0  0
 38 43  2  0  0  0
 38 46  1  0  0  0
 38 47  1  0  0  0
 39 64  1  0  0  0
 39 67  2  0  0  0
 40 52  1  0  0  0
 40 53  2  0  0  0
 40 58  1  0  0  0
 41116  1  0  0  0
 41117  1  0  0  0
 41118  1  0  0  0
 41 48  1  0  0  0
 42 43  1  0  0  0
 42 66  1  0  0  0
 42119  1  0  0  0
 42120  1  0  0  0
 43 44  1  0  0  0
 44121  1  0  0  0
 45 46  2  0  0  0
 45122  1  0  0  0
 46123  1  0  0  0
 47124  1  0  0  0
 47125  1  0  0  0
 48 56  1  0  0  0
 48 65  1  0  0  0
 48126  1  0  0  0
 49 50  1  0  0  0
 49 53  1  0  0  0
 49 64  1  0  0  0
 49127  1  0  0  0
 50 51  1  0  0  0
 50128  1  0  0  0
 50129  1  0  0  0
 51 52  1  0  0  0
 51130  1  0  0  0
 51131  1  0  0  0
 52132  1  0  0  0
 52133  1  0  0  0
 53 54  1  0  0  0
 54 55  2  0  0  0
 54134  1  0  0  0
 55 57  1  0  0  0
 55135  1  0  0  0
 56 69  2  0  0  0
 57 58  2  0  0  0
 57136  1  0  0  0
 58137  1  0  0  0
 59 60  1  0  0  0
 59 61  1  0  0  0
 59 62  1  0  0  0
 60138  1  0  0  0
 60139  1  0  0  0
 60140  1  0  0  0
 61141  1  0  0  0
 61142  1  0  0  0
 61143  1  0  0  0
 62144  1  0  0  0
 62145  1  0  0  0
 62146  1  0  0  0
 63 65  1  0  0  0
 63147  1  0  0  0
 63148  1  0  0  0
 63149  1  0  0  0
 64150  1  0  0  0
 65151  1  0  0  0
 68 85  1  0  0  0
 71 72  2  0  0  0
 71 74  1  0  0  0
 71152  1  0  0  0
 72 75  1  0  0  0
 72153  1  0  0  0
 73 74  2  0  0  0
 73 89  1  0  0  0
 73154  1  0  0  0
 74 88  1  0  0  0
 75 89  2  0  0  0
 75 92  1  0  0  0
 76155  1  0  0  0
 76156  1  0  0  0
 76157  1  0  0  0
 76 87  1  0  0  0
 77 87  1  0  0  0
 77158  1  0  0  0
 77159  1  0  0  0
 77160  1  0  0  0
 78161  1  0  0  0
 78162  1  0  0  0
 78163  1  0  0  0
 78 88  1  0  0  0
 79 88  1  0  0  0
 79164  1  0  0  0
 79165  1  0  0  0
 79166  1  0  0  0
 80167  1  0  0  0
 80168  1  0  0  0
 80169  1  0  0  0
 80 91  1  0  0  0
 81 83  1  0  0  0
 81 85  1  0  0  0
 81170  1  0  0  0
 81171  1  0  0  0
 82 86  1  0  0  0
 82 90  1  0  0  0
 82172  1  0  0  0
 82173  1  0  0  0
 83 91  1  0  0  0
 83174  1  0  0  0
 83175  1  0  0  0
 84 88  1  0  0  0
 84 91  1  0  0  0
 84176  1  0  0  0
 84177  1  0  0  0
 85178  1  0  0  0
 85179  1  0  0  0
 86 92  1  0  0  0
 86180  1  0  0  0
 86181  1  0  0  0
 87 90  1  0  0  0
 87182  1  0  0  0
 91183  1  0  0  0
M  CHG  1  91   1
M  ISO  4   1 100  68 101  85 101  90 100
M  END
> <chiral flag>
0

> <version>
0

> <s_m_source_file>
/data/baiqing/PycharmProjects/Reinvent-master-3.2/result/LINK_invent/BTK/process_docking_weight1_custom_sum_contain_oxygen_bond_distance_aromatic_linkinvent_7_9_3/rearranged_h_0064.sdf

> <i_m_source_file_index>
52

> <r_mmod_Potential_Energy-OPLS-2005>
-40.1502685546875

> <r_mmod_Stretch_Energy-OPLS-2005>
46.6365242004395

> <r_mmod_Bend_Energy-OPLS-2005>
158.564437866211

> <r_mmod_Torsional_Energy-OPLS-2005>
343.148010253906

> <r_mmod_Improper_Torsional_Energy-OPLS-2005>
13.7967557907104

> <r_mmod_Van_der_Waal_Energy-OPLS-2005>
173.503204345703

> <r_mmod_Electrostatic_Energy-OPLS-2005>
-391.92919921875

> <r_mmod_Solvation_Energy-OPLS-2005>
-404.385620117188

> <b_mmod_Minimization_Converged-OPLS-2005>
0

> <r_mmod_RMS_Derivative-OPLS-2005>
3.46162509918213

$$$$
53
                    3D
 Structure written by MMmdl.
160168  0  0  1  0            999 V2000
  -30.6424  -14.6485   20.5169 C   0  0  0  0  0  0
  -30.4238  -12.3975   19.4694 C   0  0  0  0  0  0
  -29.5074  -12.5073   18.2308 C   0  0  0  0  0  0
  -28.0305  -12.3326   18.6353 C   0  0  0  0  0  0
  -27.6457  -13.2160   19.8523 C   0  0  2  0  0  0
  -28.6807  -13.0795   20.9874 C   0  0  0  0  0  0
  -25.2534  -13.8195   20.5669 C   0  0  0  0  0  0
  -24.1815  -13.0457   20.9180 C   0  0  0  0  0  0
  -24.6393  -11.6923   20.8743 C   0  0  0  0  0  0
  -23.9091  -10.4297   21.0426 C   0  0  0  0  0  0
  -24.3634   -9.4200   21.9210 C   0  0  0  0  0  0
  -23.6299   -8.2240   22.0765 C   0  0  0  0  0  0
  -22.4275   -8.0307   21.3557 C   0  0  0  0  0  0
  -21.9922   -9.0286   20.4657 C   0  0  0  0  0  0
  -22.7265  -10.2152   20.3073 C   0  0  0  0  0  0
  -21.6839   -6.0764   22.5297 C   0  0  0  0  0  0
  -21.4010   -6.5659   23.8236 C   0  0  0  0  0  0
  -21.3649   -5.6806   24.9191 C   0  0  0  0  0  0
  -21.6042   -4.3074   24.7236 C   0  0  0  0  0  0
  -21.8805   -3.8171   23.4355 C   0  0  0  0  0  0
  -21.9188   -4.6995   22.3414 C   0  0  0  0  0  0
  -22.7840  -13.5234   21.1865 C   0  0  0  0  0  0
  -22.1649   -4.2181   21.0989 F   0  0  0  0  0  0
  -21.5622   -3.4550   25.7740 F   0  0  0  0  0  0
  -29.9965  -13.4360   20.4354 N   0  0  0  0  0  0
  -26.2938  -12.9361   20.3238 N   0  0  0  0  0  0
  -25.9306  -11.6521   20.5720 N   0  0  0  0  0  0
  -22.0483  -12.8239   22.0416 N   0  0  0  0  0  0
  -25.4299  -15.1916   20.4128 N   0  0  0  0  0  0
  -31.7867  -14.7608   20.0668 O   0  0  0  0  0  0
  -21.6625   -6.8914   21.4260 O   0  0  0  0  0  0
  -22.3530  -14.5549   20.6720 O   0  0  0  0  0  0
  -24.6250  -31.8577   23.2018 C   0  0  0  0  0  0
  -25.9099  -32.4770   23.8346 C   0  0  1  0  0  0
  -27.2303  -27.3167   20.0929 C   0  0  0  0  0  0
  -25.5918  -33.8570   24.2261 N   0  0  0  0  0  0
  -23.4199  -30.4789   21.5451 C   0  0  2  0  0  0
  -24.8660  -28.9279   20.1096 C   0  0  0  0  0  0
  -22.7459  -29.4598   22.4942 C   0  0  0  0  0  0
  -18.0296  -28.1350   22.8474 C   0  0  0  0  0  0
  -24.1495  -36.7292   23.2639 C   0  0  0  0  0  0
  -25.9609  -30.7823   21.3757 C   0  0  0  0  0  0
  -26.0331  -29.4086   20.7147 C   0  0  0  0  0  0
  -27.2133  -28.6095   20.7038 C   0  0  0  0  0  0
  -26.0367  -26.8802   19.4776 C   0  0  0  0  0  0
  -24.8679  -27.6668   19.4888 C   0  0  0  0  0  0
  -23.6357  -29.8107   20.1593 C   0  0  0  0  0  0
  -25.4118  -36.3071   24.0325 C   0  0  1  0  0  0
  -20.5882  -28.3647   23.1268 C   0  0  2  0  0  0
  -20.6771  -26.9376   22.5377 C   0  0  0  0  0  0
  -19.5755  -26.6352   21.5179 C   0  0  0  0  0  0
  -18.1931  -26.7902   22.1596 C   0  0  0  0  0  0
  -19.1546  -28.8818   23.2883 C   0  0  0  0  0  0
  -18.9477  -30.1409   23.8922 C   0  0  0  0  0  0
  -17.6482  -30.6549   24.0561 C   0  0  0  0  0  0
  -25.9056  -34.9448   23.5090 C   0  0  0  0  0  0
  -16.5373  -29.9065   23.6303 C   0  0  0  0  0  0
  -16.7283  -28.6480   23.0337 C   0  0  0  0  0  0
  -26.4498  -31.6582   25.0716 C   0  0  0  0  0  0
  -25.3747  -31.3728   26.1458 C   0  0  0  0  0  0
  -27.0337  -30.3006   24.6175 C   0  0  0  0  0  0
  -27.6052  -32.4330   25.7487 C   0  0  0  0  0  0
  -27.5580  -37.1805   24.8466 C   0  0  0  0  0  0
  -21.4173  -29.3028   22.3685 N   0  0  0  0  0  0
  -26.4295  -37.3758   23.9405 N   0  0  0  0  0  0
  -24.6872  -31.0579   22.0972 N   0  0  0  0  0  0
  -23.4169  -28.8107   23.3013 O   0  0  0  0  0  0
  -28.3657  -26.4940   20.1537 O   0  0  0  0  0  0
  -26.5625  -34.8917   22.4659 O   0  0  0  0  0  0
  -23.5411  -32.1392   23.7334 O   0  0  0  0  0  0
  -28.2048  -20.3790   20.1444 C   0  0  0  0  0  0
  -29.2728  -21.2963   20.3962 C   0  0  0  0  0  0
  -29.6397  -18.4851   20.2670 C   0  0  0  0  0  0
  -30.6981  -19.3949   20.5870 C   0  0  0  0  0  0
  -26.7768  -20.8463   19.9523 C   0  0  0  0  0  0
  -29.4353  -16.0674   22.1439 C   0  0  0  0  0  0
  -29.1939  -22.8789   20.5303 C   0  0  0  0  0  0
  -29.8553  -16.9715   19.8396 C   0  0  0  0  0  0
  -28.1529  -23.7942   19.7410 C   0  0  0  0  0  0
  -28.5380  -25.2914   19.3107 C   0  0  0  0  0  0
  -32.1422  -18.9352   20.8193 C   0  0  0  0  0  0
  -28.3940  -19.0173   20.0645 N   0  0  0  0  0  0
  -30.5039  -20.7591   20.6295 N   0  0  0  0  0  0
  -29.8922  -15.7836   20.7822 N   0  0  0  0  0  0
  -32.2249  -17.6646   21.2076 F   0  0  0  0  0  0
  -32.8407  -19.0881   19.6939 F   0  0  0  0  0  0
  -32.7127  -19.6784   21.7712 F   0  0  0  0  0  0
  -31.4693  -12.4962   19.1755 H   0  0  0  0  0  0
  -30.3434  -11.4056   19.9179 H   0  0  0  0  0  0
  -29.7810  -11.7572   17.4863 H   0  0  0  0  0  0
  -29.6445  -13.4787   17.7542 H   0  0  0  0  0  0
  -27.8791  -11.2806   18.8812 H   0  0  0  0  0  0
  -27.3759  -12.5376   17.7883 H   0  0  0  0  0  0
  -27.6643  -14.2488   19.5039 H   0  0  0  0  0  0
  -28.6934  -12.0541   21.3609 H   0  0  0  0  0  0
  -28.3964  -13.6969   21.8356 H   0  0  0  0  0  0
  -25.2785   -9.5651   22.4784 H   0  0  0  0  0  0
  -24.0001   -7.4615   22.7474 H   0  0  0  0  0  0
  -21.0863   -8.8828   19.8951 H   0  0  0  0  0  0
  -22.3768  -10.9701   19.6173 H   0  0  0  0  0  0
  -21.1991   -7.6169   23.9750 H   0  0  0  0  0  0
  -21.1481   -6.0539   25.9100 H   0  0  0  0  0  0
  -22.0589   -2.7636   23.2850 H   0  0  0  0  0  0
  -22.4078  -11.9873   22.4775 H   0  0  0  0  0  0
  -21.1110  -13.1288   22.2656 H   0  0  0  0  0  0
  -24.6729  -15.8540   20.5382 H   0  0  0  0  0  0
  -26.3027  -15.6298   20.1437 H   0  0  0  0  0  0
  -26.7154  -32.5426   23.1072 H   0  0  0  0  0  0
  -25.0080  -33.9726   25.0418 H   0  0  0  0  0  0
  -22.7115  -31.2974   21.4016 H   0  0  0  0  0  0
  -23.3746  -35.9636   23.3308 H   0  0  0  0  0  0
  -24.3582  -36.8903   22.2050 H   0  0  0  0  0  0
  -23.7258  -37.6499   23.6666 H   0  0  0  0  0  0
  -26.0972  -31.5475   20.6104 H   0  0  0  0  0  0
  -26.8386  -30.8261   22.0086 H   0  0  0  0  0  0
  -28.1098  -28.9730   21.1854 H   0  0  0  0  0  0
  -25.9823  -25.9100   19.0065 H   0  0  0  0  0  0
  -23.9695  -27.2844   19.0242 H   0  0  0  0  0  0
  -23.7596  -30.5872   19.4049 H   0  0  0  0  0  0
  -22.7550  -29.2448   19.8512 H   0  0  0  0  0  0
  -25.1298  -36.1920   25.0816 H   0  0  0  0  0  0
  -21.0002  -28.3185   24.1369 H   0  0  0  0  0  0
  -20.5646  -26.2249   23.3554 H   0  0  0  0  0  0
  -21.6642  -26.7390   22.1181 H   0  0  0  0  0  0
  -19.6919  -25.6258   21.1204 H   0  0  0  0  0  0
  -19.6702  -27.3149   20.6710 H   0  0  0  0  0  0
  -17.4196  -26.6701   21.3982 H   0  0  0  0  0  0
  -18.0288  -26.0020   22.8973 H   0  0  0  0  0  0
  -19.7959  -30.7200   24.2318 H   0  0  0  0  0  0
  -17.5042  -31.6222   24.5187 H   0  0  0  0  0  0
  -15.5386  -30.3002   23.7627 H   0  0  0  0  0  0
  -15.8683  -28.0816   22.7034 H   0  0  0  0  0  0
  -24.5905  -30.7093   25.7790 H   0  0  0  0  0  0
  -24.8968  -32.2903   26.4914 H   0  0  0  0  0  0
  -25.8086  -30.8877   27.0213 H   0  0  0  0  0  0
  -26.2901  -29.6771   24.1199 H   0  0  0  0  0  0
  -27.4023  -29.7251   25.4676 H   0  0  0  0  0  0
  -27.8781  -30.4289   23.9397 H   0  0  0  0  0  0
  -27.2644  -33.3620   26.2086 H   0  0  0  0  0  0
  -28.3858  -32.6920   25.0312 H   0  0  0  0  0  0
  -28.0745  -31.8455   26.5395 H   0  0  0  0  0  0
  -28.2594  -38.0105   24.7482 H   0  0  0  0  0  0
  -28.1079  -36.2624   24.6326 H   0  0  0  0  0  0
  -27.2302  -37.1487   25.8873 H   0  0  0  0  0  0
  -20.9361  -29.8753   21.6881 H   0  0  0  0  0  0
  -26.0175  -38.2834   24.1391 H   0  0  0  0  0  0
  -26.6510  -21.3028   18.9712 H   0  0  0  0  0  0
  -26.5017  -21.5761   20.7140 H   0  0  0  0  0  0
  -26.0774  -20.0130   20.0270 H   0  0  0  0  0  0
  -29.6336  -15.2489   22.8379 H   0  0  0  0  0  0
  -29.9411  -16.9424   22.5481 H   0  0  0  0  0  0
  -28.3626  -16.2633   22.1468 H   0  0  0  0  0  0
  -30.1857  -23.2482   20.2679 H   0  0  0  0  0  0
  -29.0899  -23.1044   21.5916 H   0  0  0  0  0  0
  -29.0474  -16.7382   19.1437 H   0  0  0  0  0  0
  -30.7463  -16.9543   19.2115 H   0  0  0  0  0  0
  -27.1777  -23.7823   20.2241 H   0  0  0  0  0  0
  -27.9971  -23.2787   18.7919 H   0  0  0  0  0  0
  -28.0573  -25.4956   18.3526 H   0  0  0  0  0  0
  -29.5953  -25.2753   19.0427 H   0  0  0  0  0  0
  1 25  1  0  0  0
  1 30  2  0  0  0
  1 84  1  0  0  0
  2  3  1  0  0  0
  2 25  1  0  0  0
  2 88  1  0  0  0
  2 89  1  0  0  0
  3  4  1  0  0  0
  3 90  1  0  0  0
  3 91  1  0  0  0
  4  5  1  0  0  0
  4 92  1  0  0  0
  4 93  1  0  0  0
  5  6  1  0  0  0
  5 26  1  0  0  0
  5 94  1  0  0  0
  6 25  1  0  0  0
  6 95  1  0  0  0
  6 96  1  0  0  0
  7  8  2  0  0  0
  7 26  1  0  0  0
  7 29  1  0  0  0
  8  9  1  0  0  0
  8 22  1  0  0  0
  9 10  1  0  0  0
  9 27  2  0  0  0
 10 11  2  0  0  0
 10 15  1  0  0  0
 11 12  1  0  0  0
 11 97  1  0  0  0
 12 13  2  0  0  0
 12 98  1  0  0  0
 13 14  1  0  0  0
 13 31  1  0  0  0
 14 15  2  0  0  0
 14 99  1  0  0  0
 15100  1  0  0  0
 16 17  2  0  0  0
 16 21  1  0  0  0
 16 31  1  0  0  0
 17 18  1  0  0  0
 17101  1  0  0  0
 18 19  2  0  0  0
 18102  1  0  0  0
 19 20  1  0  0  0
 19 24  1  0  0  0
 20 21  2  0  0  0
 20103  1  0  0  0
 21 23  1  0  0  0
 22 28  1  0  0  0
 22 32  2  0  0  0
 26 27  1  0  0  0
 28104  1  0  0  0
 28105  1  0  0  0
 29106  1  0  0  0
 29107  1  0  0  0
 33 34  1  0  0  0
 33 66  1  0  0  0
 33 70  2  0  0  0
 34 36  1  0  0  0
 34 59  1  0  0  0
 34108  1  0  0  0
 35 44  2  0  0  0
 35 45  1  0  0  0
 35 68  1  0  0  0
 36 56  1  0  0  0
 36109  1  0  0  0
 37 39  1  0  0  0
 37 47  1  0  0  0
 37 66  1  0  0  0
 37110  1  0  0  0
 38 43  2  0  0  0
 38 46  1  0  0  0
 38 47  1  0  0  0
 39 64  1  0  0  0
 39 67  2  0  0  0
 40 52  1  0  0  0
 40 53  2  0  0  0
 40 58  1  0  0  0
 41111  1  0  0  0
 41112  1  0  0  0
 41113  1  0  0  0
 41 48  1  0  0  0
 42 43  1  0  0  0
 42 66  1  0  0  0
 42114  1  0  0  0
 42115  1  0  0  0
 43 44  1  0  0  0
 44116  1  0  0  0
 45 46  2  0  0  0
 45117  1  0  0  0
 46118  1  0  0  0
 47119  1  0  0  0
 47120  1  0  0  0
 48 56  1  0  0  0
 48 65  1  0  0  0
 48121  1  0  0  0
 49 50  1  0  0  0
 49 53  1  0  0  0
 49 64  1  0  0  0
 49122  1  0  0  0
 50 51  1  0  0  0
 50123  1  0  0  0
 50124  1  0  0  0
 51 52  1  0  0  0
 51125  1  0  0  0
 51126  1  0  0  0
 52127  1  0  0  0
 52128  1  0  0  0
 53 54  1  0  0  0
 54 55  2  0  0  0
 54129  1  0  0  0
 55 57  1  0  0  0
 55130  1  0  0  0
 56 69  2  0  0  0
 57 58  2  0  0  0
 57131  1  0  0  0
 58132  1  0  0  0
 59 60  1  0  0  0
 59 61  1  0  0  0
 59 62  1  0  0  0
 60133  1  0  0  0
 60134  1  0  0  0
 60135  1  0  0  0
 61136  1  0  0  0
 61137  1  0  0  0
 61138  1  0  0  0
 62139  1  0  0  0
 62140  1  0  0  0
 62141  1  0  0  0
 63 65  1  0  0  0
 63142  1  0  0  0
 63143  1  0  0  0
 63144  1  0  0  0
 64145  1  0  0  0
 65146  1  0  0  0
 68 80  1  0  0  0
 71 72  2  0  0  0
 71 75  1  0  0  0
 71 82  1  0  0  0
 72 77  1  0  0  0
 72 83  1  0  0  0
 73 74  1  0  0  0
 73 78  1  0  0  0
 73 82  2  0  0  0
 74 81  1  0  0  0
 74 83  2  0  0  0
 75147  1  0  0  0
 75148  1  0  0  0
 75149  1  0  0  0
 76 84  1  0  0  0
 76150  1  0  0  0
 76151  1  0  0  0
 76152  1  0  0  0
 77 79  1  0  0  0
 77153  1  0  0  0
 77154  1  0  0  0
 78 84  1  0  0  0
 78155  1  0  0  0
 78156  1  0  0  0
 79 80  1  0  0  0
 79157  1  0  0  0
 79158  1  0  0  0
 80159  1  0  0  0
 80160  1  0  0  0
 81 85  1  0  0  0
 81 86  1  0  0  0
 81 87  1  0  0  0
M  ISO  4   1 100  68 101  80 101  84 100
M  END
> <chiral flag>
0

> <version>
0

> <s_m_source_file>
/data/baiqing/PycharmProjects/Reinvent-master-3.2/result/LINK_invent/BTK/process_docking_weight1_custom_sum_contain_oxygen_bond_distance_aromatic_linkinvent_7_9_3/rearranged_h_0064.sdf

> <i_m_source_file_index>
53

> <r_mmod_Potential_Energy-OPLS-2005>
341.29296875

> <r_mmod_Stretch_Energy-OPLS-2005>
98.6341552734375

> <r_mmod_Bend_Energy-OPLS-2005>
189.021041870117

> <r_mmod_Torsional_Energy-OPLS-2005>
274.078887939453

> <r_mmod_Improper_Torsional_Energy-OPLS-2005>
11.3176240921021

> <r_mmod_Van_der_Waal_Energy-OPLS-2005>
142.592880249023

> <r_mmod_Electrostatic_Energy-OPLS-2005>
-228.411834716797

> <r_mmod_Solvation_Energy-OPLS-2005>
-194.134994506836

> <b_mmod_Minimization_Converged-OPLS-2005>
0

> <r_mmod_RMS_Derivative-OPLS-2005>
2.78044033050537

$$$$
54
                    3D
 Structure written by MMmdl.
174182  0  0  1  0            999 V2000
  -30.7818  -14.6013   20.4408 C   0  0  0  0  0  0
  -30.3912  -12.3756   19.4372 C   0  0  0  0  0  0
  -29.4702  -12.4920   18.2114 C   0  0  0  0  0  0
  -28.0036  -12.3346   18.6443 C   0  0  0  0  0  0
  -27.6422  -13.2293   19.8609 C   0  0  2  0  0  0
  -28.7127  -13.1137   20.9680 C   0  0  0  0  0  0
  -25.2470  -13.8137   20.5747 C   0  0  0  0  0  0
  -24.1800  -13.0366   20.9283 C   0  0  0  0  0  0
  -24.6412  -11.6868   20.8837 C   0  0  0  0  0  0
  -23.9079  -10.4238   21.0471 C   0  0  0  0  0  0
  -24.3593   -9.4148   21.9253 C   0  0  0  0  0  0
  -23.6250   -8.2198   22.0770 C   0  0  0  0  0  0
  -22.4251   -8.0256   21.3556 C   0  0  0  0  0  0
  -21.9920   -9.0241   20.4660 C   0  0  0  0  0  0
  -22.7264  -10.2110   20.3098 C   0  0  0  0  0  0
  -21.6815   -6.0730   22.5300 C   0  0  0  0  0  0
  -21.3986   -6.5632   23.8233 C   0  0  0  0  0  0
  -21.3688   -5.6798   24.9202 C   0  0  0  0  0  0
  -21.6052   -4.3060   24.7242 C   0  0  0  0  0  0
  -21.8811   -3.8134   23.4377 C   0  0  0  0  0  0
  -21.9170   -4.6943   22.3422 C   0  0  0  0  0  0
  -22.7828  -13.5176   21.1903 C   0  0  0  0  0  0
  -22.1673   -4.2141   21.1003 F   0  0  0  0  0  0
  -21.5617   -3.4545   25.7762 F   0  0  0  0  0  0
  -30.0011  -13.4666   20.3690 N   0  0  0  0  0  0
  -26.2963  -12.9416   20.3487 N   0  0  0  0  0  0
  -25.9363  -11.6538   20.5917 N   0  0  0  0  0  0
  -22.0449  -12.8151   22.0430 N   0  0  0  0  0  0
  -25.3867  -15.1817   20.3999 N   0  0  0  0  0  0
  -31.9806  -14.3999   20.2681 O   0  0  0  0  0  0
  -21.6573   -6.8872   21.4274 O   0  0  0  0  0  0
  -22.3557  -14.5525   20.6784 O   0  0  0  0  0  0
  -24.6203  -31.8651   23.2096 C   0  0  0  0  0  0
  -25.9093  -32.4820   23.8386 C   0  0  1  0  0  0
  -27.2143  -27.3817   20.1148 C   0  0  0  0  0  0
  -25.5924  -33.8611   24.2316 N   0  0  0  0  0  0
  -23.4103  -30.4883   21.5510 C   0  0  2  0  0  0
  -24.8553  -28.9496   20.1129 C   0  0  0  0  0  0
  -22.7487  -29.4635   22.4999 C   0  0  0  0  0  0
  -18.0367  -28.1387   22.8466 C   0  0  0  0  0  0
  -24.1491  -36.7300   23.2636 C   0  0  0  0  0  0
  -25.9439  -30.8124   21.3739 C   0  0  0  0  0  0
  -26.0175  -29.4437   20.7200 C   0  0  0  0  0  0
  -27.2039  -28.6639   20.7238 C   0  0  0  0  0  0
  -26.0462  -26.9304   19.4706 C   0  0  0  0  0  0
  -24.8642  -27.6909   19.4867 C   0  0  0  0  0  0
  -23.6208  -29.8239   20.1648 C   0  0  0  0  0  0
  -25.4108  -36.3097   24.0339 C   0  0  1  0  0  0
  -20.5929  -28.3699   23.1354 C   0  0  2  0  0  0
  -20.6861  -26.9457   22.5423 C   0  0  0  0  0  0
  -19.5916  -26.6523   21.5114 C   0  0  0  0  0  0
  -18.2081  -26.7962   22.1538 C   0  0  0  0  0  0
  -19.1586  -28.8862   23.2935 C   0  0  0  0  0  0
  -18.9466  -30.1463   23.8934 C   0  0  0  0  0  0
  -17.6450  -30.6568   24.0556 C   0  0  0  0  0  0
  -25.9036  -34.9469   23.5122 C   0  0  0  0  0  0
  -16.5362  -29.9029   23.6332 C   0  0  0  0  0  0
  -16.7333  -28.6440   23.0362 C   0  0  0  0  0  0
  -26.4495  -31.6632   25.0747 C   0  0  0  0  0  0
  -25.3763  -31.3784   26.1503 C   0  0  0  0  0  0
  -27.0324  -30.3057   24.6197 C   0  0  0  0  0  0
  -27.6050  -32.4357   25.7547 C   0  0  0  0  0  0
  -27.5580  -37.1810   24.8462 C   0  0  0  0  0  0
  -21.4202  -29.3083   22.3798 N   0  0  0  0  0  0
  -26.4291  -37.3779   23.9408 N   0  0  0  0  0  0
  -24.6770  -31.0714   22.1026 N   0  0  0  0  0  0
  -23.4269  -28.8111   23.2985 O   0  0  0  0  0  0
  -28.3068  -26.5345   20.1676 O   0  0  0  0  0  0
  -26.5593  -34.8921   22.4684 O   0  0  0  0  0  0
  -23.5394  -32.1399   23.7480 O   0  0  0  0  0  0
  -26.8510  -17.6707   18.5528 C   0  0  0  0  0  0
  -27.8019  -18.9287   19.9556 C   0  0  0  0  0  0
  -28.3851  -16.2241   22.1818 C   0  0  0  0  0  0
  -28.0848  -20.0597   22.2566 C   0  0  0  0  0  0
  -31.6431  -16.8661   21.1746 C   0  0  0  0  0  0
  -25.7920  -23.5559   20.2099 C   0  0  0  0  0  0
  -26.7160  -22.9316   22.4005 C   0  0  0  0  0  0
  -28.2440  -23.9371   20.5613 C   0  0  0  0  0  0
  -28.1538  -25.4239   21.1016 C   0  0  0  0  0  0
  -29.1591  -16.9238   21.0595 C   0  0  1  0  0  0
  -28.1558  -20.2500   20.7291 C   0  0  2  0  0  0
  -30.4454  -16.1869   20.4034 C   0  0  2  0  0  0
  -27.0525  -22.9428   20.8880 C   0  0  0  0  0  0
  -27.1924  -21.4596   20.2774 C   0  0  0  0  0  0
  -30.6581  -16.6259   18.8995 C   0  0  0  0  0  0
  -26.9805  -18.9732   18.8981 N   0  0  0  0  0  0
  -27.5533  -16.8284   19.2891 N   0  0  0  0  0  0
  -28.2299  -17.6301   20.1473 N   0  0  0  0  0  0
  -29.4146  -20.6024   20.4578 F   0  0  0  0  0  0
  -27.3919  -21.6547   18.9696 F   0  0  0  0  0  0
  -25.9705  -20.9432   20.4409 F   0  0  0  0  0  0
  -29.8308  -15.9990   18.0631 F   0  0  0  0  0  0
  -31.8848  -16.3446   18.4549 F   0  0  0  0  0  0
  -30.5193  -17.9426   18.7308 F   0  0  0  0  0  0
  -31.4329  -12.4049   19.1134 H   0  0  0  0  0  0
  -30.2732  -11.3929   19.9005 H   0  0  0  0  0  0
  -29.7290  -11.7383   17.4681 H   0  0  0  0  0  0
  -29.6101  -13.4561   17.7220 H   0  0  0  0  0  0
  -27.8566  -11.2854   18.9094 H   0  0  0  0  0  0
  -27.3366  -12.5376   17.8073 H   0  0  0  0  0  0
  -27.6497  -14.2530   19.4991 H   0  0  0  0  0  0
  -28.7442  -12.0872   21.3343 H   0  0  0  0  0  0
  -28.5170  -13.6845   21.8638 H   0  0  0  0  0  0
  -25.2741   -9.5568   22.4844 H   0  0  0  0  0  0
  -23.9936   -7.4561   22.7478 H   0  0  0  0  0  0
  -21.0864   -8.8803   19.8926 H   0  0  0  0  0  0
  -22.3793  -10.9672   19.6189 H   0  0  0  0  0  0
  -21.1963   -7.6128   23.9763 H   0  0  0  0  0  0
  -21.1555   -6.0511   25.9123 H   0  0  0  0  0  0
  -22.0549   -2.7591   23.2893 H   0  0  0  0  0  0
  -22.4056  -11.9763   22.4732 H   0  0  0  0  0  0
  -21.1139  -13.1301   22.2774 H   0  0  0  0  0  0
  -24.5956  -15.8100   20.4849 H   0  0  0  0  0  0
  -26.2267  -15.6388   20.0466 H   0  0  0  0  0  0
  -26.7147  -32.5515   23.1126 H   0  0  0  0  0  0
  -25.0131  -33.9760   25.0501 H   0  0  0  0  0  0
  -22.6985  -31.3044   21.4129 H   0  0  0  0  0  0
  -23.3742  -35.9643   23.3317 H   0  0  0  0  0  0
  -24.3567  -36.8896   22.2043 H   0  0  0  0  0  0
  -23.7265  -37.6524   23.6629 H   0  0  0  0  0  0
  -26.0666  -31.5749   20.6034 H   0  0  0  0  0  0
  -26.8302  -30.8585   21.9965 H   0  0  0  0  0  0
  -28.0923  -29.0236   21.2223 H   0  0  0  0  0  0
  -26.0430  -25.9721   18.9751 H   0  0  0  0  0  0
  -23.9698  -27.2998   19.0193 H   0  0  0  0  0  0
  -23.7403  -30.5994   19.4077 H   0  0  0  0  0  0
  -22.7425  -29.2509   19.8624 H   0  0  0  0  0  0
  -25.1288  -36.1948   25.0828 H   0  0  0  0  0  0
  -21.0005  -28.3236   24.1485 H   0  0  0  0  0  0
  -20.5654  -26.2265   23.3530 H   0  0  0  0  0  0
  -21.6783  -26.7514   22.1309 H   0  0  0  0  0  0
  -19.7158  -25.6494   21.1043 H   0  0  0  0  0  0
  -19.6920  -27.3379   20.6697 H   0  0  0  0  0  0
  -17.4351  -26.6673   21.3948 H   0  0  0  0  0  0
  -18.0632  -26.0060   22.8906 H   0  0  0  0  0  0
  -19.7899  -30.7334   24.2315 H   0  0  0  0  0  0
  -17.4930  -31.6277   24.5099 H   0  0  0  0  0  0
  -15.5344  -30.2879   23.7643 H   0  0  0  0  0  0
  -15.8753  -28.0743   22.7077 H   0  0  0  0  0  0
  -24.5908  -30.7149   25.7882 H   0  0  0  0  0  0
  -24.8992  -32.2967   26.4945 H   0  0  0  0  0  0
  -25.8120  -30.8979   27.0274 H   0  0  0  0  0  0
  -26.2900  -29.6840   24.1187 H   0  0  0  0  0  0
  -27.3976  -29.7284   25.4703 H   0  0  0  0  0  0
  -27.8782  -30.4333   23.9436 H   0  0  0  0  0  0
  -27.2636  -33.3626   26.2166 H   0  0  0  0  0  0
  -28.3876  -32.6983   25.0419 H   0  0  0  0  0  0
  -28.0700  -31.8467   26.5463 H   0  0  0  0  0  0
  -28.2608  -38.0097   24.7485 H   0  0  0  0  0  0
  -28.1063  -36.2628   24.6302 H   0  0  0  0  0  0
  -27.2292  -37.1485   25.8863 H   0  0  0  0  0  0
  -20.9415  -29.8832   21.7024 H   0  0  0  0  0  0
  -26.0179  -38.2861   24.1387 H   0  0  0  0  0  0
  -26.2084  -17.3332   17.7536 H   0  0  0  0  0  0
  -27.6416  -15.5360   21.7908 H   0  0  0  0  0  0
  -27.8157  -16.9510   22.7623 H   0  0  0  0  0  0
  -29.0473  -15.7069   22.8743 H   0  0  0  0  0  0
  -27.0673  -19.8511   22.5874 H   0  0  0  0  0  0
  -28.4492  -20.9441   22.7690 H   0  0  0  0  0  0
  -28.7225  -19.2697   22.6342 H   0  0  0  0  0  0
  -31.6384  -17.9501   21.0669 H   0  0  0  0  0  0
  -32.6341  -16.5882   20.8184 H   0  0  0  0  0  0
  -31.6103  -16.6377   22.2392 H   0  0  0  0  0  0
  -25.5414  -24.5330   20.6105 H   0  0  0  0  0  0
  -24.8940  -22.9618   20.3630 H   0  0  0  0  0  0
  -25.9260  -23.6610   19.1338 H   0  0  0  0  0  0
  -26.2321  -23.8540   22.7169 H   0  0  0  0  0  0
  -27.5878  -22.8297   23.0400 H   0  0  0  0  0  0
  -26.0093  -22.1383   22.6488 H   0  0  0  0  0  0
  -29.1633  -23.4925   20.9498 H   0  0  0  0  0  0
  -28.4004  -23.9677   19.4841 H   0  0  0  0  0  0
  -28.9551  -25.5510   21.8301 H   0  0  0  0  0  0
  -27.2528  -25.5598   21.7006 H   0  0  0  0  0  0
  -29.5889  -17.7550   21.5995 H   0  0  0  0  0  0
  1 25  1  0  0  0
  1 30  2  0  0  0
  1 82  1  0  0  0
  2  3  1  0  0  0
  2 25  1  0  0  0
  2 95  1  0  0  0
  2 96  1  0  0  0
  3  4  1  0  0  0
  3 97  1  0  0  0
  3 98  1  0  0  0
  4  5  1  0  0  0
  4 99  1  0  0  0
  4100  1  0  0  0
  5  6  1  0  0  0
  5 26  1  0  0  0
  5101  1  0  0  0
  6 25  1  0  0  0
  6102  1  0  0  0
  6103  1  0  0  0
  7  8  2  0  0  0
  7 26  1  0  0  0
  7 29  1  0  0  0
  8  9  1  0  0  0
  8 22  1  0  0  0
  9 10  1  0  0  0
  9 27  2  0  0  0
 10 11  2  0  0  0
 10 15  1  0  0  0
 11 12  1  0  0  0
 11104  1  0  0  0
 12 13  2  0  0  0
 12105  1  0  0  0
 13 14  1  0  0  0
 13 31  1  0  0  0
 14 15  2  0  0  0
 14106  1  0  0  0
 15107  1  0  0  0
 16 17  2  0  0  0
 16 21  1  0  0  0
 16 31  1  0  0  0
 17 18  1  0  0  0
 17108  1  0  0  0
 18 19  2  0  0  0
 18109  1  0  0  0
 19 20  1  0  0  0
 19 24  1  0  0  0
 20 21  2  0  0  0
 20110  1  0  0  0
 21 23  1  0  0  0
 22 28  1  0  0  0
 22 32  2  0  0  0
 26 27  1  0  0  0
 28111  1  0  0  0
 28112  1  0  0  0
 29113  1  0  0  0
 29114  1  0  0  0
 33 34  1  0  0  0
 33 66  1  0  0  0
 33 70  2  0  0  0
 34 36  1  0  0  0
 34 59  1  0  0  0
 34115  1  0  0  0
 35 44  2  0  0  0
 35 45  1  0  0  0
 35 68  1  0  0  0
 36 56  1  0  0  0
 36116  1  0  0  0
 37 39  1  0  0  0
 37 47  1  0  0  0
 37 66  1  0  0  0
 37117  1  0  0  0
 38 43  2  0  0  0
 38 46  1  0  0  0
 38 47  1  0  0  0
 39 64  1  0  0  0
 39 67  2  0  0  0
 40 52  1  0  0  0
 40 53  2  0  0  0
 40 58  1  0  0  0
 41118  1  0  0  0
 41119  1  0  0  0
 41120  1  0  0  0
 41 48  1  0  0  0
 42 43  1  0  0  0
 42 66  1  0  0  0
 42121  1  0  0  0
 42122  1  0  0  0
 43 44  1  0  0  0
 44123  1  0  0  0
 45 46  2  0  0  0
 45124  1  0  0  0
 46125  1  0  0  0
 47126  1  0  0  0
 47127  1  0  0  0
 48 56  1  0  0  0
 48 65  1  0  0  0
 48128  1  0  0  0
 49 50  1  0  0  0
 49 53  1  0  0  0
 49 64  1  0  0  0
 49129  1  0  0  0
 50 51  1  0  0  0
 50130  1  0  0  0
 50131  1  0  0  0
 51 52  1  0  0  0
 51132  1  0  0  0
 51133  1  0  0  0
 52134  1  0  0  0
 52135  1  0  0  0
 53 54  1  0  0  0
 54 55  2  0  0  0
 54136  1  0  0  0
 55 57  1  0  0  0
 55137  1  0  0  0
 56 69  2  0  0  0
 57 58  2  0  0  0
 57138  1  0  0  0
 58139  1  0  0  0
 59 60  1  0  0  0
 59 61  1  0  0  0
 59 62  1  0  0  0
 60140  1  0  0  0
 60141  1  0  0  0
 60142  1  0  0  0
 61143  1  0  0  0
 61144  1  0  0  0
 61145  1  0  0  0
 62146  1  0  0  0
 62147  1  0  0  0
 62148  1  0  0  0
 63 65  1  0  0  0
 63149  1  0  0  0
 63150  1  0  0  0
 63151  1  0  0  0
 64152  1  0  0  0
 65153  1  0  0  0
 68 79  1  0  0  0
 71 86  1  0  0  0
 71 87  2  0  0  0
 71154  1  0  0  0
 72 81  1  0  0  0
 72 86  2  0  0  0
 72 88  1  0  0  0
 73155  1  0  0  0
 73156  1  0  0  0
 73157  1  0  0  0
 73 80  1  0  0  0
 74158  1  0  0  0
 74159  1  0  0  0
 74160  1  0  0  0
 74 81  1  0  0  0
 75161  1  0  0  0
 75162  1  0  0  0
 75163  1  0  0  0
 75 82  1  0  0  0
 76164  1  0  0  0
 76165  1  0  0  0
 76166  1  0  0  0
 76 83  1  0  0  0
 77 83  1  0  0  0
 77167  1  0  0  0
 77168  1  0  0  0
 77169  1  0  0  0
 78 79  1  0  0  0
 78 83  1  0  0  0
 78170  1  0  0  0
 78171  1  0  0  0
 79172  1  0  0  0
 79173  1  0  0  0
 80 82  1  0  0  0
 80 88  1  0  0  0
 80174  1  0  0  0
 81 84  1  0  0  0
 81 89  1  0  0  0
 82 85  1  0  0  0
 83 84  1  0  0  0
 84 90  1  0  0  0
 84 91  1  0  0  0
 85 92  1  0  0  0
 85 93  1  0  0  0
 85 94  1  0  0  0
 87 88  1  0  0  0
M  ISO  4   1 100  68 101  79 101  82 100
M  END
> <chiral flag>
0

> <version>
0

> <s_m_source_file>
/data/baiqing/PycharmProjects/Reinvent-master-3.2/result/LINK_invent/BTK/process_docking_weight1_custom_sum_contain_oxygen_bond_distance_aromatic_linkinvent_7_9_3/rearranged_h_0064.sdf

> <i_m_source_file_index>
54

> <r_mmod_Potential_Energy-OPLS-2005>
493.795166015625

> <r_mmod_Stretch_Energy-OPLS-2005>
102.905899047852

> <r_mmod_Bend_Energy-OPLS-2005>
284.094757080078

> <r_mmod_Torsional_Energy-OPLS-2005>
290.637084960938

> <r_mmod_Improper_Torsional_Energy-OPLS-2005>
7.25562906265259

> <r_mmod_Van_der_Waal_Energy-OPLS-2005>
179.371871948242

> <r_mmod_Electrostatic_Energy-OPLS-2005>
-248.392105102539

> <r_mmod_Solvation_Energy-OPLS-2005>
-180.138290405273

> <b_mmod_Minimization_Converged-OPLS-2005>
0

> <r_mmod_RMS_Derivative-OPLS-2005>
4.89658689498901

$$$$
56
                    3D
 Structure written by MMmdl.
160168  0  0  1  0            999 V2000
  -30.5039  -15.0290   20.4661 C   0  0  0  0  0  0
  -30.4713  -12.6597   19.4941 C   0  0  0  0  0  0
  -29.5246  -12.5687   18.2703 C   0  0  0  0  0  0
  -28.0554  -12.3515   18.6923 C   0  0  0  0  0  0
  -27.6455  -13.2444   19.8914 C   0  0  2  0  0  0
  -28.7132  -13.1816   21.0057 C   0  0  0  0  0  0
  -25.2462  -13.8171   20.5772 C   0  0  0  0  0  0
  -24.1750  -13.0450   20.9267 C   0  0  0  0  0  0
  -24.6356  -11.6926   20.8842 C   0  0  0  0  0  0
  -23.9035  -10.4313   21.0445 C   0  0  0  0  0  0
  -24.3605   -9.4216   21.9202 C   0  0  0  0  0  0
  -23.6319   -8.2231   22.0787 C   0  0  0  0  0  0
  -22.4322   -8.0216   21.3545 C   0  0  0  0  0  0
  -21.9917   -9.0193   20.4678 C   0  0  0  0  0  0
  -22.7205  -10.2103   20.3082 C   0  0  0  0  0  0
  -21.6851   -6.0705   22.5253 C   0  0  0  0  0  0
  -21.3979   -6.5638   23.8176 C   0  0  0  0  0  0
  -21.3691   -5.6805   24.9157 C   0  0  0  0  0  0
  -21.6074   -4.3074   24.7204 C   0  0  0  0  0  0
  -21.8832   -3.8132   23.4340 C   0  0  0  0  0  0
  -21.9180   -4.6929   22.3381 C   0  0  0  0  0  0
  -22.7745  -13.5245   21.1857 C   0  0  0  0  0  0
  -22.1624   -4.2119   21.0953 F   0  0  0  0  0  0
  -21.5726   -3.4571   25.7738 F   0  0  0  0  0  0
  -29.9501  -13.7269   20.4103 N   0  0  0  0  0  0
  -26.2966  -12.9411   20.3590 N   0  0  0  0  0  0
  -25.9353  -11.6562   20.6017 N   0  0  0  0  0  0
  -22.0409  -12.8232   22.0423 N   0  0  0  0  0  0
  -25.4148  -15.1839   20.3907 N   0  0  0  0  0  0
  -31.6788  -15.1057   20.0846 O   0  0  0  0  0  0
  -21.6669   -6.8820   21.4212 O   0  0  0  0  0  0
  -22.3431  -14.5548   20.6700 O   0  0  0  0  0  0
  -24.6472  -31.8388   23.1819 C   0  0  0  0  0  0
  -25.9208  -32.4699   23.8219 C   0  0  1  0  0  0
  -27.2114  -27.0891   20.1162 C   0  0  0  0  0  0
  -25.5939  -33.8501   24.2120 N   0  0  0  0  0  0
  -23.4558  -30.4563   21.5285 C   0  0  2  0  0  0
  -24.9031  -28.8847   20.0992 C   0  0  0  0  0  0
  -22.7574  -29.4504   22.4818 C   0  0  0  0  0  0
  -18.0294  -28.1385   22.8490 C   0  0  0  0  0  0
  -24.1486  -36.7255   23.2642 C   0  0  0  0  0  0
  -26.0168  -30.6896   21.3977 C   0  0  0  0  0  0
  -26.0818  -29.2994   20.7313 C   0  0  0  0  0  0
  -27.2308  -28.4114   20.7326 C   0  0  0  0  0  0
  -26.0078  -26.8016   19.4346 C   0  0  0  0  0  0
  -24.8783  -27.6488   19.4409 C   0  0  0  0  0  0
  -23.6816  -29.7857   20.1483 C   0  0  0  0  0  0
  -25.4133  -36.3042   24.0308 C   0  0  1  0  0  0
  -20.5912  -28.3708   23.1235 C   0  0  2  0  0  0
  -20.6805  -26.9406   22.5417 C   0  0  0  0  0  0
  -19.5774  -26.6357   21.5225 C   0  0  0  0  0  0
  -18.1937  -26.7929   22.1618 C   0  0  0  0  0  0
  -19.1551  -28.8862   23.2852 C   0  0  0  0  0  0
  -18.9480  -30.1462   23.8875 C   0  0  0  0  0  0
  -17.6481  -30.6599   24.0549 C   0  0  0  0  0  0
  -25.9088  -34.9439   23.5034 C   0  0  0  0  0  0
  -16.5360  -29.9095   23.6362 C   0  0  0  0  0  0
  -16.7271  -28.6503   23.0389 C   0  0  0  0  0  0
  -26.4504  -31.6607   25.0695 C   0  0  0  0  0  0
  -25.3640  -31.3850   26.1365 C   0  0  0  0  0  0
  -27.0391  -30.2991   24.6354 C   0  0  0  0  0  0
  -27.6006  -32.4405   25.7482 C   0  0  0  0  0  0
  -27.5575  -37.1776   24.8438 C   0  0  0  0  0  0
  -21.4258  -29.3034   22.3597 N   0  0  0  0  0  0
  -26.4271  -37.3781   23.9419 N   0  0  0  0  0  0
  -24.7273  -31.0164   22.0926 N   0  0  0  0  0  0
  -23.4196  -28.8027   23.2968 O   0  0  0  0  0  0
  -28.2452  -26.0627   20.1928 O   0  0  0  0  0  0
  -26.5650  -34.8943   22.4600 O   0  0  0  0  0  0
  -23.5586  -32.1253   23.7012 O   0  0  0  0  0  0
  -29.8188  -22.8350   20.9884 C   0  0  0  0  0  0
  -28.7645  -23.1588   20.1469 C   0  0  0  0  0  0
  -29.2069  -20.7594   20.1836 C   0  0  0  0  0  0
  -29.0427  -18.8940   18.4183 C   0  0  0  0  0  0
  -27.5864  -18.8140   20.4375 C   0  0  0  0  0  0
  -31.0501  -20.7428   21.7937 C   0  0  0  0  0  0
  -28.8697  -16.1607   21.9269 C   0  0  0  0  0  0
  -27.9659  -24.5715   19.7710 C   0  0  0  0  0  0
  -30.0689  -17.8160   20.5317 C   0  0  0  0  0  0
  -29.0326  -19.0918   19.9552 C   0  0  0  0  0  0
  -30.0493  -21.4436   20.9917 N   0  0  0  0  0  0
  -28.4500  -21.8281   19.6823 N   0  3  0  0  0  0
  -29.7374  -16.2405   20.7362 N   0  0  0  0  0  0
  -31.4874  -12.8703   19.1444 H   0  0  0  0  0  0
  -30.5521  -11.6957   19.9988 H   0  0  0  0  0  0
  -29.8499  -11.7732   17.5985 H   0  0  0  0  0  0
  -29.5972  -13.5015   17.7119 H   0  0  0  0  0  0
  -27.9467  -11.3013   18.9660 H   0  0  0  0  0  0
  -27.3769  -12.5187   17.8556 H   0  0  0  0  0  0
  -27.6270  -14.2718   19.5271 H   0  0  0  0  0  0
  -28.8571  -12.1476   21.3270 H   0  0  0  0  0  0
  -28.4139  -13.6918   21.9165 H   0  0  0  0  0  0
  -25.2773   -9.5731   22.4734 H   0  0  0  0  0  0
  -24.0091   -7.4649   22.7500 H   0  0  0  0  0  0
  -21.0881   -8.8615   19.8993 H   0  0  0  0  0  0
  -22.3623  -10.9589   19.6165 H   0  0  0  0  0  0
  -21.1919   -7.6140   23.9638 H   0  0  0  0  0  0
  -21.1540   -6.0562   25.9056 H   0  0  0  0  0  0
  -22.0611   -2.7587   23.2823 H   0  0  0  0  0  0
  -22.4142  -11.9976   22.4837 H   0  0  0  0  0  0
  -21.0990  -13.1151   22.2720 H   0  0  0  0  0  0
  -24.6223  -15.8156   20.3840 H   0  0  0  0  0  0
  -26.2245  -15.5461   19.9091 H   0  0  0  0  0  0
  -26.7263  -32.5273   23.0926 H   0  0  0  0  0  0
  -25.0127  -33.9599   25.0299 H   0  0  0  0  0  0
  -22.7662  -31.2896   21.3701 H   0  0  0  0  0  0
  -23.3797  -35.9531   23.3251 H   0  0  0  0  0  0
  -24.3594  -36.8943   22.2065 H   0  0  0  0  0  0
  -23.7183  -37.6415   23.6723 H   0  0  0  0  0  0
  -26.1840  -31.4470   20.6295 H   0  0  0  0  0  0
  -26.8862  -30.7332   22.0453 H   0  0  0  0  0  0
  -28.1224  -28.7088   21.2630 H   0  0  0  0  0  0
  -25.8869  -25.8777   18.8891 H   0  0  0  0  0  0
  -23.9769  -27.3425   18.9266 H   0  0  0  0  0  0
  -23.8130  -30.5522   19.3844 H   0  0  0  0  0  0
  -22.7986  -29.2186   19.8481 H   0  0  0  0  0  0
  -25.1335  -36.1837   25.0802 H   0  0  0  0  0  0
  -21.0003  -28.3283   24.1359 H   0  0  0  0  0  0
  -20.5700  -26.2297   23.3629 H   0  0  0  0  0  0
  -21.6664  -26.7421   22.1195 H   0  0  0  0  0  0
  -19.6924  -25.6246   21.1288 H   0  0  0  0  0  0
  -19.6723  -27.3170   20.6753 H   0  0  0  0  0  0
  -17.4217  -26.6661   21.4007 H   0  0  0  0  0  0
  -18.0302  -26.0076   22.9007 H   0  0  0  0  0  0
  -19.7957  -30.7278   24.2217 H   0  0  0  0  0  0
  -17.5053  -31.6295   24.5128 H   0  0  0  0  0  0
  -15.5358  -30.3001   23.7755 H   0  0  0  0  0  0
  -15.8648  -28.0837   22.7141 H   0  0  0  0  0  0
  -24.5760  -30.7283   25.7650 H   0  0  0  0  0  0
  -24.8900  -32.3083   26.4725 H   0  0  0  0  0  0
  -25.7857  -30.8998   27.0174 H   0  0  0  0  0  0
  -26.3019  -29.6703   24.1341 H   0  0  0  0  0  0
  -27.3957  -29.7324   25.4967 H   0  0  0  0  0  0
  -27.8972  -30.4241   23.9740 H   0  0  0  0  0  0
  -27.2558  -33.3740   26.1962 H   0  0  0  0  0  0
  -28.3868  -32.6914   25.0340 H   0  0  0  0  0  0
  -28.0629  -31.8584   26.5468 H   0  0  0  0  0  0
  -28.2539  -38.0128   24.7631 H   0  0  0  0  0  0
  -28.1114  -36.2674   24.6096 H   0  0  0  0  0  0
  -27.2302  -37.1238   25.8832 H   0  0  0  0  0  0
  -20.9436  -29.8731   21.6785 H   0  0  0  0  0  0
  -26.0114  -38.2820   24.1523 H   0  0  0  0  0  0
  -30.3995  -23.5044   21.6075 H   0  0  0  0  0  0
  -28.3049  -19.5150   17.9088 H   0  0  0  0  0  0
  -28.8298  -17.8630   18.1374 H   0  0  0  0  0  0
  -30.0097  -19.1492   17.9803 H   0  0  0  0  0  0
  -26.8599  -19.4448   19.9194 H   0  0  0  0  0  0
  -27.4690  -19.0297   21.4993 H   0  0  0  0  0  0
  -27.2654  -17.7871   20.2677 H   0  0  0  0  0  0
  -31.7739  -21.4449   22.2090 H   0  0  0  0  0  0
  -31.5783  -20.0264   21.1645 H   0  0  0  0  0  0
  -30.5333  -20.2200   22.5989 H   0  0  0  0  0  0
  -28.6697  -17.1270   22.3816 H   0  0  0  0  0  0
  -29.3038  -15.5523   22.7304 H   0  0  0  0  0  0
  -27.8818  -15.7849   21.6670 H   0  0  0  0  0  0
  -26.9424  -24.3744   20.0856 H   0  0  0  0  0  0
  -27.9250  -24.6014   18.6809 H   0  0  0  0  0  0
  -30.4111  -18.1298   21.5170 H   0  0  0  0  0  0
  -30.9958  -17.8531   19.9571 H   0  0  0  0  0  0
  -27.6894  -21.6780   19.0298 H   0  0  0  0  0  0
  1 25  1  0  0  0
  1 30  2  0  0  0
  1 83  1  0  0  0
  2  3  1  0  0  0
  2 25  1  0  0  0
  2 84  1  0  0  0
  2 85  1  0  0  0
  3  4  1  0  0  0
  3 86  1  0  0  0
  3 87  1  0  0  0
  4  5  1  0  0  0
  4 88  1  0  0  0
  4 89  1  0  0  0
  5  6  1  0  0  0
  5 26  1  0  0  0
  5 90  1  0  0  0
  6 25  1  0  0  0
  6 91  1  0  0  0
  6 92  1  0  0  0
  7  8  2  0  0  0
  7 26  1  0  0  0
  7 29  1  0  0  0
  8  9  1  0  0  0
  8 22  1  0  0  0
  9 10  1  0  0  0
  9 27  2  0  0  0
 10 11  2  0  0  0
 10 15  1  0  0  0
 11 12  1  0  0  0
 11 93  1  0  0  0
 12 13  2  0  0  0
 12 94  1  0  0  0
 13 14  1  0  0  0
 13 31  1  0  0  0
 14 15  2  0  0  0
 14 95  1  0  0  0
 15 96  1  0  0  0
 16 17  2  0  0  0
 16 21  1  0  0  0
 16 31  1  0  0  0
 17 18  1  0  0  0
 17 97  1  0  0  0
 18 19  2  0  0  0
 18 98  1  0  0  0
 19 20  1  0  0  0
 19 24  1  0  0  0
 20 21  2  0  0  0
 20 99  1  0  0  0
 21 23  1  0  0  0
 22 28  1  0  0  0
 22 32  2  0  0  0
 26 27  1  0  0  0
 28100  1  0  0  0
 28101  1  0  0  0
 29102  1  0  0  0
 29103  1  0  0  0
 33 34  1  0  0  0
 33 66  1  0  0  0
 33 70  2  0  0  0
 34 36  1  0  0  0
 34 59  1  0  0  0
 34104  1  0  0  0
 35 44  2  0  0  0
 35 45  1  0  0  0
 35 68  1  0  0  0
 36 56  1  0  0  0
 36105  1  0  0  0
 37 39  1  0  0  0
 37 47  1  0  0  0
 37 66  1  0  0  0
 37106  1  0  0  0
 38 43  2  0  0  0
 38 46  1  0  0  0
 38 47  1  0  0  0
 39 64  1  0  0  0
 39 67  2  0  0  0
 40 52  1  0  0  0
 40 53  2  0  0  0
 40 58  1  0  0  0
 41107  1  0  0  0
 41108  1  0  0  0
 41109  1  0  0  0
 41 48  1  0  0  0
 42 43  1  0  0  0
 42 66  1  0  0  0
 42110  1  0  0  0
 42111  1  0  0  0
 43 44  1  0  0  0
 44112  1  0  0  0
 45 46  2  0  0  0
 45113  1  0  0  0
 46114  1  0  0  0
 47115  1  0  0  0
 47116  1  0  0  0
 48 56  1  0  0  0
 48 65  1  0  0  0
 48117  1  0  0  0
 49 50  1  0  0  0
 49 53  1  0  0  0
 49 64  1  0  0  0
 49118  1  0  0  0
 50 51  1  0  0  0
 50119  1  0  0  0
 50120  1  0  0  0
 51 52  1  0  0  0
 51121  1  0  0  0
 51122  1  0  0  0
 52123  1  0  0  0
 52124  1  0  0  0
 53 54  1  0  0  0
 54 55  2  0  0  0
 54125  1  0  0  0
 55 57  1  0  0  0
 55126  1  0  0  0
 56 69  2  0  0  0
 57 58  2  0  0  0
 57127  1  0  0  0
 58128  1  0  0  0
 59 60  1  0  0  0
 59 61  1  0  0  0
 59 62  1  0  0  0
 60129  1  0  0  0
 60130  1  0  0  0
 60131  1  0  0  0
 61132  1  0  0  0
 61133  1  0  0  0
 61134  1  0  0  0
 62135  1  0  0  0
 62136  1  0  0  0
 62137  1  0  0  0
 63 65  1  0  0  0
 63138  1  0  0  0
 63139  1  0  0  0
 63140  1  0  0  0
 64141  1  0  0  0
 65142  1  0  0  0
 68 78  1  0  0  0
 71 72  2  0  0  0
 71 81  1  0  0  0
 71143  1  0  0  0
 72 78  1  0  0  0
 72 82  1  0  0  0
 73 80  1  0  0  0
 73 81  1  0  0  0
 73 82  2  0  0  0
 74144  1  0  0  0
 74145  1  0  0  0
 74146  1  0  0  0
 74 80  1  0  0  0
 75 80  1  0  0  0
 75147  1  0  0  0
 75148  1  0  0  0
 75149  1  0  0  0
 76 81  1  0  0  0
 76150  1  0  0  0
 76151  1  0  0  0
 76152  1  0  0  0
 77 83  1  0  0  0
 77153  1  0  0  0
 77154  1  0  0  0
 77155  1  0  0  0
 78156  1  0  0  0
 78157  1  0  0  0
 79 80  1  0  0  0
 79 83  1  0  0  0
 79158  1  0  0  0
 79159  1  0  0  0
 82160  1  0  0  0
M  CHG  1  82   1
M  ISO  4   1 100  68 101  78 101  83 100
M  END
> <chiral flag>
0

> <version>
0

> <s_m_source_file>
/data/baiqing/PycharmProjects/Reinvent-master-3.2/result/LINK_invent/BTK/process_docking_weight1_custom_sum_contain_oxygen_bond_distance_aromatic_linkinvent_7_9_3/rearranged_h_0064.sdf

> <i_m_source_file_index>
55

> <r_mmod_Potential_Energy-OPLS-2005>
734.745544433594

> <r_mmod_Stretch_Energy-OPLS-2005>
355.544952392578

> <r_mmod_Bend_Energy-OPLS-2005>
317.502716064453

> <r_mmod_Torsional_Energy-OPLS-2005>
296.876007080078

> <r_mmod_Improper_Torsional_Energy-OPLS-2005>
8.68625259399414

> <r_mmod_Van_der_Waal_Energy-OPLS-2005>
122.770324707031

> <r_mmod_Electrostatic_Energy-OPLS-2005>
-196.010314941406

> <r_mmod_Solvation_Energy-OPLS-2005>
-407.313293457031

> <b_mmod_Minimization_Converged-OPLS-2005>
0

> <r_mmod_RMS_Derivative-OPLS-2005>
7.04594755172729

$$$$
57
                    3D
 Structure written by MMmdl.
171179  0  0  1  0            999 V2000
  -30.6509  -14.5593   20.5109 C   0  0  0  0  0  0
  -30.4281  -12.3433   19.4463 C   0  0  0  0  0  0
  -29.5038  -12.4966   18.2184 C   0  0  0  0  0  0
  -28.0193  -12.3664   18.6197 C   0  0  0  0  0  0
  -27.6542  -13.2135   19.8689 C   0  0  2  0  0  0
  -28.6966  -13.0305   20.9958 C   0  0  0  0  0  0
  -25.2545  -13.8151   20.5686 C   0  0  0  0  0  0
  -24.1810  -13.0431   20.9183 C   0  0  0  0  0  0
  -24.6362  -11.6895   20.8722 C   0  0  0  0  0  0
  -23.9027  -10.4284   21.0386 C   0  0  0  0  0  0
  -24.3584   -9.4202   21.9163 C   0  0  0  0  0  0
  -23.6286   -8.2229   22.0733 C   0  0  0  0  0  0
  -22.4271   -8.0252   21.3530 C   0  0  0  0  0  0
  -21.9894   -9.0220   20.4633 C   0  0  0  0  0  0
  -22.7201  -10.2110   20.3043 C   0  0  0  0  0  0
  -21.6857   -6.0708   22.5269 C   0  0  0  0  0  0
  -21.4015   -6.5624   23.8193 C   0  0  0  0  0  0
  -21.3662   -5.6785   24.9169 C   0  0  0  0  0  0
  -21.6037   -4.3049   24.7232 C   0  0  0  0  0  0
  -21.8830   -3.8129   23.4360 C   0  0  0  0  0  0
  -21.9205   -4.6935   22.3405 C   0  0  0  0  0  0
  -22.7828  -13.5222   21.1856 C   0  0  0  0  0  0
  -22.1676   -4.2116   21.0991 F   0  0  0  0  0  0
  -21.5633   -3.4537   25.7750 F   0  0  0  0  0  0
  -30.0186  -13.3521   20.4387 N   0  0  0  0  0  0
  -26.2977  -12.9332   20.3339 N   0  0  0  0  0  0
  -25.9288  -11.6487   20.5735 N   0  0  0  0  0  0
  -22.0481  -12.8207   22.0407 N   0  0  0  0  0  0
  -25.4288  -15.1872   20.4069 N   0  0  0  0  0  0
  -31.8040  -14.7207   20.1025 O   0  0  0  0  0  0
  -21.6653   -6.8841   21.4222 O   0  0  0  0  0  0
  -22.3515  -14.5536   20.6708 O   0  0  0  0  0  0
  -24.6203  -31.8631   23.2059 C   0  0  0  0  0  0
  -25.9073  -32.4788   23.8383 C   0  0  1  0  0  0
  -27.2370  -27.3741   20.1001 C   0  0  0  0  0  0
  -25.5906  -33.8586   24.2307 N   0  0  0  0  0  0
  -23.4131  -30.4876   21.5424 C   0  0  2  0  0  0
  -24.8619  -28.9461   20.1101 C   0  0  0  0  0  0
  -22.7451  -29.4642   22.4902 C   0  0  0  0  0  0
  -18.0291  -28.1388   22.8479 C   0  0  0  0  0  0
  -24.1489  -36.7302   23.2641 C   0  0  0  0  0  0
  -25.9489  -30.8061   21.3749 C   0  0  0  0  0  0
  -26.0225  -29.4361   20.7206 C   0  0  0  0  0  0
  -27.2058  -28.6520   20.7233 C   0  0  0  0  0  0
  -26.0569  -26.9242   19.4683 C   0  0  0  0  0  0
  -24.8764  -27.6902   19.4826 C   0  0  0  0  0  0
  -23.6290  -29.8215   20.1569 C   0  0  0  0  0  0
  -25.4108  -36.3087   24.0336 C   0  0  1  0  0  0
  -20.5887  -28.3700   23.1261 C   0  0  2  0  0  0
  -20.6764  -26.9421   22.5393 C   0  0  0  0  0  0
  -19.5745  -26.6387   21.5191 C   0  0  0  0  0  0
  -18.1931  -26.7933   22.1610 C   0  0  0  0  0  0
  -19.1543  -28.8854   23.2874 C   0  0  0  0  0  0
  -18.9472  -30.1451   23.8905 C   0  0  0  0  0  0
  -17.6474  -30.6584   24.0566 C   0  0  0  0  0  0
  -25.9041  -34.9452   23.5122 C   0  0  0  0  0  0
  -16.5365  -29.9092   23.6313 C   0  0  0  0  0  0
  -16.7280  -28.6506   23.0340 C   0  0  0  0  0  0
  -26.4492  -31.6582   25.0731 C   0  0  0  0  0  0
  -25.3750  -31.3690   26.1474 C   0  0  0  0  0  0
  -27.0345  -30.3017   24.6156 C   0  0  0  0  0  0
  -27.6062  -32.4319   25.7479 C   0  0  0  0  0  0
  -27.5579  -37.1805   24.8467 C   0  0  0  0  0  0
  -21.4170  -29.3062   22.3657 N   0  0  0  0  0  0
  -26.4290  -37.3779   23.9410 N   0  0  0  0  0  0
  -24.6781  -31.0699   22.0976 N   0  0  0  0  0  0
  -23.4194  -28.8171   23.2958 O   0  0  0  0  0  0
  -28.3838  -26.5857   20.1727 O   0  0  0  0  0  0
  -26.5615  -34.8912   22.4689 O   0  0  0  0  0  0
  -23.5380  -32.1406   23.7418 O   0  0  0  0  0  0
  -28.9353  -20.7825   21.0416 C   0  0  0  0  0  0
  -30.6915  -21.2757   19.9054 C   0  0  0  0  0  0
  -29.6236  -19.6028   20.7635 C   0  0  0  0  0  0
  -27.8516  -17.8714   21.1466 C   0  0  0  0  0  0
  -29.7766  -18.0747   22.7309 C   0  0  0  0  0  0
  -28.9624  -23.3135   18.1267 C   0  0  0  0  0  0
  -27.0441  -23.6135   19.6219 C   0  0  0  0  0  0
  -28.7325  -23.6379   22.0231 C   0  0  0  0  0  0
  -30.7786  -24.0778   20.7387 C   0  0  0  0  0  0
  -30.1471  -17.0462   20.4559 C   0  0  0  0  0  0
  -28.6663  -25.5574   19.1835 C   0  0  0  0  0  0
  -29.3602  -18.1589   21.2544 C   0  0  0  0  0  0
  -28.5343  -23.9855   19.4584 C   0  0  0  0  0  0
  -29.4055  -23.3617   20.6563 C   0  0  0  0  0  0
  -30.7594  -19.9501   20.0340 N   0  0  0  0  0  0
  -29.6679  -21.8785   20.5427 N   0  0  0  0  0  0
  -29.8723  -15.6242   20.8277 N   0  0  0  0  0  0
  -31.4715  -12.4528   19.1479 H   0  0  0  0  0  0
  -30.3462  -11.3424   19.8722 H   0  0  0  0  0  0
  -29.7520  -11.7483   17.4641 H   0  0  0  0  0  0
  -29.6757  -13.4663   17.7487 H   0  0  0  0  0  0
  -27.8167  -11.3127   18.8141 H   0  0  0  0  0  0
  -27.3812  -12.6458   17.7791 H   0  0  0  0  0  0
  -27.6844  -14.2558   19.5524 H   0  0  0  0  0  0
  -28.6857  -12.0005   21.3563 H   0  0  0  0  0  0
  -28.4580  -13.6522   21.8597 H   0  0  0  0  0  0
  -25.2709   -9.5704   22.4749 H   0  0  0  0  0  0
  -23.9998   -7.4625   22.7449 H   0  0  0  0  0  0
  -21.0826   -8.8710   19.8944 H   0  0  0  0  0  0
  -22.3620  -10.9635   19.6166 H   0  0  0  0  0  0
  -21.1996   -7.6132   23.9684 H   0  0  0  0  0  0
  -21.1485   -6.0526   25.9065 H   0  0  0  0  0  0
  -22.0616   -2.7591   23.2881 H   0  0  0  0  0  0
  -22.4134  -11.9895   22.4813 H   0  0  0  0  0  0
  -21.1073  -13.1172   22.2576 H   0  0  0  0  0  0
  -24.6621  -15.8426   20.4994 H   0  0  0  0  0  0
  -26.2723  -15.6150   20.0479 H   0  0  0  0  0  0
  -26.7137  -32.5491   23.1135 H   0  0  0  0  0  0
  -25.0050  -33.9737   25.0448 H   0  0  0  0  0  0
  -22.7052  -31.3065   21.3982 H   0  0  0  0  0  0
  -23.3741  -35.9647   23.3313 H   0  0  0  0  0  0
  -24.3579  -36.8912   22.2053 H   0  0  0  0  0  0
  -23.7253  -37.6511   23.6657 H   0  0  0  0  0  0
  -26.0812  -31.5711   20.6089 H   0  0  0  0  0  0
  -26.8291  -30.8530   22.0036 H   0  0  0  0  0  0
  -28.0956  -29.0209   21.2154 H   0  0  0  0  0  0
  -26.0179  -25.9691   18.9735 H   0  0  0  0  0  0
  -23.9858  -27.3057   19.0046 H   0  0  0  0  0  0
  -23.7530  -30.5973   19.4005 H   0  0  0  0  0  0
  -22.7522  -29.2485   19.8508 H   0  0  0  0  0  0
  -25.1285  -36.1944   25.0831 H   0  0  0  0  0  0
  -21.0003  -28.3290   24.1372 H   0  0  0  0  0  0
  -20.5627  -26.2334   23.3611 H   0  0  0  0  0  0
  -21.6640  -26.7418   22.1221 H   0  0  0  0  0  0
  -19.6904  -25.6295   21.1230 H   0  0  0  0  0  0
  -19.6670  -27.3184   20.6712 H   0  0  0  0  0  0
  -17.4195  -26.6684   21.4017 H   0  0  0  0  0  0
  -18.0339  -26.0068   22.9004 H   0  0  0  0  0  0
  -19.7950  -30.7254   24.2288 H   0  0  0  0  0  0
  -17.5033  -31.6262   24.5179 H   0  0  0  0  0  0
  -15.5369  -30.3005   23.7614 H   0  0  0  0  0  0
  -15.8687  -28.0825   22.7049 H   0  0  0  0  0  0
  -24.5908  -30.7062   25.7791 H   0  0  0  0  0  0
  -24.8968  -32.2850   26.4956 H   0  0  0  0  0  0
  -25.8102  -30.8816   27.0210 H   0  0  0  0  0  0
  -26.2912  -29.6744   24.1225 H   0  0  0  0  0  0
  -27.4111  -29.7285   25.4637 H   0  0  0  0  0  0
  -27.8749  -30.4315   23.9332 H   0  0  0  0  0  0
  -27.2679  -33.3605   26.2086 H   0  0  0  0  0  0
  -28.3847  -32.6907   25.0288 H   0  0  0  0  0  0
  -28.0771  -31.8439   26.5366 H   0  0  0  0  0  0
  -28.2602  -38.0097   24.7509 H   0  0  0  0  0  0
  -28.1073  -36.2629   24.6299 H   0  0  0  0  0  0
  -27.2306  -37.1463   25.8875 H   0  0  0  0  0  0
  -20.9340  -29.8836   21.6915 H   0  0  0  0  0  0
  -26.0176  -38.2858   24.1399 H   0  0  0  0  0  0
  -28.0228  -20.9236   21.6042 H   0  0  0  0  0  0
  -31.4411  -21.8262   19.3571 H   0  0  0  0  0  0
  -27.2681  -18.5989   21.7117 H   0  0  0  0  0  0
  -27.5972  -16.8888   21.5411 H   0  0  0  0  0  0
  -27.5163  -17.9145   20.1099 H   0  0  0  0  0  0
  -29.2551  -18.8260   23.3259 H   0  0  0  0  0  0
  -30.8457  -18.2507   22.8493 H   0  0  0  0  0  0
  -29.5554  -17.0983   23.1610 H   0  0  0  0  0  0
  -28.4576  -23.7594   17.2684 H   0  0  0  0  0  0
  -28.7186  -22.2502   18.1028 H   0  0  0  0  0  0
  -30.0328  -23.4130   17.9478 H   0  0  0  0  0  0
  -26.4768  -23.8283   18.7156 H   0  0  0  0  0  0
  -26.5766  -24.1634   20.4383 H   0  0  0  0  0  0
  -26.9149  -22.5493   19.8188 H   0  0  0  0  0  0
  -28.5478  -24.7023   22.1675 H   0  0  0  0  0  0
  -29.3599  -23.3059   22.8514 H   0  0  0  0  0  0
  -27.7753  -23.1304   22.1305 H   0  0  0  0  0  0
  -30.6699  -25.1267   21.0133 H   0  0  0  0  0  0
  -31.3266  -24.0480   19.7979 H   0  0  0  0  0  0
  -31.4178  -23.6279   21.5002 H   0  0  0  0  0  0
  -31.2185  -17.2333   20.5506 H   0  0  0  0  0  0
  -29.9221  -17.1545   19.3940 H   0  0  0  0  0  0
  -28.1221  -25.8029   18.2716 H   0  0  0  0  0  0
  -29.7001  -25.7529   18.8984 H   0  0  0  0  0  0
  -28.9465  -15.4139   21.1641 H   0  0  0  0  0  0
  1 25  1  0  0  0
  1 30  2  0  0  0
  1 87  1  0  0  0
  2  3  1  0  0  0
  2 25  1  0  0  0
  2 88  1  0  0  0
  2 89  1  0  0  0
  3  4  1  0  0  0
  3 90  1  0  0  0
  3 91  1  0  0  0
  4  5  1  0  0  0
  4 92  1  0  0  0
  4 93  1  0  0  0
  5  6  1  0  0  0
  5 26  1  0  0  0
  5 94  1  0  0  0
  6 25  1  0  0  0
  6 95  1  0  0  0
  6 96  1  0  0  0
  7  8  2  0  0  0
  7 26  1  0  0  0
  7 29  1  0  0  0
  8  9  1  0  0  0
  8 22  1  0  0  0
  9 10  1  0  0  0
  9 27  2  0  0  0
 10 11  2  0  0  0
 10 15  1  0  0  0
 11 12  1  0  0  0
 11 97  1  0  0  0
 12 13  2  0  0  0
 12 98  1  0  0  0
 13 14  1  0  0  0
 13 31  1  0  0  0
 14 15  2  0  0  0
 14 99  1  0  0  0
 15100  1  0  0  0
 16 17  2  0  0  0
 16 21  1  0  0  0
 16 31  1  0  0  0
 17 18  1  0  0  0
 17101  1  0  0  0
 18 19  2  0  0  0
 18102  1  0  0  0
 19 20  1  0  0  0
 19 24  1  0  0  0
 20 21  2  0  0  0
 20103  1  0  0  0
 21 23  1  0  0  0
 22 28  1  0  0  0
 22 32  2  0  0  0
 26 27  1  0  0  0
 28104  1  0  0  0
 28105  1  0  0  0
 29106  1  0  0  0
 29107  1  0  0  0
 33 34  1  0  0  0
 33 66  1  0  0  0
 33 70  2  0  0  0
 34 36  1  0  0  0
 34 59  1  0  0  0
 34108  1  0  0  0
 35 44  2  0  0  0
 35 45  1  0  0  0
 35 68  1  0  0  0
 36 56  1  0  0  0
 36109  1  0  0  0
 37 39  1  0  0  0
 37 47  1  0  0  0
 37 66  1  0  0  0
 37110  1  0  0  0
 38 43  2  0  0  0
 38 46  1  0  0  0
 38 47  1  0  0  0
 39 64  1  0  0  0
 39 67  2  0  0  0
 40 52  1  0  0  0
 40 53  2  0  0  0
 40 58  1  0  0  0
 41111  1  0  0  0
 41112  1  0  0  0
 41113  1  0  0  0
 41 48  1  0  0  0
 42 43  1  0  0  0
 42 66  1  0  0  0
 42114  1  0  0  0
 42115  1  0  0  0
 43 44  1  0  0  0
 44116  1  0  0  0
 45 46  2  0  0  0
 45117  1  0  0  0
 46118  1  0  0  0
 47119  1  0  0  0
 47120  1  0  0  0
 48 56  1  0  0  0
 48 65  1  0  0  0
 48121  1  0  0  0
 49 50  1  0  0  0
 49 53  1  0  0  0
 49 64  1  0  0  0
 49122  1  0  0  0
 50 51  1  0  0  0
 50123  1  0  0  0
 50124  1  0  0  0
 51 52  1  0  0  0
 51125  1  0  0  0
 51126  1  0  0  0
 52127  1  0  0  0
 52128  1  0  0  0
 53 54  1  0  0  0
 54 55  2  0  0  0
 54129  1  0  0  0
 55 57  1  0  0  0
 55130  1  0  0  0
 56 69  2  0  0  0
 57 58  2  0  0  0
 57131  1  0  0  0
 58132  1  0  0  0
 59 60  1  0  0  0
 59 61  1  0  0  0
 59 62  1  0  0  0
 60133  1  0  0  0
 60134  1  0  0  0
 60135  1  0  0  0
 61136  1  0  0  0
 61137  1  0  0  0
 61138  1  0  0  0
 62139  1  0  0  0
 62140  1  0  0  0
 62141  1  0  0  0
 63 65  1  0  0  0
 63142  1  0  0  0
 63143  1  0  0  0
 63144  1  0  0  0
 64145  1  0  0  0
 65146  1  0  0  0
 68 81  1  0  0  0
 71 73  2  0  0  0
 71 86  1  0  0  0
 71147  1  0  0  0
 72 85  2  0  0  0
 72 86  1  0  0  0
 72148  1  0  0  0
 73 82  1  0  0  0
 73 85  1  0  0  0
 74149  1  0  0  0
 74150  1  0  0  0
 74151  1  0  0  0
 74 82  1  0  0  0
 75 82  1  0  0  0
 75152  1  0  0  0
 75153  1  0  0  0
 75154  1  0  0  0
 76155  1  0  0  0
 76156  1  0  0  0
 76157  1  0  0  0
 76 83  1  0  0  0
 77 83  1  0  0  0
 77158  1  0  0  0
 77159  1  0  0  0
 77160  1  0  0  0
 78161  1  0  0  0
 78162  1  0  0  0
 78163  1  0  0  0
 78 84  1  0  0  0
 79 84  1  0  0  0
 79164  1  0  0  0
 79165  1  0  0  0
 79166  1  0  0  0
 80 82  1  0  0  0
 80 87  1  0  0  0
 80167  1  0  0  0
 80168  1  0  0  0
 81 83  1  0  0  0
 81169  1  0  0  0
 81170  1  0  0  0
 83 84  1  0  0  0
 84 86  1  0  0  0
 87171  1  0  0  0
M  ISO  4   1 100  68 101  81 101  87 100
M  END
> <chiral flag>
0

> <version>
0

> <s_m_source_file>
/data/baiqing/PycharmProjects/Reinvent-master-3.2/result/LINK_invent/BTK/process_docking_weight1_custom_sum_contain_oxygen_bond_distance_aromatic_linkinvent_7_9_3/rearranged_h_0064.sdf

> <i_m_source_file_index>
56

> <r_mmod_Potential_Energy-OPLS-2005>
6.79543733596802

> <r_mmod_Stretch_Energy-OPLS-2005>
69.4612808227539

> <r_mmod_Bend_Energy-OPLS-2005>
155.909484863281

> <r_mmod_Torsional_Energy-OPLS-2005>
270.294036865234

> <r_mmod_Improper_Torsional_Energy-OPLS-2005>
6.59249639511108

> <r_mmod_Van_der_Waal_Energy-OPLS-2005>
136.518081665039

> <r_mmod_Electrostatic_Energy-OPLS-2005>
-453.755310058594

> <r_mmod_Solvation_Energy-OPLS-2005>
-206.508499145508

> <b_mmod_Minimization_Converged-OPLS-2005>
0

> <r_mmod_RMS_Derivative-OPLS-2005>
2.25802135467529

$$$$
58
                    3D
 Structure written by MMmdl.
193201  0  0  1  0            999 V2000
  -30.7264  -14.5027   20.6182 C   0  0  0  0  0  0
  -30.4101  -12.3458   19.4220 C   0  0  0  0  0  0
  -29.4868  -12.5449   18.2024 C   0  0  0  0  0  0
  -28.0072  -12.4022   18.6049 C   0  0  0  0  0  0
  -27.6597  -13.2091   19.8818 C   0  0  2  0  0  0
  -28.6998  -12.9647   20.9881 C   0  0  0  0  0  0
  -25.2627  -13.8166   20.5736 C   0  0  0  0  0  0
  -24.1864  -13.0452   20.9169 C   0  0  0  0  0  0
  -24.6394  -11.6909   20.8729 C   0  0  0  0  0  0
  -23.9079  -10.4293   21.0445 C   0  0  0  0  0  0
  -24.3629   -9.4202   21.9218 C   0  0  0  0  0  0
  -23.6302   -8.2239   22.0771 C   0  0  0  0  0  0
  -22.4274   -8.0283   21.3571 C   0  0  0  0  0  0
  -21.9925   -9.0263   20.4666 C   0  0  0  0  0  0
  -22.7250  -10.2142   20.3089 C   0  0  0  0  0  0
  -21.6860   -6.0737   22.5269 C   0  0  0  0  0  0
  -21.4010   -6.5647   23.8200 C   0  0  0  0  0  0
  -21.3656   -5.6810   24.9166 C   0  0  0  0  0  0
  -21.6048   -4.3071   24.7217 C   0  0  0  0  0  0
  -21.8819   -3.8145   23.4333 C   0  0  0  0  0  0
  -21.9194   -4.6961   22.3394 C   0  0  0  0  0  0
  -22.7874  -13.5242   21.1878 C   0  0  0  0  0  0
  -22.1664   -4.2135   21.0979 F   0  0  0  0  0  0
  -21.5639   -3.4562   25.7736 F   0  0  0  0  0  0
  -30.0237  -13.3321   20.4566 N   0  0  0  0  0  0
  -26.3031  -12.9328   20.3385 N   0  0  0  0  0  0
  -25.9317  -11.6487   20.5744 N   0  0  0  0  0  0
  -22.0497  -12.8209   22.0398 N   0  0  0  0  0  0
  -25.4496  -15.1902   20.4329 N   0  0  0  0  0  0
  -31.8216  -14.6247   20.0548 O   0  0  0  0  0  0
  -21.6646   -6.8881   21.4240 O   0  0  0  0  0  0
  -22.3571  -14.5569   20.6760 O   0  0  0  0  0  0
  -24.6193  -31.8680   23.2031 C   0  0  0  0  0  0
  -25.9078  -32.4811   23.8358 C   0  0  1  0  0  0
  -27.2361  -27.4004   20.1021 C   0  0  0  0  0  0
  -25.5916  -33.8616   24.2272 N   0  0  0  0  0  0
  -23.4065  -30.4889   21.5495 C   0  0  2  0  0  0
  -24.8527  -28.9549   20.1121 C   0  0  0  0  0  0
  -22.7413  -29.4666   22.4993 C   0  0  0  0  0  0
  -18.0263  -28.1361   22.8490 C   0  0  0  0  0  0
  -24.1490  -36.7326   23.2632 C   0  0  0  0  0  0
  -25.9399  -30.8260   21.3600 C   0  0  0  0  0  0
  -26.0169  -29.4585   20.7054 C   0  0  0  0  0  0
  -27.2088  -28.6904   20.6946 C   0  0  0  0  0  0
  -26.0518  -26.9360   19.4783 C   0  0  0  0  0  0
  -24.8678  -27.6931   19.4949 C   0  0  0  0  0  0
  -23.6126  -29.8210   20.1645 C   0  0  0  0  0  0
  -25.4111  -36.3110   24.0324 C   0  0  1  0  0  0
  -20.5856  -28.3672   23.1311 C   0  0  2  0  0  0
  -20.6740  -26.9401   22.5421 C   0  0  0  0  0  0
  -19.5720  -26.6361   21.5217 C   0  0  0  0  0  0
  -18.1896  -26.7902   22.1618 C   0  0  0  0  0  0
  -19.1510  -28.8827   23.2895 C   0  0  0  0  0  0
  -18.9444  -30.1428   23.8902 C   0  0  0  0  0  0
  -17.6457  -30.6578   24.0555 C   0  0  0  0  0  0
  -25.9062  -34.9483   23.5100 C   0  0  0  0  0  0
  -16.5345  -29.9092   23.6302 C   0  0  0  0  0  0
  -16.7255  -28.6497   23.0341 C   0  0  0  0  0  0
  -26.4460  -31.6604   25.0719 C   0  0  0  0  0  0
  -25.3710  -31.3748   26.1459 C   0  0  0  0  0  0
  -27.0247  -30.3004   24.6142 C   0  0  0  0  0  0
  -27.5994  -32.4344   25.7522 C   0  0  0  0  0  0
  -27.5578  -37.1818   24.8449 C   0  0  0  0  0  0
  -21.4137  -29.3042   22.3728 N   0  0  0  0  0  0
  -26.4284  -37.3804   23.9406 N   0  0  0  0  0  0
  -24.6739  -31.0753   22.0948 N   0  0  0  0  0  0
  -23.4167  -28.8213   23.3052 O   0  0  0  0  0  0
  -28.3939  -26.6306   20.1572 O   0  0  0  0  0  0
  -26.5644  -34.8947   22.4675 O   0  0  0  0  0  0
  -23.5379  -32.1457   23.7403 O   0  0  0  0  0  0
  -29.9898  -19.2039   20.1837 C   0  0  0  0  0  0
  -29.8179  -17.0025   20.6211 C   0  0  0  0  0  0
  -28.6566  -17.9161   18.9399 C   0  0  0  0  0  0
  -25.2049  -21.5455   15.7441 C   0  0  0  0  0  0
  -29.4121  -15.5656   22.7115 C   0  0  0  0  0  0
  -26.8385  -20.9375   18.3456 C   0  0  0  0  0  0
  -27.6735  -16.2672   17.2854 C   0  0  0  0  0  0
  -28.4844  -18.3893   16.4704 C   0  0  0  0  0  0
  -22.7496  -17.5687   16.7541 C   0  0  0  0  0  0
  -23.3015  -17.7975   19.1363 C   0  0  0  0  0  0
  -30.7207  -20.5509   20.3426 C   0  0  0  0  0  0
  -25.9513  -20.2405   16.0541 C   0  0  0  0  0  0
  -29.9739  -21.7589   21.0014 C   0  0  0  0  0  0
  -29.3226  -22.8180   20.0535 C   0  0  0  0  0  0
  -29.3538  -24.3049   20.5404 C   0  0  0  0  0  0
  -25.1145  -17.4853   17.4557 C   0  0  0  0  0  0
  -28.2975  -25.2167   19.8500 C   0  0  0  0  0  0
  -30.2616  -15.7652   21.4455 C   0  0  1  0  0  0
  -26.0099  -19.9061   17.5680 C   0  0  1  0  0  0
  -26.2882  -18.3942   17.9529 C   0  0  2  0  0  0
  -27.7429  -17.7757   17.6870 C   0  0  0  0  0  0
  -30.3561  -18.1842   20.9626 N   0  0  0  0  0  0
  -29.1564  -19.1245   19.1634 N   0  0  0  0  0  0
  -28.8898  -16.8309   19.6813 N   0  0  0  0  0  0
  -23.7545  -18.0180   17.7425 N   0  3  0  0  0  0
  -31.4529  -12.4254   19.1132 H   0  0  0  0  0  0
  -30.3062  -11.3305   19.8101 H   0  0  0  0  0  0
  -29.7317  -11.8306   17.4154 H   0  0  0  0  0  0
  -29.6462  -13.5362   17.7738 H   0  0  0  0  0  0
  -27.8030  -11.3438   18.7704 H   0  0  0  0  0  0
  -27.3606  -12.7139   17.7839 H   0  0  0  0  0  0
  -27.7170  -14.2644   19.6316 H   0  0  0  0  0  0
  -28.6949  -11.9084   21.2627 H   0  0  0  0  0  0
  -28.4122  -13.4706   21.8988 H   0  0  0  0  0  0
  -25.2780   -9.5650   22.4790 H   0  0  0  0  0  0
  -24.0020   -7.4613   22.7470 H   0  0  0  0  0  0
  -21.0873   -8.8777   19.8941 H   0  0  0  0  0  0
  -22.3745  -10.9698   19.6193 H   0  0  0  0  0  0
  -21.1994   -7.6153   23.9675 H   0  0  0  0  0  0
  -21.1505   -6.0562   25.9076 H   0  0  0  0  0  0
  -22.0613   -2.7613   23.2828 H   0  0  0  0  0  0
  -22.4128  -11.9880   22.4796 H   0  0  0  0  0  0
  -21.1096  -13.1217   22.2603 H   0  0  0  0  0  0
  -24.7496  -15.8422   20.7610 H   0  0  0  0  0  0
  -26.3707  -15.6009   20.3263 H   0  0  0  0  0  0
  -26.7183  -32.5496   23.1153 H   0  0  0  0  0  0
  -25.0021  -33.9770   25.0384 H   0  0  0  0  0  0
  -22.6971  -31.3077   21.4104 H   0  0  0  0  0  0
  -23.3751  -35.9657   23.3279 H   0  0  0  0  0  0
  -24.3594  -36.8969   22.2050 H   0  0  0  0  0  0
  -23.7245  -37.6521   23.6681 H   0  0  0  0  0  0
  -26.0627  -31.5932   20.5937 H   0  0  0  0  0  0
  -26.8241  -30.8728   21.9844 H   0  0  0  0  0  0
  -28.1056  -29.0793   21.1562 H   0  0  0  0  0  0
  -26.0127  -25.9838   18.9706 H   0  0  0  0  0  0
  -23.9769  -27.2976   19.0255 H   0  0  0  0  0  0
  -23.7089  -30.5972   19.4048 H   0  0  0  0  0  0
  -22.7364  -29.2382   19.8718 H   0  0  0  0  0  0
  -25.1282  -36.1966   25.0814 H   0  0  0  0  0  0
  -20.9932  -28.3256   24.1440 H   0  0  0  0  0  0
  -20.5596  -26.2302   23.3627 H   0  0  0  0  0  0
  -21.6621  -26.7397   22.1250 H   0  0  0  0  0  0
  -19.6872  -25.6268   21.1252 H   0  0  0  0  0  0
  -19.6639  -27.3160   20.6738 H   0  0  0  0  0  0
  -17.4153  -26.6638   21.4028 H   0  0  0  0  0  0
  -18.0293  -26.0043   22.9012 H   0  0  0  0  0  0
  -19.7935  -30.7219   24.2263 H   0  0  0  0  0  0
  -17.5030  -31.6257   24.5162 H   0  0  0  0  0  0
  -15.5343  -30.3005   23.7611 H   0  0  0  0  0  0
  -15.8647  -28.0818   22.7053 H   0  0  0  0  0  0
  -24.5891  -30.7072   25.7822 H   0  0  0  0  0  0
  -24.8897  -32.2912   26.4876 H   0  0  0  0  0  0
  -25.8066  -30.8958   27.0236 H   0  0  0  0  0  0
  -26.2789  -29.6836   24.1100 H   0  0  0  0  0  0
  -27.3832  -29.7183   25.4646 H   0  0  0  0  0  0
  -27.8725  -30.4221   23.9393 H   0  0  0  0  0  0
  -27.2536  -33.3615   26.2104 H   0  0  0  0  0  0
  -28.3813  -32.6961   25.0386 H   0  0  0  0  0  0
  -28.0652  -31.8488   26.5453 H   0  0  0  0  0  0
  -28.2576  -38.0135   24.7529 H   0  0  0  0  0  0
  -28.1091  -36.2672   24.6220 H   0  0  0  0  0  0
  -27.2320  -37.1406   25.8857 H   0  0  0  0  0  0
  -20.9290  -29.8845   21.7023 H   0  0  0  0  0  0
  -26.0169  -38.2875   24.1421 H   0  0  0  0  0  0
  -25.1764  -21.7227   14.6692 H   0  0  0  0  0  0
  -25.6887  -22.4106   16.1977 H   0  0  0  0  0  0
  -24.1769  -21.5099   16.1016 H   0  0  0  0  0  0
  -29.5496  -16.4071   23.3920 H   0  0  0  0  0  0
  -29.6959  -14.6652   23.2589 H   0  0  0  0  0  0
  -28.3498  -15.5333   22.4736 H   0  0  0  0  0  0
  -26.3866  -21.9285   18.3049 H   0  0  0  0  0  0
  -27.8482  -21.0372   17.9508 H   0  0  0  0  0  0
  -26.9028  -20.6748   19.4018 H   0  0  0  0  0  0
  -28.6711  -15.8433   17.1682 H   0  0  0  0  0  0
  -27.1684  -16.1032   16.3342 H   0  0  0  0  0  0
  -27.1701  -15.6608   18.0340 H   0  0  0  0  0  0
  -29.4483  -17.9026   16.3122 H   0  0  0  0  0  0
  -28.7082  -19.4448   16.6064 H   0  0  0  0  0  0
  -27.9188  -18.2755   15.5465 H   0  0  0  0  0  0
  -21.7753  -18.0130   16.9574 H   0  0  0  0  0  0
  -22.6414  -16.4839   16.7655 H   0  0  0  0  0  0
  -23.0372  -17.8721   15.7467 H   0  0  0  0  0  0
  -22.3377  -18.2797   19.3068 H   0  0  0  0  0  0
  -24.0028  -18.2166   19.8581 H   0  0  0  0  0  0
  -23.1856  -16.7354   19.3508 H   0  0  0  0  0  0
  -31.1152  -20.8425   19.3694 H   0  0  0  0  0  0
  -31.6093  -20.3496   20.9422 H   0  0  0  0  0  0
  -26.9484  -20.3359   15.6305 H   0  0  0  0  0  0
  -25.4627  -19.4385   15.5013 H   0  0  0  0  0  0
  -30.7303  -22.2926   21.5775 H   0  0  0  0  0  0
  -29.2546  -21.4053   21.7404 H   0  0  0  0  0  0
  -28.2859  -22.5284   19.9009 H   0  0  0  0  0  0
  -29.7816  -22.7747   19.0653 H   0  0  0  0  0  0
  -30.3487  -24.7191   20.3726 H   0  0  0  0  0  0
  -29.1884  -24.3327   21.6187 H   0  0  0  0  0  0
  -25.1582  -16.4908   17.8991 H   0  0  0  0  0  0
  -25.2194  -17.3367   16.3789 H   0  0  0  0  0  0
  -27.3326  -24.8144   20.1582 H   0  0  0  0  0  0
  -28.3636  -25.1021   18.7690 H   0  0  0  0  0  0
  -31.2186  -16.0784   21.8678 H   0  0  0  0  0  0
  -25.0108  -20.1235   17.9395 H   0  0  0  0  0  0
  -26.1867  -18.3582   19.0384 H   0  0  0  0  0  0
  -23.8165  -19.0177   17.6202 H   0  0  0  0  0  0
  1 25  1  0  0  0
  1 30  2  0  0  0
  1 88  1  0  0  0
  2  3  1  0  0  0
  2 25  1  0  0  0
  2 96  1  0  0  0
  2 97  1  0  0  0
  3  4  1  0  0  0
  3 98  1  0  0  0
  3 99  1  0  0  0
  4  5  1  0  0  0
  4100  1  0  0  0
  4101  1  0  0  0
  5  6  1  0  0  0
  5 26  1  0  0  0
  5102  1  0  0  0
  6 25  1  0  0  0
  6103  1  0  0  0
  6104  1  0  0  0
  7  8  2  0  0  0
  7 26  1  0  0  0
  7 29  1  0  0  0
  8  9  1  0  0  0
  8 22  1  0  0  0
  9 10  1  0  0  0
  9 27  2  0  0  0
 10 11  2  0  0  0
 10 15  1  0  0  0
 11 12  1  0  0  0
 11105  1  0  0  0
 12 13  2  0  0  0
 12106  1  0  0  0
 13 14  1  0  0  0
 13 31  1  0  0  0
 14 15  2  0  0  0
 14107  1  0  0  0
 15108  1  0  0  0
 16 17  2  0  0  0
 16 21  1  0  0  0
 16 31  1  0  0  0
 17 18  1  0  0  0
 17109  1  0  0  0
 18 19  2  0  0  0
 18110  1  0  0  0
 19 20  1  0  0  0
 19 24  1  0  0  0
 20 21  2  0  0  0
 20111  1  0  0  0
 21 23  1  0  0  0
 22 28  1  0  0  0
 22 32  2  0  0  0
 26 27  1  0  0  0
 28112  1  0  0  0
 28113  1  0  0  0
 29114  1  0  0  0
 29115  1  0  0  0
 33 34  1  0  0  0
 33 66  1  0  0  0
 33 70  2  0  0  0
 34 36  1  0  0  0
 34 59  1  0  0  0
 34116  1  0  0  0
 35 44  2  0  0  0
 35 45  1  0  0  0
 35 68  1  0  0  0
 36 56  1  0  0  0
 36117  1  0  0  0
 37 39  1  0  0  0
 37 47  1  0  0  0
 37 66  1  0  0  0
 37118  1  0  0  0
 38 43  2  0  0  0
 38 46  1  0  0  0
 38 47  1  0  0  0
 39 64  1  0  0  0
 39 67  2  0  0  0
 40 52  1  0  0  0
 40 53  2  0  0  0
 40 58  1  0  0  0
 41119  1  0  0  0
 41120  1  0  0  0
 41121  1  0  0  0
 41 48  1  0  0  0
 42 43  1  0  0  0
 42 66  1  0  0  0
 42122  1  0  0  0
 42123  1  0  0  0
 43 44  1  0  0  0
 44124  1  0  0  0
 45 46  2  0  0  0
 45125  1  0  0  0
 46126  1  0  0  0
 47127  1  0  0  0
 47128  1  0  0  0
 48 56  1  0  0  0
 48 65  1  0  0  0
 48129  1  0  0  0
 49 50  1  0  0  0
 49 53  1  0  0  0
 49 64  1  0  0  0
 49130  1  0  0  0
 50 51  1  0  0  0
 50131  1  0  0  0
 50132  1  0  0  0
 51 52  1  0  0  0
 51133  1  0  0  0
 51134  1  0  0  0
 52135  1  0  0  0
 52136  1  0  0  0
 53 54  1  0  0  0
 54 55  2  0  0  0
 54137  1  0  0  0
 55 57  1  0  0  0
 55138  1  0  0  0
 56 69  2  0  0  0
 57 58  2  0  0  0
 57139  1  0  0  0
 58140  1  0  0  0
 59 60  1  0  0  0
 59 61  1  0  0  0
 59 62  1  0  0  0
 60141  1  0  0  0
 60142  1  0  0  0
 60143  1  0  0  0
 61144  1  0  0  0
 61145  1  0  0  0
 61146  1  0  0  0
 62147  1  0  0  0
 62148  1  0  0  0
 62149  1  0  0  0
 63 65  1  0  0  0
 63150  1  0  0  0
 63151  1  0  0  0
 63152  1  0  0  0
 64153  1  0  0  0
 65154  1  0  0  0
 68 87  1  0  0  0
 71 81  1  0  0  0
 71 92  2  0  0  0
 71 93  1  0  0  0
 72 88  1  0  0  0
 72 92  1  0  0  0
 72 94  2  0  0  0
 73 91  1  0  0  0
 73 93  2  0  0  0
 73 94  1  0  0  0
 74 82  1  0  0  0
 74155  1  0  0  0
 74156  1  0  0  0
 74157  1  0  0  0
 75158  1  0  0  0
 75159  1  0  0  0
 75160  1  0  0  0
 75 88  1  0  0  0
 76161  1  0  0  0
 76162  1  0  0  0
 76163  1  0  0  0
 76 89  1  0  0  0
 77164  1  0  0  0
 77165  1  0  0  0
 77166  1  0  0  0
 77 91  1  0  0  0
 78 91  1  0  0  0
 78167  1  0  0  0
 78168  1  0  0  0
 78169  1  0  0  0
 79170  1  0  0  0
 79171  1  0  0  0
 79172  1  0  0  0
 79 95  1  0  0  0
 80 95  1  0  0  0
 80173  1  0  0  0
 80174  1  0  0  0
 80175  1  0  0  0
 81 83  1  0  0  0
 81176  1  0  0  0
 81177  1  0  0  0
 82 89  1  0  0  0
 82178  1  0  0  0
 82179  1  0  0  0
 83 84  1  0  0  0
 83180  1  0  0  0
 83181  1  0  0  0
 84 85  1  0  0  0
 84182  1  0  0  0
 84183  1  0  0  0
 85 87  1  0  0  0
 85184  1  0  0  0
 85185  1  0  0  0
 86 95  1  0  0  0
 86186  1  0  0  0
 86187  1  0  0  0
 86 90  1  0  0  0
 87188  1  0  0  0
 87189  1  0  0  0
 88190  1  0  0  0
 89 90  1  0  0  0
 89191  1  0  0  0
 90 91  1  0  0  0
 90192  1  0  0  0
 95193  1  0  0  0
M  CHG  1  95   1
M  ISO  4   1 100  68 101  87 101  88 100
M  END
> <chiral flag>
0

> <version>
0

> <s_m_source_file>
/data/baiqing/PycharmProjects/Reinvent-master-3.2/result/LINK_invent/BTK/process_docking_weight1_custom_sum_contain_oxygen_bond_distance_aromatic_linkinvent_7_9_3/rearranged_h_0064.sdf

> <i_m_source_file_index>
57

> <r_mmod_Potential_Energy-OPLS-2005>
-561.307067871094

> <r_mmod_Stretch_Energy-OPLS-2005>
68.2245178222656

> <r_mmod_Bend_Energy-OPLS-2005>
182.774291992188

> <r_mmod_Torsional_Energy-OPLS-2005>
213.134124755859

> <r_mmod_Improper_Torsional_Energy-OPLS-2005>
3.68247294425964

> <r_mmod_Van_der_Waal_Energy-OPLS-2005>
178.904159545898

> <r_mmod_Electrostatic_Energy-OPLS-2005>
-819.372985839844

> <r_mmod_Solvation_Energy-OPLS-2005>
-406.223480224609

> <b_mmod_Minimization_Converged-OPLS-2005>
0

> <r_mmod_RMS_Derivative-OPLS-2005>
3.40020227432251

$$$$
59
                    3D
 Structure written by MMmdl.
175183  0  0  1  0            999 V2000
  -30.6950  -14.5666   20.6788 C   0  0  0  0  0  0
  -30.4109  -12.3988   19.4541 C   0  0  0  0  0  0
  -29.4835  -12.5544   18.2310 C   0  0  0  0  0  0
  -28.0182  -12.3638   18.6526 C   0  0  0  0  0  0
  -27.6616  -13.2065   19.9058 C   0  0  2  0  0  0
  -28.7055  -13.0303   21.0383 C   0  0  0  0  0  0
  -25.2643  -13.8149   20.5893 C   0  0  0  0  0  0
  -24.1866  -13.0378   20.9262 C   0  0  0  0  0  0
  -24.6429  -11.6863   20.8818 C   0  0  0  0  0  0
  -23.9098  -10.4216   21.0410 C   0  0  0  0  0  0
  -24.3583   -9.4139   21.9195 C   0  0  0  0  0  0
  -23.6245   -8.2195   22.0747 C   0  0  0  0  0  0
  -22.4230   -8.0253   21.3541 C   0  0  0  0  0  0
  -21.9898   -9.0235   20.4646 C   0  0  0  0  0  0
  -22.7251  -10.2105   20.3074 C   0  0  0  0  0  0
  -21.6826   -6.0684   22.5239 C   0  0  0  0  0  0
  -21.4015   -6.5599   23.8169 C   0  0  0  0  0  0
  -21.3684   -5.6767   24.9139 C   0  0  0  0  0  0
  -21.6062   -4.3042   24.7201 C   0  0  0  0  0  0
  -21.8851   -3.8103   23.4343 C   0  0  0  0  0  0
  -21.9187   -4.6922   22.3356 C   0  0  0  0  0  0
  -22.7884  -13.5207   21.1853 C   0  0  0  0  0  0
  -22.1662   -4.2093   21.0956 F   0  0  0  0  0  0
  -21.5636   -3.4523   25.7732 F   0  0  0  0  0  0
  -30.0178  -13.3846   20.4915 N   0  0  0  0  0  0
  -26.3055  -12.9288   20.3624 N   0  0  0  0  0  0
  -25.9378  -11.6435   20.5919 N   0  0  0  0  0  0
  -22.0500  -12.8138   22.0396 N   0  0  0  0  0  0
  -25.4518  -15.1839   20.4477 N   0  0  0  0  0  0
  -31.7021  -14.7790   19.9937 O   0  0  0  0  0  0
  -21.6646   -6.8819   21.4187 O   0  0  0  0  0  0
  -22.3610  -14.5487   20.6652 O   0  0  0  0  0  0
  -24.6181  -31.8646   23.2093 C   0  0  0  0  0  0
  -25.9050  -32.4823   23.8425 C   0  0  1  0  0  0
  -27.2292  -27.3656   20.1386 C   0  0  0  0  0  0
  -25.5899  -33.8629   24.2347 N   0  0  0  0  0  0
  -23.4100  -30.4860   21.5510 C   0  0  2  0  0  0
  -24.8598  -28.9488   20.1068 C   0  0  0  0  0  0
  -22.7415  -29.4634   22.4986 C   0  0  0  0  0  0
  -18.0258  -28.1357   22.8489 C   0  0  0  0  0  0
  -24.1467  -36.7328   23.2643 C   0  0  0  0  0  0
  -25.9412  -30.8120   21.3660 C   0  0  0  0  0  0
  -26.0201  -29.4372   20.7240 C   0  0  0  0  0  0
  -27.2058  -28.6555   20.7336 C   0  0  0  0  0  0
  -26.0593  -26.9205   19.4817 C   0  0  0  0  0  0
  -24.8837  -27.6980   19.4674 C   0  0  0  0  0  0
  -23.6197  -29.8200   20.1632 C   0  0  0  0  0  0
  -25.4083  -36.3130   24.0359 C   0  0  1  0  0  0
  -20.5852  -28.3667   23.1293 C   0  0  2  0  0  0
  -20.6739  -26.9393   22.5407 C   0  0  0  0  0  0
  -19.5733  -26.6373   21.5193 C   0  0  0  0  0  0
  -18.1909  -26.7900   22.1619 C   0  0  0  0  0  0
  -19.1510  -28.8830   23.2895 C   0  0  0  0  0  0
  -18.9442  -30.1419   23.8927 C   0  0  0  0  0  0
  -17.6460  -30.6579   24.0559 C   0  0  0  0  0  0
  -25.9016  -34.9487   23.5157 C   0  0  0  0  0  0
  -16.5349  -29.9078   23.6316 C   0  0  0  0  0  0
  -16.7257  -28.6478   23.0368 C   0  0  0  0  0  0
  -26.4477  -31.6597   25.0742 C   0  0  0  0  0  0
  -25.3768  -31.3679   26.1512 C   0  0  0  0  0  0
  -27.0313  -30.3059   24.6070 C   0  0  0  0  0  0
  -27.6073  -32.4289   25.7511 C   0  0  0  0  0  0
  -27.5575  -37.1813   24.8471 C   0  0  0  0  0  0
  -21.4136  -29.3046   22.3715 N   0  0  0  0  0  0
  -26.4279  -37.3806   23.9422 N   0  0  0  0  0  0
  -24.6767  -31.0679   22.1017 N   0  0  0  0  0  0
  -23.4170  -28.8133   23.3018 O   0  0  0  0  0  0
  -28.3691  -26.5658   20.1763 O   0  0  0  0  0  0
  -26.5590  -34.8952   22.4717 O   0  0  0  0  0  0
  -23.5366  -32.1443   23.7439 O   0  0  0  0  0  0
  -30.0512  -18.9976   21.1283 C   0  0  0  0  0  0
  -29.0880  -18.0365   21.4095 C   0  0  0  0  0  0
  -27.8842  -18.7857   21.1318 C   0  0  0  0  0  0
  -25.7289  -19.4316   22.3036 C   0  0  0  0  0  0
  -29.6796  -20.3592   17.7342 C   0  0  0  0  0  0
  -32.4363  -20.9290   19.5357 C   0  0  0  0  0  0
  -26.4202  -18.4572   21.3205 C   0  0  0  0  0  0
  -29.6430  -21.6341   18.6087 C   0  0  0  0  0  0
  -31.4455  -21.6747   20.4533 C   0  0  0  0  0  0
  -29.3733  -24.2054   20.3899 C   0  0  0  0  0  0
  -29.1190  -22.7071   20.8371 C   0  0  0  0  0  0
  -28.2033  -25.2116   20.6966 C   0  0  0  0  0  0
  -29.1186  -16.5517   21.9598 C   0  0  1  0  0  0
  -30.4212  -15.6027   21.8533 C   0  0  0  0  0  0
  -29.9249  -21.5075   20.1457 C   0  0  0  0  0  0
  -28.6193  -16.5375   23.4515 C   0  0  0  0  0  0
  -28.1113  -19.9765   20.6179 N   0  0  0  0  0  0
  -29.4363  -20.1769   20.6529 N   0  0  0  0  0  0
  -28.1729  -15.9714   21.2258 F   0  0  0  0  0  0
  -30.4975  -14.8436   22.9493 F   0  0  0  0  0  0
  -31.4672  -16.4308   21.9120 F   0  0  0  0  0  0
  -27.6501  -17.4108   23.7080 F   0  0  0  0  0  0
  -28.1439  -15.3336   23.7770 F   0  0  0  0  0  0
  -29.6182  -16.8284   24.2899 F   0  0  0  0  0  0
  -31.4511  -12.5122   19.1496 H   0  0  0  0  0  0
  -30.3269  -11.3843   19.8475 H   0  0  0  0  0  0
  -29.7379  -11.8308   17.4527 H   0  0  0  0  0  0
  -29.6150  -13.5427   17.7866 H   0  0  0  0  0  0
  -27.8583  -11.3049   18.8643 H   0  0  0  0  0  0
  -27.3487  -12.6284   17.8311 H   0  0  0  0  0  0
  -27.6907  -14.2460   19.5838 H   0  0  0  0  0  0
  -28.7270  -11.9994   21.3969 H   0  0  0  0  0  0
  -28.4488  -13.6352   21.9026 H   0  0  0  0  0  0
  -25.2673   -9.5613   22.4854 H   0  0  0  0  0  0
  -23.9933   -7.4550   22.7444 H   0  0  0  0  0  0
  -21.0833   -8.8763   19.8909 H   0  0  0  0  0  0
  -22.3680  -10.9676   19.6238 H   0  0  0  0  0  0
  -21.2052   -7.6114   23.9657 H   0  0  0  0  0  0
  -21.1467   -6.0493   25.9036 H   0  0  0  0  0  0
  -22.0616   -2.7566   23.2836 H   0  0  0  0  0  0
  -22.4105  -11.9829   22.4830 H   0  0  0  0  0  0
  -21.1126  -13.1132   22.2646 H   0  0  0  0  0  0
  -26.3719  -15.5876   20.3161 H   0  0  0  0  0  0
  -24.7425  -15.8675   20.6853 H   0  0  0  0  0  0
  -26.7113  -32.5518   23.1199 H   0  0  0  0  0  0
  -25.0081  -33.9794   25.0519 H   0  0  0  0  0  0
  -22.7035  -31.3062   21.4139 H   0  0  0  0  0  0
  -23.3745  -35.9645   23.3302 H   0  0  0  0  0  0
  -24.3564  -36.8938   22.2056 H   0  0  0  0  0  0
  -23.7200  -37.6528   23.6648 H   0  0  0  0  0  0
  -26.0340  -31.5611   20.5788 H   0  0  0  0  0  0
  -26.8352  -30.8895   21.9710 H   0  0  0  0  0  0
  -28.0940  -29.0175   21.2282 H   0  0  0  0  0  0
  -26.0499  -25.9696   18.9683 H   0  0  0  0  0  0
  -24.0062  -27.3330   18.9491 H   0  0  0  0  0  0
  -23.7184  -30.5980   19.4063 H   0  0  0  0  0  0
  -22.7389  -29.2434   19.8727 H   0  0  0  0  0  0
  -25.1237  -36.2030   25.0855 H   0  0  0  0  0  0
  -20.9954  -28.3226   24.1419 H   0  0  0  0  0  0
  -20.5555  -26.2295   23.3603 H   0  0  0  0  0  0
  -21.6606  -26.7377   22.1246 H   0  0  0  0  0  0
  -19.6885  -25.6276   21.1216 H   0  0  0  0  0  0
  -19.6652  -27.3182   20.6710 H   0  0  0  0  0  0
  -17.4149  -26.6634   21.4041 H   0  0  0  0  0  0
  -18.0348  -26.0029   22.9011 H   0  0  0  0  0  0
  -19.7926  -30.7200   24.2330 H   0  0  0  0  0  0
  -17.5022  -31.6258   24.5145 H   0  0  0  0  0  0
  -15.5343  -30.3010   23.7605 H   0  0  0  0  0  0
  -15.8649  -28.0793   22.7120 H   0  0  0  0  0  0
  -24.5896  -30.7086   25.7832 H   0  0  0  0  0  0
  -24.9042  -32.2845   26.5064 H   0  0  0  0  0  0
  -25.8148  -30.8756   27.0217 H   0  0  0  0  0  0
  -26.2860  -29.6836   24.1109 H   0  0  0  0  0  0
  -27.4117  -29.7246   25.4482 H   0  0  0  0  0  0
  -27.8675  -30.4413   23.9204 H   0  0  0  0  0  0
  -27.2706  -33.3552   26.2189 H   0  0  0  0  0  0
  -28.3861  -32.6904   25.0326 H   0  0  0  0  0  0
  -28.0800  -31.8363   26.5363 H   0  0  0  0  0  0
  -28.2589  -38.0105   24.7508 H   0  0  0  0  0  0
  -28.1067  -36.2646   24.6289 H   0  0  0  0  0  0
  -27.2310  -37.1458   25.8876 H   0  0  0  0  0  0
  -20.9276  -29.8888   21.7059 H   0  0  0  0  0  0
  -26.0190  -38.2889   24.1439 H   0  0  0  0  0  0
  -31.1262  -18.9315   21.2320 H   0  0  0  0  0  0
  -25.5865  -20.4263   21.8743 H   0  0  0  0  0  0
  -26.2976  -19.5747   23.2259 H   0  0  0  0  0  0
  -24.7443  -19.0518   22.5761 H   0  0  0  0  0  0
  -29.4959  -20.6223   16.6930 H   0  0  0  0  0  0
  -28.9056  -19.6372   18.0032 H   0  0  0  0  0  0
  -30.6427  -19.8543   17.7631 H   0  0  0  0  0  0
  -32.1383  -19.9017   19.3244 H   0  0  0  0  0  0
  -33.4225  -20.8830   19.9979 H   0  0  0  0  0  0
  -32.5580  -21.4509   18.5829 H   0  0  0  0  0  0
  -26.2791  -17.4415   21.6807 H   0  0  0  0  0  0
  -25.9045  -18.5014   20.3605 H   0  0  0  0  0  0
  -28.6391  -22.0361   18.4784 H   0  0  0  0  0  0
  -30.2957  -22.3904   18.1678 H   0  0  0  0  0  0
  -31.7167  -22.7299   20.4097 H   0  0  0  0  0  0
  -31.6365  -21.3802   21.4885 H   0  0  0  0  0  0
  -29.5579  -24.2373   19.3172 H   0  0  0  0  0  0
  -30.2911  -24.5742   20.8549 H   0  0  0  0  0  0
  -28.0561  -22.5365   20.6623 H   0  0  0  0  0  0
  -29.2325  -22.6461   21.9204 H   0  0  0  0  0  0
  -28.0700  -25.2923   21.7761 H   0  0  0  0  0  0
  -27.2814  -24.7608   20.3319 H   0  0  0  0  0  0
  1 25  1  0  0  0
  1 30  2  0  0  0
  1 84  1  0  0  0
  2  3  1  0  0  0
  2 25  1  0  0  0
  2 95  1  0  0  0
  2 96  1  0  0  0
  3  4  1  0  0  0
  3 97  1  0  0  0
  3 98  1  0  0  0
  4  5  1  0  0  0
  4 99  1  0  0  0
  4100  1  0  0  0
  5  6  1  0  0  0
  5 26  1  0  0  0
  5101  1  0  0  0
  6 25  1  0  0  0
  6102  1  0  0  0
  6103  1  0  0  0
  7  8  2  0  0  0
  7 26  1  0  0  0
  7 29  1  0  0  0
  8  9  1  0  0  0
  8 22  1  0  0  0
  9 10  1  0  0  0
  9 27  2  0  0  0
 10 11  2  0  0  0
 10 15  1  0  0  0
 11 12  1  0  0  0
 11104  1  0  0  0
 12 13  2  0  0  0
 12105  1  0  0  0
 13 14  1  0  0  0
 13 31  1  0  0  0
 14 15  2  0  0  0
 14106  1  0  0  0
 15107  1  0  0  0
 16 17  2  0  0  0
 16 21  1  0  0  0
 16 31  1  0  0  0
 17 18  1  0  0  0
 17108  1  0  0  0
 18 19  2  0  0  0
 18109  1  0  0  0
 19 20  1  0  0  0
 19 24  1  0  0  0
 20 21  2  0  0  0
 20110  1  0  0  0
 21 23  1  0  0  0
 22 28  1  0  0  0
 22 32  2  0  0  0
 26 27  1  0  0  0
 28111  1  0  0  0
 28112  1  0  0  0
 29113  1  0  0  0
 29114  1  0  0  0
 33 34  1  0  0  0
 33 66  1  0  0  0
 33 70  2  0  0  0
 34 36  1  0  0  0
 34 59  1  0  0  0
 34115  1  0  0  0
 35 44  2  0  0  0
 35 45  1  0  0  0
 35 68  1  0  0  0
 36 56  1  0  0  0
 36116  1  0  0  0
 37 39  1  0  0  0
 37 47  1  0  0  0
 37 66  1  0  0  0
 37117  1  0  0  0
 38 43  2  0  0  0
 38 46  1  0  0  0
 38 47  1  0  0  0
 39 64  1  0  0  0
 39 67  2  0  0  0
 40 52  1  0  0  0
 40 53  2  0  0  0
 40 58  1  0  0  0
 41118  1  0  0  0
 41119  1  0  0  0
 41120  1  0  0  0
 41 48  1  0  0  0
 42 43  1  0  0  0
 42 66  1  0  0  0
 42121  1  0  0  0
 42122  1  0  0  0
 43 44  1  0  0  0
 44123  1  0  0  0
 45 46  2  0  0  0
 45124  1  0  0  0
 46125  1  0  0  0
 47126  1  0  0  0
 47127  1  0  0  0
 48 56  1  0  0  0
 48 65  1  0  0  0
 48128  1  0  0  0
 49 50  1  0  0  0
 49 53  1  0  0  0
 49 64  1  0  0  0
 49129  1  0  0  0
 50 51  1  0  0  0
 50130  1  0  0  0
 50131  1  0  0  0
 51 52  1  0  0  0
 51132  1  0  0  0
 51133  1  0  0  0
 52134  1  0  0  0
 52135  1  0  0  0
 53 54  1  0  0  0
 54 55  2  0  0  0
 54136  1  0  0  0
 55 57  1  0  0  0
 55137  1  0  0  0
 56 69  2  0  0  0
 57 58  2  0  0  0
 57138  1  0  0  0
 58139  1  0  0  0
 59 60  1  0  0  0
 59 61  1  0  0  0
 59 62  1  0  0  0
 60140  1  0  0  0
 60141  1  0  0  0
 60142  1  0  0  0
 61143  1  0  0  0
 61144  1  0  0  0
 61145  1  0  0  0
 62146  1  0  0  0
 62147  1  0  0  0
 62148  1  0  0  0
 63 65  1  0  0  0
 63149  1  0  0  0
 63150  1  0  0  0
 63151  1  0  0  0
 64152  1  0  0  0
 65153  1  0  0  0
 68 82  1  0  0  0
 71 72  2  0  0  0
 71 88  1  0  0  0
 71154  1  0  0  0
 72 73  1  0  0  0
 72 83  1  0  0  0
 73 77  1  0  0  0
 73 87  2  0  0  0
 74 77  1  0  0  0
 74155  1  0  0  0
 74156  1  0  0  0
 74157  1  0  0  0
 75 78  1  0  0  0
 75158  1  0  0  0
 75159  1  0  0  0
 75160  1  0  0  0
 76 79  1  0  0  0
 76161  1  0  0  0
 76162  1  0  0  0
 76163  1  0  0  0
 77164  1  0  0  0
 77165  1  0  0  0
 78166  1  0  0  0
 78167  1  0  0  0
 78 85  1  0  0  0
 79 85  1  0  0  0
 79168  1  0  0  0
 79169  1  0  0  0
 80 81  1  0  0  0
 80 82  1  0  0  0
 80170  1  0  0  0
 80171  1  0  0  0
 81 85  1  0  0  0
 81172  1  0  0  0
 81173  1  0  0  0
 82174  1  0  0  0
 82175  1  0  0  0
 83 84  1  0  0  0
 83 86  1  0  0  0
 83 89  1  0  0  0
 84 90  1  0  0  0
 84 91  1  0  0  0
 85 88  1  0  0  0
 86 92  1  0  0  0
 86 93  1  0  0  0
 86 94  1  0  0  0
 87 88  1  0  0  0
M  ISO  4   1 100  68 101  82 101  84 100
M  END
> <chiral flag>
0

> <version>
0

> <s_m_source_file>
/data/baiqing/PycharmProjects/Reinvent-master-3.2/result/LINK_invent/BTK/process_docking_weight1_custom_sum_contain_oxygen_bond_distance_aromatic_linkinvent_7_9_3/rearranged_h_0064.sdf

> <i_m_source_file_index>
58

> <r_mmod_Potential_Energy-OPLS-2005>
218.968658447266

> <r_mmod_Stretch_Energy-OPLS-2005>
88.4570770263672

> <r_mmod_Bend_Energy-OPLS-2005>
176.090148925781

> <r_mmod_Torsional_Energy-OPLS-2005>
240.177719116211

> <r_mmod_Improper_Torsional_Energy-OPLS-2005>
4.59554958343506

> <r_mmod_Van_der_Waal_Energy-OPLS-2005>
138.052185058594

> <r_mmod_Electrostatic_Energy-OPLS-2005>
-294.540771484375

> <r_mmod_Solvation_Energy-OPLS-2005>
-164.703659057617

> <b_mmod_Minimization_Converged-OPLS-2005>
0

> <r_mmod_RMS_Derivative-OPLS-2005>
7.15450811386108

$$$$
60
                    3D
 Structure written by MMmdl.
157165  0  0  1  0            999 V2000
  -30.6493  -14.6289   20.4935 C   0  0  0  0  0  0
  -30.4311  -12.3882   19.4489 C   0  0  0  0  0  0
  -29.5009  -12.5031   18.2217 C   0  0  0  0  0  0
  -28.0255  -12.3445   18.6368 C   0  0  0  0  0  0
  -27.6513  -13.2209   19.8622 C   0  0  2  0  0  0
  -28.6992  -13.0930   20.9915 C   0  0  0  0  0  0
  -25.2543  -13.8179   20.5684 C   0  0  0  0  0  0
  -24.1815  -13.0430   20.9172 C   0  0  0  0  0  0
  -24.6395  -11.6904   20.8737 C   0  0  0  0  0  0
  -23.9063  -10.4283   21.0400 C   0  0  0  0  0  0
  -24.3615   -9.4202   21.9180 C   0  0  0  0  0  0
  -23.6287   -8.2241   22.0756 C   0  0  0  0  0  0
  -22.4272   -8.0276   21.3545 C   0  0  0  0  0  0
  -21.9906   -9.0246   20.4651 C   0  0  0  0  0  0
  -22.7231  -10.2126   20.3054 C   0  0  0  0  0  0
  -21.6854   -6.0729   22.5272 C   0  0  0  0  0  0
  -21.4014   -6.5636   23.8201 C   0  0  0  0  0  0
  -21.3658   -5.6792   24.9165 C   0  0  0  0  0  0
  -21.6042   -4.3053   24.7220 C   0  0  0  0  0  0
  -21.8822   -3.8140   23.4344 C   0  0  0  0  0  0
  -21.9193   -4.6957   22.3399 C   0  0  0  0  0  0
  -22.7839  -13.5219   21.1835 C   0  0  0  0  0  0
  -22.1662   -4.2141   21.0978 F   0  0  0  0  0  0
  -21.5629   -3.4541   25.7737 F   0  0  0  0  0  0
  -30.0124  -13.4194   20.4188 N   0  0  0  0  0  0
  -26.2986  -12.9375   20.3338 N   0  0  0  0  0  0
  -25.9329  -11.6522   20.5778 N   0  0  0  0  0  0
  -22.0496  -12.8216   22.0406 N   0  0  0  0  0  0
  -25.4228  -15.1906   20.4107 N   0  0  0  0  0  0
  -31.8158  -14.7637   20.1172 O   0  0  0  0  0  0
  -21.6640   -6.8872   21.4234 O   0  0  0  0  0  0
  -22.3518  -14.5525   20.6686 O   0  0  0  0  0  0
  -24.6257  -31.8600   23.2033 C   0  0  0  0  0  0
  -25.9114  -32.4781   23.8347 C   0  0  1  0  0  0
  -27.2203  -27.3257   20.1089 C   0  0  0  0  0  0
  -25.5929  -33.8585   24.2272 N   0  0  0  0  0  0
  -23.4181  -30.4854   21.5459 C   0  0  2  0  0  0
  -24.8620  -28.9433   20.1088 C   0  0  0  0  0  0
  -22.7477  -29.4625   22.4932 C   0  0  0  0  0  0
  -18.0291  -28.1392   22.8477 C   0  0  0  0  0  0
  -24.1488  -36.7286   23.2639 C   0  0  0  0  0  0
  -25.9592  -30.7926   21.3729 C   0  0  0  0  0  0
  -26.0313  -29.4218   20.7120 C   0  0  0  0  0  0
  -27.2135  -28.6246   20.7020 C   0  0  0  0  0  0
  -26.0256  -26.8972   19.4854 C   0  0  0  0  0  0
  -24.8606  -27.6858   19.4870 C   0  0  0  0  0  0
  -23.6306  -29.8237   20.1593 C   0  0  0  0  0  0
  -25.4106  -36.3080   24.0337 C   0  0  1  0  0  0
  -20.5891  -28.3681   23.1283 C   0  0  2  0  0  0
  -20.6778  -26.9403   22.5408 C   0  0  0  0  0  0
  -19.5750  -26.6373   21.5219 C   0  0  0  0  0  0
  -18.1928  -26.7931   22.1628 C   0  0  0  0  0  0
  -19.1545  -28.8852   23.2875 C   0  0  0  0  0  0
  -18.9476  -30.1457   23.8889 C   0  0  0  0  0  0
  -17.6476  -30.6585   24.0571 C   0  0  0  0  0  0
  -25.9049  -34.9455   23.5102 C   0  0  0  0  0  0
  -16.5366  -29.9087   23.6342 C   0  0  0  0  0  0
  -16.7280  -28.6516   23.0337 C   0  0  0  0  0  0
  -26.4492  -31.6601   25.0721 C   0  0  0  0  0  0
  -25.3728  -31.3751   26.1454 C   0  0  0  0  0  0
  -27.0338  -30.3036   24.6158 C   0  0  0  0  0  0
  -27.6049  -32.4333   25.7498 C   0  0  0  0  0  0
  -27.5579  -37.1788   24.8461 C   0  0  0  0  0  0
  -21.4191  -29.3045   22.3692 N   0  0  0  0  0  0
  -26.4277  -37.3781   23.9426 N   0  0  0  0  0  0
  -24.6866  -31.0616   22.0979 N   0  0  0  0  0  0
  -23.4210  -28.8144   23.2990 O   0  0  0  0  0  0
  -28.3431  -26.4864   20.1546 O   0  0  0  0  0  0
  -26.5616  -34.8934   22.4663 O   0  0  0  0  0  0
  -23.5427  -32.1392   23.7372 O   0  0  0  0  0  0
  -29.9330  -21.7026   19.4726 C   0  0  0  0  0  0
  -28.3873  -20.5226   21.3256 C   0  0  0  0  0  0
  -29.1700  -22.5130   20.3641 C   0  0  0  0  0  0
  -29.1442  -19.7060   20.4314 C   0  0  0  0  0  0
  -30.9550  -17.6303   21.9918 C   0  0  0  0  0  0
  -28.3344  -17.7199   19.0476 C   0  0  0  0  0  0
  -29.3300  -24.0765   20.4294 C   0  0  0  0  0  0
  -28.1375  -25.0263   20.0086 C   0  0  0  0  0  0
  -30.2273  -17.1853   20.7104 C   0  0  2  0  0  0
  -28.9835  -18.1283   20.3815 C   0  0  1  0  0  0
  -28.4011  -21.8944   21.3026 N   0  0  0  0  0  0
  -29.9231  -20.3311   19.4992 N   0  0  0  0  0  0
  -29.8835  -15.7168   20.8051 N   0  0  0  0  0  0
  -28.0801  -17.7927   21.3059 F   0  0  0  0  0  0
  -31.4727  -12.5028   19.1433 H   0  0  0  0  0  0
  -30.3601  -11.3964   19.8981 H   0  0  0  0  0  0
  -29.7625  -11.7497   17.4774 H   0  0  0  0  0  0
  -29.6436  -13.4715   17.7395 H   0  0  0  0  0  0
  -27.8602  -11.2919   18.8699 H   0  0  0  0  0  0
  -27.3700  -12.5738   17.7960 H   0  0  0  0  0  0
  -27.6639  -14.2531   19.5130 H   0  0  0  0  0  0
  -28.7091  -12.0797   21.3957 H   0  0  0  0  0  0
  -28.4528  -13.7492   21.8283 H   0  0  0  0  0  0
  -25.2764   -9.5678   22.4751 H   0  0  0  0  0  0
  -23.9991   -7.4640   22.7482 H   0  0  0  0  0  0
  -21.0833   -8.8761   19.8966 H   0  0  0  0  0  0
  -22.3680  -10.9664   19.6163 H   0  0  0  0  0  0
  -21.2006   -7.6144   23.9700 H   0  0  0  0  0  0
  -21.1478   -6.0526   25.9069 H   0  0  0  0  0  0
  -22.0605   -2.7602   23.2846 H   0  0  0  0  0  0
  -22.4125  -11.9869   22.4769 H   0  0  0  0  0  0
  -21.1125  -13.1250   22.2648 H   0  0  0  0  0  0
  -24.6534  -15.8409   20.5273 H   0  0  0  0  0  0
  -26.2765  -15.6408   20.1098 H   0  0  0  0  0  0
  -26.7178  -32.5447   23.1086 H   0  0  0  0  0  0
  -25.0107  -33.9728   25.0437 H   0  0  0  0  0  0
  -22.7120  -31.3064   21.4050 H   0  0  0  0  0  0
  -23.3772  -35.9599   23.3277 H   0  0  0  0  0  0
  -24.3584  -36.8924   22.2059 H   0  0  0  0  0  0
  -23.7218  -37.6472   23.6671 H   0  0  0  0  0  0
  -26.0888  -31.5575   20.6058 H   0  0  0  0  0  0
  -26.8417  -30.8386   22.0002 H   0  0  0  0  0  0
  -28.1106  -28.9863   21.1841 H   0  0  0  0  0  0
  -25.9618  -25.9371   18.9966 H   0  0  0  0  0  0
  -23.9658  -27.3120   19.0094 H   0  0  0  0  0  0
  -23.7512  -30.6032   19.4061 H   0  0  0  0  0  0
  -22.7505  -29.2557   19.8533 H   0  0  0  0  0  0
  -25.1284  -36.1926   25.0831 H   0  0  0  0  0  0
  -20.9980  -28.3247   24.1406 H   0  0  0  0  0  0
  -20.5680  -26.2289   23.3604 H   0  0  0  0  0  0
  -21.6640  -26.7419   22.1199 H   0  0  0  0  0  0
  -19.6911  -25.6283   21.1248 H   0  0  0  0  0  0
  -19.6701  -27.3184   20.6752 H   0  0  0  0  0  0
  -17.4198  -26.6683   21.4035 H   0  0  0  0  0  0
  -18.0319  -26.0073   22.9021 H   0  0  0  0  0  0
  -19.7958  -30.7277   24.2236 H   0  0  0  0  0  0
  -17.5042  -31.6272   24.5160 H   0  0  0  0  0  0
  -15.5370  -30.2995   23.7677 H   0  0  0  0  0  0
  -15.8678  -28.0856   22.7029 H   0  0  0  0  0  0
  -24.5888  -30.7112   25.7788 H   0  0  0  0  0  0
  -24.8942  -32.2937   26.4870 H   0  0  0  0  0  0
  -25.8045  -30.8932   27.0233 H   0  0  0  0  0  0
  -26.2911  -29.6788   24.1185 H   0  0  0  0  0  0
  -27.4070  -29.7282   25.4637 H   0  0  0  0  0  0
  -27.8760  -30.4347   23.9358 H   0  0  0  0  0  0
  -27.2657  -33.3645   26.2048 H   0  0  0  0  0  0
  -28.3881  -32.6863   25.0341 H   0  0  0  0  0  0
  -28.0688  -31.8474   26.5441 H   0  0  0  0  0  0
  -28.2560  -38.0123   24.7552 H   0  0  0  0  0  0
  -28.1110  -36.2650   24.6218 H   0  0  0  0  0  0
  -27.2312  -37.1354   25.8868 H   0  0  0  0  0  0
  -20.9350  -29.8796   21.6939 H   0  0  0  0  0  0
  -26.0160  -38.2850   24.1463 H   0  0  0  0  0  0
  -30.5870  -22.1604   18.7446 H   0  0  0  0  0  0
  -27.7326  -20.0756   22.0595 H   0  0  0  0  0  0
  -31.2826  -18.6678   21.9207 H   0  0  0  0  0  0
  -31.8440  -17.0259   22.1739 H   0  0  0  0  0  0
  -30.3086  -17.5478   22.8659 H   0  0  0  0  0  0
  -28.9927  -17.9438   18.2088 H   0  0  0  0  0  0
  -27.4002  -18.2585   18.8880 H   0  0  0  0  0  0
  -28.1067  -16.6559   19.0103 H   0  0  0  0  0  0
  -30.1970  -24.3404   19.8232 H   0  0  0  0  0  0
  -29.6121  -24.3219   21.4530 H   0  0  0  0  0  0
  -27.2687  -24.7346   20.6012 H   0  0  0  0  0  0
  -27.8954  -24.8144   18.9667 H   0  0  0  0  0  0
  -30.9351  -17.3056   19.8881 H   0  0  0  0  0  0
  -28.9322  -15.5188   21.0756 H   0  0  0  0  0  0
  1 25  1  0  0  0
  1 30  2  0  0  0
  1 83  1  0  0  0
  2  3  1  0  0  0
  2 25  1  0  0  0
  2 85  1  0  0  0
  2 86  1  0  0  0
  3  4  1  0  0  0
  3 87  1  0  0  0
  3 88  1  0  0  0
  4  5  1  0  0  0
  4 89  1  0  0  0
  4 90  1  0  0  0
  5  6  1  0  0  0
  5 26  1  0  0  0
  5 91  1  0  0  0
  6 25  1  0  0  0
  6 92  1  0  0  0
  6 93  1  0  0  0
  7  8  2  0  0  0
  7 26  1  0  0  0
  7 29  1  0  0  0
  8  9  1  0  0  0
  8 22  1  0  0  0
  9 10  1  0  0  0
  9 27  2  0  0  0
 10 11  2  0  0  0
 10 15  1  0  0  0
 11 12  1  0  0  0
 11 94  1  0  0  0
 12 13  2  0  0  0
 12 95  1  0  0  0
 13 14  1  0  0  0
 13 31  1  0  0  0
 14 15  2  0  0  0
 14 96  1  0  0  0
 15 97  1  0  0  0
 16 17  2  0  0  0
 16 21  1  0  0  0
 16 31  1  0  0  0
 17 18  1  0  0  0
 17 98  1  0  0  0
 18 19  2  0  0  0
 18 99  1  0  0  0
 19 20  1  0  0  0
 19 24  1  0  0  0
 20 21  2  0  0  0
 20100  1  0  0  0
 21 23  1  0  0  0
 22 28  1  0  0  0
 22 32  2  0  0  0
 26 27  1  0  0  0
 28101  1  0  0  0
 28102  1  0  0  0
 29103  1  0  0  0
 29104  1  0  0  0
 33 34  1  0  0  0
 33 66  1  0  0  0
 33 70  2  0  0  0
 34 36  1  0  0  0
 34 59  1  0  0  0
 34105  1  0  0  0
 35 44  2  0  0  0
 35 45  1  0  0  0
 35 68  1  0  0  0
 36 56  1  0  0  0
 36106  1  0  0  0
 37 39  1  0  0  0
 37 47  1  0  0  0
 37 66  1  0  0  0
 37107  1  0  0  0
 38 43  2  0  0  0
 38 46  1  0  0  0
 38 47  1  0  0  0
 39 64  1  0  0  0
 39 67  2  0  0  0
 40 52  1  0  0  0
 40 53  2  0  0  0
 40 58  1  0  0  0
 41108  1  0  0  0
 41109  1  0  0  0
 41110  1  0  0  0
 41 48  1  0  0  0
 42 43  1  0  0  0
 42 66  1  0  0  0
 42111  1  0  0  0
 42112  1  0  0  0
 43 44  1  0  0  0
 44113  1  0  0  0
 45 46  2  0  0  0
 45114  1  0  0  0
 46115  1  0  0  0
 47116  1  0  0  0
 47117  1  0  0  0
 48 56  1  0  0  0
 48 65  1  0  0  0
 48118  1  0  0  0
 49 50  1  0  0  0
 49 53  1  0  0  0
 49 64  1  0  0  0
 49119  1  0  0  0
 50 51  1  0  0  0
 50120  1  0  0  0
 50121  1  0  0  0
 51 52  1  0  0  0
 51122  1  0  0  0
 51123  1  0  0  0
 52124  1  0  0  0
 52125  1  0  0  0
 53 54  1  0  0  0
 54 55  2  0  0  0
 54126  1  0  0  0
 55 57  1  0  0  0
 55127  1  0  0  0
 56 69  2  0  0  0
 57 58  2  0  0  0
 57128  1  0  0  0
 58129  1  0  0  0
 59 60  1  0  0  0
 59 61  1  0  0  0
 59 62  1  0  0  0
 60130  1  0  0  0
 60131  1  0  0  0
 60132  1  0  0  0
 61133  1  0  0  0
 61134  1  0  0  0
 61135  1  0  0  0
 62136  1  0  0  0
 62137  1  0  0  0
 62138  1  0  0  0
 63 65  1  0  0  0
 63139  1  0  0  0
 63140  1  0  0  0
 63141  1  0  0  0
 64142  1  0  0  0
 65143  1  0  0  0
 68 78  1  0  0  0
 71 73  2  0  0  0
 71 82  1  0  0  0
 71144  1  0  0  0
 72 74  1  0  0  0
 72 81  2  0  0  0
 72145  1  0  0  0
 73 77  1  0  0  0
 73 81  1  0  0  0
 74 80  1  0  0  0
 74 82  2  0  0  0
 75146  1  0  0  0
 75147  1  0  0  0
 75148  1  0  0  0
 75 79  1  0  0  0
 76149  1  0  0  0
 76150  1  0  0  0
 76151  1  0  0  0
 76 80  1  0  0  0
 77 78  1  0  0  0
 77152  1  0  0  0
 77153  1  0  0  0
 78154  1  0  0  0
 78155  1  0  0  0
 79 80  1  0  0  0
 79 83  1  0  0  0
 79156  1  0  0  0
 80 84  1  0  0  0
 83157  1  0  0  0
M  ISO  4   1 100  68 101  78 101  83 100
M  END
> <chiral flag>
0

> <version>
0

> <s_m_source_file>
/data/baiqing/PycharmProjects/Reinvent-master-3.2/result/LINK_invent/BTK/process_docking_weight1_custom_sum_contain_oxygen_bond_distance_aromatic_linkinvent_7_9_3/rearranged_h_0064.sdf

> <i_m_source_file_index>
59

> <r_mmod_Potential_Energy-OPLS-2005>
57.7038764953613

> <r_mmod_Stretch_Energy-OPLS-2005>
81.6923446655273

> <r_mmod_Bend_Energy-OPLS-2005>
127.355842590332

> <r_mmod_Torsional_Energy-OPLS-2005>
188.146636962891

> <r_mmod_Improper_Torsional_Energy-OPLS-2005>
5.4974250793457

> <r_mmod_Van_der_Waal_Energy-OPLS-2005>
144.520614624023

> <r_mmod_Electrostatic_Energy-OPLS-2005>
-322.131225585938

> <r_mmod_Solvation_Energy-OPLS-2005>
-213.257522583008

> <b_mmod_Minimization_Converged-OPLS-2005>
0

> <r_mmod_RMS_Derivative-OPLS-2005>
1.26244878768921

$$$$
61
                    3D
 Structure written by MMmdl.
167175  0  0  1  0            999 V2000
  -30.7012  -14.5421   20.5325 C   0  0  0  0  0  0
  -30.4120  -12.3436   19.4402 C   0  0  0  0  0  0
  -29.4959  -12.5143   18.2139 C   0  0  0  0  0  0
  -28.0172  -12.3653   18.6212 C   0  0  0  0  0  0
  -27.6510  -13.2225   19.8644 C   0  0  2  0  0  0
  -28.6943  -13.0614   20.9908 C   0  0  0  0  0  0
  -25.2527  -13.8191   20.5665 C   0  0  0  0  0  0
  -24.1812  -13.0451   20.9184 C   0  0  0  0  0  0
  -24.6395  -11.6919   20.8737 C   0  0  0  0  0  0
  -23.9055  -10.4301   21.0387 C   0  0  0  0  0  0
  -24.3605   -9.4218   21.9167 C   0  0  0  0  0  0
  -23.6291   -8.2247   22.0735 C   0  0  0  0  0  0
  -22.4276   -8.0274   21.3532 C   0  0  0  0  0  0
  -21.9908   -9.0244   20.4629 C   0  0  0  0  0  0
  -22.7225  -10.2126   20.3041 C   0  0  0  0  0  0
  -21.6861   -6.0725   22.5276 C   0  0  0  0  0  0
  -21.4013   -6.5629   23.8206 C   0  0  0  0  0  0
  -21.3672   -5.6784   24.9175 C   0  0  0  0  0  0
  -21.6053   -4.3049   24.7224 C   0  0  0  0  0  0
  -21.8820   -3.8136   23.4349 C   0  0  0  0  0  0
  -21.9195   -4.6952   22.3401 C   0  0  0  0  0  0
  -22.7829  -13.5217   21.1859 C   0  0  0  0  0  0
  -22.1664   -4.2137   21.0978 F   0  0  0  0  0  0
  -21.5631   -3.4537   25.7738 F   0  0  0  0  0  0
  -30.0152  -13.3671   20.4233 N   0  0  0  0  0  0
  -26.2970  -12.9395   20.3319 N   0  0  0  0  0  0
  -25.9323  -11.6545   20.5746 N   0  0  0  0  0  0
  -22.0482  -12.8221   22.0431 N   0  0  0  0  0  0
  -25.4262  -15.1897   20.4025 N   0  0  0  0  0  0
  -31.8576  -14.6581   20.1229 O   0  0  0  0  0  0
  -21.6655   -6.8863   21.4236 O   0  0  0  0  0  0
  -22.3523  -14.5533   20.6707 O   0  0  0  0  0  0
  -24.6165  -31.8661   23.2092 C   0  0  0  0  0  0
  -25.9046  -32.4814   23.8395 C   0  0  1  0  0  0
  -27.2173  -27.3845   20.1165 C   0  0  0  0  0  0
  -25.5879  -33.8615   24.2316 N   0  0  0  0  0  0
  -23.4053  -30.4941   21.5481 C   0  0  2  0  0  0
  -24.8511  -28.9615   20.1065 C   0  0  0  0  0  0
  -22.7411  -29.4670   22.4948 C   0  0  0  0  0  0
  -18.0284  -28.1381   22.8504 C   0  0  0  0  0  0
  -24.1481  -36.7300   23.2646 C   0  0  0  0  0  0
  -25.9394  -30.8159   21.3739 C   0  0  0  0  0  0
  -26.0122  -29.4494   20.7186 C   0  0  0  0  0  0
  -27.1949  -28.6672   20.7253 C   0  0  0  0  0  0
  -26.0439  -26.9438   19.4590 C   0  0  0  0  0  0
  -24.8649  -27.7101   19.4705 C   0  0  0  0  0  0
  -23.6149  -29.8314   20.1605 C   0  0  0  0  0  0
  -25.4106  -36.3109   24.0343 C   0  0  1  0  0  0
  -20.5875  -28.3679   23.1298 C   0  0  2  0  0  0
  -20.6776  -26.9409   22.5413 C   0  0  0  0  0  0
  -19.5748  -26.6396   21.5218 C   0  0  0  0  0  0
  -18.1928  -26.7933   22.1630 C   0  0  0  0  0  0
  -19.1534  -28.8845   23.2911 C   0  0  0  0  0  0
  -18.9461  -30.1449   23.8926 C   0  0  0  0  0  0
  -17.6457  -30.6593   24.0565 C   0  0  0  0  0  0
  -25.9026  -34.9477   23.5127 C   0  0  0  0  0  0
  -16.5353  -29.9093   23.6323 C   0  0  0  0  0  0
  -16.7270  -28.6500   23.0355 C   0  0  0  0  0  0
  -26.4467  -31.6595   25.0727 C   0  0  0  0  0  0
  -25.3730  -31.3704   26.1465 C   0  0  0  0  0  0
  -27.0294  -30.3026   24.6135 C   0  0  0  0  0  0
  -27.6043  -32.4325   25.7475 C   0  0  0  0  0  0
  -27.5579  -37.1805   24.8471 C   0  0  0  0  0  0
  -21.4138  -29.3041   22.3686 N   0  0  0  0  0  0
  -26.4297  -37.3795   23.9411 N   0  0  0  0  0  0
  -24.6721  -31.0742   22.1006 N   0  0  0  0  0  0
  -23.4174  -28.8224   23.3006 O   0  0  0  0  0  0
  -28.3606  -26.5961   20.1883 O   0  0  0  0  0  0
  -26.5607  -34.8934   22.4698 O   0  0  0  0  0  0
  -23.5342  -32.1434   23.7454 O   0  0  0  0  0  0
  -28.9415  -21.6482   21.3127 C   0  0  0  0  0  0
  -29.1336  -22.7683   20.5337 C   0  0  0  0  0  0
  -30.4507  -17.8864   18.9304 C   0  0  0  0  0  0
  -28.6510  -24.4282   22.3624 C   0  0  0  0  0  0
  -30.6059  -24.7791   20.8457 C   0  0  0  0  0  0
  -28.5306  -18.8962   22.2199 C   0  0  0  0  0  0
  -27.7457  -18.5698   19.8910 C   0  0  0  0  0  0
  -30.6087  -16.9565   21.3136 C   0  0  0  0  0  0
  -28.2449  -25.1537   19.9860 C   0  0  0  0  0  0
  -30.2502  -18.2220   20.4249 C   0  0  2  0  0  0
  -29.1551  -24.2681   20.9110 C   0  0  0  0  0  0
  -28.9381  -19.0755   20.7389 C   0  0  0  0  0  0
  -29.4282  -22.3031   19.2497 N   0  0  0  0  0  0
  -29.3894  -21.0000   19.2199 N   0  0  0  0  0  0
  -29.1046  -20.5449   20.4699 N   0  0  0  0  0  0
  -30.0198  -15.6254   20.9859 N   0  0  0  0  0  0
  -31.4604  -12.4234   19.1464 H   0  0  0  0  0  0
  -30.2969  -11.3460   19.8693 H   0  0  0  0  0  0
  -29.7499  -11.7806   17.4484 H   0  0  0  0  0  0
  -29.6628  -13.4955   17.7664 H   0  0  0  0  0  0
  -27.8374  -11.3105   18.8307 H   0  0  0  0  0  0
  -27.3670  -12.6193   17.7832 H   0  0  0  0  0  0
  -27.6774  -14.2639   19.5432 H   0  0  0  0  0  0
  -28.6831  -12.0395   21.3719 H   0  0  0  0  0  0
  -28.4563  -13.7006   21.8415 H   0  0  0  0  0  0
  -25.2744   -9.5710   22.4752 H   0  0  0  0  0  0
  -24.0008   -7.4647   22.7451 H   0  0  0  0  0  0
  -21.0836   -8.8739   19.8944 H   0  0  0  0  0  0
  -22.3651  -10.9658   19.6150 H   0  0  0  0  0  0
  -21.2002   -7.6136   23.9706 H   0  0  0  0  0  0
  -21.1498   -6.0517   25.9073 H   0  0  0  0  0  0
  -22.0592   -2.7600   23.2857 H   0  0  0  0  0  0
  -22.4113  -11.9877   22.4809 H   0  0  0  0  0  0
  -21.1088  -13.1220   22.2610 H   0  0  0  0  0  0
  -24.6558  -15.8440   20.4794 H   0  0  0  0  0  0
  -26.2730  -15.6184   20.0545 H   0  0  0  0  0  0
  -26.7100  -32.5497   23.1136 H   0  0  0  0  0  0
  -25.0012  -33.9781   25.0448 H   0  0  0  0  0  0
  -22.6983  -31.3145   21.4101 H   0  0  0  0  0  0
  -23.3752  -35.9623   23.3334 H   0  0  0  0  0  0
  -24.3584  -36.8886   22.2057 H   0  0  0  0  0  0
  -23.7221  -37.6512   23.6636 H   0  0  0  0  0  0
  -26.0652  -31.5837   20.6101 H   0  0  0  0  0  0
  -26.8220  -30.8614   21.9998 H   0  0  0  0  0  0
  -28.0806  -29.0297   21.2302 H   0  0  0  0  0  0
  -26.0085  -26.0048   18.9269 H   0  0  0  0  0  0
  -23.9768  -27.3373   18.9788 H   0  0  0  0  0  0
  -23.7176  -30.6069   19.4004 H   0  0  0  0  0  0
  -22.7379  -29.2518   19.8652 H   0  0  0  0  0  0
  -25.1283  -36.1986   25.0840 H   0  0  0  0  0  0
  -20.9998  -28.3252   24.1401 H   0  0  0  0  0  0
  -20.5692  -26.2283   23.3606 H   0  0  0  0  0  0
  -21.6638  -26.7452   22.1186 H   0  0  0  0  0  0
  -19.6912  -25.6317   21.1217 H   0  0  0  0  0  0
  -19.6677  -27.3239   20.6774 H   0  0  0  0  0  0
  -17.4194  -26.6692   21.4030 H   0  0  0  0  0  0
  -18.0320  -26.0079   22.9026 H   0  0  0  0  0  0
  -19.7939  -30.7263   24.2304 H   0  0  0  0  0  0
  -17.5015  -31.6279   24.5157 H   0  0  0  0  0  0
  -15.5351  -30.3000   23.7645 H   0  0  0  0  0  0
  -15.8671  -28.0833   22.7054 H   0  0  0  0  0  0
  -24.5912  -30.7036   25.7800 H   0  0  0  0  0  0
  -24.8900  -32.2848   26.4910 H   0  0  0  0  0  0
  -25.8074  -30.8875   27.0224 H   0  0  0  0  0  0
  -26.2833  -29.6795   24.1177 H   0  0  0  0  0  0
  -27.4032  -29.7261   25.4613 H   0  0  0  0  0  0
  -27.8694  -30.4335   23.9312 H   0  0  0  0  0  0
  -27.2667  -33.3635   26.2045 H   0  0  0  0  0  0
  -28.3833  -32.6871   25.0275 H   0  0  0  0  0  0
  -28.0723  -31.8453   26.5387 H   0  0  0  0  0  0
  -28.2608  -38.0096   24.7524 H   0  0  0  0  0  0
  -28.1065  -36.2627   24.6287 H   0  0  0  0  0  0
  -27.2301  -37.1446   25.8879 H   0  0  0  0  0  0
  -20.9296  -29.8757   21.6906 H   0  0  0  0  0  0
  -26.0190  -38.2875   24.1416 H   0  0  0  0  0  0
  -28.7149  -21.5538   22.3659 H   0  0  0  0  0  0
  -30.4189  -18.7747   18.3029 H   0  0  0  0  0  0
  -29.6860  -17.2002   18.5684 H   0  0  0  0  0  0
  -31.4147  -17.4085   18.7563 H   0  0  0  0  0  0
  -28.6393  -25.4717   22.6749 H   0  0  0  0  0  0
  -29.2838  -23.8907   23.0697 H   0  0  0  0  0  0
  -27.6332  -24.0473   22.4696 H   0  0  0  0  0  0
  -30.6772  -25.8272   21.1363 H   0  0  0  0  0  0
  -31.0082  -24.6954   19.8358 H   0  0  0  0  0  0
  -31.2541  -24.2096   21.5130 H   0  0  0  0  0  0
  -28.2860  -17.8582   22.4468 H   0  0  0  0  0  0
  -27.6375  -19.4726   22.4589 H   0  0  0  0  0  0
  -29.3220  -19.2158   22.9005 H   0  0  0  0  0  0
  -27.6025  -17.4969   20.0079 H   0  0  0  0  0  0
  -27.8811  -18.7640   18.8272 H   0  0  0  0  0  0
  -26.8180  -19.0622   20.1810 H   0  0  0  0  0  0
  -31.6961  -16.8584   21.2725 H   0  0  0  0  0  0
  -30.4338  -17.1503   22.3706 H   0  0  0  0  0  0
  -28.4783  -24.9587   18.9388 H   0  0  0  0  0  0
  -27.2295  -24.7968   20.1502 H   0  0  0  0  0  0
  -31.0562  -18.9200   20.6628 H   0  0  0  0  0  0
  -29.0604  -15.4716   21.2542 H   0  0  0  0  0  0
  1 25  1  0  0  0
  1 30  2  0  0  0
  1 86  1  0  0  0
  2  3  1  0  0  0
  2 25  1  0  0  0
  2 87  1  0  0  0
  2 88  1  0  0  0
  3  4  1  0  0  0
  3 89  1  0  0  0
  3 90  1  0  0  0
  4  5  1  0  0  0
  4 91  1  0  0  0
  4 92  1  0  0  0
  5  6  1  0  0  0
  5 26  1  0  0  0
  5 93  1  0  0  0
  6 25  1  0  0  0
  6 94  1  0  0  0
  6 95  1  0  0  0
  7  8  2  0  0  0
  7 26  1  0  0  0
  7 29  1  0  0  0
  8  9  1  0  0  0
  8 22  1  0  0  0
  9 10  1  0  0  0
  9 27  2  0  0  0
 10 11  2  0  0  0
 10 15  1  0  0  0
 11 12  1  0  0  0
 11 96  1  0  0  0
 12 13  2  0  0  0
 12 97  1  0  0  0
 13 14  1  0  0  0
 13 31  1  0  0  0
 14 15  2  0  0  0
 14 98  1  0  0  0
 15 99  1  0  0  0
 16 17  2  0  0  0
 16 21  1  0  0  0
 16 31  1  0  0  0
 17 18  1  0  0  0
 17100  1  0  0  0
 18 19  2  0  0  0
 18101  1  0  0  0
 19 20  1  0  0  0
 19 24  1  0  0  0
 20 21  2  0  0  0
 20102  1  0  0  0
 21 23  1  0  0  0
 22 28  1  0  0  0
 22 32  2  0  0  0
 26 27  1  0  0  0
 28103  1  0  0  0
 28104  1  0  0  0
 29105  1  0  0  0
 29106  1  0  0  0
 33 34  1  0  0  0
 33 66  1  0  0  0
 33 70  2  0  0  0
 34 36  1  0  0  0
 34 59  1  0  0  0
 34107  1  0  0  0
 35 44  2  0  0  0
 35 45  1  0  0  0
 35 68  1  0  0  0
 36 56  1  0  0  0
 36108  1  0  0  0
 37 39  1  0  0  0
 37 47  1  0  0  0
 37 66  1  0  0  0
 37109  1  0  0  0
 38 43  2  0  0  0
 38 46  1  0  0  0
 38 47  1  0  0  0
 39 64  1  0  0  0
 39 67  2  0  0  0
 40 52  1  0  0  0
 40 53  2  0  0  0
 40 58  1  0  0  0
 41110  1  0  0  0
 41111  1  0  0  0
 41112  1  0  0  0
 41 48  1  0  0  0
 42 43  1  0  0  0
 42 66  1  0  0  0
 42113  1  0  0  0
 42114  1  0  0  0
 43 44  1  0  0  0
 44115  1  0  0  0
 45 46  2  0  0  0
 45116  1  0  0  0
 46117  1  0  0  0
 47118  1  0  0  0
 47119  1  0  0  0
 48 56  1  0  0  0
 48 65  1  0  0  0
 48120  1  0  0  0
 49 50  1  0  0  0
 49 53  1  0  0  0
 49 64  1  0  0  0
 49121  1  0  0  0
 50 51  1  0  0  0
 50122  1  0  0  0
 50123  1  0  0  0
 51 52  1  0  0  0
 51124  1  0  0  0
 51125  1  0  0  0
 52126  1  0  0  0
 52127  1  0  0  0
 53 54  1  0  0  0
 54 55  2  0  0  0
 54128  1  0  0  0
 55 57  1  0  0  0
 55129  1  0  0  0
 56 69  2  0  0  0
 57 58  2  0  0  0
 57130  1  0  0  0
 58131  1  0  0  0
 59 60  1  0  0  0
 59 61  1  0  0  0
 59 62  1  0  0  0
 60132  1  0  0  0
 60133  1  0  0  0
 60134  1  0  0  0
 61135  1  0  0  0
 61136  1  0  0  0
 61137  1  0  0  0
 62138  1  0  0  0
 62139  1  0  0  0
 62140  1  0  0  0
 63 65  1  0  0  0
 63141  1  0  0  0
 63142  1  0  0  0
 63143  1  0  0  0
 64144  1  0  0  0
 65145  1  0  0  0
 68 79  1  0  0  0
 71 72  2  0  0  0
 71 85  1  0  0  0
 71146  1  0  0  0
 72 81  1  0  0  0
 72 83  1  0  0  0
 73147  1  0  0  0
 73148  1  0  0  0
 73149  1  0  0  0
 73 80  1  0  0  0
 74150  1  0  0  0
 74151  1  0  0  0
 74152  1  0  0  0
 74 81  1  0  0  0
 75 81  1  0  0  0
 75153  1  0  0  0
 75154  1  0  0  0
 75155  1  0  0  0
 76156  1  0  0  0
 76157  1  0  0  0
 76158  1  0  0  0
 76 82  1  0  0  0
 77 82  1  0  0  0
 77159  1  0  0  0
 77160  1  0  0  0
 77161  1  0  0  0
 78 80  1  0  0  0
 78 86  1  0  0  0
 78162  1  0  0  0
 78163  1  0  0  0
 79 81  1  0  0  0
 79164  1  0  0  0
 79165  1  0  0  0
 80 82  1  0  0  0
 80166  1  0  0  0
 82 85  1  0  0  0
 83 84  2  0  0  0
 84 85  1  0  0  0
 86167  1  0  0  0
M  ISO  4   1 100  68 101  79 101  86 100
M  END
> <chiral flag>
0

> <version>
0

> <s_m_source_file>
/data/baiqing/PycharmProjects/Reinvent-master-3.2/result/LINK_invent/BTK/process_docking_weight1_custom_sum_contain_oxygen_bond_distance_aromatic_linkinvent_7_9_3/rearranged_h_0064.sdf

> <i_m_source_file_index>
60

> <r_mmod_Potential_Energy-OPLS-2005>
-16.3187408447266

> <r_mmod_Stretch_Energy-OPLS-2005>
60.6519584655762

> <r_mmod_Bend_Energy-OPLS-2005>
135.701736450195

> <r_mmod_Torsional_Energy-OPLS-2005>
252.692657470703

> <r_mmod_Improper_Torsional_Energy-OPLS-2005>
3.56238555908203

> <r_mmod_Van_der_Waal_Energy-OPLS-2005>
138.080154418945

> <r_mmod_Electrostatic_Energy-OPLS-2005>
-426.592559814453

> <r_mmod_Solvation_Energy-OPLS-2005>
-207.513809204102

> <b_mmod_Minimization_Converged-OPLS-2005>
0

> <r_mmod_RMS_Derivative-OPLS-2005>
2.92548418045044

$$$$
62
                    3D
 Structure written by MMmdl.
156164  0  0  1  0            999 V2000
  -30.6541  -14.7056   20.6063 C   0  0  0  0  0  0
  -30.4488  -12.4740   19.4558 C   0  0  0  0  0  0
  -29.5024  -12.5372   18.2318 C   0  0  0  0  0  0
  -28.0256  -12.3681   18.6394 C   0  0  0  0  0  0
  -27.6563  -13.2217   19.8780 C   0  0  2  0  0  0
  -28.7083  -13.0207   20.9887 C   0  0  0  0  0  0
  -25.2528  -13.8178   20.5697 C   0  0  0  0  0  0
  -24.1818  -13.0444   20.9193 C   0  0  0  0  0  0
  -24.6407  -11.6911   20.8767 C   0  0  0  0  0  0
  -23.9086  -10.4290   21.0413 C   0  0  0  0  0  0
  -24.3634   -9.4192   21.9179 C   0  0  0  0  0  0
  -23.6293   -8.2240   22.0752 C   0  0  0  0  0  0
  -22.4275   -8.0284   21.3548 C   0  0  0  0  0  0
  -21.9917   -9.0267   20.4643 C   0  0  0  0  0  0
  -22.7264  -10.2134   20.3053 C   0  0  0  0  0  0
  -21.6843   -6.0741   22.5281 C   0  0  0  0  0  0
  -21.4019   -6.5644   23.8223 C   0  0  0  0  0  0
  -21.3655   -5.6792   24.9176 C   0  0  0  0  0  0
  -21.6037   -4.3052   24.7224 C   0  0  0  0  0  0
  -21.8818   -3.8152   23.4343 C   0  0  0  0  0  0
  -21.9193   -4.6973   22.3399 C   0  0  0  0  0  0
  -22.7825  -13.5203   21.1856 C   0  0  0  0  0  0
  -22.1651   -4.2158   21.0973 F   0  0  0  0  0  0
  -21.5621   -3.4531   25.7735 F   0  0  0  0  0  0
  -30.0063  -13.4824   20.4614 N   0  0  0  0  0  0
  -26.3003  -12.9397   20.3425 N   0  0  0  0  0  0
  -25.9340  -11.6541   20.5817 N   0  0  0  0  0  0
  -22.0481  -12.8215   22.0429 N   0  0  0  0  0  0
  -25.4193  -15.1902   20.4038 N   0  0  0  0  0  0
  -31.7531  -14.8204   20.0524 O   0  0  0  0  0  0
  -21.6624   -6.8888   21.4250 O   0  0  0  0  0  0
  -22.3500  -14.5502   20.6679 O   0  0  0  0  0  0
  -24.6279  -31.8556   23.1963 C   0  0  0  0  0  0
  -25.9110  -32.4766   23.8300 C   0  0  1  0  0  0
  -27.2198  -27.2750   20.1383 C   0  0  0  0  0  0
  -25.5924  -33.8575   24.2214 N   0  0  0  0  0  0
  -23.4261  -30.4780   21.5383 C   0  0  2  0  0  0
  -24.8721  -28.9249   20.1089 C   0  0  0  0  0  0
  -22.7494  -29.4591   22.4883 C   0  0  0  0  0  0
  -18.0306  -28.1383   22.8488 C   0  0  0  0  0  0
  -24.1496  -36.7303   23.2639 C   0  0  0  0  0  0
  -25.9701  -30.7729   21.3763 C   0  0  0  0  0  0
  -26.0419  -29.3966   20.7183 C   0  0  0  0  0  0
  -27.2183  -28.5861   20.7146 C   0  0  0  0  0  0
  -26.0210  -26.8581   19.5144 C   0  0  0  0  0  0
  -24.8654  -27.6640   19.4954 C   0  0  0  0  0  0
  -23.6466  -29.8142   20.1525 C   0  0  0  0  0  0
  -25.4125  -36.3074   24.0308 C   0  0  1  0  0  0
  -20.5909  -28.3692   23.1267 C   0  0  2  0  0  0
  -20.6804  -26.9405   22.5410 C   0  0  0  0  0  0
  -19.5772  -26.6376   21.5217 C   0  0  0  0  0  0
  -18.1943  -26.7935   22.1617 C   0  0  0  0  0  0
  -19.1560  -28.8855   23.2877 C   0  0  0  0  0  0
  -18.9478  -30.1455   23.8897 C   0  0  0  0  0  0
  -17.6485  -30.6585   24.0560 C   0  0  0  0  0  0
  -25.9056  -34.9450   23.5051 C   0  0  0  0  0  0
  -16.5371  -29.9081   23.6339 C   0  0  0  0  0  0
  -16.7284  -28.6498   23.0355 C   0  0  0  0  0  0
  -26.4483  -31.6606   25.0709 C   0  0  0  0  0  0
  -25.3699  -31.3789   26.1439 C   0  0  0  0  0  0
  -27.0331  -30.3020   24.6190 C   0  0  0  0  0  0
  -27.6008  -32.4389   25.7492 C   0  0  0  0  0  0
  -27.5602  -37.1791   24.8447 C   0  0  0  0  0  0
  -21.4203  -29.3044   22.3642 N   0  0  0  0  0  0
  -26.4300  -37.3782   23.9404 N   0  0  0  0  0  0
  -24.6932  -31.0554   22.0925 N   0  0  0  0  0  0
  -23.4217  -28.8119   23.2956 O   0  0  0  0  0  0
  -28.3373  -26.4144   20.1897 O   0  0  0  0  0  0
  -26.5657  -34.8926   22.4639 O   0  0  0  0  0  0
  -23.5428  -32.1359   23.7263 O   0  0  0  0  0  0
  -30.1158  -21.4562   21.0742 C   0  0  0  0  0  0
  -29.2689  -22.3969   20.4934 C   0  0  0  0  0  0
  -28.8706  -15.8601   22.2193 C   0  0  0  0  0  0
  -31.2920  -16.2592   22.4890 C   0  0  0  0  0  0
  -29.4094  -23.9650   20.3475 C   0  0  0  0  0  0
  -30.0461  -17.4376   20.5984 C   0  0  0  0  0  0
  -29.9905  -18.8324   21.4244 C   0  0  0  0  0  0
  -28.1294  -24.9299   20.2236 C   0  0  0  0  0  0
  -30.1820  -16.0365   21.4271 C   0  0  0  0  0  0
  -28.2722  -21.6267   19.8770 N   0  0  0  0  0  0
  -28.4369  -20.3409   20.1233 N   0  0  0  0  0  0
  -29.5876  -20.1713   20.8282 N   0  0  0  0  0  0
  -31.4747  -12.6310   19.1210 H   0  0  0  0  0  0
  -30.4511  -11.4741   19.8921 H   0  0  0  0  0  0
  -29.7750  -11.7654   17.5089 H   0  0  0  0  0  0
  -29.6320  -13.4938   17.7215 H   0  0  0  0  0  0
  -27.8597  -11.3134   18.8600 H   0  0  0  0  0  0
  -27.3692  -12.6103   17.8020 H   0  0  0  0  0  0
  -27.6875  -14.2661   19.5688 H   0  0  0  0  0  0
  -28.7661  -11.9600   21.2380 H   0  0  0  0  0  0
  -28.4047  -13.4604   21.9272 H   0  0  0  0  0  0
  -25.2784   -9.5647   22.4738 H   0  0  0  0  0  0
  -23.9992   -7.4625   22.7472 H   0  0  0  0  0  0
  -21.0843   -8.8801   19.8938 H   0  0  0  0  0  0
  -22.3744  -10.9677   19.6148 H   0  0  0  0  0  0
  -21.2022   -7.6152   23.9734 H   0  0  0  0  0  0
  -21.1465   -6.0510   25.9080 H   0  0  0  0  0  0
  -22.0600   -2.7615   23.2839 H   0  0  0  0  0  0
  -22.4119  -11.9892   22.4847 H   0  0  0  0  0  0
  -21.1099  -13.1233   22.2635 H   0  0  0  0  0  0
  -24.6522  -15.8447   20.5090 H   0  0  0  0  0  0
  -26.2702  -15.6303   20.0785 H   0  0  0  0  0  0
  -26.7164  -32.5398   23.1019 H   0  0  0  0  0  0
  -25.0083  -33.9687   25.0372 H   0  0  0  0  0  0
  -22.7231  -31.2986   21.3888 H   0  0  0  0  0  0
  -23.3749  -35.9651   23.3310 H   0  0  0  0  0  0
  -24.3587  -36.8938   22.2055 H   0  0  0  0  0  0
  -23.7260  -37.6505   23.6676 H   0  0  0  0  0  0
  -26.1159  -31.5361   20.6109 H   0  0  0  0  0  0
  -26.8454  -30.8143   22.0142 H   0  0  0  0  0  0
  -28.1185  -28.9409   21.1973 H   0  0  0  0  0  0
  -25.9426  -25.8933   19.0387 H   0  0  0  0  0  0
  -23.9695  -27.2930   19.0158 H   0  0  0  0  0  0
  -23.7771  -30.5905   19.3958 H   0  0  0  0  0  0
  -22.7646  -29.2499   19.8446 H   0  0  0  0  0  0
  -25.1303  -36.1916   25.0805 H   0  0  0  0  0  0
  -21.0012  -28.3290   24.1379 H   0  0  0  0  0  0
  -20.5775  -26.2280   23.3611 H   0  0  0  0  0  0
  -21.6666  -26.7473   22.1158 H   0  0  0  0  0  0
  -19.6959  -25.6289   21.1247 H   0  0  0  0  0  0
  -19.6737  -27.3199   20.6755 H   0  0  0  0  0  0
  -17.4234  -26.6707   21.3985 H   0  0  0  0  0  0
  -18.0303  -26.0076   22.9003 H   0  0  0  0  0  0
  -19.7975  -30.7240   24.2284 H   0  0  0  0  0  0
  -17.5054  -31.6274   24.5140 H   0  0  0  0  0  0
  -15.5378  -30.2973   23.7667 H   0  0  0  0  0  0
  -15.8693  -28.0805   22.7073 H   0  0  0  0  0  0
  -24.5821  -30.7200   25.7771 H   0  0  0  0  0  0
  -24.8957  -32.2982   26.4878 H   0  0  0  0  0  0
  -25.8006  -30.8942   27.0203 H   0  0  0  0  0  0
  -26.2896  -29.6772   24.1221 H   0  0  0  0  0  0
  -27.4018  -29.7303   25.4713 H   0  0  0  0  0  0
  -27.8782  -30.4309   23.9426 H   0  0  0  0  0  0
  -27.2555  -33.3679   26.2040 H   0  0  0  0  0  0
  -28.3818  -32.6972   25.0332 H   0  0  0  0  0  0
  -28.0658  -31.8548   26.5432 H   0  0  0  0  0  0
  -28.2541  -38.0165   24.7581 H   0  0  0  0  0  0
  -28.1160  -36.2691   24.6148 H   0  0  0  0  0  0
  -27.2328  -37.1292   25.8850 H   0  0  0  0  0  0
  -20.9371  -29.8786   21.6875 H   0  0  0  0  0  0
  -26.0171  -38.2846   24.1472 H   0  0  0  0  0  0
  -31.0374  -21.5789   21.6341 H   0  0  0  0  0  0
  -28.5792  -16.7667   22.7441 H   0  0  0  0  0  0
  -28.9770  -15.1169   23.0089 H   0  0  0  0  0  0
  -28.0336  -15.6084   21.5709 H   0  0  0  0  0  0
  -30.9887  -16.9755   23.2536 H   0  0  0  0  0  0
  -32.2129  -16.6349   22.0403 H   0  0  0  0  0  0
  -31.5409  -15.3353   23.0135 H   0  0  0  0  0  0
  -30.0532  -24.1646   19.4888 H   0  0  0  0  0  0
  -29.9895  -24.3300   21.1970 H   0  0  0  0  0  0
  -30.8830  -17.5036   19.9020 H   0  0  0  0  0  0
  -29.1589  -17.3693   19.9678 H   0  0  0  0  0  0
  -30.9756  -18.9877   21.8644 H   0  0  0  0  0  0
  -29.3339  -18.7025   22.2824 H   0  0  0  0  0  0
  -27.4447  -24.7038   21.0442 H   0  0  0  0  0  0
  -27.6105  -24.6276   19.3127 H   0  0  0  0  0  0
  1 25  1  0  0  0
  1 30  2  0  0  0
  1 79  1  0  0  0
  2  3  1  0  0  0
  2 25  1  0  0  0
  2 83  1  0  0  0
  2 84  1  0  0  0
  3  4  1  0  0  0
  3 85  1  0  0  0
  3 86  1  0  0  0
  4  5  1  0  0  0
  4 87  1  0  0  0
  4 88  1  0  0  0
  5  6  1  0  0  0
  5 26  1  0  0  0
  5 89  1  0  0  0
  6 25  1  0  0  0
  6 90  1  0  0  0
  6 91  1  0  0  0
  7  8  2  0  0  0
  7 26  1  0  0  0
  7 29  1  0  0  0
  8  9  1  0  0  0
  8 22  1  0  0  0
  9 10  1  0  0  0
  9 27  2  0  0  0
 10 11  2  0  0  0
 10 15  1  0  0  0
 11 12  1  0  0  0
 11 92  1  0  0  0
 12 13  2  0  0  0
 12 93  1  0  0  0
 13 14  1  0  0  0
 13 31  1  0  0  0
 14 15  2  0  0  0
 14 94  1  0  0  0
 15 95  1  0  0  0
 16 17  2  0  0  0
 16 21  1  0  0  0
 16 31  1  0  0  0
 17 18  1  0  0  0
 17 96  1  0  0  0
 18 19  2  0  0  0
 18 97  1  0  0  0
 19 20  1  0  0  0
 19 24  1  0  0  0
 20 21  2  0  0  0
 20 98  1  0  0  0
 21 23  1  0  0  0
 22 28  1  0  0  0
 22 32  2  0  0  0
 26 27  1  0  0  0
 28 99  1  0  0  0
 28100  1  0  0  0
 29101  1  0  0  0
 29102  1  0  0  0
 33 34  1  0  0  0
 33 66  1  0  0  0
 33 70  2  0  0  0
 34 36  1  0  0  0
 34 59  1  0  0  0
 34103  1  0  0  0
 35 44  2  0  0  0
 35 45  1  0  0  0
 35 68  1  0  0  0
 36 56  1  0  0  0
 36104  1  0  0  0
 37 39  1  0  0  0
 37 47  1  0  0  0
 37 66  1  0  0  0
 37105  1  0  0  0
 38 43  2  0  0  0
 38 46  1  0  0  0
 38 47  1  0  0  0
 39 64  1  0  0  0
 39 67  2  0  0  0
 40 52  1  0  0  0
 40 53  2  0  0  0
 40 58  1  0  0  0
 41106  1  0  0  0
 41107  1  0  0  0
 41108  1  0  0  0
 41 48  1  0  0  0
 42 43  1  0  0  0
 42 66  1  0  0  0
 42109  1  0  0  0
 42110  1  0  0  0
 43 44  1  0  0  0
 44111  1  0  0  0
 45 46  2  0  0  0
 45112  1  0  0  0
 46113  1  0  0  0
 47114  1  0  0  0
 47115  1  0  0  0
 48 56  1  0  0  0
 48 65  1  0  0  0
 48116  1  0  0  0
 49 50  1  0  0  0
 49 53  1  0  0  0
 49 64  1  0  0  0
 49117  1  0  0  0
 50 51  1  0  0  0
 50118  1  0  0  0
 50119  1  0  0  0
 51 52  1  0  0  0
 51120  1  0  0  0
 51121  1  0  0  0
 52122  1  0  0  0
 52123  1  0  0  0
 53 54  1  0  0  0
 54 55  2  0  0  0
 54124  1  0  0  0
 55 57  1  0  0  0
 55125  1  0  0  0
 56 69  2  0  0  0
 57 58  2  0  0  0
 57126  1  0  0  0
 58127  1  0  0  0
 59 60  1  0  0  0
 59 61  1  0  0  0
 59 62  1  0  0  0
 60128  1  0  0  0
 60129  1  0  0  0
 60130  1  0  0  0
 61131  1  0  0  0
 61132  1  0  0  0
 61133  1  0  0  0
 62134  1  0  0  0
 62135  1  0  0  0
 62136  1  0  0  0
 63 65  1  0  0  0
 63137  1  0  0  0
 63138  1  0  0  0
 63139  1  0  0  0
 64140  1  0  0  0
 65141  1  0  0  0
 68 78  1  0  0  0
 71 72  2  0  0  0
 71 82  1  0  0  0
 71142  1  0  0  0
 72 75  1  0  0  0
 72 80  1  0  0  0
 73143  1  0  0  0
 73144  1  0  0  0
 73145  1  0  0  0
 73 79  1  0  0  0
 74 79  1  0  0  0
 74146  1  0  0  0
 74147  1  0  0  0
 74148  1  0  0  0
 75 78  1  0  0  0
 75149  1  0  0  0
 75150  1  0  0  0
 76 77  1  0  0  0
 76 79  1  0  0  0
 76151  1  0  0  0
 76152  1  0  0  0
 77 82  1  0  0  0
 77153  1  0  0  0
 77154  1  0  0  0
 78155  1  0  0  0
 78156  1  0  0  0
 80 81  2  0  0  0
 81 82  1  0  0  0
M  ISO  4   1 100  68 101  78 101  79 100
M  END
> <chiral flag>
0

> <version>
0

> <s_m_source_file>
/data/baiqing/PycharmProjects/Reinvent-master-3.2/result/LINK_invent/BTK/process_docking_weight1_custom_sum_contain_oxygen_bond_distance_aromatic_linkinvent_7_9_3/rearranged_h_0064.sdf

> <i_m_source_file_index>
61

> <r_mmod_Potential_Energy-OPLS-2005>
195.624603271484

> <r_mmod_Stretch_Energy-OPLS-2005>
124.520805358887

> <r_mmod_Bend_Energy-OPLS-2005>
191.159530639648

> <r_mmod_Torsional_Energy-OPLS-2005>
203.388656616211

> <r_mmod_Improper_Torsional_Energy-OPLS-2005>
3.24651217460632

> <r_mmod_Van_der_Waal_Energy-OPLS-2005>
131.743499755859

> <r_mmod_Electrostatic_Energy-OPLS-2005>
-318.39501953125

> <r_mmod_Solvation_Energy-OPLS-2005>
-204.784072875977

> <b_mmod_Minimization_Converged-OPLS-2005>
0

> <r_mmod_RMS_Derivative-OPLS-2005>
4.0104079246521

$$$$
63
                    3D
 Structure written by MMmdl.
167175  0  0  1  0            999 V2000
  -30.7779  -14.3828   20.6613 C   0  0  0  0  0  0
  -30.4178  -12.2917   19.4051 C   0  0  0  0  0  0
  -29.4875  -12.5211   18.1987 C   0  0  0  0  0  0
  -28.0116  -12.3857   18.6160 C   0  0  0  0  0  0
  -27.6684  -13.2104   19.8851 C   0  0  2  0  0  0
  -28.7110  -12.9662   21.0006 C   0  0  0  0  0  0
  -25.2595  -13.8171   20.5711 C   0  0  0  0  0  0
  -24.1835  -13.0434   20.9168 C   0  0  0  0  0  0
  -24.6395  -11.6906   20.8712 C   0  0  0  0  0  0
  -23.9049  -10.4291   21.0384 C   0  0  0  0  0  0
  -24.3601   -9.4214   21.9172 C   0  0  0  0  0  0
  -23.6282   -8.2244   22.0752 C   0  0  0  0  0  0
  -22.4268   -8.0274   21.3535 C   0  0  0  0  0  0
  -21.9898   -9.0239   20.4635 C   0  0  0  0  0  0
  -22.7223  -10.2124   20.3041 C   0  0  0  0  0  0
  -21.6854   -6.0727   22.5273 C   0  0  0  0  0  0
  -21.4011   -6.5628   23.8204 C   0  0  0  0  0  0
  -21.3661   -5.6790   24.9167 C   0  0  0  0  0  0
  -21.6049   -4.3053   24.7229 C   0  0  0  0  0  0
  -21.8815   -3.8138   23.4349 C   0  0  0  0  0  0
  -21.9197   -4.6953   22.3400 C   0  0  0  0  0  0
  -22.7859  -13.5225   21.1838 C   0  0  0  0  0  0
  -22.1660   -4.2135   21.0983 F   0  0  0  0  0  0
  -21.5638   -3.4536   25.7744 F   0  0  0  0  0  0
  -30.0552  -13.2485   20.4607 N   0  0  0  0  0  0
  -26.3065  -12.9353   20.3429 N   0  0  0  0  0  0
  -25.9334  -11.6503   20.5772 N   0  0  0  0  0  0
  -22.0488  -12.8202   22.0382 N   0  0  0  0  0  0
  -25.4313  -15.1891   20.4145 N   0  0  0  0  0  0
  -31.8076  -14.6493   20.0354 O   0  0  0  0  0  0
  -21.6642   -6.8870   21.4236 O   0  0  0  0  0  0
  -22.3536  -14.5541   20.6723 O   0  0  0  0  0  0
  -24.6153  -31.8702   23.2092 C   0  0  0  0  0  0
  -25.9036  -32.4841   23.8391 C   0  0  1  0  0  0
  -27.2268  -27.4268   20.0714 C   0  0  0  0  0  0
  -25.5925  -33.8650   24.2330 N   0  0  0  0  0  0
  -23.4016  -30.4964   21.5515 C   0  0  2  0  0  0
  -24.8447  -28.9659   20.1106 C   0  0  0  0  0  0
  -22.7397  -29.4672   22.4963 C   0  0  0  0  0  0
  -18.0268  -28.1331   22.8470 C   0  0  0  0  0  0
  -24.1494  -36.7312   23.2631 C   0  0  0  0  0  0
  -25.9323  -30.8253   21.3694 C   0  0  0  0  0  0
  -26.0047  -29.4582   20.7193 C   0  0  0  0  0  0
  -27.1939  -28.6904   20.7098 C   0  0  0  0  0  0
  -26.0421  -26.9592   19.4589 C   0  0  0  0  0  0
  -24.8567  -27.7126   19.4840 C   0  0  0  0  0  0
  -23.6102  -29.8377   20.1633 C   0  0  0  0  0  0
  -25.4118  -36.3133   24.0334 C   0  0  1  0  0  0
  -20.5858  -28.3657   23.1284 C   0  0  2  0  0  0
  -20.6782  -26.9392   22.5387 C   0  0  0  0  0  0
  -19.5777  -26.6362   21.5174 C   0  0  0  0  0  0
  -18.1937  -26.7885   22.1572 C   0  0  0  0  0  0
  -19.1518  -28.8807   23.2885 C   0  0  0  0  0  0
  -18.9454  -30.1404   23.8918 C   0  0  0  0  0  0
  -17.6465  -30.6553   24.0554 C   0  0  0  0  0  0
  -25.9050  -34.9500   23.5123 C   0  0  0  0  0  0
  -16.5361  -29.9054   23.6321 C   0  0  0  0  0  0
  -16.7263  -28.6460   23.0343 C   0  0  0  0  0  0
  -26.4464  -31.6610   25.0720 C   0  0  0  0  0  0
  -25.3715  -31.3679   26.1457 C   0  0  0  0  0  0
  -27.0308  -30.3066   24.6074 C   0  0  0  0  0  0
  -27.6064  -32.4319   25.7459 C   0  0  0  0  0  0
  -27.5585  -37.1809   24.8443 C   0  0  0  0  0  0
  -21.4119  -29.3051   22.3706 N   0  0  0  0  0  0
  -26.4290  -37.3826   23.9406 N   0  0  0  0  0  0
  -24.6673  -31.0770   22.1022 N   0  0  0  0  0  0
  -23.4164  -28.8216   23.3013 O   0  0  0  0  0  0
  -28.4100  -26.7091   20.0717 O   0  0  0  0  0  0
  -26.5599  -34.8959   22.4677 O   0  0  0  0  0  0
  -23.5333  -32.1486   23.7471 O   0  0  0  0  0  0
  -27.3146  -21.7493   20.4760 C   0  0  0  0  0  0
  -26.4425  -22.6100   19.8024 C   0  0  0  0  0  0
  -28.6237  -22.1973   20.6880 C   0  0  0  0  0  0
  -28.1038  -24.2097   19.7287 C   0  0  0  0  0  0
  -24.0220  -23.3129   19.5622 C   0  0  0  0  0  0
  -24.5233  -20.9354   20.1097 C   0  0  0  0  0  0
  -25.1074  -21.8028   17.8455 C   0  0  0  0  0  0
  -28.5740  -25.5742   19.1930 C   0  0  0  0  0  0
  -30.1204  -17.6333   21.0940 C   0  0  0  0  0  0
  -30.4071  -19.0786   21.5491 C   0  0  0  0  0  0
  -30.8381  -16.5456   21.9126 C   0  0  0  0  0  0
  -29.7169  -20.0946   20.6203 C   0  0  0  0  0  0
  -25.0392  -22.1734   19.3393 C   0  0  0  0  0  0
  -26.8701  -23.8234   19.4085 N   0  0  0  0  0  0
  -29.0028  -23.4439   20.3526 N   0  0  0  0  0  0
  -30.3018  -15.2199   21.5914 N   0  0  0  0  0  0
  -29.6138  -21.3956   21.2119 O   0  0  0  0  0  0
  -31.4623  -12.3801   19.1006 H   0  0  0  0  0  0
  -30.3103  -11.2743   19.7828 H   0  0  0  0  0  0
  -29.7176  -11.8037   17.4095 H   0  0  0  0  0  0
  -29.6656  -13.5116   17.7763 H   0  0  0  0  0  0
  -27.8152  -11.3284   18.7989 H   0  0  0  0  0  0
  -27.3603  -12.6796   17.7921 H   0  0  0  0  0  0
  -27.7213  -14.2643   19.6092 H   0  0  0  0  0  0
  -28.6721  -11.9277   21.3314 H   0  0  0  0  0  0
  -28.4648  -13.5587   21.8826 H   0  0  0  0  0  0
  -25.2744   -9.5705   22.4748 H   0  0  0  0  0  0
  -23.9999   -7.4644   22.7483 H   0  0  0  0  0  0
  -21.0831   -8.8743   19.8942 H   0  0  0  0  0  0
  -22.3669  -10.9652   19.6147 H   0  0  0  0  0  0
  -21.1991   -7.6130   23.9703 H   0  0  0  0  0  0
  -21.1491   -6.0516   25.9071 H   0  0  0  0  0  0
  -22.0598   -2.7597   23.2855 H   0  0  0  0  0  0
  -22.4083  -11.9835   22.4736 H   0  0  0  0  0  0
  -21.1098  -13.1216   22.2587 H   0  0  0  0  0  0
  -24.6680  -15.8479   20.5278 H   0  0  0  0  0  0
  -26.2961  -15.6304   20.1261 H   0  0  0  0  0  0
  -26.7106  -32.5548   23.1146 H   0  0  0  0  0  0
  -25.0150  -33.9842   25.0526 H   0  0  0  0  0  0
  -22.6922  -31.3154   21.4164 H   0  0  0  0  0  0
  -23.3781  -35.9607   23.3268 H   0  0  0  0  0  0
  -24.3607  -36.8965   22.2054 H   0  0  0  0  0  0
  -23.7230  -37.6504   23.6661 H   0  0  0  0  0  0
  -26.0450  -31.5856   20.5947 H   0  0  0  0  0  0
  -26.8210  -30.8826   21.9849 H   0  0  0  0  0  0
  -28.0916  -29.0661   21.1808 H   0  0  0  0  0  0
  -25.9980  -26.0201   18.9378 H   0  0  0  0  0  0
  -23.9669  -27.3261   19.0049 H   0  0  0  0  0  0
  -23.7232  -30.6197   19.4117 H   0  0  0  0  0  0
  -22.7310  -29.2663   19.8604 H   0  0  0  0  0  0
  -25.1287  -36.1990   25.0818 H   0  0  0  0  0  0
  -20.9963  -28.3218   24.1398 H   0  0  0  0  0  0
  -20.5651  -26.2267   23.3574 H   0  0  0  0  0  0
  -21.6672  -26.7404   22.1215 H   0  0  0  0  0  0
  -19.6956  -25.6263   21.1223 H   0  0  0  0  0  0
  -19.6724  -27.3167   20.6699 H   0  0  0  0  0  0
  -17.4219  -26.6638   21.3954 H   0  0  0  0  0  0
  -18.0339  -25.9970   22.8913 H   0  0  0  0  0  0
  -19.7950  -30.7199   24.2285 H   0  0  0  0  0  0
  -17.5039  -31.6247   24.5150 H   0  0  0  0  0  0
  -15.5369  -30.2986   23.7614 H   0  0  0  0  0  0
  -15.8656  -28.0808   22.7033 H   0  0  0  0  0  0
  -24.5938  -30.6971   25.7779 H   0  0  0  0  0  0
  -24.8833  -32.2814   26.4864 H   0  0  0  0  0  0
  -25.8076  -30.8891   27.0236 H   0  0  0  0  0  0
  -26.2856  -29.6824   24.1141 H   0  0  0  0  0  0
  -27.4138  -29.7297   25.4499 H   0  0  0  0  0  0
  -27.8645  -30.4417   23.9184 H   0  0  0  0  0  0
  -27.2727  -33.3647   26.2009 H   0  0  0  0  0  0
  -28.3871  -32.6837   25.0267 H   0  0  0  0  0  0
  -28.0715  -31.8444   26.5383 H   0  0  0  0  0  0
  -28.2562  -38.0137   24.7576 H   0  0  0  0  0  0
  -28.1126  -36.2694   24.6162 H   0  0  0  0  0  0
  -27.2325  -37.1359   25.8845 H   0  0  0  0  0  0
  -20.9249  -29.8826   21.6994 H   0  0  0  0  0  0
  -26.0170  -38.2893   24.1436 H   0  0  0  0  0  0
  -27.0062  -20.7626   20.7822 H   0  0  0  0  0  0
  -24.0268  -23.6484   20.5993 H   0  0  0  0  0  0
  -23.0062  -22.9995   19.3183 H   0  0  0  0  0  0
  -24.2492  -24.1759   18.9361 H   0  0  0  0  0  0
  -24.5033  -21.1104   21.1850 H   0  0  0  0  0  0
  -25.1346  -20.0520   19.9256 H   0  0  0  0  0  0
  -23.5105  -20.6738   19.8031 H   0  0  0  0  0  0
  -25.5027  -22.6229   17.2464 H   0  0  0  0  0  0
  -24.1268  -21.5415   17.4458 H   0  0  0  0  0  0
  -25.7645  -20.9465   17.6891 H   0  0  0  0  0  0
  -28.1220  -25.7653   18.2185 H   0  0  0  0  0  0
  -29.6410  -25.4949   18.9813 H   0  0  0  0  0  0
  -30.3931  -17.5276   20.0424 H   0  0  0  0  0  0
  -29.0436  -17.4643   21.1457 H   0  0  0  0  0  0
  -31.4794  -19.2711   21.5782 H   0  0  0  0  0  0
  -30.0398  -19.2083   22.5681 H   0  0  0  0  0  0
  -30.7030  -16.7207   22.9803 H   0  0  0  0  0  0
  -31.9137  -16.5887   21.7290 H   0  0  0  0  0  0
  -28.7493  -19.6803   20.3447 H   0  0  0  0  0  0
  -30.2741  -20.1844   19.6862 H   0  0  0  0  0  0
  -29.4728  -14.9230   22.0852 H   0  0  0  0  0  0
  1 25  1  0  0  0
  1 30  2  0  0  0
  1 86  1  0  0  0
  2  3  1  0  0  0
  2 25  1  0  0  0
  2 88  1  0  0  0
  2 89  1  0  0  0
  3  4  1  0  0  0
  3 90  1  0  0  0
  3 91  1  0  0  0
  4  5  1  0  0  0
  4 92  1  0  0  0
  4 93  1  0  0  0
  5  6  1  0  0  0
  5 26  1  0  0  0
  5 94  1  0  0  0
  6 25  1  0  0  0
  6 95  1  0  0  0
  6 96  1  0  0  0
  7  8  2  0  0  0
  7 26  1  0  0  0
  7 29  1  0  0  0
  8  9  1  0  0  0
  8 22  1  0  0  0
  9 10  1  0  0  0
  9 27  2  0  0  0
 10 11  2  0  0  0
 10 15  1  0  0  0
 11 12  1  0  0  0
 11 97  1  0  0  0
 12 13  2  0  0  0
 12 98  1  0  0  0
 13 14  1  0  0  0
 13 31  1  0  0  0
 14 15  2  0  0  0
 14 99  1  0  0  0
 15100  1  0  0  0
 16 17  2  0  0  0
 16 21  1  0  0  0
 16 31  1  0  0  0
 17 18  1  0  0  0
 17101  1  0  0  0
 18 19  2  0  0  0
 18102  1  0  0  0
 19 20  1  0  0  0
 19 24  1  0  0  0
 20 21  2  0  0  0
 20103  1  0  0  0
 21 23  1  0  0  0
 22 28  1  0  0  0
 22 32  2  0  0  0
 26 27  1  0  0  0
 28104  1  0  0  0
 28105  1  0  0  0
 29106  1  0  0  0
 29107  1  0  0  0
 33 34  1  0  0  0
 33 66  1  0  0  0
 33 70  2  0  0  0
 34 36  1  0  0  0
 34 59  1  0  0  0
 34108  1  0  0  0
 35 44  2  0  0  0
 35 45  1  0  0  0
 35 68  1  0  0  0
 36 56  1  0  0  0
 36109  1  0  0  0
 37 39  1  0  0  0
 37 47  1  0  0  0
 37 66  1  0  0  0
 37110  1  0  0  0
 38 43  2  0  0  0
 38 46  1  0  0  0
 38 47  1  0  0  0
 39 64  1  0  0  0
 39 67  2  0  0  0
 40 52  1  0  0  0
 40 53  2  0  0  0
 40 58  1  0  0  0
 41111  1  0  0  0
 41112  1  0  0  0
 41113  1  0  0  0
 41 48  1  0  0  0
 42 43  1  0  0  0
 42 66  1  0  0  0
 42114  1  0  0  0
 42115  1  0  0  0
 43 44  1  0  0  0
 44116  1  0  0  0
 45 46  2  0  0  0
 45117  1  0  0  0
 46118  1  0  0  0
 47119  1  0  0  0
 47120  1  0  0  0
 48 56  1  0  0  0
 48 65  1  0  0  0
 48121  1  0  0  0
 49 50  1  0  0  0
 49 53  1  0  0  0
 49 64  1  0  0  0
 49122  1  0  0  0
 50 51  1  0  0  0
 50123  1  0  0  0
 50124  1  0  0  0
 51 52  1  0  0  0
 51125  1  0  0  0
 51126  1  0  0  0
 52127  1  0  0  0
 52128  1  0  0  0
 53 54  1  0  0  0
 54 55  2  0  0  0
 54129  1  0  0  0
 55 57  1  0  0  0
 55130  1  0  0  0
 56 69  2  0  0  0
 57 58  2  0  0  0
 57131  1  0  0  0
 58132  1  0  0  0
 59 60  1  0  0  0
 59 61  1  0  0  0
 59 62  1  0  0  0
 60133  1  0  0  0
 60134  1  0  0  0
 60135  1  0  0  0
 61136  1  0  0  0
 61137  1  0  0  0
 61138  1  0  0  0
 62139  1  0  0  0
 62140  1  0  0  0
 62141  1  0  0  0
 63 65  1  0  0  0
 63142  1  0  0  0
 63143  1  0  0  0
 63144  1  0  0  0
 64145  1  0  0  0
 65146  1  0  0  0
 68 78  1  0  0  0
 71 72  2  0  0  0
 71 73  1  0  0  0
 71147  1  0  0  0
 72 83  1  0  0  0
 72 84  1  0  0  0
 73 85  2  0  0  0
 73 87  1  0  0  0
 74 78  1  0  0  0
 74 84  2  0  0  0
 74 85  1  0  0  0
 75148  1  0  0  0
 75149  1  0  0  0
 75150  1  0  0  0
 75 83  1  0  0  0
 76 83  1  0  0  0
 76151  1  0  0  0
 76152  1  0  0  0
 76153  1  0  0  0
 77 83  1  0  0  0
 77154  1  0  0  0
 77155  1  0  0  0
 77156  1  0  0  0
 78157  1  0  0  0
 78158  1  0  0  0
 79 80  1  0  0  0
 79 81  1  0  0  0
 79159  1  0  0  0
 79160  1  0  0  0
 80 82  1  0  0  0
 80161  1  0  0  0
 80162  1  0  0  0
 81 86  1  0  0  0
 81163  1  0  0  0
 81164  1  0  0  0
 82 87  1  0  0  0
 82165  1  0  0  0
 82166  1  0  0  0
 86167  1  0  0  0
M  ISO  4   1 100  68 101  78 101  86 100
M  END
> <chiral flag>
0

> <version>
0

> <s_m_source_file>
/data/baiqing/PycharmProjects/Reinvent-master-3.2/result/LINK_invent/BTK/process_docking_weight1_custom_sum_contain_oxygen_bond_distance_aromatic_linkinvent_7_9_3/rearranged_h_0064.sdf

> <i_m_source_file_index>
62

> <r_mmod_Potential_Energy-OPLS-2005>
-555.108093261719

> <r_mmod_Stretch_Energy-OPLS-2005>
37.2902755737305

> <r_mmod_Bend_Energy-OPLS-2005>
110.037895202637

> <r_mmod_Torsional_Energy-OPLS-2005>
198.145385742188

> <r_mmod_Improper_Torsional_Energy-OPLS-2005>
2.73314666748047

> <r_mmod_Van_der_Waal_Energy-OPLS-2005>
176.467498779297

> <r_mmod_Electrostatic_Energy-OPLS-2005>
-864.393005371094

> <r_mmod_Solvation_Energy-OPLS-2005>
-224.818832397461

> <b_mmod_Minimization_Converged-OPLS-2005>
0

> <r_mmod_RMS_Derivative-OPLS-2005>
2.85281181335449

$$$$
64
                    3D
 Structure written by MMmdl.
163171  0  0  1  0            999 V2000
  -30.8108  -14.3786   20.6937 C   0  0  0  0  0  0
  -30.4057  -12.3000   19.4235 C   0  0  0  0  0  0
  -29.4890  -12.5264   18.2067 C   0  0  0  0  0  0
  -28.0147  -12.3717   18.6161 C   0  0  0  0  0  0
  -27.6604  -13.2102   19.8684 C   0  0  2  0  0  0
  -28.6910  -13.0013   20.9979 C   0  0  0  0  0  0
  -25.2574  -13.8177   20.5652 C   0  0  0  0  0  0
  -24.1823  -13.0459   20.9148 C   0  0  0  0  0  0
  -24.6366  -11.6924   20.8693 C   0  0  0  0  0  0
  -23.9039  -10.4303   21.0391 C   0  0  0  0  0  0
  -24.3597   -9.4223   21.9172 C   0  0  0  0  0  0
  -23.6278   -8.2259   22.0752 C   0  0  0  0  0  0
  -22.4257   -8.0283   21.3552 C   0  0  0  0  0  0
  -21.9883   -9.0253   20.4654 C   0  0  0  0  0  0
  -22.7209  -10.2138   20.3052 C   0  0  0  0  0  0
  -21.6858   -6.0728   22.5274 C   0  0  0  0  0  0
  -21.4024   -6.5626   23.8205 C   0  0  0  0  0  0
  -21.3660   -5.6779   24.9161 C   0  0  0  0  0  0
  -21.6038   -4.3044   24.7212 C   0  0  0  0  0  0
  -21.8824   -3.8138   23.4339 C   0  0  0  0  0  0
  -21.9197   -4.6953   22.3395 C   0  0  0  0  0  0
  -22.7847  -13.5272   21.1827 C   0  0  0  0  0  0
  -22.1673   -4.2143   21.0979 F   0  0  0  0  0  0
  -21.5617   -3.4526   25.7730 F   0  0  0  0  0  0
  -30.0469  -13.2677   20.4775 N   0  0  0  0  0  0
  -26.3001  -12.9354   20.3292 N   0  0  0  0  0  0
  -25.9294  -11.6509   20.5696 N   0  0  0  0  0  0
  -22.0486  -12.8272   22.0386 N   0  0  0  0  0  0
  -25.4315  -15.1891   20.4094 N   0  0  0  0  0  0
  -31.7962  -14.6297   19.9901 O   0  0  0  0  0  0
  -21.6644   -6.8869   21.4236 O   0  0  0  0  0  0
  -22.3547  -14.5587   20.6690 O   0  0  0  0  0  0
  -24.6116  -31.8700   23.2127 C   0  0  0  0  0  0
  -25.9024  -32.4828   23.8407 C   0  0  1  0  0  0
  -27.2380  -27.4556   20.0709 C   0  0  0  0  0  0
  -25.5892  -33.8624   24.2341 N   0  0  0  0  0  0
  -23.3981  -30.4940   21.5528 C   0  0  2  0  0  0
  -24.8429  -28.9603   20.1177 C   0  0  0  0  0  0
  -22.7394  -29.4663   22.5006 C   0  0  0  0  0  0
  -18.0268  -28.1369   22.8495 C   0  0  0  0  0  0
  -24.1487  -36.7316   23.2635 C   0  0  0  0  0  0
  -25.9262  -30.8349   21.3674 C   0  0  0  0  0  0
  -26.0002  -29.4694   20.7178 C   0  0  0  0  0  0
  -27.1947  -28.7175   20.7049 C   0  0  0  0  0  0
  -26.0553  -26.9512   19.4823 C   0  0  0  0  0  0
  -24.8625  -27.6965   19.5049 C   0  0  0  0  0  0
  -23.6057  -29.8266   20.1673 C   0  0  0  0  0  0
  -25.4103  -36.3116   24.0344 C   0  0  1  0  0  0
  -20.5857  -28.3648   23.1331 C   0  0  2  0  0  0
  -20.6755  -26.9388   22.5421 C   0  0  0  0  0  0
  -19.5735  -26.6383   21.5212 C   0  0  0  0  0  0
  -18.1914  -26.7918   22.1623 C   0  0  0  0  0  0
  -19.1518  -28.8825   23.2910 C   0  0  0  0  0  0
  -18.9446  -30.1434   23.8916 C   0  0  0  0  0  0
  -17.6448  -30.6577   24.0565 C   0  0  0  0  0  0
  -25.9032  -34.9483   23.5142 C   0  0  0  0  0  0
  -16.5339  -29.9081   23.6321 C   0  0  0  0  0  0
  -16.7258  -28.6497   23.0344 C   0  0  0  0  0  0
  -26.4466  -31.6591   25.0719 C   0  0  0  0  0  0
  -25.3747  -31.3683   26.1479 C   0  0  0  0  0  0
  -27.0293  -30.3038   24.6076 C   0  0  0  0  0  0
  -27.6057  -32.4303   25.7466 C   0  0  0  0  0  0
  -27.5588  -37.1802   24.8458 C   0  0  0  0  0  0
  -21.4127  -29.3023   22.3743 N   0  0  0  0  0  0
  -26.4288  -37.3800   23.9421 N   0  0  0  0  0  0
  -24.6632  -31.0811   22.1022 N   0  0  0  0  0  0
  -23.4183  -28.8205   23.3034 O   0  0  0  0  0  0
  -28.4389  -26.7785   20.0477 O   0  0  0  0  0  0
  -26.5596  -34.8926   22.4704 O   0  0  0  0  0  0
  -23.5318  -32.1448   23.7534 O   0  0  0  0  0  0
  -29.1545  -23.7062   20.3606 C   0  0  0  0  0  0
  -27.1091  -22.4850   19.1393 C   0  0  0  0  0  0
  -28.8405  -22.3676   20.6285 C   0  0  0  0  0  0
  -28.3617  -24.3783   19.4206 C   0  0  0  0  0  0
  -30.3080  -14.7911   23.0594 C   0  0  0  0  0  0
  -28.1780  -20.0707   22.9100 C   0  0  0  0  0  0
  -29.6646  -21.5434   21.6076 C   0  0  0  0  0  0
  -28.6711  -25.8160   19.0135 C   0  0  0  0  0  0
  -29.6550  -17.6628   21.7339 C   0  0  0  0  0  0
  -30.8300  -16.6740   21.5809 C   0  0  0  0  0  0
  -30.1613  -19.1277   21.7284 C   0  0  0  0  0  0
  -27.8119  -21.7552   20.0041 N   0  0  0  0  0  0
  -27.3341  -23.7530   18.8150 N   0  0  0  0  0  0
  -30.4285  -15.2505   21.6667 N   0  0  0  0  0  0
  -29.1054  -20.1771   21.7577 N   0  3  1  0  0  0
  -31.4526  -12.3692   19.1235 H   0  0  0  0  0  0
  -30.2847  -11.2861   19.8074 H   0  0  0  0  0  0
  -29.7317  -11.8192   17.4128 H   0  0  0  0  0  0
  -29.6582  -13.5211   17.7930 H   0  0  0  0  0  0
  -27.8342  -11.3146   18.8154 H   0  0  0  0  0  0
  -27.3606  -12.6416   17.7862 H   0  0  0  0  0  0
  -27.7064  -14.2582   19.5703 H   0  0  0  0  0  0
  -28.6417  -11.9813   21.3825 H   0  0  0  0  0  0
  -28.4071  -13.6415   21.8292 H   0  0  0  0  0  0
  -25.2742   -9.5709   22.4742 H   0  0  0  0  0  0
  -23.9994   -7.4657   22.7471 H   0  0  0  0  0  0
  -21.0810   -8.8763   19.8964 H   0  0  0  0  0  0
  -22.3651  -10.9670   19.6160 H   0  0  0  0  0  0
  -21.2029   -7.6137   23.9709 H   0  0  0  0  0  0
  -21.1472   -6.0504   25.9066 H   0  0  0  0  0  0
  -22.0600   -2.7600   23.2834 H   0  0  0  0  0  0
  -22.4088  -11.9948   22.4806 H   0  0  0  0  0  0
  -21.1110  -13.1328   22.2593 H   0  0  0  0  0  0
  -24.6667  -15.8472   20.5122 H   0  0  0  0  0  0
  -26.2918  -15.6240   20.1014 H   0  0  0  0  0  0
  -26.7090  -32.5545   23.1166 H   0  0  0  0  0  0
  -25.0036  -33.9787   25.0483 H   0  0  0  0  0  0
  -22.6850  -31.3095   21.4152 H   0  0  0  0  0  0
  -23.3751  -35.9647   23.3295 H   0  0  0  0  0  0
  -24.3587  -36.8926   22.2049 H   0  0  0  0  0  0
  -23.7233  -37.6520   23.6644 H   0  0  0  0  0  0
  -26.0400  -31.6000   20.5985 H   0  0  0  0  0  0
  -26.8142  -30.8871   21.9853 H   0  0  0  0  0  0
  -28.0904  -29.1130   21.1630 H   0  0  0  0  0  0
  -26.0308  -25.9872   18.9987 H   0  0  0  0  0  0
  -23.9709  -27.2954   19.0432 H   0  0  0  0  0  0
  -23.7138  -30.6005   19.4066 H   0  0  0  0  0  0
  -22.7298  -29.2456   19.8728 H   0  0  0  0  0  0
  -25.1272  -36.1983   25.0835 H   0  0  0  0  0  0
  -20.9947  -28.3206   24.1453 H   0  0  0  0  0  0
  -20.5651  -26.2253   23.3600 H   0  0  0  0  0  0
  -21.6629  -26.7429   22.1217 H   0  0  0  0  0  0
  -19.6894  -25.6303   21.1219 H   0  0  0  0  0  0
  -19.6674  -27.3215   20.6758 H   0  0  0  0  0  0
  -17.4184  -26.6672   21.4025 H   0  0  0  0  0  0
  -18.0312  -26.0053   22.9013 H   0  0  0  0  0  0
  -19.7923  -30.7246   24.2296 H   0  0  0  0  0  0
  -17.5004  -31.6261   24.5161 H   0  0  0  0  0  0
  -15.5342  -30.2991   23.7626 H   0  0  0  0  0  0
  -15.8660  -28.0824   22.7046 H   0  0  0  0  0  0
  -24.5915  -30.7034   25.7817 H   0  0  0  0  0  0
  -24.8945  -32.2831   26.4960 H   0  0  0  0  0  0
  -25.8117  -30.8828   27.0213 H   0  0  0  0  0  0
  -26.2826  -29.6797   24.1151 H   0  0  0  0  0  0
  -27.4094  -29.7269   25.4516 H   0  0  0  0  0  0
  -27.8650  -30.4359   23.9201 H   0  0  0  0  0  0
  -27.2689  -33.3584   26.2092 H   0  0  0  0  0  0
  -28.3833  -32.6888   25.0266 H   0  0  0  0  0  0
  -28.0766  -31.8395   26.5332 H   0  0  0  0  0  0
  -28.2588  -38.0119   24.7549 H   0  0  0  0  0  0
  -28.1103  -36.2656   24.6227 H   0  0  0  0  0  0
  -27.2318  -37.1387   25.8862 H   0  0  0  0  0  0
  -20.9280  -29.8748   21.6974 H   0  0  0  0  0  0
  -26.0181  -38.2875   24.1443 H   0  0  0  0  0  0
  -29.9892  -24.2034   20.8389 H   0  0  0  0  0  0
  -26.2798  -21.9965   18.6490 H   0  0  0  0  0  0
  -29.3169  -15.0223   23.4505 H   0  0  0  0  0  0
  -31.0372  -15.2706   23.7133 H   0  0  0  0  0  0
  -30.4678  -13.7163   23.1650 H   0  0  0  0  0  0
  -27.4500  -20.8823   22.9012 H   0  0  0  0  0  0
  -28.7195  -20.1115   23.8559 H   0  0  0  0  0  0
  -27.6111  -19.1409   22.8794 H   0  0  0  0  0  0
  -29.7257  -22.0559   22.5677 H   0  0  0  0  0  0
  -30.6817  -21.5101   21.2143 H   0  0  0  0  0  0
  -28.1637  -26.0828   18.0843 H   0  0  0  0  0  0
  -29.7333  -25.8609   18.7711 H   0  0  0  0  0  0
  -29.1315  -17.4496   22.6657 H   0  0  0  0  0  0
  -28.9385  -17.5124   20.9255 H   0  0  0  0  0  0
  -31.5968  -16.8858   22.3283 H   0  0  0  0  0  0
  -31.3096  -16.8993   20.6259 H   0  0  0  0  0  0
  -30.7687  -19.2770   20.8337 H   0  0  0  0  0  0
  -30.8299  -19.2819   22.5773 H   0  0  0  0  0  0
  -28.5387  -20.1246   20.9167 H   0  0  0  0  0  0
  1 25  1  0  0  0
  1 30  2  0  0  0
  1 84  1  0  0  0
  2  3  1  0  0  0
  2 25  1  0  0  0
  2 86  1  0  0  0
  2 87  1  0  0  0
  3  4  1  0  0  0
  3 88  1  0  0  0
  3 89  1  0  0  0
  4  5  1  0  0  0
  4 90  1  0  0  0
  4 91  1  0  0  0
  5  6  1  0  0  0
  5 26  1  0  0  0
  5 92  1  0  0  0
  6 25  1  0  0  0
  6 93  1  0  0  0
  6 94  1  0  0  0
  7  8  2  0  0  0
  7 26  1  0  0  0
  7 29  1  0  0  0
  8  9  1  0  0  0
  8 22  1  0  0  0
  9 10  1  0  0  0
  9 27  2  0  0  0
 10 11  2  0  0  0
 10 15  1  0  0  0
 11 12  1  0  0  0
 11 95  1  0  0  0
 12 13  2  0  0  0
 12 96  1  0  0  0
 13 14  1  0  0  0
 13 31  1  0  0  0
 14 15  2  0  0  0
 14 97  1  0  0  0
 15 98  1  0  0  0
 16 17  2  0  0  0
 16 21  1  0  0  0
 16 31  1  0  0  0
 17 18  1  0  0  0
 17 99  1  0  0  0
 18 19  2  0  0  0
 18100  1  0  0  0
 19 20  1  0  0  0
 19 24  1  0  0  0
 20 21  2  0  0  0
 20101  1  0  0  0
 21 23  1  0  0  0
 22 28  1  0  0  0
 22 32  2  0  0  0
 26 27  1  0  0  0
 28102  1  0  0  0
 28103  1  0  0  0
 29104  1  0  0  0
 29105  1  0  0  0
 33 34  1  0  0  0
 33 66  1  0  0  0
 33 70  2  0  0  0
 34 36  1  0  0  0
 34 59  1  0  0  0
 34106  1  0  0  0
 35 44  2  0  0  0
 35 45  1  0  0  0
 35 68  1  0  0  0
 36 56  1  0  0  0
 36107  1  0  0  0
 37 39  1  0  0  0
 37 47  1  0  0  0
 37 66  1  0  0  0
 37108  1  0  0  0
 38 43  2  0  0  0
 38 46  1  0  0  0
 38 47  1  0  0  0
 39 64  1  0  0  0
 39 67  2  0  0  0
 40 52  1  0  0  0
 40 53  2  0  0  0
 40 58  1  0  0  0
 41109  1  0  0  0
 41110  1  0  0  0
 41111  1  0  0  0
 41 48  1  0  0  0
 42 43  1  0  0  0
 42 66  1  0  0  0
 42112  1  0  0  0
 42113  1  0  0  0
 43 44  1  0  0  0
 44114  1  0  0  0
 45 46  2  0  0  0
 45115  1  0  0  0
 46116  1  0  0  0
 47117  1  0  0  0
 47118  1  0  0  0
 48 56  1  0  0  0
 48 65  1  0  0  0
 48119  1  0  0  0
 49 50  1  0  0  0
 49 53  1  0  0  0
 49 64  1  0  0  0
 49120  1  0  0  0
 50 51  1  0  0  0
 50121  1  0  0  0
 50122  1  0  0  0
 51 52  1  0  0  0
 51123  1  0  0  0
 51124  1  0  0  0
 52125  1  0  0  0
 52126  1  0  0  0
 53 54  1  0  0  0
 54 55  2  0  0  0
 54127  1  0  0  0
 55 57  1  0  0  0
 55128  1  0  0  0
 56 69  2  0  0  0
 57 58  2  0  0  0
 57129  1  0  0  0
 58130  1  0  0  0
 59 60  1  0  0  0
 59 61  1  0  0  0
 59 62  1  0  0  0
 60131  1  0  0  0
 60132  1  0  0  0
 60133  1  0  0  0
 61134  1  0  0  0
 61135  1  0  0  0
 61136  1  0  0  0
 62137  1  0  0  0
 62138  1  0  0  0
 62139  1  0  0  0
 63 65  1  0  0  0
 63140  1  0  0  0
 63141  1  0  0  0
 63142  1  0  0  0
 64143  1  0  0  0
 65144  1  0  0  0
 68 78  1  0  0  0
 71 73  2  0  0  0
 71 74  1  0  0  0
 71145  1  0  0  0
 72 82  2  0  0  0
 72 83  1  0  0  0
 72146  1  0  0  0
 73 77  1  0  0  0
 73 82  1  0  0  0
 74 78  1  0  0  0
 74 83  2  0  0  0
 75 84  1  0  0  0
 75147  1  0  0  0
 75148  1  0  0  0
 75149  1  0  0  0
 76150  1  0  0  0
 76151  1  0  0  0
 76152  1  0  0  0
 76 85  1  0  0  0
 77 85  1  0  0  0
 77153  1  0  0  0
 77154  1  0  0  0
 78155  1  0  0  0
 78156  1  0  0  0
 79 80  1  0  0  0
 79 81  1  0  0  0
 79157  1  0  0  0
 79158  1  0  0  0
 80 84  1  0  0  0
 80159  1  0  0  0
 80160  1  0  0  0
 81 85  1  0  0  0
 81161  1  0  0  0
 81162  1  0  0  0
 85163  1  0  0  0
M  CHG  1  85   1
M  ISO  4   1 100  68 101  78 101  84 100
M  END
> <chiral flag>
0

> <version>
0

> <s_m_source_file>
/data/baiqing/PycharmProjects/Reinvent-master-3.2/result/LINK_invent/BTK/process_docking_weight1_custom_sum_contain_oxygen_bond_distance_aromatic_linkinvent_7_9_3/rearranged_h_0064.sdf

> <i_m_source_file_index>
63

> <r_mmod_Potential_Energy-OPLS-2005>
-510.46044921875

> <r_mmod_Stretch_Energy-OPLS-2005>
37.0107231140137

> <r_mmod_Bend_Energy-OPLS-2005>
110.090110778809

> <r_mmod_Torsional_Energy-OPLS-2005>
270.315612792969

> <r_mmod_Improper_Torsional_Energy-OPLS-2005>
4.54218149185181

> <r_mmod_Van_der_Waal_Energy-OPLS-2005>
182.071472167969

> <r_mmod_Electrostatic_Energy-OPLS-2005>
-683.714050292969

> <r_mmod_Solvation_Energy-OPLS-2005>
-440.134124755859

> <b_mmod_Minimization_Converged-OPLS-2005>
0

> <r_mmod_RMS_Derivative-OPLS-2005>
1.71347391605377

$$$$
66
                    3D
 Structure written by MMmdl.
187195  0  0  1  0            999 V2000
  -30.7345  -14.5515   20.4490 C   0  0  0  0  0  0
  -30.4047  -12.3301   19.4478 C   0  0  0  0  0  0
  -29.4866  -12.4597   18.2159 C   0  0  0  0  0  0
  -28.0098  -12.3155   18.6306 C   0  0  0  0  0  0
  -27.6406  -13.1965   19.8528 C   0  0  2  0  0  0
  -28.6948  -13.0845   20.9748 C   0  0  0  0  0  0
  -25.2537  -13.8107   20.5722 C   0  0  0  0  0  0
  -24.1793  -13.0414   20.9220 C   0  0  0  0  0  0
  -24.6326  -11.6870   20.8765 C   0  0  0  0  0  0
  -23.9005  -10.4274   21.0424 C   0  0  0  0  0  0
  -24.3578   -9.4193   21.9195 C   0  0  0  0  0  0
  -23.6265   -8.2225   22.0748 C   0  0  0  0  0  0
  -22.4252   -8.0254   21.3532 C   0  0  0  0  0  0
  -21.9873   -9.0231   20.4641 C   0  0  0  0  0  0
  -22.7187  -10.2118   20.3061 C   0  0  0  0  0  0
  -21.6844   -6.0713   22.5273 C   0  0  0  0  0  0
  -21.4019   -6.5623   23.8205 C   0  0  0  0  0  0
  -21.3663   -5.6777   24.9166 C   0  0  0  0  0  0
  -21.6044   -4.3037   24.7225 C   0  0  0  0  0  0
  -21.8822   -3.8127   23.4350 C   0  0  0  0  0  0
  -21.9194   -4.6939   22.3404 C   0  0  0  0  0  0
  -22.7828  -13.5225   21.1884 C   0  0  0  0  0  0
  -22.1660   -4.2118   21.0980 F   0  0  0  0  0  0
  -21.5629   -3.4526   25.7747 F   0  0  0  0  0  0
  -30.0117  -13.3885   20.4012 N   0  0  0  0  0  0
  -26.2922  -12.9243   20.3338 N   0  0  0  0  0  0
  -25.9245  -11.6427   20.5808 N   0  0  0  0  0  0
  -22.0462  -12.8224   22.0429 N   0  0  0  0  0  0
  -25.4308  -15.1830   20.4179 N   0  0  0  0  0  0
  -31.9380  -14.4972   20.1977 O   0  0  0  0  0  0
  -21.6614   -6.8851   21.4231 O   0  0  0  0  0  0
  -22.3526  -14.5530   20.6713 O   0  0  0  0  0  0
  -24.6141  -31.8674   23.2105 C   0  0  0  0  0  0
  -25.9035  -32.4815   23.8415 C   0  0  1  0  0  0
  -27.2301  -27.4252   20.1083 C   0  0  0  0  0  0
  -25.5895  -33.8613   24.2341 N   0  0  0  0  0  0
  -23.4043  -30.4923   21.5497 C   0  0  2  0  0  0
  -24.8523  -28.9659   20.1084 C   0  0  0  0  0  0
  -22.7436  -29.4641   22.4962 C   0  0  0  0  0  0
  -18.0280  -28.1363   22.8508 C   0  0  0  0  0  0
  -24.1487  -36.7288   23.2647 C   0  0  0  0  0  0
  -25.9349  -30.8343   21.3655 C   0  0  0  0  0  0
  -26.0143  -29.4714   20.7060 C   0  0  0  0  0  0
  -27.2088  -28.7125   20.6974 C   0  0  0  0  0  0
  -26.0505  -26.9449   19.4897 C   0  0  0  0  0  0
  -24.8681  -27.7047   19.4917 C   0  0  0  0  0  0
  -23.6143  -29.8314   20.1627 C   0  0  0  0  0  0
  -25.4109  -36.3097   24.0349 C   0  0  1  0  0  0
  -20.5877  -28.3647   23.1309 C   0  0  2  0  0  0
  -20.6750  -26.9369   22.5416 C   0  0  0  0  0  0
  -19.5727  -26.6371   21.5221 C   0  0  0  0  0  0
  -18.1917  -26.7909   22.1642 C   0  0  0  0  0  0
  -19.1537  -28.8830   23.2903 C   0  0  0  0  0  0
  -18.9466  -30.1449   23.8895 C   0  0  0  0  0  0
  -17.6459  -30.6568   24.0566 C   0  0  0  0  0  0
  -25.9032  -34.9464   23.5140 C   0  0  0  0  0  0
  -16.5354  -29.9060   23.6327 C   0  0  0  0  0  0
  -16.7269  -28.6484   23.0342 C   0  0  0  0  0  0
  -26.4464  -31.6591   25.0744 C   0  0  0  0  0  0
  -25.3735  -31.3699   26.1500 C   0  0  0  0  0  0
  -27.0289  -30.3038   24.6103 C   0  0  0  0  0  0
  -27.6051  -32.4307   25.7489 C   0  0  0  0  0  0
  -27.5575  -37.1797   24.8478 C   0  0  0  0  0  0
  -21.4156  -29.3022   22.3719 N   0  0  0  0  0  0
  -26.4289  -37.3785   23.9425 N   0  0  0  0  0  0
  -24.6689  -31.0803   22.0986 N   0  0  0  0  0  0
  -23.4225  -28.8168   23.2982 O   0  0  0  0  0  0
  -28.3708  -26.6441   20.1766 O   0  0  0  0  0  0
  -26.5587  -34.8906   22.4699 O   0  0  0  0  0  0
  -23.5330  -32.1413   23.7495 O   0  0  0  0  0  0
  -27.6030  -18.4020   21.2363 C   0  0  0  0  0  0
  -27.6225  -19.6950   21.6807 C   0  0  0  0  0  0
  -28.7836  -17.8177   21.7759 C   0  0  0  0  0  0
  -29.3396  -16.2750   19.1285 C   0  0  0  0  0  0
  -29.6962  -20.0953   27.0315 C   0  0  0  0  0  0
  -27.5565  -20.5647   25.8353 C   0  0  0  0  0  0
  -28.8039  -18.4315   25.4245 C   0  0  0  0  0  0
  -30.8296  -21.5385   21.2733 C   0  0  0  0  0  0
  -30.8073  -23.0846   23.2193 C   0  0  0  0  0  0
  -29.2388  -16.3661   21.6734 C   0  0  0  0  0  0
  -29.2841  -24.4755   21.0670 C   0  0  0  0  0  0
  -28.8412  -23.0830   21.6191 C   0  0  0  0  0  0
  -29.8117  -20.6821   24.5920 C   0  0  0  0  0  0
  -31.3133  -17.0856   20.4419 C   0  0  0  0  0  0
  -28.1307  -25.2331   20.3684 C   0  0  0  0  0  0
  -29.1635  -21.0578   23.2099 C   0  0  1  0  0  0
  -30.1367  -16.0268   20.4412 C   0  0  1  0  0  0
  -28.9600  -19.9433   25.6821 C   0  0  0  0  0  0
  -29.9090  -22.1757   22.3404 C   0  0  0  0  0  0
  -29.5036  -18.7191   22.4400 N   0  0  0  0  0  0
  -28.7564  -19.8592   22.4487 N   0  0  0  0  0  0
  -32.2587  -17.0094   19.3067 N   0  3  0  0  0  0
  -31.4489  -12.3876   19.1382 H   0  0  0  0  0  0
  -30.2930  -11.3478   19.9074 H   0  0  0  0  0  0
  -29.7383  -11.6980   17.4767 H   0  0  0  0  0  0
  -29.6458  -13.4197   17.7259 H   0  0  0  0  0  0
  -27.8414  -11.2648   18.8697 H   0  0  0  0  0  0
  -27.3536  -12.5401   17.7891 H   0  0  0  0  0  0
  -27.6362  -14.2125   19.4866 H   0  0  0  0  0  0
  -28.6980  -12.0691   21.3723 H   0  0  0  0  0  0
  -28.4590  -13.7089   21.8321 H   0  0  0  0  0  0
  -25.2739   -9.5656   22.4747 H   0  0  0  0  0  0
  -23.9966   -7.4611   22.7463 H   0  0  0  0  0  0
  -21.0800   -8.8748   19.8953 H   0  0  0  0  0  0
  -22.3653  -10.9646   19.6155 H   0  0  0  0  0  0
  -21.2009   -7.6127   23.9692 H   0  0  0  0  0  0
  -21.1485   -6.0514   25.9065 H   0  0  0  0  0  0
  -22.0599   -2.7587   23.2863 H   0  0  0  0  0  0
  -22.4064  -11.9881   22.4837 H   0  0  0  0  0  0
  -21.1084  -13.1252   22.2638 H   0  0  0  0  0  0
  -24.6756  -15.8464   20.5507 H   0  0  0  0  0  0
  -26.2902  -15.6145   20.1110 H   0  0  0  0  0  0
  -26.7096  -32.5514   23.1169 H   0  0  0  0  0  0
  -25.0082  -33.9795   25.0508 H   0  0  0  0  0  0
  -22.6908  -31.3071   21.4138 H   0  0  0  0  0  0
  -23.3751  -35.9621   23.3319 H   0  0  0  0  0  0
  -24.3588  -36.8881   22.2060 H   0  0  0  0  0  0
  -23.7225  -37.6494   23.6639 H   0  0  0  0  0  0
  -26.0548  -31.6055   20.6025 H   0  0  0  0  0  0
  -26.8166  -30.8781   21.9921 H   0  0  0  0  0  0
  -28.1026  -29.0947   21.1735 H   0  0  0  0  0  0
  -26.0246  -25.9767   19.0105 H   0  0  0  0  0  0
  -23.9776  -27.3155   19.0186 H   0  0  0  0  0  0
  -23.7166  -30.6086   19.4049 H   0  0  0  0  0  0
  -22.7383  -29.2531   19.8662 H   0  0  0  0  0  0
  -25.1271  -36.1973   25.0840 H   0  0  0  0  0  0
  -20.9991  -28.3186   24.1420 H   0  0  0  0  0  0
  -20.5667  -26.2238   23.3597 H   0  0  0  0  0  0
  -21.6611  -26.7383   22.1207 H   0  0  0  0  0  0
  -19.6878  -25.6301   21.1206 H   0  0  0  0  0  0
  -19.6662  -27.3213   20.6779 H   0  0  0  0  0  0
  -17.4183  -26.6696   21.4036 H   0  0  0  0  0  0
  -18.0292  -26.0043   22.9028 H   0  0  0  0  0  0
  -19.7948  -30.7277   24.2239 H   0  0  0  0  0  0
  -17.5010  -31.6243   24.5165 H   0  0  0  0  0  0
  -15.5354  -30.2950   23.7652 H   0  0  0  0  0  0
  -15.8676  -28.0801   22.7020 H   0  0  0  0  0  0
  -24.5921  -30.7018   25.7847 H   0  0  0  0  0  0
  -24.8915  -32.2852   26.4946 H   0  0  0  0  0  0
  -25.8102  -30.8888   27.0263 H   0  0  0  0  0  0
  -26.2818  -29.6816   24.1152 H   0  0  0  0  0  0
  -27.4060  -29.7258   25.4554 H   0  0  0  0  0  0
  -27.8655  -30.4371   23.9236 H   0  0  0  0  0  0
  -27.2684  -33.3623   26.2057 H   0  0  0  0  0  0
  -28.3848  -32.6845   25.0288 H   0  0  0  0  0  0
  -28.0716  -31.8436   26.5412 H   0  0  0  0  0  0
  -28.2594  -38.0087   24.7499 H   0  0  0  0  0  0
  -28.1054  -36.2614   24.6315 H   0  0  0  0  0  0
  -27.2290  -37.1447   25.8880 H   0  0  0  0  0  0
  -20.9294  -29.8772   21.6982 H   0  0  0  0  0  0
  -26.0174  -38.2863   24.1436 H   0  0  0  0  0  0
  -26.8349  -17.9344   20.6370 H   0  0  0  0  0  0
  -26.9121  -20.4980   21.5381 H   0  0  0  0  0  0
  -29.4558  -17.2959   18.7637 H   0  0  0  0  0  0
  -28.2670  -16.1641   19.2646 H   0  0  0  0  0  0
  -29.6473  -15.6151   18.3171 H   0  0  0  0  0  0
  -29.1689  -19.5837   27.8385 H   0  0  0  0  0  0
  -29.7891  -21.1419   27.3271 H   0  0  0  0  0  0
  -30.7033  -19.6765   26.9894 H   0  0  0  0  0  0
  -27.0132  -20.1150   26.6676 H   0  0  0  0  0  0
  -26.9429  -20.4112   24.9457 H   0  0  0  0  0  0
  -27.6093  -21.6388   26.0197 H   0  0  0  0  0  0
  -28.3943  -17.9191   26.2959 H   0  0  0  0  0  0
  -29.7608  -17.9611   25.1908 H   0  0  0  0  0  0
  -28.1190  -18.2272   24.6025 H   0  0  0  0  0  0
  -31.3315  -22.2946   20.6703 H   0  0  0  0  0  0
  -30.2820  -20.8997   20.5795 H   0  0  0  0  0  0
  -31.6044  -20.9255   21.7366 H   0  0  0  0  0  0
  -31.3443  -23.8274   22.6297 H   0  0  0  0  0  0
  -31.5838  -22.5169   23.7323 H   0  0  0  0  0  0
  -30.2271  -23.6238   23.9697 H   0  0  0  0  0  0
  -28.3333  -15.7675   21.6463 H   0  0  0  0  0  0
  -29.7575  -16.0805   22.5901 H   0  0  0  0  0  0
  -29.6291  -25.0944   21.8945 H   0  0  0  0  0  0
  -30.1278  -24.3768   20.3847 H   0  0  0  0  0  0
  -28.3822  -22.5162   20.8078 H   0  0  0  0  0  0
  -28.0285  -23.2925   22.3168 H   0  0  0  0  0  0
  -30.1088  -21.6064   25.0798 H   0  0  0  0  0  0
  -30.7443  -20.1420   24.4199 H   0  0  0  0  0  0
  -31.8808  -17.0053   21.3717 H   0  0  0  0  0  0
  -30.9382  -18.1065   20.4043 H   0  0  0  0  0  0
  -27.2417  -25.1024   20.9890 H   0  0  0  0  0  0
  -27.9194  -24.7626   19.4077 H   0  0  0  0  0  0
  -28.2279  -21.5271   23.5015 H   0  0  0  0  0  0
  -32.6073  -16.0623   19.2626 H   0  0  0  0  0  0
  -33.0327  -17.6327   19.4553 H   0  0  0  0  0  0
  -31.8182  -17.2449   18.4353 H   0  0  0  0  0  0
  1 25  1  0  0  0
  1 30  2  0  0  0
  1 87  1  0  0  0
  2  3  1  0  0  0
  2 25  1  0  0  0
  2 93  1  0  0  0
  2 94  1  0  0  0
  3  4  1  0  0  0
  3 95  1  0  0  0
  3 96  1  0  0  0
  4  5  1  0  0  0
  4 97  1  0  0  0
  4 98  1  0  0  0
  5  6  1  0  0  0
  5 26  1  0  0  0
  5 99  1  0  0  0
  6 25  1  0  0  0
  6100  1  0  0  0
  6101  1  0  0  0
  7  8  2  0  0  0
  7 26  1  0  0  0
  7 29  1  0  0  0
  8  9  1  0  0  0
  8 22  1  0  0  0
  9 10  1  0  0  0
  9 27  2  0  0  0
 10 11  2  0  0  0
 10 15  1  0  0  0
 11 12  1  0  0  0
 11102  1  0  0  0
 12 13  2  0  0  0
 12103  1  0  0  0
 13 14  1  0  0  0
 13 31  1  0  0  0
 14 15  2  0  0  0
 14104  1  0  0  0
 15105  1  0  0  0
 16 17  2  0  0  0
 16 21  1  0  0  0
 16 31  1  0  0  0
 17 18  1  0  0  0
 17106  1  0  0  0
 18 19  2  0  0  0
 18107  1  0  0  0
 19 20  1  0  0  0
 19 24  1  0  0  0
 20 21  2  0  0  0
 20108  1  0  0  0
 21 23  1  0  0  0
 22 28  1  0  0  0
 22 32  2  0  0  0
 26 27  1  0  0  0
 28109  1  0  0  0
 28110  1  0  0  0
 29111  1  0  0  0
 29112  1  0  0  0
 33 34  1  0  0  0
 33 66  1  0  0  0
 33 70  2  0  0  0
 34 36  1  0  0  0
 34 59  1  0  0  0
 34113  1  0  0  0
 35 44  2  0  0  0
 35 45  1  0  0  0
 35 68  1  0  0  0
 36 56  1  0  0  0
 36114  1  0  0  0
 37 39  1  0  0  0
 37 47  1  0  0  0
 37 66  1  0  0  0
 37115  1  0  0  0
 38 43  2  0  0  0
 38 46  1  0  0  0
 38 47  1  0  0  0
 39 64  1  0  0  0
 39 67  2  0  0  0
 40 52  1  0  0  0
 40 53  2  0  0  0
 40 58  1  0  0  0
 41116  1  0  0  0
 41117  1  0  0  0
 41118  1  0  0  0
 41 48  1  0  0  0
 42 43  1  0  0  0
 42 66  1  0  0  0
 42119  1  0  0  0
 42120  1  0  0  0
 43 44  1  0  0  0
 44121  1  0  0  0
 45 46  2  0  0  0
 45122  1  0  0  0
 46123  1  0  0  0
 47124  1  0  0  0
 47125  1  0  0  0
 48 56  1  0  0  0
 48 65  1  0  0  0
 48126  1  0  0  0
 49 50  1  0  0  0
 49 53  1  0  0  0
 49 64  1  0  0  0
 49127  1  0  0  0
 50 51  1  0  0  0
 50128  1  0  0  0
 50129  1  0  0  0
 51 52  1  0  0  0
 51130  1  0  0  0
 51131  1  0  0  0
 52132  1  0  0  0
 52133  1  0  0  0
 53 54  1  0  0  0
 54 55  2  0  0  0
 54134  1  0  0  0
 55 57  1  0  0  0
 55135  1  0  0  0
 56 69  2  0  0  0
 57 58  2  0  0  0
 57136  1  0  0  0
 58137  1  0  0  0
 59 60  1  0  0  0
 59 61  1  0  0  0
 59 62  1  0  0  0
 60138  1  0  0  0
 60139  1  0  0  0
 60140  1  0  0  0
 61141  1  0  0  0
 61142  1  0  0  0
 61143  1  0  0  0
 62144  1  0  0  0
 62145  1  0  0  0
 62146  1  0  0  0
 63 65  1  0  0  0
 63147  1  0  0  0
 63148  1  0  0  0
 63149  1  0  0  0
 64150  1  0  0  0
 65151  1  0  0  0
 68 85  1  0  0  0
 71 72  2  0  0  0
 71 73  1  0  0  0
 71152  1  0  0  0
 72 91  1  0  0  0
 72153  1  0  0  0
 73 80  1  0  0  0
 73 90  2  0  0  0
 74154  1  0  0  0
 74155  1  0  0  0
 74156  1  0  0  0
 74 87  1  0  0  0
 75157  1  0  0  0
 75158  1  0  0  0
 75159  1  0  0  0
 75 88  1  0  0  0
 76 88  1  0  0  0
 76160  1  0  0  0
 76161  1  0  0  0
 76162  1  0  0  0
 77 88  1  0  0  0
 77163  1  0  0  0
 77164  1  0  0  0
 77165  1  0  0  0
 78166  1  0  0  0
 78167  1  0  0  0
 78168  1  0  0  0
 78 89  1  0  0  0
 79 89  1  0  0  0
 79169  1  0  0  0
 79170  1  0  0  0
 79171  1  0  0  0
 80 87  1  0  0  0
 80172  1  0  0  0
 80173  1  0  0  0
 81 82  1  0  0  0
 81 85  1  0  0  0
 81174  1  0  0  0
 81175  1  0  0  0
 82 89  1  0  0  0
 82176  1  0  0  0
 82177  1  0  0  0
 83 88  1  0  0  0
 83178  1  0  0  0
 83179  1  0  0  0
 83 86  1  0  0  0
 84 87  1  0  0  0
 84 92  1  0  0  0
 84180  1  0  0  0
 84181  1  0  0  0
 85182  1  0  0  0
 85183  1  0  0  0
 86 89  1  0  0  0
 86 91  1  0  0  0
 86184  1  0  0  0
 90 91  1  0  0  0
 92185  1  0  0  0
 92186  1  0  0  0
 92187  1  0  0  0
M  CHG  1  92   1
M  ISO  4   1 100  68 101  85 101  87 100
M  END
> <chiral flag>
0

> <version>
0

> <s_m_source_file>
/data/baiqing/PycharmProjects/Reinvent-master-3.2/result/LINK_invent/BTK/process_docking_weight1_custom_sum_contain_oxygen_bond_distance_aromatic_linkinvent_7_9_3/rearranged_h_0064.sdf

> <i_m_source_file_index>
64

> <r_mmod_Potential_Energy-OPLS-2005>
-126.622863769531

> <r_mmod_Stretch_Energy-OPLS-2005>
63.0168266296387

> <r_mmod_Bend_Energy-OPLS-2005>
153.723770141602

> <r_mmod_Torsional_Energy-OPLS-2005>
260.889312744141

> <r_mmod_Improper_Torsional_Energy-OPLS-2005>
8.10785293579102

> <r_mmod_Van_der_Waal_Energy-OPLS-2005>
163.755172729492

> <r_mmod_Electrostatic_Energy-OPLS-2005>
-397.250457763672

> <r_mmod_Solvation_Energy-OPLS-2005>
-414.131469726562

> <b_mmod_Minimization_Converged-OPLS-2005>
0

> <r_mmod_RMS_Derivative-OPLS-2005>
2.21359348297119

$$$$
67
                    3D
 Structure written by MMmdl.
168176  0  0  1  0            999 V2000
  -30.7334  -14.4264   20.6399 C   0  0  0  0  0  0
  -30.4203  -12.2987   19.4196 C   0  0  0  0  0  0
  -29.4950  -12.5133   18.2061 C   0  0  0  0  0  0
  -28.0180  -12.3641   18.6187 C   0  0  0  0  0  0
  -27.6648  -13.2037   19.8756 C   0  0  2  0  0  0
  -28.7001  -12.9711   20.9984 C   0  0  0  0  0  0
  -25.2602  -13.8148   20.5670 C   0  0  0  0  0  0
  -24.1847  -13.0449   20.9150 C   0  0  0  0  0  0
  -24.6385  -11.6896   20.8692 C   0  0  0  0  0  0
  -23.9051  -10.4294   21.0382 C   0  0  0  0  0  0
  -24.3602   -9.4219   21.9171 C   0  0  0  0  0  0
  -23.6282   -8.2249   22.0753 C   0  0  0  0  0  0
  -22.4269   -8.0270   21.3542 C   0  0  0  0  0  0
  -21.9890   -9.0244   20.4645 C   0  0  0  0  0  0
  -22.7208  -10.2129   20.3044 C   0  0  0  0  0  0
  -21.6857   -6.0726   22.5282 C   0  0  0  0  0  0
  -21.4020   -6.5636   23.8213 C   0  0  0  0  0  0
  -21.3659   -5.6790   24.9171 C   0  0  0  0  0  0
  -21.6043   -4.3048   24.7229 C   0  0  0  0  0  0
  -21.8816   -3.8141   23.4354 C   0  0  0  0  0  0
  -21.9198   -4.6959   22.3401 C   0  0  0  0  0  0
  -22.7871  -13.5243   21.1830 C   0  0  0  0  0  0
  -22.1661   -4.2140   21.0982 F   0  0  0  0  0  0
  -21.5628   -3.4535   25.7746 F   0  0  0  0  0  0
  -30.0407  -13.2675   20.4601 N   0  0  0  0  0  0
  -26.3042  -12.9316   20.3341 N   0  0  0  0  0  0
  -25.9316  -11.6486   20.5731 N   0  0  0  0  0  0
  -22.0509  -12.8238   22.0384 N   0  0  0  0  0  0
  -25.4334  -15.1869   20.4105 N   0  0  0  0  0  0
  -31.7852  -14.6766   20.0413 O   0  0  0  0  0  0
  -21.6637   -6.8870   21.4238 O   0  0  0  0  0  0
  -22.3551  -14.5554   20.6681 O   0  0  0  0  0  0
  -24.6185  -31.8687   23.2101 C   0  0  0  0  0  0
  -25.9075  -32.4819   23.8408 C   0  0  1  0  0  0
  -27.2231  -27.4116   20.0587 C   0  0  0  0  0  0
  -25.5926  -33.8624   24.2320 N   0  0  0  0  0  0
  -23.4051  -30.4927   21.5534 C   0  0  2  0  0  0
  -24.8436  -28.9580   20.1159 C   0  0  0  0  0  0
  -22.7405  -29.4685   22.5003 C   0  0  0  0  0  0
  -18.0254  -28.1346   22.8472 C   0  0  0  0  0  0
  -24.1471  -36.7295   23.2635 C   0  0  0  0  0  0
  -25.9435  -30.8117   21.3776 C   0  0  0  0  0  0
  -26.0079  -29.4487   20.7157 C   0  0  0  0  0  0
  -27.2003  -28.6818   20.6897 C   0  0  0  0  0  0
  -26.0288  -26.9446   19.4645 C   0  0  0  0  0  0
  -24.8471  -27.7025   19.4922 C   0  0  0  0  0  0
  -23.6100  -29.8298   20.1681 C   0  0  0  0  0  0
  -25.4094  -36.3105   24.0327 C   0  0  1  0  0  0
  -20.5849  -28.3686   23.1269 C   0  0  2  0  0  0
  -20.6746  -26.9402   22.5402 C   0  0  0  0  0  0
  -19.5747  -26.6344   21.5194 C   0  0  0  0  0  0
  -18.1911  -26.7875   22.1601 C   0  0  0  0  0  0
  -19.1508  -28.8824   23.2867 C   0  0  0  0  0  0
  -18.9459  -30.1418   23.8890 C   0  0  0  0  0  0
  -17.6476  -30.6570   24.0548 C   0  0  0  0  0  0
  -25.9036  -34.9475   23.5119 C   0  0  0  0  0  0
  -16.5352  -29.9073   23.6310 C   0  0  0  0  0  0
  -16.7246  -28.6479   23.0355 C   0  0  0  0  0  0
  -26.4458  -31.6620   25.0779 C   0  0  0  0  0  0
  -25.3702  -31.3799   26.1531 C   0  0  0  0  0  0
  -27.0280  -30.3017   24.6254 C   0  0  0  0  0  0
  -27.6029  -32.4351   25.7545 C   0  0  0  0  0  0
  -27.5565  -37.1800   24.8455 C   0  0  0  0  0  0
  -21.4145  -29.3046   22.3697 N   0  0  0  0  0  0
  -26.4270  -37.3796   23.9407 N   0  0  0  0  0  0
  -24.6742  -31.0720   22.1055 N   0  0  0  0  0  0
  -23.4163  -28.8190   23.3036 O   0  0  0  0  0  0
  -28.3914  -26.6634   20.0447 O   0  0  0  0  0  0
  -26.5595  -34.8914   22.4678 O   0  0  0  0  0  0
  -23.5366  -32.1481   23.7458 O   0  0  0  0  0  0
  -28.4426  -21.1885   19.3978 C   0  0  0  0  0  0
  -29.5771  -19.9219   20.6357 C   0  0  0  0  0  0
  -27.9627  -21.9210   18.2131 C   0  0  0  0  0  0
  -27.7343  -23.2698   18.1892 C   0  0  0  0  0  0
  -27.6559  -20.9701   17.0536 C   0  0  0  0  0  0
  -27.1868  -23.9840   16.9513 C   0  0  0  0  0  0
  -30.6738  -20.4491   18.4214 C   0  0  0  0  0  0
  -30.3802  -15.3164   22.8821 C   0  0  0  0  0  0
  -30.7019  -19.0747   21.1674 C   0  0  0  0  0  0
  -27.9634  -24.2189   19.3908 C   0  0  0  0  0  0
  -30.8393  -17.6455   20.5910 C   0  0  0  0  0  0
  -29.6952  -16.6694   20.9552 C   0  0  0  0  0  0
  -28.5483  -25.6345   19.0432 C   0  0  0  0  0  0
  -27.7086  -21.0099   20.5050 N   0  0  0  0  0  0
  -28.4472  -20.1696   21.3108 N   0  0  0  0  0  0
  -29.6226  -20.5207   19.4262 N   0  0  0  0  0  0
  -30.1453  -15.3495   21.4376 N   0  0  0  0  0  0
  -31.4672  -12.3891   19.1245 H   0  0  0  0  0  0
  -30.3107  -11.2845   19.8057 H   0  0  0  0  0  0
  -29.7365  -11.7984   17.4187 H   0  0  0  0  0  0
  -29.6632  -13.5043   17.7817 H   0  0  0  0  0  0
  -27.8372  -11.3066   18.8186 H   0  0  0  0  0  0
  -27.3642  -12.6312   17.7871 H   0  0  0  0  0  0
  -27.7146  -14.2524   19.5831 H   0  0  0  0  0  0
  -28.6687  -11.9349   21.3371 H   0  0  0  0  0  0
  -28.4440  -13.5681   21.8736 H   0  0  0  0  0  0
  -25.2756   -9.5705   22.4733 H   0  0  0  0  0  0
  -24.0001   -7.4650   22.7475 H   0  0  0  0  0  0
  -21.0820   -8.8750   19.8958 H   0  0  0  0  0  0
  -22.3659  -10.9656   19.6143 H   0  0  0  0  0  0
  -21.2009   -7.6148   23.9712 H   0  0  0  0  0  0
  -21.1483   -6.0522   25.9075 H   0  0  0  0  0  0
  -22.0597   -2.7606   23.2855 H   0  0  0  0  0  0
  -22.4120  -11.9898   22.4771 H   0  0  0  0  0  0
  -21.1137  -13.1272   22.2597 H   0  0  0  0  0  0
  -24.6729  -15.8469   20.5311 H   0  0  0  0  0  0
  -26.2987  -15.6283   20.1258 H   0  0  0  0  0  0
  -26.7154  -32.5465   23.1160 H   0  0  0  0  0  0
  -25.0105  -33.9794   25.0501 H   0  0  0  0  0  0
  -22.6974  -31.3134   21.4146 H   0  0  0  0  0  0
  -23.3733  -35.9639   23.3331 H   0  0  0  0  0  0
  -24.3564  -36.8877   22.2046 H   0  0  0  0  0  0
  -23.7215  -37.6510   23.6622 H   0  0  0  0  0  0
  -26.0839  -31.5809   20.6173 H   0  0  0  0  0  0
  -26.8253  -30.8468   22.0072 H   0  0  0  0  0  0
  -28.1023  -29.0611   21.1476 H   0  0  0  0  0  0
  -25.9760  -25.9913   18.9694 H   0  0  0  0  0  0
  -23.9500  -27.3137   19.0315 H   0  0  0  0  0  0
  -23.7261  -30.6068   19.4141 H   0  0  0  0  0  0
  -22.7337  -29.2535   19.8701 H   0  0  0  0  0  0
  -25.1268  -36.2001   25.0822 H   0  0  0  0  0  0
  -20.9927  -28.3238   24.1413 H   0  0  0  0  0  0
  -20.5593  -26.2303   23.3609 H   0  0  0  0  0  0
  -21.6616  -26.7394   22.1239 H   0  0  0  0  0  0
  -19.6909  -25.6261   21.1220 H   0  0  0  0  0  0
  -19.6651  -27.3162   20.6724 H   0  0  0  0  0  0
  -17.4161  -26.6612   21.4005 H   0  0  0  0  0  0
  -18.0325  -26.0020   22.9007 H   0  0  0  0  0  0
  -19.7967  -30.7200   24.2245 H   0  0  0  0  0  0
  -17.5066  -31.6250   24.5171 H   0  0  0  0  0  0
  -15.5374  -30.3008   23.7633 H   0  0  0  0  0  0
  -15.8634  -28.0799   22.7104 H   0  0  0  0  0  0
  -24.5894  -30.7101   25.7904 H   0  0  0  0  0  0
  -24.8891  -32.3001   26.4872 H   0  0  0  0  0  0
  -25.8064  -30.9075   27.0348 H   0  0  0  0  0  0
  -26.2897  -29.6827   24.1136 H   0  0  0  0  0  0
  -27.3791  -29.7206   25.4799 H   0  0  0  0  0  0
  -27.8845  -30.4254   23.9613 H   0  0  0  0  0  0
  -27.2626  -33.3634   26.2131 H   0  0  0  0  0  0
  -28.3834  -32.6936   25.0384 H   0  0  0  0  0  0
  -28.0691  -31.8477   26.5468 H   0  0  0  0  0  0
  -28.2591  -38.0083   24.7502 H   0  0  0  0  0  0
  -28.1033  -36.2617   24.6282 H   0  0  0  0  0  0
  -27.2272  -37.1457   25.8850 H   0  0  0  0  0  0
  -20.9303  -29.8850   21.6994 H   0  0  0  0  0  0
  -26.0158  -38.2876   24.1429 H   0  0  0  0  0  0
  -28.4577  -20.2491   16.9134 H   0  0  0  0  0  0
  -27.5198  -21.4390   16.0854 H   0  0  0  0  0  0
  -26.7547  -20.3998   17.2780 H   0  0  0  0  0  0
  -27.9669  -24.6066   16.5139 H   0  0  0  0  0  0
  -26.3427  -24.6212   17.2196 H   0  0  0  0  0  0
  -26.8277  -23.3430   16.1511 H   0  0  0  0  0  0
  -30.5356  -21.2187   17.6623 H   0  0  0  0  0  0
  -30.6546  -19.4687   17.9432 H   0  0  0  0  0  0
  -31.6498  -20.6000   18.8835 H   0  0  0  0  0  0
  -29.4484  -15.4840   23.4216 H   0  0  0  0  0  0
  -31.0810  -16.1010   23.1716 H   0  0  0  0  0  0
  -30.7904  -14.3644   23.2204 H   0  0  0  0  0  0
  -30.5894  -19.0054   22.2490 H   0  0  0  0  0  0
  -31.6377  -19.6115   21.0172 H   0  0  0  0  0  0
  -28.6059  -23.7514   20.1380 H   0  0  0  0  0  0
  -26.9993  -24.3253   19.8823 H   0  0  0  0  0  0
  -31.7873  -17.2475   20.9551 H   0  0  0  0  0  0
  -30.9507  -17.6879   19.5078 H   0  0  0  0  0  0
  -29.0460  -16.5278   20.0893 H   0  0  0  0  0  0
  -29.0534  -17.1190   21.7125 H   0  0  0  0  0  0
  -29.6169  -25.5082   18.8562 H   0  0  0  0  0  0
  -28.1552  -26.0382   18.1128 H   0  0  0  0  0  0
  1 25  1  0  0  0
  1 30  2  0  0  0
  1 87  1  0  0  0
  2  3  1  0  0  0
  2 25  1  0  0  0
  2 88  1  0  0  0
  2 89  1  0  0  0
  3  4  1  0  0  0
  3 90  1  0  0  0
  3 91  1  0  0  0
  4  5  1  0  0  0
  4 92  1  0  0  0
  4 93  1  0  0  0
  5  6  1  0  0  0
  5 26  1  0  0  0
  5 94  1  0  0  0
  6 25  1  0  0  0
  6 95  1  0  0  0
  6 96  1  0  0  0
  7  8  2  0  0  0
  7 26  1  0  0  0
  7 29  1  0  0  0
  8  9  1  0  0  0
  8 22  1  0  0  0
  9 10  1  0  0  0
  9 27  2  0  0  0
 10 11  2  0  0  0
 10 15  1  0  0  0
 11 12  1  0  0  0
 11 97  1  0  0  0
 12 13  2  0  0  0
 12 98  1  0  0  0
 13 14  1  0  0  0
 13 31  1  0  0  0
 14 15  2  0  0  0
 14 99  1  0  0  0
 15100  1  0  0  0
 16 17  2  0  0  0
 16 21  1  0  0  0
 16 31  1  0  0  0
 17 18  1  0  0  0
 17101  1  0  0  0
 18 19  2  0  0  0
 18102  1  0  0  0
 19 20  1  0  0  0
 19 24  1  0  0  0
 20 21  2  0  0  0
 20103  1  0  0  0
 21 23  1  0  0  0
 22 28  1  0  0  0
 22 32  2  0  0  0
 26 27  1  0  0  0
 28104  1  0  0  0
 28105  1  0  0  0
 29106  1  0  0  0
 29107  1  0  0  0
 33 34  1  0  0  0
 33 66  1  0  0  0
 33 70  2  0  0  0
 34 36  1  0  0  0
 34 59  1  0  0  0
 34108  1  0  0  0
 35 44  2  0  0  0
 35 45  1  0  0  0
 35 68  1  0  0  0
 36 56  1  0  0  0
 36109  1  0  0  0
 37 39  1  0  0  0
 37 47  1  0  0  0
 37 66  1  0  0  0
 37110  1  0  0  0
 38 43  2  0  0  0
 38 46  1  0  0  0
 38 47  1  0  0  0
 39 64  1  0  0  0
 39 67  2  0  0  0
 40 52  1  0  0  0
 40 53  2  0  0  0
 40 58  1  0  0  0
 41111  1  0  0  0
 41112  1  0  0  0
 41113  1  0  0  0
 41 48  1  0  0  0
 42 43  1  0  0  0
 42 66  1  0  0  0
 42114  1  0  0  0
 42115  1  0  0  0
 43 44  1  0  0  0
 44116  1  0  0  0
 45 46  2  0  0  0
 45117  1  0  0  0
 46118  1  0  0  0
 47119  1  0  0  0
 47120  1  0  0  0
 48 56  1  0  0  0
 48 65  1  0  0  0
 48121  1  0  0  0
 49 50  1  0  0  0
 49 53  1  0  0  0
 49 64  1  0  0  0
 49122  1  0  0  0
 50 51  1  0  0  0
 50123  1  0  0  0
 50124  1  0  0  0
 51 52  1  0  0  0
 51125  1  0  0  0
 51126  1  0  0  0
 52127  1  0  0  0
 52128  1  0  0  0
 53 54  1  0  0  0
 54 55  2  0  0  0
 54129  1  0  0  0
 55 57  1  0  0  0
 55130  1  0  0  0
 56 69  2  0  0  0
 57 58  2  0  0  0
 57131  1  0  0  0
 58132  1  0  0  0
 59 60  1  0  0  0
 59 61  1  0  0  0
 59 62  1  0  0  0
 60133  1  0  0  0
 60134  1  0  0  0
 60135  1  0  0  0
 61136  1  0  0  0
 61137  1  0  0  0
 61138  1  0  0  0
 62139  1  0  0  0
 62140  1  0  0  0
 62141  1  0  0  0
 63 65  1  0  0  0
 63142  1  0  0  0
 63143  1  0  0  0
 63144  1  0  0  0
 64145  1  0  0  0
 65146  1  0  0  0
 68 83  1  0  0  0
 71 73  1  0  0  0
 71 84  2  0  0  0
 71 86  1  0  0  0
 72 79  1  0  0  0
 72 85  2  0  0  0
 72 86  1  0  0  0
 73 74  2  0  0  0
 73 75  1  0  0  0
 74 76  1  0  0  0
 74 80  1  0  0  0
 75147  1  0  0  0
 75148  1  0  0  0
 75149  1  0  0  0
 76150  1  0  0  0
 76151  1  0  0  0
 76152  1  0  0  0
 77 86  1  0  0  0
 77153  1  0  0  0
 77154  1  0  0  0
 77155  1  0  0  0
 78 87  1  0  0  0
 78156  1  0  0  0
 78157  1  0  0  0
 78158  1  0  0  0
 79 81  1  0  0  0
 79159  1  0  0  0
 79160  1  0  0  0
 80 83  1  0  0  0
 80161  1  0  0  0
 80162  1  0  0  0
 81 82  1  0  0  0
 81163  1  0  0  0
 81164  1  0  0  0
 82 87  1  0  0  0
 82165  1  0  0  0
 82166  1  0  0  0
 83167  1  0  0  0
 83168  1  0  0  0
 84 85  1  0  0  0
M  ISO  4   1 100  68 101  83 101  87 100
M  END
> <chiral flag>
0

> <version>
0

> <s_m_source_file>
/data/baiqing/PycharmProjects/Reinvent-master-3.2/result/LINK_invent/BTK/process_docking_weight1_custom_sum_contain_oxygen_bond_distance_aromatic_linkinvent_7_9_3/rearranged_h_0064.sdf

> <i_m_source_file_index>
65

> <r_mmod_Potential_Energy-OPLS-2005>
151.64680480957

> <r_mmod_Stretch_Energy-OPLS-2005>
44.7076148986816

> <r_mmod_Bend_Energy-OPLS-2005>
122.7392578125

> <r_mmod_Torsional_Energy-OPLS-2005>
311.430206298828

> <r_mmod_Improper_Torsional_Energy-OPLS-2005>
4.85220623016357

> <r_mmod_Van_der_Waal_Energy-OPLS-2005>
139.789703369141

> <r_mmod_Electrostatic_Energy-OPLS-2005>
-270.557220458984

> <r_mmod_Solvation_Energy-OPLS-2005>
-213.392807006836

> <b_mmod_Minimization_Converged-OPLS-2005>
0

> <r_mmod_RMS_Derivative-OPLS-2005>
4.46206045150757

$$$$
68
                    3D
 Structure written by MMmdl.
159167  0  0  1  0            999 V2000
  -30.6055  -14.7143   20.4144 C   0  0  0  0  0  0
  -30.4235  -12.4212   19.4734 C   0  0  0  0  0  0
  -29.5110  -12.4859   18.2283 C   0  0  0  0  0  0
  -28.0324  -12.3131   18.6299 C   0  0  0  0  0  0
  -27.6317  -13.2183   19.8234 C   0  0  2  0  0  0
  -28.6694  -13.1716   20.9625 C   0  0  0  0  0  0
  -25.2555  -13.8180   20.5665 C   0  0  0  0  0  0
  -24.1841  -13.0453   20.9280 C   0  0  0  0  0  0
  -24.6379  -11.6920   20.8762 C   0  0  0  0  0  0
  -23.9041  -10.4295   21.0414 C   0  0  0  0  0  0
  -24.3614   -9.4220   21.9183 C   0  0  0  0  0  0
  -23.6293   -8.2244   22.0756 C   0  0  0  0  0  0
  -22.4276   -8.0278   21.3544 C   0  0  0  0  0  0
  -21.9897   -9.0252   20.4647 C   0  0  0  0  0  0
  -22.7220  -10.2137   20.3058 C   0  0  0  0  0  0
  -21.6860   -6.0729   22.5274 C   0  0  0  0  0  0
  -21.4008   -6.5636   23.8213 C   0  0  0  0  0  0
  -21.3656   -5.6799   24.9171 C   0  0  0  0  0  0
  -21.6049   -4.3052   24.7224 C   0  0  0  0  0  0
  -21.8820   -3.8144   23.4349 C   0  0  0  0  0  0
  -21.9191   -4.6960   22.3402 C   0  0  0  0  0  0
  -22.7878  -13.5263   21.1910 C   0  0  0  0  0  0
  -22.1665   -4.2148   21.0977 F   0  0  0  0  0  0
  -21.5629   -3.4537   25.7733 F   0  0  0  0  0  0
  -29.9807  -13.4905   20.3944 N   0  0  0  0  0  0
  -26.2872  -12.9322   20.3101 N   0  0  0  0  0  0
  -25.9271  -11.6494   20.5643 N   0  0  0  0  0  0
  -22.0460  -12.8249   22.0426 N   0  0  0  0  0  0
  -25.4383  -15.1890   20.4010 N   0  0  0  0  0  0
  -31.8294  -14.7524   20.2604 O   0  0  0  0  0  0
  -21.6639   -6.8880   21.4241 O   0  0  0  0  0  0
  -22.3614  -14.5584   20.6756 O   0  0  0  0  0  0
  -24.6326  -31.8568   23.1977 C   0  0  0  0  0  0
  -25.9174  -32.4746   23.8307 C   0  0  1  0  0  0
  -27.2105  -27.2603   20.1338 C   0  0  0  0  0  0
  -25.5984  -33.8543   24.2232 N   0  0  0  0  0  0
  -23.4279  -30.4826   21.5400 C   0  0  2  0  0  0
  -24.8724  -28.9340   20.1059 C   0  0  0  0  0  0
  -22.7520  -29.4624   22.4883 C   0  0  0  0  0  0
  -18.0317  -28.1398   22.8486 C   0  0  0  0  0  0
  -24.1503  -36.7264   23.2635 C   0  0  0  0  0  0
  -25.9760  -30.7641   21.3854 C   0  0  0  0  0  0
  -26.0442  -29.3915   20.7208 C   0  0  0  0  0  0
  -27.2159  -28.5678   20.7253 C   0  0  0  0  0  0
  -26.0163  -26.8787   19.4769 C   0  0  0  0  0  0
  -24.8644  -27.6849   19.4717 C   0  0  0  0  0  0
  -23.6449  -29.8214   20.1552 C   0  0  0  0  0  0
  -25.4134  -36.3051   24.0311 C   0  0  1  0  0  0
  -20.5914  -28.3714   23.1251 C   0  0  2  0  0  0
  -20.6814  -26.9431   22.5398 C   0  0  0  0  0  0
  -19.5784  -26.6390   21.5213 C   0  0  0  0  0  0
  -18.1960  -26.7942   22.1622 C   0  0  0  0  0  0
  -19.1563  -28.8870   23.2864 C   0  0  0  0  0  0
  -18.9484  -30.1477   23.8883 C   0  0  0  0  0  0
  -17.6486  -30.6593   24.0564 C   0  0  0  0  0  0
  -25.9083  -34.9424   23.5065 C   0  0  0  0  0  0
  -16.5374  -29.9083   23.6338 C   0  0  0  0  0  0
  -16.7296  -28.6508   23.0359 C   0  0  0  0  0  0
  -26.4519  -31.6581   25.0702 C   0  0  0  0  0  0
  -25.3717  -31.3754   26.1399 C   0  0  0  0  0  0
  -27.0396  -30.2995   24.6240 C   0  0  0  0  0  0
  -27.6057  -32.4339   25.7480 C   0  0  0  0  0  0
  -27.5579  -37.1800   24.8465 C   0  0  0  0  0  0
  -21.4227  -29.3053   22.3621 N   0  0  0  0  0  0
  -26.4306  -37.3753   23.9384 N   0  0  0  0  0  0
  -24.6964  -31.0536   22.0955 N   0  0  0  0  0  0
  -23.4204  -28.8170   23.2995 O   0  0  0  0  0  0
  -28.2874  -26.3450   20.2233 O   0  0  0  0  0  0
  -26.5641  -34.8906   22.4627 O   0  0  0  0  0  0
  -23.5474  -32.1399   23.7271 O   0  0  0  0  0  0
  -29.5569  -18.7272   20.8277 C   0  0  0  0  0  0
  -30.5057  -20.5829   20.4267 C   0  0  0  0  0  0
  -31.5408  -21.6126   20.1232 C   0  0  0  0  0  0
  -30.0920  -16.9583   22.5684 C   0  0  0  0  0  0
  -29.8384  -16.1033   20.1345 C   0  0  0  0  0  0
  -28.9381  -23.6581   20.5051 C   0  0  0  0  0  0
  -28.4144  -22.1524   20.1730 C   0  0  0  0  0  0
  -27.9797  -24.8822   20.0616 C   0  0  0  0  0  0
  -29.3691  -17.2018   21.2277 C   0  0  2  0  0  0
  -30.7918  -19.2824   20.6203 N   0  0  0  0  0  0
  -28.5658  -19.6608   20.7642 N   0  0  0  0  0  0
  -29.1963  -20.8815   20.5077 N   0  0  0  0  0  0
  -27.9189  -17.0461   21.4664 N   0  3  0  0  0  0
  -31.4674  -12.5293   19.1760 H   0  0  0  0  0  0
  -30.3479  -11.4453   19.9529 H   0  0  0  0  0  0
  -29.7923  -11.7136   17.5106 H   0  0  0  0  0  0
  -29.6464  -13.4406   17.7159 H   0  0  0  0  0  0
  -27.8819  -11.2659   18.8940 H   0  0  0  0  0  0
  -27.3830  -12.5053   17.7749 H   0  0  0  0  0  0
  -27.6146  -14.2309   19.4261 H   0  0  0  0  0  0
  -28.6881  -12.1854   21.4286 H   0  0  0  0  0  0
  -28.4115  -13.8780   21.7531 H   0  0  0  0  0  0
  -25.2766   -9.5692   22.4752 H   0  0  0  0  0  0
  -24.0012   -7.4633   22.7470 H   0  0  0  0  0  0
  -21.0836   -8.8768   19.8948 H   0  0  0  0  0  0
  -22.3684  -10.9677   19.6165 H   0  0  0  0  0  0
  -21.1999   -7.6144   23.9714 H   0  0  0  0  0  0
  -21.1478   -6.0518   25.9080 H   0  0  0  0  0  0
  -22.0601   -2.7603   23.2843 H   0  0  0  0  0  0
  -22.4042  -11.9895   22.4825 H   0  0  0  0  0  0
  -21.1063  -13.1288   22.2576 H   0  0  0  0  0  0
  -24.5630  -15.7012   20.4386 H   0  0  0  0  0  0
  -25.9239  -15.4108   19.5411 H   0  0  0  0  0  0
  -26.7226  -32.5375   23.1029 H   0  0  0  0  0  0
  -25.0182  -33.9673   25.0405 H   0  0  0  0  0  0
  -22.7244  -31.3053   21.3957 H   0  0  0  0  0  0
  -23.3770  -35.9598   23.3329 H   0  0  0  0  0  0
  -24.3591  -36.8860   22.2046 H   0  0  0  0  0  0
  -23.7266  -37.6473   23.6651 H   0  0  0  0  0  0
  -26.1392  -31.5271   20.6229 H   0  0  0  0  0  0
  -26.8457  -30.7932   22.0312 H   0  0  0  0  0  0
  -28.1062  -28.9109   21.2335 H   0  0  0  0  0  0
  -25.9282  -25.9273   18.9768 H   0  0  0  0  0  0
  -23.9675  -27.3282   18.9813 H   0  0  0  0  0  0
  -23.7751  -30.5987   19.4016 H   0  0  0  0  0  0
  -22.7633  -29.2589   19.8449 H   0  0  0  0  0  0
  -25.1332  -36.1891   25.0809 H   0  0  0  0  0  0
  -21.0021  -28.3317   24.1366 H   0  0  0  0  0  0
  -20.5768  -26.2326   23.3611 H   0  0  0  0  0  0
  -21.6677  -26.7501   22.1159 H   0  0  0  0  0  0
  -19.6957  -25.6298   21.1256 H   0  0  0  0  0  0
  -19.6719  -27.3194   20.6736 H   0  0  0  0  0  0
  -17.4242  -26.6698   21.4013 H   0  0  0  0  0  0
  -18.0354  -26.0079   22.9012 H   0  0  0  0  0  0
  -19.7957  -30.7300   24.2234 H   0  0  0  0  0  0
  -17.5036  -31.6273   24.5175 H   0  0  0  0  0  0
  -15.5371  -30.2984   23.7675 H   0  0  0  0  0  0
  -15.8702  -28.0820   22.7074 H   0  0  0  0  0  0
  -24.5887  -30.7120   25.7703 H   0  0  0  0  0  0
  -24.8916  -32.2940   26.4787 H   0  0  0  0  0  0
  -25.7993  -30.8935   27.0202 H   0  0  0  0  0  0
  -26.3001  -29.6709   24.1268 H   0  0  0  0  0  0
  -27.4070  -29.7291   25.4784 H   0  0  0  0  0  0
  -27.8881  -30.4265   23.9511 H   0  0  0  0  0  0
  -27.2657  -33.3646   26.2042 H   0  0  0  0  0  0
  -28.3878  -32.6909   25.0317 H   0  0  0  0  0  0
  -28.0732  -31.8494   26.5419 H   0  0  0  0  0  0
  -28.2613  -38.0081   24.7512 H   0  0  0  0  0  0
  -28.1075  -36.2622   24.6327 H   0  0  0  0  0  0
  -27.2301  -37.1470   25.8870 H   0  0  0  0  0  0
  -20.9423  -29.8732   21.6781 H   0  0  0  0  0  0
  -26.0190  -38.2831   24.1373 H   0  0  0  0  0  0
  -31.5948  -22.3385   20.9337 H   0  0  0  0  0  0
  -31.3011  -22.1312   19.1963 H   0  0  0  0  0  0
  -32.5227  -21.1530   20.0091 H   0  0  0  0  0  0
  -29.9144  -15.9525   22.9496 H   0  0  0  0  0  0
  -29.7636  -17.6613   23.3356 H   0  0  0  0  0  0
  -31.1697  -17.0820   22.4534 H   0  0  0  0  0  0
  -30.5687  -16.6450   19.5297 H   0  0  0  0  0  0
  -29.0420  -15.9247   19.4142 H   0  0  0  0  0  0
  -29.1225  -23.7263   21.5767 H   0  0  0  0  0  0
  -29.9021  -23.8180   20.0308 H   0  0  0  0  0  0
  -28.2669  -22.1047   19.0937 H   0  0  0  0  0  0
  -27.4131  -22.0351   20.5907 H   0  0  0  0  0  0
  -27.0386  -24.6912   20.5803 H   0  0  0  0  0  0
  -27.7935  -24.7318   18.9966 H   0  0  0  0  0  0
  -27.6650  -17.5555   22.2927 H   0  0  0  0  0  0
  -27.6018  -16.0993   21.5606 H   0  0  0  0  0  0
  -27.4282  -17.4906   20.7094 H   0  0  0  0  0  0
  1 25  1  0  0  0
  1 30  2  0  0  0
  1 75  1  0  0  0
  2  3  1  0  0  0
  2 25  1  0  0  0
  2 84  1  0  0  0
  2 85  1  0  0  0
  3  4  1  0  0  0
  3 86  1  0  0  0
  3 87  1  0  0  0
  4  5  1  0  0  0
  4 88  1  0  0  0
  4 89  1  0  0  0
  5  6  1  0  0  0
  5 26  1  0  0  0
  5 90  1  0  0  0
  6 25  1  0  0  0
  6 91  1  0  0  0
  6 92  1  0  0  0
  7  8  2  0  0  0
  7 26  1  0  0  0
  7 29  1  0  0  0
  8  9  1  0  0  0
  8 22  1  0  0  0
  9 10  1  0  0  0
  9 27  2  0  0  0
 10 11  2  0  0  0
 10 15  1  0  0  0
 11 12  1  0  0  0
 11 93  1  0  0  0
 12 13  2  0  0  0
 12 94  1  0  0  0
 13 14  1  0  0  0
 13 31  1  0  0  0
 14 15  2  0  0  0
 14 95  1  0  0  0
 15 96  1  0  0  0
 16 17  2  0  0  0
 16 21  1  0  0  0
 16 31  1  0  0  0
 17 18  1  0  0  0
 17 97  1  0  0  0
 18 19  2  0  0  0
 18 98  1  0  0  0
 19 20  1  0  0  0
 19 24  1  0  0  0
 20 21  2  0  0  0
 20 99  1  0  0  0
 21 23  1  0  0  0
 22 28  1  0  0  0
 22 32  2  0  0  0
 26 27  1  0  0  0
 28100  1  0  0  0
 28101  1  0  0  0
 29102  1  0  0  0
 29103  1  0  0  0
 33 34  1  0  0  0
 33 66  1  0  0  0
 33 70  2  0  0  0
 34 36  1  0  0  0
 34 59  1  0  0  0
 34104  1  0  0  0
 35 44  2  0  0  0
 35 45  1  0  0  0
 35 68  1  0  0  0
 36 56  1  0  0  0
 36105  1  0  0  0
 37 39  1  0  0  0
 37 47  1  0  0  0
 37 66  1  0  0  0
 37106  1  0  0  0
 38 43  2  0  0  0
 38 46  1  0  0  0
 38 47  1  0  0  0
 39 64  1  0  0  0
 39 67  2  0  0  0
 40 52  1  0  0  0
 40 53  2  0  0  0
 40 58  1  0  0  0
 41107  1  0  0  0
 41108  1  0  0  0
 41109  1  0  0  0
 41 48  1  0  0  0
 42 43  1  0  0  0
 42 66  1  0  0  0
 42110  1  0  0  0
 42111  1  0  0  0
 43 44  1  0  0  0
 44112  1  0  0  0
 45 46  2  0  0  0
 45113  1  0  0  0
 46114  1  0  0  0
 47115  1  0  0  0
 47116  1  0  0  0
 48 56  1  0  0  0
 48 65  1  0  0  0
 48117  1  0  0  0
 49 50  1  0  0  0
 49 53  1  0  0  0
 49 64  1  0  0  0
 49118  1  0  0  0
 50 51  1  0  0  0
 50119  1  0  0  0
 50120  1  0  0  0
 51 52  1  0  0  0
 51121  1  0  0  0
 51122  1  0  0  0
 52123  1  0  0  0
 52124  1  0  0  0
 53 54  1  0  0  0
 54 55  2  0  0  0
 54125  1  0  0  0
 55 57  1  0  0  0
 55126  1  0  0  0
 56 69  2  0  0  0
 57 58  2  0  0  0
 57127  1  0  0  0
 58128  1  0  0  0
 59 60  1  0  0  0
 59 61  1  0  0  0
 59 62  1  0  0  0
 60129  1  0  0  0
 60130  1  0  0  0
 60131  1  0  0  0
 61132  1  0  0  0
 61133  1  0  0  0
 61134  1  0  0  0
 62135  1  0  0  0
 62136  1  0  0  0
 62137  1  0  0  0
 63 65  1  0  0  0
 63138  1  0  0  0
 63139  1  0  0  0
 63140  1  0  0  0
 64141  1  0  0  0
 65142  1  0  0  0
 68 78  1  0  0  0
 71 79  1  0  0  0
 71 80  1  0  0  0
 71 81  2  0  0  0
 72 73  1  0  0  0
 72 80  2  0  0  0
 72 82  1  0  0  0
 73143  1  0  0  0
 73144  1  0  0  0
 73145  1  0  0  0
 74146  1  0  0  0
 74147  1  0  0  0
 74148  1  0  0  0
 74 79  1  0  0  0
 75 79  1  0  0  0
 75149  1  0  0  0
 75150  1  0  0  0
 76 77  1  0  0  0
 76 78  1  0  0  0
 76151  1  0  0  0
 76152  1  0  0  0
 77 82  1  0  0  0
 77153  1  0  0  0
 77154  1  0  0  0
 78155  1  0  0  0
 78156  1  0  0  0
 79 83  1  0  0  0
 81 82  1  0  0  0
 83157  1  0  0  0
 83158  1  0  0  0
 83159  1  0  0  0
M  CHG  1  83   1
M  ISO  4   1 100  68 101  75 100  78 101
M  END
> <chiral flag>
0

> <version>
0

> <s_m_source_file>
/data/baiqing/PycharmProjects/Reinvent-master-3.2/result/LINK_invent/BTK/process_docking_weight1_custom_sum_contain_oxygen_bond_distance_aromatic_linkinvent_7_9_3/rearranged_h_0064.sdf

> <i_m_source_file_index>
66

> <r_mmod_Potential_Energy-OPLS-2005>
-235.533096313477

> <r_mmod_Stretch_Energy-OPLS-2005>
123.657241821289

> <r_mmod_Bend_Energy-OPLS-2005>
184.441177368164

> <r_mmod_Torsional_Energy-OPLS-2005>
202.541351318359

> <r_mmod_Improper_Torsional_Energy-OPLS-2005>
19.7266635894775

> <r_mmod_Van_der_Waal_Energy-OPLS-2005>
120.434814453125

> <r_mmod_Electrostatic_Energy-OPLS-2005>
-505.732757568359

> <r_mmod_Solvation_Energy-OPLS-2005>
-469.940856933594

> <b_mmod_Minimization_Converged-OPLS-2005>
0

> <r_mmod_RMS_Derivative-OPLS-2005>
3.93458318710327

$$$$
71
                    3D
 Structure written by MMmdl.
157165  0  0  1  0            999 V2000
  -30.5808  -14.9094   20.4278 C   0  0  0  0  0  0
  -30.4515  -12.5652   19.5062 C   0  0  0  0  0  0
  -29.5412  -12.5403   18.2575 C   0  0  0  0  0  0
  -28.0627  -12.3486   18.6499 C   0  0  0  0  0  0
  -27.6415  -13.2560   19.8385 C   0  0  2  0  0  0
  -28.6838  -13.2616   20.9787 C   0  0  0  0  0  0
  -25.2482  -13.8266   20.5641 C   0  0  0  0  0  0
  -24.1811  -13.0470   20.9164 C   0  0  0  0  0  0
  -24.6444  -11.6967   20.8691 C   0  0  0  0  0  0
  -23.9134  -10.4332   21.0379 C   0  0  0  0  0  0
  -24.3676   -9.4240   21.9169 C   0  0  0  0  0  0
  -23.6349   -8.2268   22.0745 C   0  0  0  0  0  0
  -22.4326   -8.0317   21.3540 C   0  0  0  0  0  0
  -21.9947   -9.0297   20.4621 C   0  0  0  0  0  0
  -22.7309  -10.2167   20.3035 C   0  0  0  0  0  0
  -21.6881   -6.0769   22.5291 C   0  0  0  0  0  0
  -21.4029   -6.5654   23.8231 C   0  0  0  0  0  0
  -21.3641   -5.6787   24.9176 C   0  0  0  0  0  0
  -21.6061   -4.3048   24.7233 C   0  0  0  0  0  0
  -21.8802   -3.8157   23.4326 C   0  0  0  0  0  0
  -21.9176   -4.7000   22.3405 C   0  0  0  0  0  0
  -22.7799  -13.5212   21.1799 C   0  0  0  0  0  0
  -22.1648   -4.2172   21.0992 F   0  0  0  0  0  0
  -21.5632   -3.4522   25.7727 F   0  0  0  0  0  0
  -29.9761  -13.6584   20.3965 N   0  0  0  0  0  0
  -26.2941  -12.9509   20.3157 N   0  0  0  0  0  0
  -25.9384  -11.6621   20.5695 N   0  0  0  0  0  0
  -22.0426  -12.8218   22.0370 N   0  0  0  0  0  0
  -25.4118  -15.2007   20.4082 N   0  0  0  0  0  0
  -31.7713  -14.9817   20.1054 O   0  0  0  0  0  0
  -21.6675   -6.8906   21.4247 O   0  0  0  0  0  0
  -22.3445  -14.5499   20.6621 O   0  0  0  0  0  0
  -24.6406  -31.8499   23.1956 C   0  0  0  0  0  0
  -25.9213  -32.4715   23.8307 C   0  0  1  0  0  0
  -27.2131  -27.1503   20.1372 C   0  0  0  0  0  0
  -25.6015  -33.8525   24.2226 N   0  0  0  0  0  0
  -23.4439  -30.4684   21.5432 C   0  0  2  0  0  0
  -24.8928  -28.9073   20.1035 C   0  0  0  0  0  0
  -22.7569  -29.4570   22.4932 C   0  0  0  0  0  0
  -18.0300  -28.1382   22.8519 C   0  0  0  0  0  0
  -24.1490  -36.7243   23.2637 C   0  0  0  0  0  0
  -26.0004  -30.7192   21.3999 C   0  0  0  0  0  0
  -26.0655  -29.3325   20.7388 C   0  0  0  0  0  0
  -27.2222  -28.4638   20.7521 C   0  0  0  0  0  0
  -26.0238  -26.8459   19.4334 C   0  0  0  0  0  0
  -24.8851  -27.6777   19.4326 C   0  0  0  0  0  0
  -23.6650  -29.8024   20.1577 C   0  0  0  0  0  0
  -25.4134  -36.3045   24.0300 C   0  0  1  0  0  0
  -20.5914  -28.3714   23.1295 C   0  0  2  0  0  0
  -20.6813  -26.9441   22.5428 C   0  0  0  0  0  0
  -19.5776  -26.6391   21.5241 C   0  0  0  0  0  0
  -18.1948  -26.7935   22.1635 C   0  0  0  0  0  0
  -19.1558  -28.8871   23.2887 C   0  0  0  0  0  0
  -18.9469  -30.1487   23.8869 C   0  0  0  0  0  0
  -17.6461  -30.6592   24.0566 C   0  0  0  0  0  0
  -25.9103  -34.9410   23.5072 C   0  0  0  0  0  0
  -16.5357  -29.9063   23.6354 C   0  0  0  0  0  0
  -16.7287  -28.6479   23.0389 C   0  0  0  0  0  0
  -26.4543  -31.6565   25.0719 C   0  0  0  0  0  0
  -25.3718  -31.3736   26.1394 C   0  0  0  0  0  0
  -27.0415  -30.2980   24.6276 C   0  0  0  0  0  0
  -27.6110  -32.4289   25.7485 C   0  0  0  0  0  0
  -27.5588  -37.1765   24.8461 C   0  0  0  0  0  0
  -21.4267  -29.3028   22.3665 N   0  0  0  0  0  0
  -26.4286  -37.3754   23.9413 N   0  0  0  0  0  0
  -24.7152  -31.0317   22.1002 N   0  0  0  0  0  0
  -23.4244  -28.8152   23.3086 O   0  0  0  0  0  0
  -28.2508  -26.1484   20.2396 O   0  0  0  0  0  0
  -26.5652  -34.8899   22.4633 O   0  0  0  0  0  0
  -23.5538  -32.1383   23.7165 O   0  0  0  0  0  0
  -28.9060  -22.2341   19.2113 C   0  0  0  0  0  0
  -28.6967  -23.2740   20.1815 C   0  0  0  0  0  0
  -28.9267  -22.7321   21.4768 C   0  0  0  0  0  0
  -29.4537  -20.4921   20.7349 C   0  0  0  0  0  0
  -28.6841  -23.5899   22.7000 C   0  0  0  0  0  0
  -28.5982  -18.5026   22.1473 C   0  0  0  0  0  0
  -31.0706  -18.9434   22.0115 C   0  0  0  0  0  0
  -27.9530  -24.6934   19.8066 C   0  0  0  0  0  0
  -29.9723  -17.6014   20.1703 C   0  0  0  0  0  0
  -29.7509  -18.9128   21.1962 C   0  0  0  0  0  0
  -29.2577  -20.9131   19.4712 N   0  0  0  0  0  0
  -29.3027  -21.4187   21.7132 N   0  0  0  0  0  0
  -29.8135  -16.0837   20.6034 N   0  0  0  0  0  0
  -31.4914  -12.7034   19.2065 H   0  0  0  0  0  0
  -30.4371  -11.6105   20.0353 H   0  0  0  0  0  0
  -29.8599  -11.7545   17.5695 H   0  0  0  0  0  0
  -29.6536  -13.4749   17.7058 H   0  0  0  0  0  0
  -27.9128  -11.3004   18.9102 H   0  0  0  0  0  0
  -27.4206  -12.5351   17.7882 H   0  0  0  0  0  0
  -27.6221  -14.2685   19.4328 H   0  0  0  0  0  0
  -28.7483  -12.2821   21.4568 H   0  0  0  0  0  0
  -28.3939  -13.9656   21.7587 H   0  0  0  0  0  0
  -25.2845   -9.5745   22.4710 H   0  0  0  0  0  0
  -24.0084   -7.4670   22.7474 H   0  0  0  0  0  0
  -21.0871   -8.8849   19.8924 H   0  0  0  0  0  0
  -22.3804  -10.9714   19.6125 H   0  0  0  0  0  0
  -21.2057   -7.6158   23.9742 H   0  0  0  0  0  0
  -21.1467   -6.0509   25.9076 H   0  0  0  0  0  0
  -22.0590   -2.7619   23.2824 H   0  0  0  0  0  0
  -22.4080  -12.0011   22.4955 H   0  0  0  0  0  0
  -21.1013  -13.1216   22.2487 H   0  0  0  0  0  0
  -24.6401  -15.8488   20.5270 H   0  0  0  0  0  0
  -26.2539  -15.6422   20.0567 H   0  0  0  0  0  0
  -26.7292  -32.5305   23.1047 H   0  0  0  0  0  0
  -25.0184  -33.9663   25.0398 H   0  0  0  0  0  0
  -22.7440  -31.2934   21.3967 H   0  0  0  0  0  0
  -23.3767  -35.9558   23.3265 H   0  0  0  0  0  0
  -24.3608  -36.8908   22.2069 H   0  0  0  0  0  0
  -23.7199  -37.6408   23.6697 H   0  0  0  0  0  0
  -26.1564  -31.4813   20.6338 H   0  0  0  0  0  0
  -26.8725  -30.7706   22.0400 H   0  0  0  0  0  0
  -28.1057  -28.7702   21.2915 H   0  0  0  0  0  0
  -25.9208  -25.9267   18.8787 H   0  0  0  0  0  0
  -24.0000  -27.3609   18.8978 H   0  0  0  0  0  0
  -23.7905  -30.5797   19.4044 H   0  0  0  0  0  0
  -22.7777  -29.2430   19.8526 H   0  0  0  0  0  0
  -25.1305  -36.1886   25.0780 H   0  0  0  0  0  0
  -20.9994  -28.3284   24.1424 H   0  0  0  0  0  0
  -20.5798  -26.2312   23.3632 H   0  0  0  0  0  0
  -21.6676  -26.7537   22.1174 H   0  0  0  0  0  0
  -19.6966  -25.6297   21.1280 H   0  0  0  0  0  0
  -19.6689  -27.3197   20.6761 H   0  0  0  0  0  0
  -17.4251  -26.6744   21.3997 H   0  0  0  0  0  0
  -18.0310  -26.0056   22.9000 H   0  0  0  0  0  0
  -19.7932  -30.7347   24.2208 H   0  0  0  0  0  0
  -17.4987  -31.6259   24.5188 H   0  0  0  0  0  0
  -15.5351  -30.2951   23.7669 H   0  0  0  0  0  0
  -15.8692  -28.0772   22.7120 H   0  0  0  0  0  0
  -24.5915  -30.7089   25.7680 H   0  0  0  0  0  0
  -24.8876  -32.2900   26.4767 H   0  0  0  0  0  0
  -25.7964  -30.8925   27.0209 H   0  0  0  0  0  0
  -26.3037  -29.6685   24.1296 H   0  0  0  0  0  0
  -27.4092  -29.7277   25.4815 H   0  0  0  0  0  0
  -27.8916  -30.4248   23.9566 H   0  0  0  0  0  0
  -27.2785  -33.3625   26.2027 H   0  0  0  0  0  0
  -28.3933  -32.6772   25.0301 H   0  0  0  0  0  0
  -28.0780  -31.8422   26.5408 H   0  0  0  0  0  0
  -28.2559  -38.0105   24.7579 H   0  0  0  0  0  0
  -28.1102  -36.2634   24.6176 H   0  0  0  0  0  0
  -27.2323  -37.1304   25.8862 H   0  0  0  0  0  0
  -20.9501  -29.8653   21.6763 H   0  0  0  0  0  0
  -26.0145  -38.2809   24.1432 H   0  0  0  0  0  0
  -28.7100  -22.4471   18.1720 H   0  0  0  0  0  0
  -27.7143  -24.0850   22.6352 H   0  0  0  0  0  0
  -29.4517  -24.3590   22.7635 H   0  0  0  0  0  0
  -28.7137  -23.0026   23.6188 H   0  0  0  0  0  0
  -28.5478  -19.1629   23.0151 H   0  0  0  0  0  0
  -28.7214  -17.4913   22.5404 H   0  0  0  0  0  0
  -27.6291  -18.5493   21.6450 H   0  0  0  0  0  0
  -31.0575  -19.7101   22.7907 H   0  0  0  0  0  0
  -31.9265  -19.1554   21.3683 H   0  0  0  0  0  0
  -31.2616  -17.9893   22.5062 H   0  0  0  0  0  0
  -26.9299  -24.4823   20.1200 H   0  0  0  0  0  0
  -27.9292  -24.7255   18.7157 H   0  0  0  0  0  0
  -30.9293  -17.7122   19.6545 H   0  0  0  0  0  0
  -29.2326  -17.7293   19.3792 H   0  0  0  0  0  0
  -28.8674  -15.8691   20.8839 H   0  0  0  0  0  0
  1 25  1  0  0  0
  1 30  2  0  0  0
  1 83  1  0  0  0
  2  3  1  0  0  0
  2 25  1  0  0  0
  2 84  1  0  0  0
  2 85  1  0  0  0
  3  4  1  0  0  0
  3 86  1  0  0  0
  3 87  1  0  0  0
  4  5  1  0  0  0
  4 88  1  0  0  0
  4 89  1  0  0  0
  5  6  1  0  0  0
  5 26  1  0  0  0
  5 90  1  0  0  0
  6 25  1  0  0  0
  6 91  1  0  0  0
  6 92  1  0  0  0
  7  8  2  0  0  0
  7 26  1  0  0  0
  7 29  1  0  0  0
  8  9  1  0  0  0
  8 22  1  0  0  0
  9 10  1  0  0  0
  9 27  2  0  0  0
 10 11  2  0  0  0
 10 15  1  0  0  0
 11 12  1  0  0  0
 11 93  1  0  0  0
 12 13  2  0  0  0
 12 94  1  0  0  0
 13 14  1  0  0  0
 13 31  1  0  0  0
 14 15  2  0  0  0
 14 95  1  0  0  0
 15 96  1  0  0  0
 16 17  2  0  0  0
 16 21  1  0  0  0
 16 31  1  0  0  0
 17 18  1  0  0  0
 17 97  1  0  0  0
 18 19  2  0  0  0
 18 98  1  0  0  0
 19 20  1  0  0  0
 19 24  1  0  0  0
 20 21  2  0  0  0
 20 99  1  0  0  0
 21 23  1  0  0  0
 22 28  1  0  0  0
 22 32  2  0  0  0
 26 27  1  0  0  0
 28100  1  0  0  0
 28101  1  0  0  0
 29102  1  0  0  0
 29103  1  0  0  0
 33 34  1  0  0  0
 33 66  1  0  0  0
 33 70  2  0  0  0
 34 36  1  0  0  0
 34 59  1  0  0  0
 34104  1  0  0  0
 35 44  2  0  0  0
 35 45  1  0  0  0
 35 68  1  0  0  0
 36 56  1  0  0  0
 36105  1  0  0  0
 37 39  1  0  0  0
 37 47  1  0  0  0
 37 66  1  0  0  0
 37106  1  0  0  0
 38 43  2  0  0  0
 38 46  1  0  0  0
 38 47  1  0  0  0
 39 64  1  0  0  0
 39 67  2  0  0  0
 40 52  1  0  0  0
 40 53  2  0  0  0
 40 58  1  0  0  0
 41107  1  0  0  0
 41108  1  0  0  0
 41109  1  0  0  0
 41 48  1  0  0  0
 42 43  1  0  0  0
 42 66  1  0  0  0
 42110  1  0  0  0
 42111  1  0  0  0
 43 44  1  0  0  0
 44112  1  0  0  0
 45 46  2  0  0  0
 45113  1  0  0  0
 46114  1  0  0  0
 47115  1  0  0  0
 47116  1  0  0  0
 48 56  1  0  0  0
 48 65  1  0  0  0
 48117  1  0  0  0
 49 50  1  0  0  0
 49 53  1  0  0  0
 49 64  1  0  0  0
 49118  1  0  0  0
 50 51  1  0  0  0
 50119  1  0  0  0
 50120  1  0  0  0
 51 52  1  0  0  0
 51121  1  0  0  0
 51122  1  0  0  0
 52123  1  0  0  0
 52124  1  0  0  0
 53 54  1  0  0  0
 54 55  2  0  0  0
 54125  1  0  0  0
 55 57  1  0  0  0
 55126  1  0  0  0
 56 69  2  0  0  0
 57 58  2  0  0  0
 57127  1  0  0  0
 58128  1  0  0  0
 59 60  1  0  0  0
 59 61  1  0  0  0
 59 62  1  0  0  0
 60129  1  0  0  0
 60130  1  0  0  0
 60131  1  0  0  0
 61132  1  0  0  0
 61133  1  0  0  0
 61134  1  0  0  0
 62135  1  0  0  0
 62136  1  0  0  0
 62137  1  0  0  0
 63 65  1  0  0  0
 63138  1  0  0  0
 63139  1  0  0  0
 63140  1  0  0  0
 64141  1  0  0  0
 65142  1  0  0  0
 68 78  1  0  0  0
 71 72  2  0  0  0
 71 81  1  0  0  0
 71143  1  0  0  0
 72 73  1  0  0  0
 72 78  1  0  0  0
 73 75  1  0  0  0
 73 82  2  0  0  0
 74 80  1  0  0  0
 74 81  2  0  0  0
 74 82  1  0  0  0
 75144  1  0  0  0
 75145  1  0  0  0
 75146  1  0  0  0
 76147  1  0  0  0
 76148  1  0  0  0
 76149  1  0  0  0
 76 80  1  0  0  0
 77 80  1  0  0  0
 77150  1  0  0  0
 77151  1  0  0  0
 77152  1  0  0  0
 78153  1  0  0  0
 78154  1  0  0  0
 79 80  1  0  0  0
 79 83  1  0  0  0
 79155  1  0  0  0
 79156  1  0  0  0
 83157  1  0  0  0
M  ISO  4   1 100  68 101  78 101  83 100
M  END
> <chiral flag>
0

> <version>
0

> <s_m_source_file>
/data/baiqing/PycharmProjects/Reinvent-master-3.2/result/LINK_invent/BTK/process_docking_weight1_custom_sum_contain_oxygen_bond_distance_aromatic_linkinvent_7_9_3/rearranged_h_0064.sdf

> <i_m_source_file_index>
67

> <r_mmod_Potential_Energy-OPLS-2005>
50.3563461303711

> <r_mmod_Stretch_Energy-OPLS-2005>
228.254608154297

> <r_mmod_Bend_Energy-OPLS-2005>
273.179870605469

> <r_mmod_Torsional_Energy-OPLS-2005>
227.257522583008

> <r_mmod_Improper_Torsional_Energy-OPLS-2005>
8.58547401428223

> <r_mmod_Van_der_Waal_Energy-OPLS-2005>
141.804641723633

> <r_mmod_Electrostatic_Energy-OPLS-2005>
-776.598449707031

> <r_mmod_Solvation_Energy-OPLS-2005>
-228.82160949707

> <b_mmod_Minimization_Converged-OPLS-2005>
0

> <r_mmod_RMS_Derivative-OPLS-2005>
6.71845579147339

$$$$
73
                    3D
 Structure written by MMmdl.
164172  0  0  1  0            999 V2000
  -30.8054  -14.3321   20.7076 C   0  0  0  0  0  0
  -30.4157  -12.2762   19.3986 C   0  0  0  0  0  0
  -29.4857  -12.5262   18.1969 C   0  0  0  0  0  0
  -28.0120  -12.3832   18.6154 C   0  0  0  0  0  0
  -27.6750  -13.2070   19.8871 C   0  0  2  0  0  0
  -28.7126  -12.9486   21.0065 C   0  0  0  0  0  0
  -25.2659  -13.8198   20.5641 C   0  0  0  0  0  0
  -24.1868  -13.0480   20.9106 C   0  0  0  0  0  0
  -24.6403  -11.6940   20.8641 C   0  0  0  0  0  0
  -23.9045  -10.4327   21.0307 C   0  0  0  0  0  0
  -24.3617   -9.4272   21.9104 C   0  0  0  0  0  0
  -23.6312   -8.2303   22.0716 C   0  0  0  0  0  0
  -22.4290   -8.0310   21.3530 C   0  0  0  0  0  0
  -21.9906   -9.0265   20.4615 C   0  0  0  0  0  0
  -22.7209  -10.2156   20.2990 C   0  0  0  0  0  0
  -21.6882   -6.0742   22.5261 C   0  0  0  0  0  0
  -21.4041   -6.5649   23.8194 C   0  0  0  0  0  0
  -21.3659   -5.6794   24.9149 C   0  0  0  0  0  0
  -21.6046   -4.3054   24.7203 C   0  0  0  0  0  0
  -21.8831   -3.8150   23.4317 C   0  0  0  0  0  0
  -21.9210   -4.6967   22.3379 C   0  0  0  0  0  0
  -22.7903  -13.5277   21.1794 C   0  0  0  0  0  0
  -22.1675   -4.2162   21.0946 F   0  0  0  0  0  0
  -21.5615   -3.4530   25.7705 F   0  0  0  0  0  0
  -30.0614  -13.2182   20.4720 N   0  0  0  0  0  0
  -26.3104  -12.9359   20.3398 N   0  0  0  0  0  0
  -25.9348  -11.6512   20.5739 N   0  0  0  0  0  0
  -22.0614  -12.8220   22.0368 N   0  0  0  0  0  0
  -25.4433  -15.1901   20.4020 N   0  0  0  0  0  0
  -31.7872  -14.6472   20.0244 O   0  0  0  0  0  0
  -21.6674   -6.8890   21.4224 O   0  0  0  0  0  0
  -22.3548  -14.5606   20.6701 O   0  0  0  0  0  0
  -24.6144  -31.8665   23.2072 C   0  0  0  0  0  0
  -25.9014  -32.4804   23.8403 C   0  0  1  0  0  0
  -27.2413  -27.4473   20.0597 C   0  0  0  0  0  0
  -25.5855  -33.8593   24.2300 N   0  0  0  0  0  0
  -23.4050  -30.4898   21.5487 C   0  0  2  0  0  0
  -24.8508  -28.9502   20.1235 C   0  0  0  0  0  0
  -22.7437  -29.4681   22.5011 C   0  0  0  0  0  0
  -18.0266  -28.1441   22.8492 C   0  0  0  0  0  0
  -24.1496  -36.7350   23.2663 C   0  0  0  0  0  0
  -25.9356  -30.8302   21.3651 C   0  0  0  0  0  0
  -26.0178  -29.4687   20.7039 C   0  0  0  0  0  0
  -27.2199  -28.7256   20.6645 C   0  0  0  0  0  0
  -26.0551  -26.9315   19.5019 C   0  0  0  0  0  0
  -24.8594  -27.6761   19.5321 C   0  0  0  0  0  0
  -23.6152  -29.8194   20.1678 C   0  0  0  0  0  0
  -25.4073  -36.3057   24.0359 C   0  0  1  0  0  0
  -20.5845  -28.3750   23.1352 C   0  0  2  0  0  0
  -20.6776  -26.9501   22.5438 C   0  0  0  0  0  0
  -19.5756  -26.6436   21.5241 C   0  0  0  0  0  0
  -18.1915  -26.7980   22.1622 C   0  0  0  0  0  0
  -19.1509  -28.8894   23.2915 C   0  0  0  0  0  0
  -18.9426  -30.1473   23.8972 C   0  0  0  0  0  0
  -17.6444  -30.6661   24.0576 C   0  0  0  0  0  0
  -25.8998  -34.9446   23.5124 C   0  0  0  0  0  0
  -16.5339  -29.9156   23.6364 C   0  0  0  0  0  0
  -16.7252  -28.6559   23.0402 C   0  0  0  0  0  0
  -26.4427  -31.6633   25.0774 C   0  0  0  0  0  0
  -25.3673  -31.3737   26.1550 C   0  0  0  0  0  0
  -27.0360  -30.3093   24.6234 C   0  0  0  0  0  0
  -27.5969  -32.4436   25.7527 C   0  0  0  0  0  0
  -27.5576  -37.1782   24.8454 C   0  0  0  0  0  0
  -21.4154  -29.3100   22.3751 N   0  0  0  0  0  0
  -26.4269  -37.3732   23.9428 N   0  0  0  0  0  0
  -24.6708  -31.0783   22.0991 N   0  0  0  0  0  0
  -23.4173  -28.8257   23.3097 O   0  0  0  0  0  0
  -28.4107  -26.7246   19.9610 O   0  0  0  0  0  0
  -26.5585  -34.8918   22.4698 O   0  0  0  0  0  0
  -23.5335  -32.1436   23.7461 O   0  0  0  0  0  0
  -29.2141  -21.7320   20.7157 C   0  0  0  0  0  0
  -29.0708  -23.3146   22.5183 C   0  0  0  0  0  0
  -29.0769  -23.0880   21.1172 C   0  0  0  0  0  0
  -29.2834  -20.7370   21.7176 C   0  0  0  0  0  0
  -27.9367  -23.8676   18.9893 C   0  0  0  0  0  0
  -30.3386  -24.4390   19.4215 C   0  0  0  0  0  0
  -31.0666  -14.8497   23.0486 C   0  0  0  0  0  0
  -29.4011  -17.2360   22.6104 C   0  0  0  0  0  0
  -30.1009  -16.4987   21.4566 C   0  0  0  0  0  0
  -28.6095  -18.4709   22.1532 C   0  0  0  0  0  0
  -28.4878  -25.5665   20.7935 C   0  0  0  0  0  0
  -28.9565  -24.2416   20.0921 C   0  0  0  0  0  0
  -29.1501  -22.3203   23.4323 N   0  0  0  0  0  0
  -29.2534  -21.0517   23.0384 N   0  0  0  0  0  0
  -30.4208  -15.0938   21.7517 N   0  0  0  0  0  0
  -29.3894  -19.4007   21.3882 O   0  0  0  0  0  0
  -31.4595  -12.3664   19.0924 H   0  0  0  0  0  0
  -30.2999  -11.2520   19.7604 H   0  0  0  0  0  0
  -29.7187  -11.8281   17.3914 H   0  0  0  0  0  0
  -29.6605  -13.5251   17.7942 H   0  0  0  0  0  0
  -27.8189  -11.3242   18.7919 H   0  0  0  0  0  0
  -27.3594  -12.6766   17.7915 H   0  0  0  0  0  0
  -27.7374  -14.2610   19.6153 H   0  0  0  0  0  0
  -28.6597  -11.9101   21.3389 H   0  0  0  0  0  0
  -28.4662  -13.5508   21.8821 H   0  0  0  0  0  0
  -25.2776   -9.5801   22.4641 H   0  0  0  0  0  0
  -24.0041   -7.4747   22.7472 H   0  0  0  0  0  0
  -21.0841   -8.8777   19.8951 H   0  0  0  0  0  0
  -22.3645  -10.9674   19.6085 H   0  0  0  0  0  0
  -21.2048   -7.6167   23.9693 H   0  0  0  0  0  0
  -21.1453   -6.0509   25.9047 H   0  0  0  0  0  0
  -22.0598   -2.7619   23.2800 H   0  0  0  0  0  0
  -22.4305  -11.9852   22.4624 H   0  0  0  0  0  0
  -21.1251  -13.1188   22.2698 H   0  0  0  0  0  0
  -24.6858  -15.8568   20.5027 H   0  0  0  0  0  0
  -26.3061  -15.6170   20.0880 H   0  0  0  0  0  0
  -26.7097  -32.5538   23.1172 H   0  0  0  0  0  0
  -24.9918  -33.9713   25.0388 H   0  0  0  0  0  0
  -22.6913  -31.3022   21.4023 H   0  0  0  0  0  0
  -23.3699  -35.9747   23.3296 H   0  0  0  0  0  0
  -24.3605  -36.9010   22.2092 H   0  0  0  0  0  0
  -23.7378  -37.6584   23.6733 H   0  0  0  0  0  0
  -26.0604  -31.6036   20.6054 H   0  0  0  0  0  0
  -26.8131  -30.8690   21.9995 H   0  0  0  0  0  0
  -28.1345  -29.1247   21.0821 H   0  0  0  0  0  0
  -26.0568  -25.9611   19.0294 H   0  0  0  0  0  0
  -23.9508  -27.2715   19.1051 H   0  0  0  0  0  0
  -23.7316  -30.5898   19.4030 H   0  0  0  0  0  0
  -22.7347  -29.2415   19.8766 H   0  0  0  0  0  0
  -25.1249  -36.1865   25.0854 H   0  0  0  0  0  0
  -20.9869  -28.3327   24.1506 H   0  0  0  0  0  0
  -20.5790  -26.2337   23.3593 H   0  0  0  0  0  0
  -21.6634  -26.7634   22.1175 H   0  0  0  0  0  0
  -19.6940  -25.6329   21.1325 H   0  0  0  0  0  0
  -19.6728  -27.3194   20.6718 H   0  0  0  0  0  0
  -17.4195  -26.6742   21.4021 H   0  0  0  0  0  0
  -18.0310  -26.0138   22.9030 H   0  0  0  0  0  0
  -19.7904  -30.7245   24.2439 H   0  0  0  0  0  0
  -17.5024  -31.6370   24.5152 H   0  0  0  0  0  0
  -15.5333  -30.3094   23.7707 H   0  0  0  0  0  0
  -15.8610  -28.0899   22.7153 H   0  0  0  0  0  0
  -24.5814  -30.7099   25.7921 H   0  0  0  0  0  0
  -24.8873  -32.2890   26.5045 H   0  0  0  0  0  0
  -25.8026  -30.8904   27.0305 H   0  0  0  0  0  0
  -26.2951  -29.6713   24.1408 H   0  0  0  0  0  0
  -27.4249  -29.7528   25.4763 H   0  0  0  0  0  0
  -27.8712  -30.4429   23.9356 H   0  0  0  0  0  0
  -27.2538  -33.3752   26.2058 H   0  0  0  0  0  0
  -28.3764  -32.6986   25.0325 H   0  0  0  0  0  0
  -28.0639  -31.8615   26.5478 H   0  0  0  0  0  0
  -28.2491  -38.0165   24.7503 H   0  0  0  0  0  0
  -28.1173  -36.2685   24.6212 H   0  0  0  0  0  0
  -27.2338  -37.1358   25.8871 H   0  0  0  0  0  0
  -20.9357  -29.8795   21.6918 H   0  0  0  0  0  0
  -26.0162  -38.2827   24.1352 H   0  0  0  0  0  0
  -29.2387  -21.4524   19.6731 H   0  0  0  0  0  0
  -28.9883  -24.2948   22.9546 H   0  0  0  0  0  0
  -28.2628  -23.0223   18.3819 H   0  0  0  0  0  0
  -27.7932  -24.6920   18.2923 H   0  0  0  0  0  0
  -26.9561  -23.6174   19.3984 H   0  0  0  0  0  0
  -30.6838  -23.5260   18.9328 H   0  0  0  0  0  0
  -31.1012  -24.7150   20.1496 H   0  0  0  0  0  0
  -30.3114  -25.2109   18.6519 H   0  0  0  0  0  0
  -30.3136  -14.7526   23.8314 H   0  0  0  0  0  0
  -31.7377  -15.6661   23.3185 H   0  0  0  0  0  0
  -31.6589  -13.9324   23.0581 H   0  0  0  0  0  0
  -30.1312  -17.5199   23.3685 H   0  0  0  0  0  0
  -28.7035  -16.5567   23.1005 H   0  0  0  0  0  0
  -31.0081  -17.0369   21.1726 H   0  0  0  0  0  0
  -29.4407  -16.5225   20.5864 H   0  0  0  0  0  0
  -28.1231  -18.9029   23.0274 H   0  0  0  0  0  0
  -27.7926  -18.1417   21.5113 H   0  0  0  0  0  0
  -29.2077  -25.8555   21.5590 H   0  0  0  0  0  0
  -27.5401  -25.3914   21.3126 H   0  0  0  0  0  0
  1 25  1  0  0  0
  1 30  2  0  0  0
  1 85  1  0  0  0
  2  3  1  0  0  0
  2 25  1  0  0  0
  2 87  1  0  0  0
  2 88  1  0  0  0
  3  4  1  0  0  0
  3 89  1  0  0  0
  3 90  1  0  0  0
  4  5  1  0  0  0
  4 91  1  0  0  0
  4 92  1  0  0  0
  5  6  1  0  0  0
  5 26  1  0  0  0
  5 93  1  0  0  0
  6 25  1  0  0  0
  6 94  1  0  0  0
  6 95  1  0  0  0
  7  8  2  0  0  0
  7 26  1  0  0  0
  7 29  1  0  0  0
  8  9  1  0  0  0
  8 22  1  0  0  0
  9 10  1  0  0  0
  9 27  2  0  0  0
 10 11  2  0  0  0
 10 15  1  0  0  0
 11 12  1  0  0  0
 11 96  1  0  0  0
 12 13  2  0  0  0
 12 97  1  0  0  0
 13 14  1  0  0  0
 13 31  1  0  0  0
 14 15  2  0  0  0
 14 98  1  0  0  0
 15 99  1  0  0  0
 16 17  2  0  0  0
 16 21  1  0  0  0
 16 31  1  0  0  0
 17 18  1  0  0  0
 17100  1  0  0  0
 18 19  2  0  0  0
 18101  1  0  0  0
 19 20  1  0  0  0
 19 24  1  0  0  0
 20 21  2  0  0  0
 20102  1  0  0  0
 21 23  1  0  0  0
 22 28  1  0  0  0
 22 32  2  0  0  0
 26 27  1  0  0  0
 28103  1  0  0  0
 28104  1  0  0  0
 29105  1  0  0  0
 29106  1  0  0  0
 33 34  1  0  0  0
 33 66  1  0  0  0
 33 70  2  0  0  0
 34 36  1  0  0  0
 34 59  1  0  0  0
 34107  1  0  0  0
 35 44  2  0  0  0
 35 45  1  0  0  0
 35 68  1  0  0  0
 36 56  1  0  0  0
 36108  1  0  0  0
 37 39  1  0  0  0
 37 47  1  0  0  0
 37 66  1  0  0  0
 37109  1  0  0  0
 38 43  2  0  0  0
 38 46  1  0  0  0
 38 47  1  0  0  0
 39 64  1  0  0  0
 39 67  2  0  0  0
 40 52  1  0  0  0
 40 53  2  0  0  0
 40 58  1  0  0  0
 41110  1  0  0  0
 41111  1  0  0  0
 41112  1  0  0  0
 41 48  1  0  0  0
 42 43  1  0  0  0
 42 66  1  0  0  0
 42113  1  0  0  0
 42114  1  0  0  0
 43 44  1  0  0  0
 44115  1  0  0  0
 45 46  2  0  0  0
 45116  1  0  0  0
 46117  1  0  0  0
 47118  1  0  0  0
 47119  1  0  0  0
 48 56  1  0  0  0
 48 65  1  0  0  0
 48120  1  0  0  0
 49 50  1  0  0  0
 49 53  1  0  0  0
 49 64  1  0  0  0
 49121  1  0  0  0
 50 51  1  0  0  0
 50122  1  0  0  0
 50123  1  0  0  0
 51 52  1  0  0  0
 51124  1  0  0  0
 51125  1  0  0  0
 52126  1  0  0  0
 52127  1  0  0  0
 53 54  1  0  0  0
 54 55  2  0  0  0
 54128  1  0  0  0
 55 57  1  0  0  0
 55129  1  0  0  0
 56 69  2  0  0  0
 57 58  2  0  0  0
 57130  1  0  0  0
 58131  1  0  0  0
 59 60  1  0  0  0
 59 61  1  0  0  0
 59 62  1  0  0  0
 60132  1  0  0  0
 60133  1  0  0  0
 60134  1  0  0  0
 61135  1  0  0  0
 61136  1  0  0  0
 61137  1  0  0  0
 62138  1  0  0  0
 62139  1  0  0  0
 62140  1  0  0  0
 63 65  1  0  0  0
 63141  1  0  0  0
 63142  1  0  0  0
 63143  1  0  0  0
 64144  1  0  0  0
 65145  1  0  0  0
 68 81  1  0  0  0
 71 73  2  0  0  0
 71 74  1  0  0  0
 71146  1  0  0  0
 72 73  1  0  0  0
 72 83  2  0  0  0
 72147  1  0  0  0
 73 82  1  0  0  0
 74 84  2  0  0  0
 74 86  1  0  0  0
 75148  1  0  0  0
 75149  1  0  0  0
 75150  1  0  0  0
 75 82  1  0  0  0
 76 82  1  0  0  0
 76151  1  0  0  0
 76152  1  0  0  0
 76153  1  0  0  0
 77 85  1  0  0  0
 77154  1  0  0  0
 77155  1  0  0  0
 77156  1  0  0  0
 78 79  1  0  0  0
 78 80  1  0  0  0
 78157  1  0  0  0
 78158  1  0  0  0
 79 85  1  0  0  0
 79159  1  0  0  0
 79160  1  0  0  0
 80 86  1  0  0  0
 80161  1  0  0  0
 80162  1  0  0  0
 81 82  1  0  0  0
 81163  1  0  0  0
 81164  1  0  0  0
 83 84  1  0  0  0
M  ISO  4   1 100  68 101  81 101  85 100
M  END
> <chiral flag>
0

> <version>
0

> <s_m_source_file>
/data/baiqing/PycharmProjects/Reinvent-master-3.2/result/LINK_invent/BTK/process_docking_weight1_custom_sum_contain_oxygen_bond_distance_aromatic_linkinvent_7_9_3/rearranged_h_0064.sdf

> <i_m_source_file_index>
68

> <r_mmod_Potential_Energy-OPLS-2005>
176.461761474609

> <r_mmod_Stretch_Energy-OPLS-2005>
41.2545356750488

> <r_mmod_Bend_Energy-OPLS-2005>
108.697532653809

> <r_mmod_Torsional_Energy-OPLS-2005>
324.980651855469

> <r_mmod_Improper_Torsional_Energy-OPLS-2005>
4.66677284240723

> <r_mmod_Van_der_Waal_Energy-OPLS-2005>
167.820892333984

> <r_mmod_Electrostatic_Energy-OPLS-2005>
-277.497192382812

> <r_mmod_Solvation_Energy-OPLS-2005>
-202.507949829102

> <b_mmod_Minimization_Converged-OPLS-2005>
0

> <r_mmod_RMS_Derivative-OPLS-2005>
4.78078985214233

$$$$
74
                    3D
 Structure written by MMmdl.
158166  0  0  1  0            999 V2000
  -30.5643  -14.8275   20.6559 C   0  0  0  0  0  0
  -30.4562  -12.5646   19.4775 C   0  0  0  0  0  0
  -29.5239  -12.6154   18.2391 C   0  0  0  0  0  0
  -28.0419  -12.3990   18.6188 C   0  0  0  0  0  0
  -27.6448  -13.2237   19.8642 C   0  0  2  0  0  0
  -28.6880  -13.0021   20.9748 C   0  0  0  0  0  0
  -25.2422  -13.8110   20.5510 C   0  0  0  0  0  0
  -24.1743  -13.0339   20.9116 C   0  0  0  0  0  0
  -24.6361  -11.6852   20.8655 C   0  0  0  0  0  0
  -23.9018  -10.4232   21.0359 C   0  0  0  0  0  0
  -24.3554   -9.4171   21.9158 C   0  0  0  0  0  0
  -23.6236   -8.2205   22.0733 C   0  0  0  0  0  0
  -22.4233   -8.0217   21.3534 C   0  0  0  0  0  0
  -21.9846   -9.0182   20.4652 C   0  0  0  0  0  0
  -22.7158  -10.2070   20.3047 C   0  0  0  0  0  0
  -21.6832   -6.0667   22.5276 C   0  0  0  0  0  0
  -21.4013   -6.5581   23.8201 C   0  0  0  0  0  0
  -21.3680   -5.6751   24.9175 C   0  0  0  0  0  0
  -21.6056   -4.3014   24.7246 C   0  0  0  0  0  0
  -21.8823   -3.8080   23.4372 C   0  0  0  0  0  0
  -21.9187   -4.6894   22.3413 C   0  0  0  0  0  0
  -22.7791  -13.5163   21.1831 C   0  0  0  0  0  0
  -22.1647   -4.2065   21.0998 F   0  0  0  0  0  0
  -21.5642   -3.4517   25.7769 F   0  0  0  0  0  0
  -29.9720  -13.5581   20.4918 N   0  0  0  0  0  0
  -26.2899  -12.9317   20.3235 N   0  0  0  0  0  0
  -25.9289  -11.6460   20.5627 N   0  0  0  0  0  0
  -22.0451  -12.8180   22.0456 N   0  0  0  0  0  0
  -25.3980  -15.1807   20.3792 N   0  0  0  0  0  0
  -31.6207  -14.9733   20.0228 O   0  0  0  0  0  0
  -21.6617   -6.8804   21.4231 O   0  0  0  0  0  0
  -22.3442  -14.5439   20.6685 O   0  0  0  0  0  0
  -24.6324  -31.8551   23.1914 C   0  0  0  0  0  0
  -25.9132  -32.4753   23.8304 C   0  0  1  0  0  0
  -27.2169  -27.1979   20.1713 C   0  0  0  0  0  0
  -25.5902  -33.8548   24.2269 N   0  0  0  0  0  0
  -23.4370  -30.4694   21.5384 C   0  0  2  0  0  0
  -24.8913  -28.9132   20.1127 C   0  0  0  0  0  0
  -22.7524  -29.4564   22.4920 C   0  0  0  0  0  0
  -18.0305  -28.1342   22.8538 C   0  0  0  0  0  0
  -24.1496  -36.7241   23.2665 C   0  0  0  0  0  0
  -25.9904  -30.7449   21.3951 C   0  0  0  0  0  0
  -26.0598  -29.3626   20.7402 C   0  0  0  0  0  0
  -27.2218  -28.5139   20.7673 C   0  0  0  0  0  0
  -26.0386  -26.8573   19.4668 C   0  0  0  0  0  0
  -24.8898  -27.6707   19.4622 C   0  0  0  0  0  0
  -23.6607  -29.7982   20.1585 C   0  0  0  0  0  0
  -25.4126  -36.3081   24.0367 C   0  0  1  0  0  0
  -20.5931  -28.3656   23.1293 C   0  0  2  0  0  0
  -20.6809  -26.9370   22.5435 C   0  0  0  0  0  0
  -19.5757  -26.6355   21.5254 C   0  0  0  0  0  0
  -18.1928  -26.7888   22.1662 C   0  0  0  0  0  0
  -19.1572  -28.8816   23.2901 C   0  0  0  0  0  0
  -18.9479  -30.1435   23.8880 C   0  0  0  0  0  0
  -17.6473  -30.6569   24.0545 C   0  0  0  0  0  0
  -25.9048  -34.9445   23.5129 C   0  0  0  0  0  0
  -16.5359  -29.9059   23.6351 C   0  0  0  0  0  0
  -16.7278  -28.6469   23.0385 C   0  0  0  0  0  0
  -26.4477  -31.6573   25.0701 C   0  0  0  0  0  0
  -25.3664  -31.3757   26.1388 C   0  0  0  0  0  0
  -27.0386  -30.2986   24.6288 C   0  0  0  0  0  0
  -27.6022  -32.4338   25.7437 C   0  0  0  0  0  0
  -27.5583  -37.1785   24.8475 C   0  0  0  0  0  0
  -21.4231  -29.2995   22.3647 N   0  0  0  0  0  0
  -26.4306  -37.3769   23.9396 N   0  0  0  0  0  0
  -24.7050  -31.0451   22.0938 N   0  0  0  0  0  0
  -23.4206  -28.8138   23.3057 O   0  0  0  0  0  0
  -28.2651  -26.2334   20.2994 O   0  0  0  0  0  0
  -26.5638  -34.8908   22.4705 O   0  0  0  0  0  0
  -23.5453  -32.1383   23.7167 O   0  0  0  0  0  0
  -29.5444  -18.1301   19.7972 C   0  0  0  0  0  0
  -29.4760  -19.9931   21.7592 C   0  0  0  0  0  0
  -29.8715  -17.6645   21.1132 C   0  0  0  0  0  0
  -29.1335  -20.4459   20.4540 C   0  0  0  0  0  0
  -26.9109  -21.6543   20.3369 C   0  0  0  0  0  0
  -28.0031  -24.7416   20.0402 C   0  0  0  0  0  0
  -30.1354  -16.1094   21.6511 C   0  0  0  0  0  0
  -28.4114  -21.8783   20.0963 C   0  0  1  0  0  0
  -28.7999  -23.4073   20.6419 C   0  0  0  0  0  0
  -28.9092  -15.7535   22.5554 C   0  0  0  0  0  0
  -31.3760  -16.1930   22.6186 C   0  0  0  0  0  0
  -29.8328  -18.6861   22.0538 N   0  0  0  0  0  0
  -29.1887  -19.4465   19.4910 N   0  0  0  0  0  0
  -28.5321  -22.0036   18.7727 F   0  0  0  0  0  0
  -28.6117  -23.4160   21.9642 F   0  0  0  0  0  0
  -30.0987  -23.6007   20.4107 F   0  0  0  0  0  0
  -27.8452  -15.5487   21.7854 F   0  0  0  0  0  0
  -29.1483  -14.6989   23.3420 F   0  0  0  0  0  0
  -28.5370  -16.7167   23.3965 F   0  0  0  0  0  0
  -31.1238  -16.9081   23.7184 F   0  0  0  0  0  0
  -31.7822  -14.9930   23.0534 F   0  0  0  0  0  0
  -32.4287  -16.7575   22.0161 F   0  0  0  0  0  0
  -31.4815  -12.7596   19.1574 H   0  0  0  0  0  0
  -30.4859  -11.5561   19.8991 H   0  0  0  0  0  0
  -29.8305  -11.8843   17.4907 H   0  0  0  0  0  0
  -29.6435  -13.5895   17.7614 H   0  0  0  0  0  0
  -27.8925  -11.3359   18.8146 H   0  0  0  0  0  0
  -27.3921  -12.6494   17.7802 H   0  0  0  0  0  0
  -27.6627  -14.2737   19.5633 H   0  0  0  0  0  0
  -28.7739  -11.9308   21.1723 H   0  0  0  0  0  0
  -28.3134  -13.3405   21.9217 H   0  0  0  0  0  0
  -25.2692   -9.5633   22.4733 H   0  0  0  0  0  0
  -23.9936   -7.4581   22.7434 H   0  0  0  0  0  0
  -21.0767   -8.8668   19.8959 H   0  0  0  0  0  0
  -22.3570  -10.9582   19.6148 H   0  0  0  0  0  0
  -21.1991   -7.6086   23.9685 H   0  0  0  0  0  0
  -21.1519   -6.0488   25.9084 H   0  0  0  0  0  0
  -22.0593   -2.7534   23.2911 H   0  0  0  0  0  0
  -22.4016  -11.9870   22.4909 H   0  0  0  0  0  0
  -21.1101  -13.1262   22.2653 H   0  0  0  0  0  0
  -24.6356  -15.8375   20.5013 H   0  0  0  0  0  0
  -26.2788  -15.6305   20.1648 H   0  0  0  0  0  0
  -26.7185  -32.5445   23.1024 H   0  0  0  0  0  0
  -25.0005  -33.9701   25.0387 H   0  0  0  0  0  0
  -22.7374  -31.2932   21.3841 H   0  0  0  0  0  0
  -23.3808  -35.9527   23.3324 H   0  0  0  0  0  0
  -24.3568  -36.8802   22.2066 H   0  0  0  0  0  0
  -23.7186  -37.6427   23.6651 H   0  0  0  0  0  0
  -26.1676  -31.5089   20.6354 H   0  0  0  0  0  0
  -26.8500  -30.7781   22.0503 H   0  0  0  0  0  0
  -28.1019  -28.8494   21.3012 H   0  0  0  0  0  0
  -25.9705  -25.9293   18.9224 H   0  0  0  0  0  0
  -24.0020  -27.3249   18.9510 H   0  0  0  0  0  0
  -23.7778  -30.5687   19.3958 H   0  0  0  0  0  0
  -22.7862  -29.2146   19.8686 H   0  0  0  0  0  0
  -25.1322  -36.1938   25.0869 H   0  0  0  0  0  0
  -21.0041  -28.3219   24.1411 H   0  0  0  0  0  0
  -20.5740  -26.2246   23.3635 H   0  0  0  0  0  0
  -21.6673  -26.7384   22.1218 H   0  0  0  0  0  0
  -19.6899  -25.6285   21.1236 H   0  0  0  0  0  0
  -19.6684  -27.3218   20.6817 H   0  0  0  0  0  0
  -17.4227  -26.6688   21.4032 H   0  0  0  0  0  0
  -18.0224  -26.0015   22.9017 H   0  0  0  0  0  0
  -19.7935  -30.7280   24.2240 H   0  0  0  0  0  0
  -17.5009  -31.6261   24.5118 H   0  0  0  0  0  0
  -15.5352  -30.2926   23.7694 H   0  0  0  0  0  0
  -15.8683  -28.0746   22.7126 H   0  0  0  0  0  0
  -24.5823  -30.7131   25.7682 H   0  0  0  0  0  0
  -24.8889  -32.2956   26.4780 H   0  0  0  0  0  0
  -25.7920  -30.8918   27.0182 H   0  0  0  0  0  0
  -26.3047  -29.6661   24.1284 H   0  0  0  0  0  0
  -27.3999  -29.7294   25.4860 H   0  0  0  0  0  0
  -27.8921  -30.4240   23.9630 H   0  0  0  0  0  0
  -27.2633  -33.3658   26.1964 H   0  0  0  0  0  0
  -28.3813  -32.6848   25.0231 H   0  0  0  0  0  0
  -28.0700  -31.8496   26.5358 H   0  0  0  0  0  0
  -28.2662  -38.0039   24.7522 H   0  0  0  0  0  0
  -28.1039  -36.2572   24.6348 H   0  0  0  0  0  0
  -27.2277  -37.1448   25.8877 H   0  0  0  0  0  0
  -20.9421  -29.8649   21.6804 H   0  0  0  0  0  0
  -26.0209  -38.2855   24.1356 H   0  0  0  0  0  0
  -29.5214  -17.4407   18.9660 H   0  0  0  0  0  0
  -29.4020  -20.6677   22.5995 H   0  0  0  0  0  0
  -26.5767  -20.7145   19.8983 H   0  0  0  0  0  0
  -26.3083  -22.4478   19.9006 H   0  0  0  0  0  0
  -26.7001  -21.6055   21.4060 H   0  0  0  0  0  0
  -26.9554  -24.5572   20.2767 H   0  0  0  0  0  0
  -28.0846  -24.6635   18.9576 H   0  0  0  0  0  0
  1 25  1  0  0  0
  1 30  2  0  0  0
  1 77  1  0  0  0
  2  3  1  0  0  0
  2 25  1  0  0  0
  2 93  1  0  0  0
  2 94  1  0  0  0
  3  4  1  0  0  0
  3 95  1  0  0  0
  3 96  1  0  0  0
  4  5  1  0  0  0
  4 97  1  0  0  0
  4 98  1  0  0  0
  5  6  1  0  0  0
  5 26  1  0  0  0
  5 99  1  0  0  0
  6 25  1  0  0  0
  6100  1  0  0  0
  6101  1  0  0  0
  7  8  2  0  0  0
  7 26  1  0  0  0
  7 29  1  0  0  0
  8  9  1  0  0  0
  8 22  1  0  0  0
  9 10  1  0  0  0
  9 27  2  0  0  0
 10 11  2  0  0  0
 10 15  1  0  0  0
 11 12  1  0  0  0
 11102  1  0  0  0
 12 13  2  0  0  0
 12103  1  0  0  0
 13 14  1  0  0  0
 13 31  1  0  0  0
 14 15  2  0  0  0
 14104  1  0  0  0
 15105  1  0  0  0
 16 17  2  0  0  0
 16 21  1  0  0  0
 16 31  1  0  0  0
 17 18  1  0  0  0
 17106  1  0  0  0
 18 19  2  0  0  0
 18107  1  0  0  0
 19 20  1  0  0  0
 19 24  1  0  0  0
 20 21  2  0  0  0
 20108  1  0  0  0
 21 23  1  0  0  0
 22 28  1  0  0  0
 22 32  2  0  0  0
 26 27  1  0  0  0
 28109  1  0  0  0
 28110  1  0  0  0
 29111  1  0  0  0
 29112  1  0  0  0
 33 34  1  0  0  0
 33 66  1  0  0  0
 33 70  2  0  0  0
 34 36  1  0  0  0
 34 59  1  0  0  0
 34113  1  0  0  0
 35 44  2  0  0  0
 35 45  1  0  0  0
 35 68  1  0  0  0
 36 56  1  0  0  0
 36114  1  0  0  0
 37 39  1  0  0  0
 37 47  1  0  0  0
 37 66  1  0  0  0
 37115  1  0  0  0
 38 43  2  0  0  0
 38 46  1  0  0  0
 38 47  1  0  0  0
 39 64  1  0  0  0
 39 67  2  0  0  0
 40 52  1  0  0  0
 40 53  2  0  0  0
 40 58  1  0  0  0
 41116  1  0  0  0
 41117  1  0  0  0
 41118  1  0  0  0
 41 48  1  0  0  0
 42 43  1  0  0  0
 42 66  1  0  0  0
 42119  1  0  0  0
 42120  1  0  0  0
 43 44  1  0  0  0
 44121  1  0  0  0
 45 46  2  0  0  0
 45122  1  0  0  0
 46123  1  0  0  0
 47124  1  0  0  0
 47125  1  0  0  0
 48 56  1  0  0  0
 48 65  1  0  0  0
 48126  1  0  0  0
 49 50  1  0  0  0
 49 53  1  0  0  0
 49 64  1  0  0  0
 49127  1  0  0  0
 50 51  1  0  0  0
 50128  1  0  0  0
 50129  1  0  0  0
 51 52  1  0  0  0
 51130  1  0  0  0
 51131  1  0  0  0
 52132  1  0  0  0
 52133  1  0  0  0
 53 54  1  0  0  0
 54 55  2  0  0  0
 54134  1  0  0  0
 55 57  1  0  0  0
 55135  1  0  0  0
 56 69  2  0  0  0
 57 58  2  0  0  0
 57136  1  0  0  0
 58137  1  0  0  0
 59 60  1  0  0  0
 59 61  1  0  0  0
 59 62  1  0  0  0
 60138  1  0  0  0
 60139  1  0  0  0
 60140  1  0  0  0
 61141  1  0  0  0
 61142  1  0  0  0
 61143  1  0  0  0
 62144  1  0  0  0
 62145  1  0  0  0
 62146  1  0  0  0
 63 65  1  0  0  0
 63147  1  0  0  0
 63148  1  0  0  0
 63149  1  0  0  0
 64150  1  0  0  0
 65151  1  0  0  0
 68 76  1  0  0  0
 71 73  2  0  0  0
 71 83  1  0  0  0
 71152  1  0  0  0
 72 74  1  0  0  0
 72 82  2  0  0  0
 72153  1  0  0  0
 73 77  1  0  0  0
 73 82  1  0  0  0
 74 78  1  0  0  0
 74 83  2  0  0  0
 75154  1  0  0  0
 75155  1  0  0  0
 75156  1  0  0  0
 75 78  1  0  0  0
 76 79  1  0  0  0
 76157  1  0  0  0
 76158  1  0  0  0
 77 80  1  0  0  0
 77 81  1  0  0  0
 78 79  1  0  0  0
 78 84  1  0  0  0
 79 85  1  0  0  0
 79 86  1  0  0  0
 80 87  1  0  0  0
 80 88  1  0  0  0
 80 89  1  0  0  0
 81 90  1  0  0  0
 81 91  1  0  0  0
 81 92  1  0  0  0
M  ISO  4   1 100  68 101  76 101  77 100
M  END
> <chiral flag>
0

> <version>
0

> <s_m_source_file>
/data/baiqing/PycharmProjects/Reinvent-master-3.2/result/LINK_invent/BTK/process_docking_weight1_custom_sum_contain_oxygen_bond_distance_aromatic_linkinvent_7_9_3/rearranged_h_0064.sdf

> <i_m_source_file_index>
69

> <r_mmod_Potential_Energy-OPLS-2005>
747.876953125

> <r_mmod_Stretch_Energy-OPLS-2005>
243.308471679688

> <r_mmod_Bend_Energy-OPLS-2005>
299.714141845703

> <r_mmod_Torsional_Energy-OPLS-2005>
155.65771484375

> <r_mmod_Improper_Torsional_Energy-OPLS-2005>
4.48865747451782

> <r_mmod_Van_der_Waal_Energy-OPLS-2005>
180.354873657227

> <r_mmod_Electrostatic_Energy-OPLS-2005>
-92.4943695068359

> <r_mmod_Solvation_Energy-OPLS-2005>
-174.203659057617

> <b_mmod_Minimization_Converged-OPLS-2005>
0

> <r_mmod_RMS_Derivative-OPLS-2005>
5.98442602157593

$$$$
75
                    3D
 Structure written by MMmdl.
167175  0  0  1  0            999 V2000
  -30.4847  -15.0635   20.4609 C   0  0  0  0  0  0
  -30.4622  -12.6828   19.4985 C   0  0  0  0  0  0
  -29.5289  -12.5780   18.2631 C   0  0  0  0  0  0
  -28.0600  -12.3449   18.6760 C   0  0  0  0  0  0
  -27.6383  -13.2453   19.8635 C   0  0  2  0  0  0
  -28.6939  -13.2023   20.9873 C   0  0  0  0  0  0
  -25.2435  -13.8189   20.5665 C   0  0  0  0  0  0
  -24.1763  -13.0439   20.9219 C   0  0  0  0  0  0
  -24.6393  -11.6921   20.8799 C   0  0  0  0  0  0
  -23.9061  -10.4295   21.0431 C   0  0  0  0  0  0
  -24.3601   -9.4218   21.9210 C   0  0  0  0  0  0
  -23.6272   -8.2262   22.0769 C   0  0  0  0  0  0
  -22.4266   -8.0294   21.3545 C   0  0  0  0  0  0
  -21.9921   -9.0272   20.4638 C   0  0  0  0  0  0
  -22.7246  -10.2154   20.3060 C   0  0  0  0  0  0
  -21.6860   -6.0747   22.5282 C   0  0  0  0  0  0
  -21.4022   -6.5649   23.8222 C   0  0  0  0  0  0
  -21.3661   -5.6799   24.9176 C   0  0  0  0  0  0
  -21.6037   -4.3063   24.7231 C   0  0  0  0  0  0
  -21.8807   -3.8151   23.4355 C   0  0  0  0  0  0
  -21.9192   -4.6970   22.3407 C   0  0  0  0  0  0
  -22.7774  -13.5219   21.1839 C   0  0  0  0  0  0
  -22.1651   -4.2153   21.0987 F   0  0  0  0  0  0
  -21.5629   -3.4552   25.7742 F   0  0  0  0  0  0
  -29.9381  -13.7559   20.4124 N   0  0  0  0  0  0
  -26.2914  -12.9427   20.3375 N   0  0  0  0  0  0
  -25.9344  -11.6560   20.5862 N   0  0  0  0  0  0
  -22.0410  -12.8243   22.0395 N   0  0  0  0  0  0
  -25.4024  -15.1916   20.3908 N   0  0  0  0  0  0
  -31.6460  -15.1460   20.0366 O   0  0  0  0  0  0
  -21.6628   -6.8902   21.4251 O   0  0  0  0  0  0
  -22.3473  -14.5530   20.6682 O   0  0  0  0  0  0
  -24.6528  -31.8369   23.1831 C   0  0  0  0  0  0
  -25.9260  -32.4658   23.8252 C   0  0  1  0  0  0
  -27.2250  -27.0610   20.1610 C   0  0  0  0  0  0
  -25.5971  -33.8465   24.2159 N   0  0  0  0  0  0
  -23.4611  -30.4527   21.5325 C   0  0  2  0  0  0
  -24.9129  -28.8677   20.1158 C   0  0  0  0  0  0
  -22.7621  -29.4513   22.4868 C   0  0  0  0  0  0
  -18.0311  -28.1403   22.8474 C   0  0  0  0  0  0
  -24.1494  -36.7243   23.2643 C   0  0  0  0  0  0
  -26.0243  -30.6825   21.3977 C   0  0  0  0  0  0
  -26.0946  -29.2864   20.7412 C   0  0  0  0  0  0
  -27.2507  -28.4032   20.7439 C   0  0  0  0  0  0
  -26.0173  -26.7740   19.4807 C   0  0  0  0  0  0
  -24.8920  -27.6259   19.4674 C   0  0  0  0  0  0
  -23.6927  -29.7773   20.1555 C   0  0  0  0  0  0
  -25.4128  -36.3015   24.0316 C   0  0  1  0  0  0
  -20.5929  -28.3741   23.1220 C   0  0  2  0  0  0
  -20.6797  -26.9439   22.5400 C   0  0  0  0  0  0
  -19.5766  -26.6384   21.5216 C   0  0  0  0  0  0
  -18.1950  -26.7942   22.1623 C   0  0  0  0  0  0
  -19.1570  -28.8892   23.2833 C   0  0  0  0  0  0
  -18.9483  -30.1485   23.8859 C   0  0  0  0  0  0
  -17.6475  -30.6595   24.0557 C   0  0  0  0  0  0
  -25.9086  -34.9388   23.5049 C   0  0  0  0  0  0
  -16.5368  -29.9082   23.6340 C   0  0  0  0  0  0
  -16.7296  -28.6502   23.0362 C   0  0  0  0  0  0
  -26.4541  -31.6556   25.0731 C   0  0  0  0  0  0
  -25.3692  -31.3759   26.1402 C   0  0  0  0  0  0
  -27.0418  -30.2940   24.6371 C   0  0  0  0  0  0
  -27.6058  -32.4333   25.7512 C   0  0  0  0  0  0
  -27.5582  -37.1772   24.8460 C   0  0  0  0  0  0
  -21.4310  -29.3045   22.3593 N   0  0  0  0  0  0
  -26.4285  -37.3739   23.9413 N   0  0  0  0  0  0
  -24.7333  -31.0142   22.0918 N   0  0  0  0  0  0
  -23.4215  -28.8070   23.3065 O   0  0  0  0  0  0
  -28.2482  -26.0140   20.2019 O   0  0  0  0  0  0
  -26.5680  -34.8897   22.4633 O   0  0  0  0  0  0
  -23.5631  -32.1287   23.6996 O   0  0  0  0  0  0
  -28.7378  -23.0985   20.2665 C   0  0  0  0  0  0
  -29.5014  -20.8922   20.3358 C   0  0  0  0  0  0
  -30.0078  -19.2409   22.3251 C   0  0  0  0  0  0
  -31.4949  -19.2284   20.4461 C   0  0  0  0  0  0
  -25.8881  -22.1392   20.8441 C   0  0  0  0  0  0
  -27.2577  -21.5572   22.8465 C   0  0  0  0  0  0
  -26.7686  -19.8761   20.9908 C   0  0  0  0  0  0
  -28.7783  -16.1865   21.8835 C   0  0  0  0  0  0
  -27.8238  -24.5007   20.4301 C   0  0  0  0  0  0
  -29.5430  -17.7571   20.1242 C   0  0  0  0  0  0
  -29.9825  -19.3004   20.7804 C   0  0  0  0  0  0
  -27.1276  -21.3416   21.3244 C   0  0  0  0  0  0
  -29.9287  -23.0335   19.6554 N   0  0  0  0  0  0
  -30.3743  -21.6916   19.6763 N   0  0  0  0  0  0
  -28.3896  -21.7494   20.6451 N   0  0  0  0  0  0
  -29.7138  -16.2695   20.7588 N   0  0  0  0  0  0
  -31.4792  -12.8948   19.1637 H   0  0  0  0  0  0
  -30.5347  -11.7265   20.0184 H   0  0  0  0  0  0
  -29.8650  -11.7826   17.5954 H   0  0  0  0  0  0
  -29.5914  -13.5029   17.6875 H   0  0  0  0  0  0
  -27.9497  -11.2971   18.9567 H   0  0  0  0  0  0
  -27.3972  -12.5084   17.8244 H   0  0  0  0  0  0
  -27.6154  -14.2636   19.4754 H   0  0  0  0  0  0
  -28.8383  -12.1717   21.3165 H   0  0  0  0  0  0
  -28.3657  -13.7042   21.8906 H   0  0  0  0  0  0
  -25.2746   -9.5710   22.4779 H   0  0  0  0  0  0
  -23.9993   -7.4647   22.7479 H   0  0  0  0  0  0
  -21.0874   -8.8795   19.8914 H   0  0  0  0  0  0
  -22.3720  -10.9698   19.6169 H   0  0  0  0  0  0
  -21.2023   -7.6156   23.9740 H   0  0  0  0  0  0
  -21.1484   -6.0516   25.9081 H   0  0  0  0  0  0
  -22.0580   -2.7617   23.2850 H   0  0  0  0  0  0
  -22.4030  -11.9956   22.4866 H   0  0  0  0  0  0
  -21.1024  -13.1276   22.2546 H   0  0  0  0  0  0
  -24.6164  -15.8312   20.4353 H   0  0  0  0  0  0
  -26.2408  -15.6264   20.0295 H   0  0  0  0  0  0
  -26.7330  -32.5234   23.0981 H   0  0  0  0  0  0
  -25.0090  -33.9558   25.0291 H   0  0  0  0  0  0
  -22.7673  -31.2811   21.3724 H   0  0  0  0  0  0
  -23.3776  -35.9551   23.3262 H   0  0  0  0  0  0
  -24.3587  -36.8922   22.2065 H   0  0  0  0  0  0
  -23.7212  -37.6409   23.6713 H   0  0  0  0  0  0
  -26.1915  -31.4273   20.6193 H   0  0  0  0  0  0
  -26.8902  -30.7341   22.0458 H   0  0  0  0  0  0
  -28.1476  -28.7226   21.2560 H   0  0  0  0  0  0
  -25.9026  -25.8456   18.9446 H   0  0  0  0  0  0
  -23.9996  -27.3010   18.9501 H   0  0  0  0  0  0
  -23.8363  -30.5483   19.3978 H   0  0  0  0  0  0
  -22.8063  -29.2218   19.8445 H   0  0  0  0  0  0
  -25.1312  -36.1843   25.0810 H   0  0  0  0  0  0
  -21.0007  -28.3331   24.1346 H   0  0  0  0  0  0
  -20.5701  -26.2358   23.3626 H   0  0  0  0  0  0
  -21.6661  -26.7436   22.1194 H   0  0  0  0  0  0
  -19.6928  -25.6287   21.1265 H   0  0  0  0  0  0
  -19.6699  -27.3174   20.6731 H   0  0  0  0  0  0
  -17.4222  -26.6690   21.4025 H   0  0  0  0  0  0
  -18.0337  -26.0087   22.9020 H   0  0  0  0  0  0
  -19.7957  -30.7318   24.2213 H   0  0  0  0  0  0
  -17.5025  -31.6269   24.5173 H   0  0  0  0  0  0
  -15.5367  -30.2972   23.7685 H   0  0  0  0  0  0
  -15.8698  -28.0806   22.7104 H   0  0  0  0  0  0
  -24.5880  -30.7110   25.7700 H   0  0  0  0  0  0
  -24.8879  -32.2949   26.4760 H   0  0  0  0  0  0
  -25.7950  -30.8959   27.0225 H   0  0  0  0  0  0
  -26.3063  -29.6641   24.1362 H   0  0  0  0  0  0
  -27.3981  -29.7266   25.4980 H   0  0  0  0  0  0
  -27.8994  -30.4157   23.9749 H   0  0  0  0  0  0
  -27.2653  -33.3668   26.2003 H   0  0  0  0  0  0
  -28.3910  -32.6833   25.0363 H   0  0  0  0  0  0
  -28.0686  -31.8514   26.5494 H   0  0  0  0  0  0
  -28.2569  -38.0101   24.7554 H   0  0  0  0  0  0
  -28.1115  -36.2633   24.6239 H   0  0  0  0  0  0
  -27.2311  -37.1356   25.8864 H   0  0  0  0  0  0
  -20.9564  -29.8747   21.6732 H   0  0  0  0  0  0
  -26.0155  -38.2806   24.1427 H   0  0  0  0  0  0
  -30.5255  -20.1090   22.7363 H   0  0  0  0  0  0
  -30.5373  -18.3589   22.6861 H   0  0  0  0  0  0
  -29.0274  -19.2184   22.7829 H   0  0  0  0  0  0
  -32.0629  -20.0314   20.9169 H   0  0  0  0  0  0
  -31.6686  -19.2934   19.3719 H   0  0  0  0  0  0
  -31.9429  -18.2915   20.7805 H   0  0  0  0  0  0
  -24.9583  -21.6579   21.1501 H   0  0  0  0  0  0
  -25.8522  -22.2300   19.7581 H   0  0  0  0  0  0
  -25.8092  -23.1271   21.2903 H   0  0  0  0  0  0
  -26.4017  -21.1419   23.3778 H   0  0  0  0  0  0
  -27.3142  -22.6159   23.1008 H   0  0  0  0  0  0
  -28.1472  -21.1013   23.2693 H   0  0  0  0  0  0
  -25.7539  -19.6261   21.3021 H   0  0  0  0  0  0
  -27.3953  -19.1448   21.4827 H   0  0  0  0  0  0
  -26.8239  -19.6964   19.9173 H   0  0  0  0  0  0
  -29.2035  -15.6245   22.7160 H   0  0  0  0  0  0
  -27.8383  -15.7372   21.5740 H   0  0  0  0  0  0
  -28.5004  -17.1551   22.2848 H   0  0  0  0  0  0
  -27.4620  -24.4951   21.4565 H   0  0  0  0  0  0
  -26.9651  -24.3165   19.7968 H   0  0  0  0  0  0
  -29.9720  -17.6871   19.1234 H   0  0  0  0  0  0
  -28.4771  -17.8198   19.9092 H   0  0  0  0  0  0
  1 25  1  0  0  0
  1 30  2  0  0  0
  1 86  1  0  0  0
  2  3  1  0  0  0
  2 25  1  0  0  0
  2 87  1  0  0  0
  2 88  1  0  0  0
  3  4  1  0  0  0
  3 89  1  0  0  0
  3 90  1  0  0  0
  4  5  1  0  0  0
  4 91  1  0  0  0
  4 92  1  0  0  0
  5  6  1  0  0  0
  5 26  1  0  0  0
  5 93  1  0  0  0
  6 25  1  0  0  0
  6 94  1  0  0  0
  6 95  1  0  0  0
  7  8  2  0  0  0
  7 26  1  0  0  0
  7 29  1  0  0  0
  8  9  1  0  0  0
  8 22  1  0  0  0
  9 10  1  0  0  0
  9 27  2  0  0  0
 10 11  2  0  0  0
 10 15  1  0  0  0
 11 12  1  0  0  0
 11 96  1  0  0  0
 12 13  2  0  0  0
 12 97  1  0  0  0
 13 14  1  0  0  0
 13 31  1  0  0  0
 14 15  2  0  0  0
 14 98  1  0  0  0
 15 99  1  0  0  0
 16 17  2  0  0  0
 16 21  1  0  0  0
 16 31  1  0  0  0
 17 18  1  0  0  0
 17100  1  0  0  0
 18 19  2  0  0  0
 18101  1  0  0  0
 19 20  1  0  0  0
 19 24  1  0  0  0
 20 21  2  0  0  0
 20102  1  0  0  0
 21 23  1  0  0  0
 22 28  1  0  0  0
 22 32  2  0  0  0
 26 27  1  0  0  0
 28103  1  0  0  0
 28104  1  0  0  0
 29105  1  0  0  0
 29106  1  0  0  0
 33 34  1  0  0  0
 33 66  1  0  0  0
 33 70  2  0  0  0
 34 36  1  0  0  0
 34 59  1  0  0  0
 34107  1  0  0  0
 35 44  2  0  0  0
 35 45  1  0  0  0
 35 68  1  0  0  0
 36 56  1  0  0  0
 36108  1  0  0  0
 37 39  1  0  0  0
 37 47  1  0  0  0
 37 66  1  0  0  0
 37109  1  0  0  0
 38 43  2  0  0  0
 38 46  1  0  0  0
 38 47  1  0  0  0
 39 64  1  0  0  0
 39 67  2  0  0  0
 40 52  1  0  0  0
 40 53  2  0  0  0
 40 58  1  0  0  0
 41110  1  0  0  0
 41111  1  0  0  0
 41112  1  0  0  0
 41 48  1  0  0  0
 42 43  1  0  0  0
 42 66  1  0  0  0
 42113  1  0  0  0
 42114  1  0  0  0
 43 44  1  0  0  0
 44115  1  0  0  0
 45 46  2  0  0  0
 45116  1  0  0  0
 46117  1  0  0  0
 47118  1  0  0  0
 47119  1  0  0  0
 48 56  1  0  0  0
 48 65  1  0  0  0
 48120  1  0  0  0
 49 50  1  0  0  0
 49 53  1  0  0  0
 49 64  1  0  0  0
 49121  1  0  0  0
 50 51  1  0  0  0
 50122  1  0  0  0
 50123  1  0  0  0
 51 52  1  0  0  0
 51124  1  0  0  0
 51125  1  0  0  0
 52126  1  0  0  0
 52127  1  0  0  0
 53 54  1  0  0  0
 54 55  2  0  0  0
 54128  1  0  0  0
 55 57  1  0  0  0
 55129  1  0  0  0
 56 69  2  0  0  0
 57 58  2  0  0  0
 57130  1  0  0  0
 58131  1  0  0  0
 59 60  1  0  0  0
 59 61  1  0  0  0
 59 62  1  0  0  0
 60132  1  0  0  0
 60133  1  0  0  0
 60134  1  0  0  0
 61135  1  0  0  0
 61136  1  0  0  0
 61137  1  0  0  0
 62138  1  0  0  0
 62139  1  0  0  0
 62140  1  0  0  0
 63 65  1  0  0  0
 63141  1  0  0  0
 63142  1  0  0  0
 63143  1  0  0  0
 64144  1  0  0  0
 65145  1  0  0  0
 68 79  1  0  0  0
 71 79  1  0  0  0
 71 83  2  0  0  0
 71 85  1  0  0  0
 72 81  1  0  0  0
 72 84  2  0  0  0
 72 85  1  0  0  0
 73146  1  0  0  0
 73147  1  0  0  0
 73148  1  0  0  0
 73 81  1  0  0  0
 74 81  1  0  0  0
 74149  1  0  0  0
 74150  1  0  0  0
 74151  1  0  0  0
 75152  1  0  0  0
 75153  1  0  0  0
 75154  1  0  0  0
 75 82  1  0  0  0
 76 82  1  0  0  0
 76155  1  0  0  0
 76156  1  0  0  0
 76157  1  0  0  0
 77 82  1  0  0  0
 77158  1  0  0  0
 77159  1  0  0  0
 77160  1  0  0  0
 78 86  1  0  0  0
 78161  1  0  0  0
 78162  1  0  0  0
 78163  1  0  0  0
 79164  1  0  0  0
 79165  1  0  0  0
 80 81  1  0  0  0
 80 86  1  0  0  0
 80166  1  0  0  0
 80167  1  0  0  0
 82 85  1  0  0  0
 83 84  1  0  0  0
M  ISO  4   1 100  68 101  79 101  86 100
M  END
> <chiral flag>
0

> <version>
0

> <s_m_source_file>
/data/baiqing/PycharmProjects/Reinvent-master-3.2/result/LINK_invent/BTK/process_docking_weight1_custom_sum_contain_oxygen_bond_distance_aromatic_linkinvent_7_9_3/rearranged_h_0064.sdf

> <i_m_source_file_index>
70

> <r_mmod_Potential_Energy-OPLS-2005>
1080.73706054688

> <r_mmod_Stretch_Energy-OPLS-2005>
410.872009277344

> <r_mmod_Bend_Energy-OPLS-2005>
410.992401123047

> <r_mmod_Torsional_Energy-OPLS-2005>
347.969360351562

> <r_mmod_Improper_Torsional_Energy-OPLS-2005>
6.3317608833313

> <r_mmod_Van_der_Waal_Energy-OPLS-2005>
143.655319213867

> <r_mmod_Electrostatic_Energy-OPLS-2005>
-274.629272460938

> <r_mmod_Solvation_Energy-OPLS-2005>
-230.273010253906

> <b_mmod_Minimization_Converged-OPLS-2005>
0

> <r_mmod_RMS_Derivative-OPLS-2005>
2.60566353797913

$$$$
76
                    3D
 Structure written by MMmdl.
183191  0  0  1  0            999 V2000
  -30.6996  -14.4703   20.5439 C   0  0  0  0  0  0
  -30.4274  -12.2984   19.4092 C   0  0  0  0  0  0
  -29.4863  -12.4942   18.1992 C   0  0  0  0  0  0
  -28.0050  -12.3749   18.6163 C   0  0  0  0  0  0
  -27.6668  -13.1986   19.8902 C   0  0  2  0  0  0
  -28.7222  -12.9326   20.9894 C   0  0  0  0  0  0
  -25.2580  -13.8170   20.5659 C   0  0  0  0  0  0
  -24.1844  -13.0451   20.9150 C   0  0  0  0  0  0
  -24.6415  -11.6915   20.8790 C   0  0  0  0  0  0
  -23.9077  -10.4295   21.0448 C   0  0  0  0  0  0
  -24.3628   -9.4184   21.9219 C   0  0  0  0  0  0
  -23.6284   -8.2219   22.0785 C   0  0  0  0  0  0
  -22.4258   -8.0288   21.3579 C   0  0  0  0  0  0
  -21.9906   -9.0265   20.4674 C   0  0  0  0  0  0
  -22.7255  -10.2131   20.3102 C   0  0  0  0  0  0
  -21.6834   -6.0709   22.5272 C   0  0  0  0  0  0
  -21.3993   -6.5623   23.8193 C   0  0  0  0  0  0
  -21.3663   -5.6797   24.9174 C   0  0  0  0  0  0
  -21.6059   -4.3054   24.7229 C   0  0  0  0  0  0
  -21.8823   -3.8129   23.4363 C   0  0  0  0  0  0
  -21.9170   -4.6927   22.3404 C   0  0  0  0  0  0
  -22.7835  -13.5211   21.1789 C   0  0  0  0  0  0
  -22.1633   -4.2109   21.0978 F   0  0  0  0  0  0
  -21.5648   -3.4556   25.7756 F   0  0  0  0  0  0
  -30.0351  -13.2834   20.4306 N   0  0  0  0  0  0
  -26.3065  -12.9331   20.3525 N   0  0  0  0  0  0
  -25.9357  -11.6506   20.5918 N   0  0  0  0  0  0
  -22.0501  -12.8215   22.0356 N   0  0  0  0  0  0
  -25.4282  -15.1895   20.3951 N   0  0  0  0  0  0
  -31.8487  -14.6006   20.1118 O   0  0  0  0  0  0
  -21.6638   -6.8876   21.4251 O   0  0  0  0  0  0
  -22.3478  -14.5494   20.6606 O   0  0  0  0  0  0
  -24.6145  -31.8683   23.2121 C   0  0  0  0  0  0
  -25.9037  -32.4830   23.8408 C   0  0  1  0  0  0
  -27.2417  -27.4424   20.1087 C   0  0  0  0  0  0
  -25.5906  -33.8624   24.2337 N   0  0  0  0  0  0
  -23.4048  -30.4880   21.5501 C   0  0  2  0  0  0
  -24.8593  -28.9553   20.1217 C   0  0  0  0  0  0
  -22.7422  -29.4640   22.4998 C   0  0  0  0  0  0
  -18.0276  -28.1388   22.8484 C   0  0  0  0  0  0
  -24.1498  -36.7318   23.2632 C   0  0  0  0  0  0
  -25.9322  -30.8365   21.3694 C   0  0  0  0  0  0
  -26.0152  -29.4663   20.7275 C   0  0  0  0  0  0
  -27.2117  -28.7130   20.7298 C   0  0  0  0  0  0
  -26.0766  -26.9487   19.4914 C   0  0  0  0  0  0
  -24.8822  -27.6914   19.5040 C   0  0  0  0  0  0
  -23.6193  -29.8178   20.1661 C   0  0  0  0  0  0
  -25.4121  -36.3114   24.0326 C   0  0  1  0  0  0
  -20.5866  -28.3667   23.1332 C   0  0  2  0  0  0
  -20.6776  -26.9407   22.5424 C   0  0  0  0  0  0
  -19.5758  -26.6395   21.5216 C   0  0  0  0  0  0
  -18.1931  -26.7939   22.1605 C   0  0  0  0  0  0
  -19.1524  -28.8850   23.2900 C   0  0  0  0  0  0
  -18.9447  -30.1460   23.8904 C   0  0  0  0  0  0
  -17.6446  -30.6590   24.0573 C   0  0  0  0  0  0
  -25.9044  -34.9475   23.5128 C   0  0  0  0  0  0
  -16.5340  -29.9094   23.6328 C   0  0  0  0  0  0
  -16.7261  -28.6516   23.0333 C   0  0  0  0  0  0
  -26.4489  -31.6599   25.0712 C   0  0  0  0  0  0
  -25.3767  -31.3678   26.1458 C   0  0  0  0  0  0
  -27.0309  -30.3041   24.6074 C   0  0  0  0  0  0
  -27.6068  -32.4309   25.7475 C   0  0  0  0  0  0
  -27.5594  -37.1812   24.8456 C   0  0  0  0  0  0
  -21.4151  -29.3023   22.3738 N   0  0  0  0  0  0
  -26.4312  -37.3797   23.9404 N   0  0  0  0  0  0
  -24.6663  -31.0788   22.1016 N   0  0  0  0  0  0
  -23.4202  -28.8193   23.3035 O   0  0  0  0  0  0
  -28.3714  -26.6631   20.0175 O   0  0  0  0  0  0
  -26.5581  -34.8925   22.4676 O   0  0  0  0  0  0
  -23.5326  -32.1415   23.7512 O   0  0  0  0  0  0
  -31.2481  -18.5341   21.0094 C   0  0  0  0  0  0
  -30.4651  -18.0289   19.9767 C   0  0  0  0  0  0
  -30.6256  -20.2324   19.7959 C   0  0  0  0  0  0
  -28.6311  -20.0963   14.9363 C   0  0  0  0  0  0
  -32.1367  -20.2594   15.1307 C   0  0  0  0  0  0
  -31.2223  -17.7018   16.6542 C   0  0  0  0  0  0
  -29.1294  -15.9156   21.8676 C   0  0  0  0  0  0
  -29.9542  -16.6312   19.6408 C   0  0  0  0  0  0
  -30.4246  -21.6758   19.3767 C   0  0  0  0  0  0
  -29.4292  -18.8388   15.3303 C   0  0  0  0  0  0
  -31.3079  -20.2012   16.4302 C   0  0  0  0  0  0
  -30.1262  -22.6088   20.5784 C   0  0  0  0  0  0
  -29.7804  -24.0727   20.2164 C   0  0  0  0  0  0
  -29.2521  -24.8759   21.4303 C   0  0  0  0  0  0
  -29.4607  -19.1043   17.8553 C   0  0  0  0  0  0
  -29.1007  -26.4003   21.2117 C   0  0  0  0  0  0
  -31.8955  -17.9092   22.2286 C   0  0  0  0  0  0
  -30.3568  -18.9804   16.5731 C   0  0  0  0  0  0
  -31.3319  -19.9176   20.8701 N   0  0  0  0  0  0
  -30.1724  -19.1334   19.1440 N   0  0  0  0  0  0
  -29.9210  -15.5836   20.6781 N   0  0  0  0  0  0
  -32.1788  -16.6188   22.0911 F   0  0  0  0  0  0
  -33.0502  -18.5114   22.5178 F   0  0  0  0  0  0
  -31.1091  -18.0404   23.2968 F   0  0  0  0  0  0
  -31.4679  -12.4087   19.0960 H   0  0  0  0  0  0
  -30.3523  -11.2814   19.8009 H   0  0  0  0  0  0
  -29.7144  -11.7714   17.4152 H   0  0  0  0  0  0
  -29.6616  -13.4760   17.7607 H   0  0  0  0  0  0
  -27.7883  -11.3198   18.7858 H   0  0  0  0  0  0
  -27.3592  -12.6887   17.7962 H   0  0  0  0  0  0
  -27.7170  -14.2513   19.6129 H   0  0  0  0  0  0
  -28.7149  -11.8743   21.2563 H   0  0  0  0  0  0
  -28.5077  -13.4454   21.9228 H   0  0  0  0  0  0
  -25.2821   -9.5593   22.4741 H   0  0  0  0  0  0
  -23.9983   -7.4605   22.7501 H   0  0  0  0  0  0
  -21.0841   -8.8806   19.8973 H   0  0  0  0  0  0
  -22.3788  -10.9661   19.6165 H   0  0  0  0  0  0
  -21.1992   -7.6139   23.9676 H   0  0  0  0  0  0
  -21.1486   -6.0542   25.9069 H   0  0  0  0  0  0
  -22.0605   -2.7592   23.2885 H   0  0  0  0  0  0
  -22.4166  -11.9900   22.4772 H   0  0  0  0  0  0
  -21.1148  -13.1228   22.2629 H   0  0  0  0  0  0
  -24.6648  -15.8486   20.5176 H   0  0  0  0  0  0
  -26.2865  -15.6356   20.0948 H   0  0  0  0  0  0
  -26.7113  -32.5574   23.1181 H   0  0  0  0  0  0
  -25.0097  -33.9803   25.0512 H   0  0  0  0  0  0
  -22.6929  -31.3000   21.4038 H   0  0  0  0  0  0
  -23.3763  -35.9654   23.3297 H   0  0  0  0  0  0
  -24.3596  -36.8931   22.2050 H   0  0  0  0  0  0
  -23.7258  -37.6525   23.6644 H   0  0  0  0  0  0
  -26.0420  -31.5995   20.5970 H   0  0  0  0  0  0
  -26.8214  -30.8976   21.9848 H   0  0  0  0  0  0
  -28.1063  -29.1082   21.1904 H   0  0  0  0  0  0
  -26.0974  -25.9813   19.0085 H   0  0  0  0  0  0
  -23.9957  -27.2933   19.0298 H   0  0  0  0  0  0
  -23.7321  -30.5868   19.4009 H   0  0  0  0  0  0
  -22.7498  -29.2281   19.8681 H   0  0  0  0  0  0
  -25.1311  -36.1979   25.0820 H   0  0  0  0  0  0
  -20.9936  -28.3224   24.1460 H   0  0  0  0  0  0
  -20.5717  -26.2254   23.3602 H   0  0  0  0  0  0
  -21.6648  -26.7480   22.1196 H   0  0  0  0  0  0
  -19.6928  -25.6309   21.1248 H   0  0  0  0  0  0
  -19.6729  -27.3210   20.6759 H   0  0  0  0  0  0
  -17.4220  -26.6706   21.3991 H   0  0  0  0  0  0
  -18.0311  -26.0084   22.8992 H   0  0  0  0  0  0
  -19.7911  -30.7283   24.2278 H   0  0  0  0  0  0
  -17.4987  -31.6265   24.5174 H   0  0  0  0  0  0
  -15.5335  -30.2990   23.7653 H   0  0  0  0  0  0
  -15.8660  -28.0847   22.7022 H   0  0  0  0  0  0
  -24.5957  -30.7014   25.7781 H   0  0  0  0  0  0
  -24.8944  -32.2819   26.4922 H   0  0  0  0  0  0
  -25.8131  -30.8830   27.0203 H   0  0  0  0  0  0
  -26.2832  -29.6794   24.1170 H   0  0  0  0  0  0
  -27.4125  -29.7275   25.4513 H   0  0  0  0  0  0
  -27.8655  -30.4344   23.9180 H   0  0  0  0  0  0
  -27.2691  -33.3584   26.2113 H   0  0  0  0  0  0
  -28.3857  -32.6918   25.0294 H   0  0  0  0  0  0
  -28.0779  -31.8404   26.5348 H   0  0  0  0  0  0
  -28.2601  -38.0117   24.7518 H   0  0  0  0  0  0
  -28.1094  -36.2648   24.6267 H   0  0  0  0  0  0
  -27.2296  -37.1447   25.8850 H   0  0  0  0  0  0
  -20.9336  -29.8703   21.6913 H   0  0  0  0  0  0
  -26.0192  -38.2872   24.1420 H   0  0  0  0  0  0
  -27.9972  -19.8946   14.0734 H   0  0  0  0  0  0
  -29.2807  -20.9257   14.6573 H   0  0  0  0  0  0
  -27.9830  -20.4341   15.7428 H   0  0  0  0  0  0
  -32.7342  -21.1706   15.0927 H   0  0  0  0  0  0
  -31.5094  -20.2579   14.2407 H   0  0  0  0  0  0
  -32.8285  -19.4227   15.0492 H   0  0  0  0  0  0
  -31.8420  -17.5627   15.7685 H   0  0  0  0  0  0
  -30.5960  -16.8120   16.7178 H   0  0  0  0  0  0
  -31.8996  -17.7136   17.5100 H   0  0  0  0  0  0
  -29.5520  -15.4591   22.7629 H   0  0  0  0  0  0
  -28.0972  -15.5882   21.7464 H   0  0  0  0  0  0
  -29.0841  -16.9893   22.0550 H   0  0  0  0  0  0
  -30.5035  -16.2576   18.7799 H   0  0  0  0  0  0
  -28.9216  -16.6951   19.3056 H   0  0  0  0  0  0
  -29.5910  -21.7533   18.6815 H   0  0  0  0  0  0
  -31.3089  -22.0215   18.8386 H   0  0  0  0  0  0
  -30.0090  -18.5207   14.4625 H   0  0  0  0  0  0
  -28.7261  -18.0226   15.5043 H   0  0  0  0  0  0
  -30.7343  -21.1258   16.5058 H   0  0  0  0  0  0
  -32.0021  -20.2197   17.2713 H   0  0  0  0  0  0
  -30.9863  -22.6040   21.2514 H   0  0  0  0  0  0
  -29.2999  -22.1832   21.1453 H   0  0  0  0  0  0
  -29.0201  -24.0891   19.4346 H   0  0  0  0  0  0
  -30.6586  -24.5623   19.7938 H   0  0  0  0  0  0
  -29.9242  -24.7255   22.2771 H   0  0  0  0  0  0
  -28.2915  -24.4584   21.7380 H   0  0  0  0  0  0
  -28.7400  -18.2891   17.8759 H   0  0  0  0  0  0
  -28.8307  -19.9882   17.7960 H   0  0  0  0  0  0
  -30.0808  -26.8686   21.1239 H   0  0  0  0  0  0
  -28.6206  -26.8325   22.0931 H   0  0  0  0  0  0
  1 25  1  0  0  0
  1 30  2  0  0  0
  1 91  1  0  0  0
  2  3  1  0  0  0
  2 25  1  0  0  0
  2 95  1  0  0  0
  2 96  1  0  0  0
  3  4  1  0  0  0
  3 97  1  0  0  0
  3 98  1  0  0  0
  4  5  1  0  0  0
  4 99  1  0  0  0
  4100  1  0  0  0
  5  6  1  0  0  0
  5 26  1  0  0  0
  5101  1  0  0  0
  6 25  1  0  0  0
  6102  1  0  0  0
  6103  1  0  0  0
  7  8  2  0  0  0
  7 26  1  0  0  0
  7 29  1  0  0  0
  8  9  1  0  0  0
  8 22  1  0  0  0
  9 10  1  0  0  0
  9 27  2  0  0  0
 10 11  2  0  0  0
 10 15  1  0  0  0
 11 12  1  0  0  0
 11104  1  0  0  0
 12 13  2  0  0  0
 12105  1  0  0  0
 13 14  1  0  0  0
 13 31  1  0  0  0
 14 15  2  0  0  0
 14106  1  0  0  0
 15107  1  0  0  0
 16 17  2  0  0  0
 16 21  1  0  0  0
 16 31  1  0  0  0
 17 18  1  0  0  0
 17108  1  0  0  0
 18 19  2  0  0  0
 18109  1  0  0  0
 19 20  1  0  0  0
 19 24  1  0  0  0
 20 21  2  0  0  0
 20110  1  0  0  0
 21 23  1  0  0  0
 22 28  1  0  0  0
 22 32  2  0  0  0
 26 27  1  0  0  0
 28111  1  0  0  0
 28112  1  0  0  0
 29113  1  0  0  0
 29114  1  0  0  0
 33 34  1  0  0  0
 33 66  1  0  0  0
 33 70  2  0  0  0
 34 36  1  0  0  0
 34 59  1  0  0  0
 34115  1  0  0  0
 35 44  2  0  0  0
 35 45  1  0  0  0
 35 68  1  0  0  0
 36 56  1  0  0  0
 36116  1  0  0  0
 37 39  1  0  0  0
 37 47  1  0  0  0
 37 66  1  0  0  0
 37117  1  0  0  0
 38 43  2  0  0  0
 38 46  1  0  0  0
 38 47  1  0  0  0
 39 64  1  0  0  0
 39 67  2  0  0  0
 40 52  1  0  0  0
 40 53  2  0  0  0
 40 58  1  0  0  0
 41118  1  0  0  0
 41119  1  0  0  0
 41120  1  0  0  0
 41 48  1  0  0  0
 42 43  1  0  0  0
 42 66  1  0  0  0
 42121  1  0  0  0
 42122  1  0  0  0
 43 44  1  0  0  0
 44123  1  0  0  0
 45 46  2  0  0  0
 45124  1  0  0  0
 46125  1  0  0  0
 47126  1  0  0  0
 47127  1  0  0  0
 48 56  1  0  0  0
 48 65  1  0  0  0
 48128  1  0  0  0
 49 50  1  0  0  0
 49 53  1  0  0  0
 49 64  1  0  0  0
 49129  1  0  0  0
 50 51  1  0  0  0
 50130  1  0  0  0
 50131  1  0  0  0
 51 52  1  0  0  0
 51132  1  0  0  0
 51133  1  0  0  0
 52134  1  0  0  0
 52135  1  0  0  0
 53 54  1  0  0  0
 54 55  2  0  0  0
 54136  1  0  0  0
 55 57  1  0  0  0
 55137  1  0  0  0
 56 69  2  0  0  0
 57 58  2  0  0  0
 57138  1  0  0  0
 58139  1  0  0  0
 59 60  1  0  0  0
 59 61  1  0  0  0
 59 62  1  0  0  0
 60140  1  0  0  0
 60141  1  0  0  0
 60142  1  0  0  0
 61143  1  0  0  0
 61144  1  0  0  0
 61145  1  0  0  0
 62146  1  0  0  0
 62147  1  0  0  0
 62148  1  0  0  0
 63 65  1  0  0  0
 63149  1  0  0  0
 63150  1  0  0  0
 63151  1  0  0  0
 64152  1  0  0  0
 65153  1  0  0  0
 68 86  1  0  0  0
 71 72  2  0  0  0
 71 87  1  0  0  0
 71 89  1  0  0  0
 72 78  1  0  0  0
 72 90  1  0  0  0
 73 79  1  0  0  0
 73 89  2  0  0  0
 73 90  1  0  0  0
 74 80  1  0  0  0
 74154  1  0  0  0
 74155  1  0  0  0
 74156  1  0  0  0
 75 81  1  0  0  0
 75157  1  0  0  0
 75158  1  0  0  0
 75159  1  0  0  0
 76160  1  0  0  0
 76161  1  0  0  0
 76162  1  0  0  0
 76 88  1  0  0  0
 77 91  1  0  0  0
 77163  1  0  0  0
 77164  1  0  0  0
 77165  1  0  0  0
 78 91  1  0  0  0
 78166  1  0  0  0
 78167  1  0  0  0
 79 82  1  0  0  0
 79168  1  0  0  0
 79169  1  0  0  0
 80 88  1  0  0  0
 80170  1  0  0  0
 80171  1  0  0  0
 81 88  1  0  0  0
 81172  1  0  0  0
 81173  1  0  0  0
 82 83  1  0  0  0
 82174  1  0  0  0
 82175  1  0  0  0
 83 84  1  0  0  0
 83176  1  0  0  0
 83177  1  0  0  0
 84 86  1  0  0  0
 84178  1  0  0  0
 84179  1  0  0  0
 85 88  1  0  0  0
 85 90  1  0  0  0
 85180  1  0  0  0
 85181  1  0  0  0
 86182  1  0  0  0
 86183  1  0  0  0
 87 92  1  0  0  0
 87 93  1  0  0  0
 87 94  1  0  0  0
M  ISO  4   1 100  68 101  86 101  91 100
M  END
> <chiral flag>
0

> <version>
0

> <s_m_source_file>
/data/baiqing/PycharmProjects/Reinvent-master-3.2/result/LINK_invent/BTK/process_docking_weight1_custom_sum_contain_oxygen_bond_distance_aromatic_linkinvent_7_9_3/rearranged_h_0064.sdf

> <i_m_source_file_index>
71

> <r_mmod_Potential_Energy-OPLS-2005>
253.474349975586

> <r_mmod_Stretch_Energy-OPLS-2005>
47.2082901000977

> <r_mmod_Bend_Energy-OPLS-2005>
136.666259765625

> <r_mmod_Torsional_Energy-OPLS-2005>
308.586151123047

> <r_mmod_Improper_Torsional_Energy-OPLS-2005>
15.5249176025391

> <r_mmod_Van_der_Waal_Energy-OPLS-2005>
133.160507202148

> <r_mmod_Electrostatic_Energy-OPLS-2005>
-216.579071044922

> <r_mmod_Solvation_Energy-OPLS-2005>
-183.887222290039

> <b_mmod_Minimization_Converged-OPLS-2005>
0

> <r_mmod_RMS_Derivative-OPLS-2005>
4.4065146446228

$$$$
77
                    3D
 Structure written by MMmdl.
190198  0  0  1  0            999 V2000
  -31.0409  -14.3579   20.1268 C   0  0  0  0  0  0
  -30.3009  -12.1400   19.2688 C   0  0  0  0  0  0
  -29.3616  -12.2868   18.0820 C   0  0  0  0  0  0
  -27.9144  -12.3486   18.5811 C   0  0  0  0  0  0
  -27.6781  -13.2436   19.8323 C   0  0  2  0  0  0
  -28.8572  -13.1782   20.8644 C   0  0  0  0  0  0
  -25.2724  -13.8288   20.5905 C   0  0  0  0  0  0
  -24.1973  -13.0489   20.9289 C   0  0  0  0  0  0
  -24.6620  -11.6991   20.8889 C   0  0  0  0  0  0
  -23.9263  -10.4326   21.0447 C   0  0  0  0  0  0
  -24.3724   -9.4229   21.9248 C   0  0  0  0  0  0
  -23.6347   -8.2280   22.0798 C   0  0  0  0  0  0
  -22.4323   -8.0342   21.3589 C   0  0  0  0  0  0
  -22.0042   -9.0328   20.4669 C   0  0  0  0  0  0
  -22.7420  -10.2209   20.3090 C   0  0  0  0  0  0
  -21.6874   -6.0788   22.5292 C   0  0  0  0  0  0
  -21.4017   -6.5659   23.8230 C   0  0  0  0  0  0
  -21.3635   -5.6803   24.9178 C   0  0  0  0  0  0
  -21.6050   -4.3080   24.7231 C   0  0  0  0  0  0
  -21.8805   -3.8182   23.4347 C   0  0  0  0  0  0
  -21.9180   -4.7013   22.3407 C   0  0  0  0  0  0
  -22.7937  -13.5221   21.1815 C   0  0  0  0  0  0
  -22.1641   -4.2201   21.0993 F   0  0  0  0  0  0
  -21.5644   -3.4542   25.7729 F   0  0  0  0  0  0
  -30.1379  -13.3160   20.1048 N   0  0  0  0  0  0
  -26.3351  -12.9604   20.3755 N   0  0  0  0  0  0
  -25.9616  -11.6720   20.6179 N   0  0  0  0  0  0
  -22.0527  -12.8177   22.0329 N   0  0  0  0  0  0
  -25.4185  -15.2015   20.4278 N   0  0  0  0  0  0
  -31.3358  -14.8593   21.1693 O   0  0  0  0  0  0
  -21.6659   -6.8958   21.4269 O   0  0  0  0  0  0
  -22.3600  -14.5496   20.6643 O   0  0  0  0  0  0
  -24.6126  -31.8682   23.2070 C   0  0  0  0  0  0
  -25.9028  -32.4817   23.8374 C   0  0  1  0  0  0
  -27.2398  -27.4281   20.0865 C   0  0  0  0  0  0
  -25.5910  -33.8619   24.2315 N   0  0  0  0  0  0
  -23.4026  -30.4840   21.5492 C   0  0  2  0  0  0
  -24.8505  -28.9506   20.1162 C   0  0  0  0  0  0
  -22.7411  -29.4573   22.4987 C   0  0  0  0  0  0
  -18.0282  -28.1238   22.8464 C   0  0  0  0  0  0
  -24.1502  -36.7309   23.2645 C   0  0  0  0  0  0
  -25.9341  -30.8220   21.3682 C   0  0  0  0  0  0
  -26.0115  -29.4586   20.7093 C   0  0  0  0  0  0
  -27.2100  -28.7072   20.6926 C   0  0  0  0  0  0
  -26.0613  -26.9435   19.4749 C   0  0  0  0  0  0
  -24.8687  -27.6904   19.4944 C   0  0  0  0  0  0
  -23.6118  -29.8156   20.1655 C   0  0  0  0  0  0
  -25.4131  -36.3124   24.0332 C   0  0  1  0  0  0
  -20.5874  -28.3544   23.1293 C   0  0  2  0  0  0
  -20.6773  -26.9294   22.5359 C   0  0  0  0  0  0
  -19.5761  -26.6289   21.5135 C   0  0  0  0  0  0
  -18.1937  -26.7791   22.1539 C   0  0  0  0  0  0
  -19.1534  -28.8702   23.2869 C   0  0  0  0  0  0
  -18.9461  -30.1307   23.8870 C   0  0  0  0  0  0
  -17.6472  -30.6490   24.0465 C   0  0  0  0  0  0
  -25.9031  -34.9478   23.5122 C   0  0  0  0  0  0
  -16.5356  -29.8966   23.6283 C   0  0  0  0  0  0
  -16.7269  -28.6353   23.0364 C   0  0  0  0  0  0
  -26.4460  -31.6590   25.0694 C   0  0  0  0  0  0
  -25.3728  -31.3575   26.1410 C   0  0  0  0  0  0
  -27.0397  -30.3107   24.6036 C   0  0  0  0  0  0
  -27.6023  -32.4336   25.7471 C   0  0  0  0  0  0
  -27.5598  -37.1796   24.8464 C   0  0  0  0  0  0
  -21.4146  -29.2971   22.3739 N   0  0  0  0  0  0
  -26.4316  -37.3815   23.9389 N   0  0  0  0  0  0
  -24.6664  -31.0767   22.0984 N   0  0  0  0  0  0
  -23.4197  -28.8135   23.3031 O   0  0  0  0  0  0
  -28.4095  -26.6939   20.0717 O   0  0  0  0  0  0
  -26.5646  -34.8936   22.4697 O   0  0  0  0  0  0
  -23.5318  -32.1430   23.7437 O   0  0  0  0  0  0
  -28.9008  -17.2939   18.1546 C   0  0  0  0  0  0
  -28.6651  -18.6351   18.3379 C   0  0  0  0  0  0
  -29.9665  -19.1367   18.7624 C   0  0  0  0  0  0
  -31.4438  -16.0898   16.4966 C   0  0  0  0  0  0
  -26.2632  -18.5108   19.0324 C   0  0  0  0  0  0
  -26.8455  -18.7824   16.6136 C   0  0  0  0  0  0
  -27.0212  -20.6973   18.1210 C   0  0  0  0  0  0
  -31.0295  -20.3794   20.6932 C   0  0  0  0  0  0
  -31.8726  -20.7235   18.3499 C   0  0  0  0  0  0
  -32.8820  -16.0676   19.5033 C   0  0  0  0  0  0
  -34.0588  -14.4760   17.3746 C   0  0  0  0  0  0
  -33.5929  -12.9768   19.2414 C   0  0  0  0  0  0
  -29.1108  -22.8886   20.0135 C   0  0  0  0  0  0
  -29.1369  -24.3659   19.5100 C   0  0  0  0  0  0
  -29.6651  -21.7860   19.0234 C   0  0  0  0  0  0
  -28.3116  -25.3005   20.4328 C   0  0  0  0  0  0
  -30.9061  -15.7599   17.9113 C   0  0  1  0  0  0
  -27.2458  -19.1803   18.0517 C   0  0  0  0  0  0
  -30.5869  -20.5059   19.2066 C   0  0  0  0  0  0
  -31.8922  -14.9920   18.9151 C   0  0  2  0  0  0
  -32.8814  -13.9318   18.2335 C   0  0  0  0  0  0
  -30.8471  -18.1224   18.7497 N   0  0  0  0  0  0
  -30.2155  -16.9923   18.3671 N   0  0  0  0  0  0
  -32.1898  -13.1917   17.3707 F   0  0  0  0  0  0
  -31.3006  -11.8964   18.9496 H   0  0  0  0  0  0
  -30.0226  -11.2469   19.8311 H   0  0  0  0  0  0
  -29.4652  -11.4050   17.4475 H   0  0  0  0  0  0
  -29.6016  -13.1198   17.4330 H   0  0  0  0  0  0
  -27.6345  -11.3182   18.8009 H   0  0  0  0  0  0
  -27.2570  -12.6612   17.7686 H   0  0  0  0  0  0
  -27.6671  -14.2687   19.4613 H   0  0  0  0  0  0
  -28.8368  -12.2442   21.4242 H   0  0  0  0  0  0
  -28.7574  -13.9781   21.5985 H   0  0  0  0  0  0
  -25.2870   -9.5655   22.4858 H   0  0  0  0  0  0
  -24.0028   -7.4676   22.7533 H   0  0  0  0  0  0
  -21.1004   -8.8898   19.8946 H   0  0  0  0  0  0
  -22.3941  -10.9756   19.6191 H   0  0  0  0  0  0
  -21.1994   -7.6156   23.9759 H   0  0  0  0  0  0
  -21.1471   -6.0527   25.9097 H   0  0  0  0  0  0
  -22.0596   -2.7644   23.2834 H   0  0  0  0  0  0
  -22.4094  -11.9839   22.4753 H   0  0  0  0  0  0
  -21.1113  -13.1191   22.2463 H   0  0  0  0  0  0
  -24.6331  -15.8312   20.5503 H   0  0  0  0  0  0
  -26.2824  -15.6824   20.2085 H   0  0  0  0  0  0
  -26.7071  -32.5509   23.1096 H   0  0  0  0  0  0
  -25.0055  -33.9769   25.0472 H   0  0  0  0  0  0
  -22.6848  -31.2963   21.4049 H   0  0  0  0  0  0
  -23.3806  -35.9590   23.3268 H   0  0  0  0  0  0
  -24.3623  -36.9006   22.2077 H   0  0  0  0  0  0
  -23.7201  -37.6457   23.6719 H   0  0  0  0  0  0
  -26.0621  -31.5888   20.6037 H   0  0  0  0  0  0
  -26.8139  -30.8663   21.9971 H   0  0  0  0  0  0
  -28.1091  -29.0936   21.1539 H   0  0  0  0  0  0
  -26.0600  -25.9915   18.9649 H   0  0  0  0  0  0
  -23.9780  -27.2921   19.0293 H   0  0  0  0  0  0
  -23.7072  -30.5872   19.3980 H   0  0  0  0  0  0
  -22.7356  -29.2260   19.8814 H   0  0  0  0  0  0
  -25.1299  -36.1995   25.0834 H   0  0  0  0  0  0
  -20.9910  -28.3096   24.1424 H   0  0  0  0  0  0
  -20.5679  -26.2135   23.3531 H   0  0  0  0  0  0
  -21.6662  -26.7333   22.1173 H   0  0  0  0  0  0
  -19.6967  -25.6205   21.1164 H   0  0  0  0  0  0
  -19.6755  -27.3075   20.6669 H   0  0  0  0  0  0
  -17.4231  -26.6531   21.3928 H   0  0  0  0  0  0
  -18.0350  -25.9855   22.8870 H   0  0  0  0  0  0
  -19.7970  -30.7051   24.2307 H   0  0  0  0  0  0
  -17.5065  -31.6218   24.4989 H   0  0  0  0  0  0
  -15.5362  -30.2857   23.7634 H   0  0  0  0  0  0
  -15.8659  -28.0642   22.7158 H   0  0  0  0  0  0
  -24.5891  -30.6989   25.7637 H   0  0  0  0  0  0
  -24.8900  -32.2667   26.4993 H   0  0  0  0  0  0
  -25.8049  -30.8575   27.0086 H   0  0  0  0  0  0
  -26.2951  -29.6734   24.1242 H   0  0  0  0  0  0
  -27.4449  -29.7443   25.4424 H   0  0  0  0  0  0
  -27.8629  -30.4534   23.9037 H   0  0  0  0  0  0
  -27.2659  -33.3647   26.2007 H   0  0  0  0  0  0
  -28.3818  -32.6872   25.0294 H   0  0  0  0  0  0
  -28.0674  -31.8485   26.5383 H   0  0  0  0  0  0
  -28.2544  -38.0169   24.7645 H   0  0  0  0  0  0
  -28.1180  -36.2702   24.6166 H   0  0  0  0  0  0
  -27.2305  -37.1283   25.8862 H   0  0  0  0  0  0
  -20.9282  -29.8761   21.7028 H   0  0  0  0  0  0
  -26.0209  -38.2887   24.1428 H   0  0  0  0  0  0
  -28.2341  -16.5201   17.7968 H   0  0  0  0  0  0
  -31.6830  -15.1984   15.9202 H   0  0  0  0  0  0
  -32.3180  -16.7418   16.5211 H   0  0  0  0  0  0
  -30.6946  -16.6233   15.9084 H   0  0  0  0  0  0
  -26.2435  -17.4302   18.9066 H   0  0  0  0  0  0
  -25.2420  -18.8661   18.8969 H   0  0  0  0  0  0
  -26.5407  -18.7085   20.0695 H   0  0  0  0  0  0
  -26.9195  -17.7106   16.4285 H   0  0  0  0  0  0
  -27.4788  -19.2796   15.8774 H   0  0  0  0  0  0
  -25.8126  -19.0597   16.3920 H   0  0  0  0  0  0
  -27.0365  -21.0684   19.1407 H   0  0  0  0  0  0
  -26.0283  -20.9647   17.7483 H   0  0  0  0  0  0
  -27.7254  -21.2462   17.4951 H   0  0  0  0  0  0
  -31.7434  -19.5656   20.8321 H   0  0  0  0  0  0
  -30.1844  -20.1672   21.3477 H   0  0  0  0  0  0
  -31.5117  -21.2859   21.0581 H   0  0  0  0  0  0
  -32.5986  -19.9248   18.4886 H   0  0  0  0  0  0
  -32.4124  -21.6357   18.6096 H   0  0  0  0  0  0
  -31.6345  -20.7649   17.2894 H   0  0  0  0  0  0
  -33.3218  -16.6821   18.7174 H   0  0  0  0  0  0
  -33.7110  -15.6266   20.0574 H   0  0  0  0  0  0
  -32.4126  -16.7687   20.1939 H   0  0  0  0  0  0
  -34.7982  -15.0102   17.9686 H   0  0  0  0  0  0
  -33.7730  -15.1253   16.5573 H   0  0  0  0  0  0
  -34.5879  -13.6473   16.9086 H   0  0  0  0  0  0
  -34.4013  -13.4807   19.7685 H   0  0  0  0  0  0
  -34.0417  -12.1307   18.7193 H   0  0  0  0  0  0
  -32.9635  -12.5574   20.0233 H   0  0  0  0  0  0
  -28.0600  -22.7109   20.2541 H   0  0  0  0  0  0
  -29.6232  -22.8393   20.9775 H   0  0  0  0  0  0
  -28.7355  -24.4378   18.4966 H   0  0  0  0  0  0
  -30.1635  -24.7323   19.4507 H   0  0  0  0  0  0
  -30.5518  -22.3894   19.1941 H   0  0  0  0  0  0
  -29.0503  -21.1827   19.6824 H   0  0  0  0  0  0
  -28.6824  -25.2070   21.4545 H   0  0  0  0  0  0
  -27.2856  -24.9354   20.4800 H   0  0  0  0  0  0
  -30.0936  -15.0731   17.7130 H   0  0  0  0  0  0
  1 25  1  0  0  0
  1 30  2  0  0  0
  1 90  1  0  0  0
  2  3  1  0  0  0
  2 25  1  0  0  0
  2 95  1  0  0  0
  2 96  1  0  0  0
  3  4  1  0  0  0
  3 97  1  0  0  0
  3 98  1  0  0  0
  4  5  1  0  0  0
  4 99  1  0  0  0
  4100  1  0  0  0
  5  6  1  0  0  0
  5 26  1  0  0  0
  5101  1  0  0  0
  6 25  1  0  0  0
  6102  1  0  0  0
  6103  1  0  0  0
  7  8  2  0  0  0
  7 26  1  0  0  0
  7 29  1  0  0  0
  8  9  1  0  0  0
  8 22  1  0  0  0
  9 10  1  0  0  0
  9 27  2  0  0  0
 10 11  2  0  0  0
 10 15  1  0  0  0
 11 12  1  0  0  0
 11104  1  0  0  0
 12 13  2  0  0  0
 12105  1  0  0  0
 13 14  1  0  0  0
 13 31  1  0  0  0
 14 15  2  0  0  0
 14106  1  0  0  0
 15107  1  0  0  0
 16 17  2  0  0  0
 16 21  1  0  0  0
 16 31  1  0  0  0
 17 18  1  0  0  0
 17108  1  0  0  0
 18 19  2  0  0  0
 18109  1  0  0  0
 19 20  1  0  0  0
 19 24  1  0  0  0
 20 21  2  0  0  0
 20110  1  0  0  0
 21 23  1  0  0  0
 22 28  1  0  0  0
 22 32  2  0  0  0
 26 27  1  0  0  0
 28111  1  0  0  0
 28112  1  0  0  0
 29113  1  0  0  0
 29114  1  0  0  0
 33 34  1  0  0  0
 33 66  1  0  0  0
 33 70  2  0  0  0
 34 36  1  0  0  0
 34 59  1  0  0  0
 34115  1  0  0  0
 35 44  2  0  0  0
 35 45  1  0  0  0
 35 68  1  0  0  0
 36 56  1  0  0  0
 36116  1  0  0  0
 37 39  1  0  0  0
 37 47  1  0  0  0
 37 66  1  0  0  0
 37117  1  0  0  0
 38 43  2  0  0  0
 38 46  1  0  0  0
 38 47  1  0  0  0
 39 64  1  0  0  0
 39 67  2  0  0  0
 40 52  1  0  0  0
 40 53  2  0  0  0
 40 58  1  0  0  0
 41118  1  0  0  0
 41119  1  0  0  0
 41120  1  0  0  0
 41 48  1  0  0  0
 42 43  1  0  0  0
 42 66  1  0  0  0
 42121  1  0  0  0
 42122  1  0  0  0
 43 44  1  0  0  0
 44123  1  0  0  0
 45 46  2  0  0  0
 45124  1  0  0  0
 46125  1  0  0  0
 47126  1  0  0  0
 47127  1  0  0  0
 48 56  1  0  0  0
 48 65  1  0  0  0
 48128  1  0  0  0
 49 50  1  0  0  0
 49 53  1  0  0  0
 49 64  1  0  0  0
 49129  1  0  0  0
 50 51  1  0  0  0
 50130  1  0  0  0
 50131  1  0  0  0
 51 52  1  0  0  0
 51132  1  0  0  0
 51133  1  0  0  0
 52134  1  0  0  0
 52135  1  0  0  0
 53 54  1  0  0  0
 54 55  2  0  0  0
 54136  1  0  0  0
 55 57  1  0  0  0
 55137  1  0  0  0
 56 69  2  0  0  0
 57 58  2  0  0  0
 57138  1  0  0  0
 58139  1  0  0  0
 59 60  1  0  0  0
 59 61  1  0  0  0
 59 62  1  0  0  0
 60140  1  0  0  0
 60141  1  0  0  0
 60142  1  0  0  0
 61143  1  0  0  0
 61144  1  0  0  0
 61145  1  0  0  0
 62146  1  0  0  0
 62147  1  0  0  0
 62148  1  0  0  0
 63 65  1  0  0  0
 63149  1  0  0  0
 63150  1  0  0  0
 63151  1  0  0  0
 64152  1  0  0  0
 65153  1  0  0  0
 68 86  1  0  0  0
 71 72  2  0  0  0
 71 93  1  0  0  0
 71154  1  0  0  0
 72 73  1  0  0  0
 72 88  1  0  0  0
 73 89  1  0  0  0
 73 92  2  0  0  0
 74155  1  0  0  0
 74156  1  0  0  0
 74157  1  0  0  0
 74 87  1  0  0  0
 75158  1  0  0  0
 75159  1  0  0  0
 75160  1  0  0  0
 75 88  1  0  0  0
 76 88  1  0  0  0
 76161  1  0  0  0
 76162  1  0  0  0
 76163  1  0  0  0
 77 88  1  0  0  0
 77164  1  0  0  0
 77165  1  0  0  0
 77166  1  0  0  0
 78167  1  0  0  0
 78168  1  0  0  0
 78169  1  0  0  0
 78 89  1  0  0  0
 79 89  1  0  0  0
 79170  1  0  0  0
 79171  1  0  0  0
 79172  1  0  0  0
 80173  1  0  0  0
 80174  1  0  0  0
 80175  1  0  0  0
 80 90  1  0  0  0
 81176  1  0  0  0
 81177  1  0  0  0
 81178  1  0  0  0
 81 91  1  0  0  0
 82 91  1  0  0  0
 82179  1  0  0  0
 82180  1  0  0  0
 82181  1  0  0  0
 83 84  1  0  0  0
 83 85  1  0  0  0
 83182  1  0  0  0
 83183  1  0  0  0
 84 86  1  0  0  0
 84184  1  0  0  0
 84185  1  0  0  0
 85 89  1  0  0  0
 85186  1  0  0  0
 85187  1  0  0  0
 86188  1  0  0  0
 86189  1  0  0  0
 87 90  1  0  0  0
 87 93  1  0  0  0
 87190  1  0  0  0
 90 91  1  0  0  0
 91 94  1  0  0  0
 92 93  1  0  0  0
M  ISO  4   1 100  68 101  86 101  90 100
M  END
> <chiral flag>
0

> <version>
0

> <s_m_source_file>
/data/baiqing/PycharmProjects/Reinvent-master-3.2/result/LINK_invent/BTK/process_docking_weight1_custom_sum_contain_oxygen_bond_distance_aromatic_linkinvent_7_9_3/rearranged_h_0064.sdf

> <i_m_source_file_index>
72

> <r_mmod_Potential_Energy-OPLS-2005>
737.52392578125

> <r_mmod_Stretch_Energy-OPLS-2005>
96.1956329345703

> <r_mmod_Bend_Energy-OPLS-2005>
459.976287841797

> <r_mmod_Torsional_Energy-OPLS-2005>
276.106140136719

> <r_mmod_Improper_Torsional_Energy-OPLS-2005>
4.3084077835083

> <r_mmod_Van_der_Waal_Energy-OPLS-2005>
205.704284667969

> <r_mmod_Electrostatic_Energy-OPLS-2005>
-372.713592529297

> <r_mmod_Solvation_Energy-OPLS-2005>
-165.881423950195

> <b_mmod_Minimization_Converged-OPLS-2005>
0

> <r_mmod_RMS_Derivative-OPLS-2005>
6.3254828453064

$$$$
78
                    3D
 Structure written by MMmdl.
175183  0  0  1  0            999 V2000
  -30.7581  -14.5260   20.6377 C   0  0  0  0  0  0
  -30.4140  -12.3589   19.4574 C   0  0  0  0  0  0
  -29.4982  -12.5320   18.2284 C   0  0  0  0  0  0
  -28.0215  -12.3734   18.6315 C   0  0  0  0  0  0
  -27.6603  -13.2178   19.8811 C   0  0  2  0  0  0
  -28.7044  -13.0213   21.0074 C   0  0  0  0  0  0
  -25.2441  -13.8115   20.5467 C   0  0  0  0  0  0
  -24.1779  -13.0394   20.9139 C   0  0  0  0  0  0
  -24.6400  -11.6888   20.8758 C   0  0  0  0  0  0
  -23.9073  -10.4280   21.0414 C   0  0  0  0  0  0
  -24.3619   -9.4203   21.9193 C   0  0  0  0  0  0
  -23.6294   -8.2244   22.0764 C   0  0  0  0  0  0
  -22.4278   -8.0280   21.3550 C   0  0  0  0  0  0
  -21.9913   -9.0249   20.4647 C   0  0  0  0  0  0
  -22.7244  -10.2128   20.3058 C   0  0  0  0  0  0
  -21.6852   -6.0743   22.5284 C   0  0  0  0  0  0
  -21.4013   -6.5643   23.8217 C   0  0  0  0  0  0
  -21.3655   -5.6792   24.9174 C   0  0  0  0  0  0
  -21.6041   -4.3057   24.7222 C   0  0  0  0  0  0
  -21.8818   -3.8152   23.4341 C   0  0  0  0  0  0
  -21.9194   -4.6971   22.3402 C   0  0  0  0  0  0
  -22.7809  -13.5193   21.1812 C   0  0  0  0  0  0
  -22.1667   -4.2163   21.0979 F   0  0  0  0  0  0
  -21.5620   -3.4538   25.7733 F   0  0  0  0  0  0
  -30.0328  -13.3659   20.4796 N   0  0  0  0  0  0
  -26.3000  -12.9368   20.3377 N   0  0  0  0  0  0
  -25.9350  -11.6519   20.5852 N   0  0  0  0  0  0
  -22.0475  -12.8205   22.0400 N   0  0  0  0  0  0
  -25.3838  -15.1791   20.3468 N   0  0  0  0  0  0
  -31.7878  -14.6479   19.9664 O   0  0  0  0  0  0
  -21.6638   -6.8882   21.4246 O   0  0  0  0  0  0
  -22.3493  -14.5506   20.6679 O   0  0  0  0  0  0
  -24.6179  -31.8652   23.2049 C   0  0  0  0  0  0
  -25.9051  -32.4811   23.8365 C   0  0  1  0  0  0
  -27.2333  -27.3879   20.1129 C   0  0  0  0  0  0
  -25.5893  -33.8611   24.2291 N   0  0  0  0  0  0
  -23.4088  -30.4863   21.5469 C   0  0  2  0  0  0
  -24.8573  -28.9441   20.1157 C   0  0  0  0  0  0
  -22.7438  -29.4642   22.4974 C   0  0  0  0  0  0
  -18.0278  -28.1373   22.8486 C   0  0  0  0  0  0
  -24.1493  -36.7317   23.2638 C   0  0  0  0  0  0
  -25.9422  -30.8160   21.3655 C   0  0  0  0  0  0
  -26.0208  -29.4469   20.7128 C   0  0  0  0  0  0
  -27.2141  -28.6796   20.7011 C   0  0  0  0  0  0
  -26.0527  -26.9116   19.5065 C   0  0  0  0  0  0
  -24.8709  -27.6774   19.5062 C   0  0  0  0  0  0
  -23.6206  -29.8161   20.1635 C   0  0  0  0  0  0
  -25.4120  -36.3108   24.0324 C   0  0  1  0  0  0
  -20.5870  -28.3671   23.1312 C   0  0  2  0  0  0
  -20.6775  -26.9404   22.5420 C   0  0  0  0  0  0
  -19.5755  -26.6377   21.5218 C   0  0  0  0  0  0
  -18.1926  -26.7919   22.1621 C   0  0  0  0  0  0
  -19.1530  -28.8838   23.2890 C   0  0  0  0  0  0
  -18.9458  -30.1441   23.8906 C   0  0  0  0  0  0
  -17.6460  -30.6578   24.0568 C   0  0  0  0  0  0
  -25.9046  -34.9474   23.5113 C   0  0  0  0  0  0
  -16.5353  -29.9084   23.6325 C   0  0  0  0  0  0
  -16.7271  -28.6503   23.0343 C   0  0  0  0  0  0
  -26.4463  -31.6608   25.0711 C   0  0  0  0  0  0
  -25.3716  -31.3725   26.1453 C   0  0  0  0  0  0
  -27.0297  -30.3048   24.6103 C   0  0  0  0  0  0
  -27.6024  -32.4345   25.7479 C   0  0  0  0  0  0
  -27.5587  -37.1808   24.8458 C   0  0  0  0  0  0
  -21.4163  -29.3035   22.3720 N   0  0  0  0  0  0
  -26.4307  -37.3793   23.9398 N   0  0  0  0  0  0
  -24.6748  -31.0717   22.0969 N   0  0  0  0  0  0
  -23.4197  -28.8190   23.3029 O   0  0  0  0  0  0
  -28.3799  -26.6083   20.1068 O   0  0  0  0  0  0
  -26.5632  -34.8929   22.4685 O   0  0  0  0  0  0
  -23.5363  -32.1423   23.7420 O   0  0  0  0  0  0
  -29.6570  -20.1891   21.9605 C   0  0  0  0  0  0
  -29.7737  -19.1095   20.0756 C   0  0  0  0  0  0
  -29.8658  -20.3998   20.5639 C   0  0  0  0  0  0
  -27.9177  -16.5209   21.7313 C   0  0  0  0  0  0
  -31.7786  -21.8000   19.9743 C   0  0  0  0  0  0
  -29.9983  -21.5287   18.3079 C   0  0  0  0  0  0
  -30.2206  -15.2598   23.0725 C   0  0  0  0  0  0
  -31.7682  -16.5764   21.7320 C   0  0  0  0  0  0
  -28.8438  -24.4761   18.3749 C   0  0  0  0  0  0
  -27.1929  -23.1889   19.7758 C   0  0  0  0  0  0
  -29.6468  -23.0681   20.4381 C   0  0  0  0  0  0
  -28.2870  -25.2821   20.7088 C   0  0  0  0  0  0
  -29.2966  -16.7473   21.0819 C   0  0  2  0  0  0
  -30.2433  -21.7082   19.8211 C   0  0  0  0  0  0
  -30.4425  -15.7543   21.6140 C   0  0  0  0  0  0
  -28.5113  -23.9907   19.8047 C   0  0  0  0  0  0
  -29.4721  -18.9119   22.2854 N   0  0  0  0  0  0
  -29.5501  -18.2194   21.1213 N   0  0  0  0  0  0
  -31.4599  -12.4236   19.1536 H   0  0  0  0  0  0
  -30.3078  -11.3537   19.8686 H   0  0  0  0  0  0
  -29.7569  -11.8030   17.4595 H   0  0  0  0  0  0
  -29.6574  -13.5164   17.7861 H   0  0  0  0  0  0
  -27.8447  -11.3164   18.8350 H   0  0  0  0  0  0
  -27.3698  -12.6348   17.7971 H   0  0  0  0  0  0
  -27.6966  -14.2630   19.5753 H   0  0  0  0  0  0
  -28.7021  -11.9831   21.3424 H   0  0  0  0  0  0
  -28.4310  -13.5835   21.8867 H   0  0  0  0  0  0
  -25.2764   -9.5688   22.4766 H   0  0  0  0  0  0
  -24.0003   -7.4644   22.7496 H   0  0  0  0  0  0
  -21.0845   -8.8768   19.8955 H   0  0  0  0  0  0
  -22.3705  -10.9664   19.6167 H   0  0  0  0  0  0
  -21.2010   -7.6152   23.9721 H   0  0  0  0  0  0
  -21.1470   -6.0522   25.9077 H   0  0  0  0  0  0
  -22.0596   -2.7619   23.2835 H   0  0  0  0  0  0
  -22.4098  -11.9873   22.4785 H   0  0  0  0  0  0
  -21.1102  -13.1244   22.2619 H   0  0  0  0  0  0
  -24.6009  -15.8161   20.4403 H   0  0  0  0  0  0
  -26.2268  -15.6303   20.0183 H   0  0  0  0  0  0
  -26.7121  -32.5508   23.1124 H   0  0  0  0  0  0
  -25.0019  -33.9768   25.0418 H   0  0  0  0  0  0
  -22.6977  -31.3025   21.4042 H   0  0  0  0  0  0
  -23.3754  -35.9651   23.3307 H   0  0  0  0  0  0
  -24.3580  -36.8942   22.2049 H   0  0  0  0  0  0
  -23.7252  -37.6519   23.6670 H   0  0  0  0  0  0
  -26.0606  -31.5793   20.5955 H   0  0  0  0  0  0
  -26.8270  -30.8696   21.9882 H   0  0  0  0  0  0
  -28.1122  -29.0640   21.1635 H   0  0  0  0  0  0
  -26.0448  -25.9452   19.0272 H   0  0  0  0  0  0
  -23.9793  -27.2845   19.0370 H   0  0  0  0  0  0
  -23.7323  -30.5902   19.4035 H   0  0  0  0  0  0
  -22.7432  -29.2391   19.8668 H   0  0  0  0  0  0
  -25.1297  -36.1972   25.0818 H   0  0  0  0  0  0
  -20.9955  -28.3243   24.1438 H   0  0  0  0  0  0
  -20.5690  -26.2281   23.3611 H   0  0  0  0  0  0
  -21.6645  -26.7449   22.1215 H   0  0  0  0  0  0
  -19.6928  -25.6293   21.1240 H   0  0  0  0  0  0
  -19.6699  -27.3198   20.6756 H   0  0  0  0  0  0
  -17.4206  -26.6678   21.4008 H   0  0  0  0  0  0
  -18.0313  -26.0043   22.9000 H   0  0  0  0  0  0
  -19.7936  -30.7246   24.2290 H   0  0  0  0  0  0
  -17.5019  -31.6262   24.5168 H   0  0  0  0  0  0
  -15.5356  -30.2992   23.7635 H   0  0  0  0  0  0
  -15.8670  -28.0832   22.7048 H   0  0  0  0  0  0
  -24.5908  -30.7046   25.7799 H   0  0  0  0  0  0
  -24.8874  -32.2879   26.4868 H   0  0  0  0  0  0
  -25.8048  -30.8932   27.0239 H   0  0  0  0  0  0
  -26.2851  -29.6810   24.1146 H   0  0  0  0  0  0
  -27.4060  -29.7284   25.4563 H   0  0  0  0  0  0
  -27.8680  -30.4368   23.9258 H   0  0  0  0  0  0
  -27.2641  -33.3654   26.2048 H   0  0  0  0  0  0
  -28.3829  -32.6908   25.0301 H   0  0  0  0  0  0
  -28.0696  -31.8483   26.5402 H   0  0  0  0  0  0
  -28.2602  -38.0108   24.7518 H   0  0  0  0  0  0
  -28.1091  -36.2642   24.6280 H   0  0  0  0  0  0
  -27.2302  -37.1450   25.8860 H   0  0  0  0  0  0
  -20.9340  -29.8773   21.6949 H   0  0  0  0  0  0
  -26.0196  -38.2874   24.1395 H   0  0  0  0  0  0
  -29.6691  -20.9211   22.7551 H   0  0  0  0  0  0
  -29.8666  -18.7402   19.0640 H   0  0  0  0  0  0
  -27.5853  -15.4953   21.6585 H   0  0  0  0  0  0
  -27.1616  -17.1466   21.2574 H   0  0  0  0  0  0
  -27.9192  -16.7803   22.7901 H   0  0  0  0  0  0
  -32.2784  -20.9111   19.5849 H   0  0  0  0  0  0
  -32.0718  -21.8989   21.0201 H   0  0  0  0  0  0
  -32.1905  -22.6567   19.4387 H   0  0  0  0  0  0
  -30.5130  -20.6514   17.9154 H   0  0  0  0  0  0
  -30.3975  -22.3659   17.7375 H   0  0  0  0  0  0
  -28.9445  -21.4040   18.0667 H   0  0  0  0  0  0
  -30.3422  -16.0751   23.7862 H   0  0  0  0  0  0
  -30.9442  -14.4903   23.3445 H   0  0  0  0  0  0
  -29.2357  -14.8540   23.2771 H   0  0  0  0  0  0
  -31.7068  -17.3650   22.4821 H   0  0  0  0  0  0
  -32.0344  -17.0597   20.7899 H   0  0  0  0  0  0
  -32.6126  -15.9494   22.0241 H   0  0  0  0  0  0
  -28.7215  -23.6997   17.6251 H   0  0  0  0  0  0
  -29.8600  -24.8656   18.3092 H   0  0  0  0  0  0
  -28.1695  -25.2685   18.0519 H   0  0  0  0  0  0
  -27.2641  -22.2973   19.1564 H   0  0  0  0  0  0
  -26.3676  -23.7811   19.3839 H   0  0  0  0  0  0
  -26.9100  -22.8588   20.7762 H   0  0  0  0  0  0
  -30.4887  -23.7533   20.5429 H   0  0  0  0  0  0
  -29.3699  -22.8729   21.4738 H   0  0  0  0  0  0
  -29.0383  -25.2914   21.4987 H   0  0  0  0  0  0
  -27.3494  -25.1912   21.2615 H   0  0  0  0  0  0
  -29.1657  -16.5143   20.0233 H   0  0  0  0  0  0
  1 25  1  0  0  0
  1 30  2  0  0  0
  1 85  1  0  0  0
  2  3  1  0  0  0
  2 25  1  0  0  0
  2 89  1  0  0  0
  2 90  1  0  0  0
  3  4  1  0  0  0
  3 91  1  0  0  0
  3 92  1  0  0  0
  4  5  1  0  0  0
  4 93  1  0  0  0
  4 94  1  0  0  0
  5  6  1  0  0  0
  5 26  1  0  0  0
  5 95  1  0  0  0
  6 25  1  0  0  0
  6 96  1  0  0  0
  6 97  1  0  0  0
  7  8  2  0  0  0
  7 26  1  0  0  0
  7 29  1  0  0  0
  8  9  1  0  0  0
  8 22  1  0  0  0
  9 10  1  0  0  0
  9 27  2  0  0  0
 10 11  2  0  0  0
 10 15  1  0  0  0
 11 12  1  0  0  0
 11 98  1  0  0  0
 12 13  2  0  0  0
 12 99  1  0  0  0
 13 14  1  0  0  0
 13 31  1  0  0  0
 14 15  2  0  0  0
 14100  1  0  0  0
 15101  1  0  0  0
 16 17  2  0  0  0
 16 21  1  0  0  0
 16 31  1  0  0  0
 17 18  1  0  0  0
 17102  1  0  0  0
 18 19  2  0  0  0
 18103  1  0  0  0
 19 20  1  0  0  0
 19 24  1  0  0  0
 20 21  2  0  0  0
 20104  1  0  0  0
 21 23  1  0  0  0
 22 28  1  0  0  0
 22 32  2  0  0  0
 26 27  1  0  0  0
 28105  1  0  0  0
 28106  1  0  0  0
 29107  1  0  0  0
 29108  1  0  0  0
 33 34  1  0  0  0
 33 66  1  0  0  0
 33 70  2  0  0  0
 34 36  1  0  0  0
 34 59  1  0  0  0
 34109  1  0  0  0
 35 44  2  0  0  0
 35 45  1  0  0  0
 35 68  1  0  0  0
 36 56  1  0  0  0
 36110  1  0  0  0
 37 39  1  0  0  0
 37 47  1  0  0  0
 37 66  1  0  0  0
 37111  1  0  0  0
 38 43  2  0  0  0
 38 46  1  0  0  0
 38 47  1  0  0  0
 39 64  1  0  0  0
 39 67  2  0  0  0
 40 52  1  0  0  0
 40 53  2  0  0  0
 40 58  1  0  0  0
 41112  1  0  0  0
 41113  1  0  0  0
 41114  1  0  0  0
 41 48  1  0  0  0
 42 43  1  0  0  0
 42 66  1  0  0  0
 42115  1  0  0  0
 42116  1  0  0  0
 43 44  1  0  0  0
 44117  1  0  0  0
 45 46  2  0  0  0
 45118  1  0  0  0
 46119  1  0  0  0
 47120  1  0  0  0
 47121  1  0  0  0
 48 56  1  0  0  0
 48 65  1  0  0  0
 48122  1  0  0  0
 49 50  1  0  0  0
 49 53  1  0  0  0
 49 64  1  0  0  0
 49123  1  0  0  0
 50 51  1  0  0  0
 50124  1  0  0  0
 50125  1  0  0  0
 51 52  1  0  0  0
 51126  1  0  0  0
 51127  1  0  0  0
 52128  1  0  0  0
 52129  1  0  0  0
 53 54  1  0  0  0
 54 55  2  0  0  0
 54130  1  0  0  0
 55 57  1  0  0  0
 55131  1  0  0  0
 56 69  2  0  0  0
 57 58  2  0  0  0
 57132  1  0  0  0
 58133  1  0  0  0
 59 60  1  0  0  0
 59 61  1  0  0  0
 59 62  1  0  0  0
 60134  1  0  0  0
 60135  1  0  0  0
 60136  1  0  0  0
 61137  1  0  0  0
 61138  1  0  0  0
 61139  1  0  0  0
 62140  1  0  0  0
 62141  1  0  0  0
 62142  1  0  0  0
 63 65  1  0  0  0
 63143  1  0  0  0
 63144  1  0  0  0
 63145  1  0  0  0
 64146  1  0  0  0
 65147  1  0  0  0
 68 82  1  0  0  0
 71 73  1  0  0  0
 71 87  2  0  0  0
 71148  1  0  0  0
 72 73  2  0  0  0
 72 88  1  0  0  0
 72149  1  0  0  0
 73 84  1  0  0  0
 74150  1  0  0  0
 74151  1  0  0  0
 74152  1  0  0  0
 74 83  1  0  0  0
 75153  1  0  0  0
 75154  1  0  0  0
 75155  1  0  0  0
 75 84  1  0  0  0
 76 84  1  0  0  0
 76156  1  0  0  0
 76157  1  0  0  0
 76158  1  0  0  0
 77159  1  0  0  0
 77160  1  0  0  0
 77161  1  0  0  0
 77 85  1  0  0  0
 78 85  1  0  0  0
 78162  1  0  0  0
 78163  1  0  0  0
 78164  1  0  0  0
 79165  1  0  0  0
 79166  1  0  0  0
 79167  1  0  0  0
 79 86  1  0  0  0
 80 86  1  0  0  0
 80168  1  0  0  0
 80169  1  0  0  0
 80170  1  0  0  0
 81 84  1  0  0  0
 81 86  1  0  0  0
 81171  1  0  0  0
 81172  1  0  0  0
 82 86  1  0  0  0
 82173  1  0  0  0
 82174  1  0  0  0
 83 85  1  0  0  0
 83 88  1  0  0  0
 83175  1  0  0  0
 87 88  1  0  0  0
M  ISO  4   1 100  68 101  82 101  85 100
M  END
> <chiral flag>
0

> <version>
0

> <s_m_source_file>
/data/baiqing/PycharmProjects/Reinvent-master-3.2/result/LINK_invent/BTK/process_docking_weight1_custom_sum_contain_oxygen_bond_distance_aromatic_linkinvent_7_9_3/rearranged_h_0064.sdf

> <i_m_source_file_index>
73

> <r_mmod_Potential_Energy-OPLS-2005>
207.41081237793

> <r_mmod_Stretch_Energy-OPLS-2005>
80.4487609863281

> <r_mmod_Bend_Energy-OPLS-2005>
183.264419555664

> <r_mmod_Torsional_Energy-OPLS-2005>
268.965606689453

> <r_mmod_Improper_Torsional_Energy-OPLS-2005>
2.57521986961365

> <r_mmod_Van_der_Waal_Energy-OPLS-2005>
155.083099365234

> <r_mmod_Electrostatic_Energy-OPLS-2005>
-328.339904785156

> <r_mmod_Solvation_Energy-OPLS-2005>
-175.935501098633

> <b_mmod_Minimization_Converged-OPLS-2005>
0

> <r_mmod_RMS_Derivative-OPLS-2005>
1.0401896238327

$$$$
79
                    3D
 Structure written by MMmdl.
158166  0  0  1  0            999 V2000
  -30.5999  -14.7318   20.4727 C   0  0  0  0  0  0
  -30.4364  -12.4656   19.4255 C   0  0  0  0  0  0
  -29.4792  -12.5018   18.2044 C   0  0  0  0  0  0
  -28.0094  -12.3396   18.6359 C   0  0  0  0  0  0
  -27.6445  -13.2212   19.8610 C   0  0  2  0  0  0
  -28.7046  -13.1011   20.9823 C   0  0  0  0  0  0
  -25.2505  -13.8132   20.5761 C   0  0  0  0  0  0
  -24.1774  -13.0431   20.9221 C   0  0  0  0  0  0
  -24.6321  -11.6890   20.8768 C   0  0  0  0  0  0
  -23.9008  -10.4308   21.0421 C   0  0  0  0  0  0
  -24.3606   -9.4248   21.9212 C   0  0  0  0  0  0
  -23.6325   -8.2254   22.0757 C   0  0  0  0  0  0
  -22.4314   -8.0291   21.3529 C   0  0  0  0  0  0
  -21.9913   -9.0242   20.4622 C   0  0  0  0  0  0
  -22.7174  -10.2155   20.3064 C   0  0  0  0  0  0
  -21.6853   -6.0758   22.5284 C   0  0  0  0  0  0
  -21.3998   -6.5643   23.8222 C   0  0  0  0  0  0
  -21.3646   -5.6783   24.9185 C   0  0  0  0  0  0
  -21.6066   -4.3048   24.7218 C   0  0  0  0  0  0
  -21.8803   -3.8146   23.4324 C   0  0  0  0  0  0
  -21.9209   -4.6989   22.3405 C   0  0  0  0  0  0
  -22.7797  -13.5230   21.1861 C   0  0  0  0  0  0
  -22.1669   -4.2164   21.0981 F   0  0  0  0  0  0
  -21.5681   -3.4533   25.7735 F   0  0  0  0  0  0
  -29.9930  -13.4945   20.4015 N   0  0  0  0  0  0
  -26.2968  -12.9323   20.3415 N   0  0  0  0  0  0
  -25.9266  -11.6482   20.5811 N   0  0  0  0  0  0
  -22.0416  -12.8268   22.0419 N   0  0  0  0  0  0
  -25.4170  -15.1867   20.4164 N   0  0  0  0  0  0
  -31.7854  -14.8404   20.1423 O   0  0  0  0  0  0
  -21.6650   -6.8902   21.4244 O   0  0  0  0  0  0
  -22.3519  -14.5566   20.6696 O   0  0  0  0  0  0
  -24.6372  -31.8572   23.1861 C   0  0  0  0  0  0
  -25.9179  -32.4752   23.8240 C   0  0  1  0  0  0
  -27.2241  -27.2226   20.1300 C   0  0  0  0  0  0
  -25.5952  -33.8538   24.2172 N   0  0  0  0  0  0
  -23.4323  -30.4692   21.5367 C   0  0  2  0  0  0
  -24.8823  -28.9126   20.1105 C   0  0  0  0  0  0
  -22.7464  -29.4597   22.4894 C   0  0  0  0  0  0
  -18.0262  -28.1337   22.8460 C   0  0  0  0  0  0
  -24.1488  -36.7243   23.2649 C   0  0  0  0  0  0
  -25.9821  -30.7576   21.3700 C   0  0  0  0  0  0
  -26.0586  -29.3750   20.7125 C   0  0  0  0  0  0
  -27.2321  -28.5467   20.7012 C   0  0  0  0  0  0
  -26.0147  -26.8378   19.5003 C   0  0  0  0  0  0
  -24.8657  -27.6524   19.4990 C   0  0  0  0  0  0
  -23.6504  -29.7955   20.1560 C   0  0  0  0  0  0
  -25.4132  -36.3024   24.0295 C   0  0  1  0  0  0
  -20.5866  -28.3677   23.1215 C   0  0  2  0  0  0
  -20.6775  -26.9376   22.5425 C   0  0  0  0  0  0
  -19.5771  -26.6352   21.5200 C   0  0  0  0  0  0
  -18.1921  -26.7845   22.1628 C   0  0  0  0  0  0
  -19.1508  -28.8843   23.2799 C   0  0  0  0  0  0
  -18.9420  -30.1463   23.8778 C   0  0  0  0  0  0
  -17.6404  -30.6547   24.0458 C   0  0  0  0  0  0
  -25.9085  -34.9426   23.5046 C   0  0  0  0  0  0
  -16.5306  -29.9015   23.6260 C   0  0  0  0  0  0
  -16.7250  -28.6421   23.0349 C   0  0  0  0  0  0
  -26.4507  -31.6574   25.0659 C   0  0  0  0  0  0
  -25.3672  -31.3783   26.1325 C   0  0  0  0  0  0
  -27.0364  -30.2959   24.6231 C   0  0  0  0  0  0
  -27.5994  -32.4353   25.7490 C   0  0  0  0  0  0
  -27.5564  -37.1778   24.8469 C   0  0  0  0  0  0
  -21.4184  -29.3005   22.3524 N   0  0  0  0  0  0
  -26.4283  -37.3747   23.9395 N   0  0  0  0  0  0
  -24.6996  -31.0485   22.0840 N   0  0  0  0  0  0
  -23.4119  -28.8251   23.3111 O   0  0  0  0  0  0
  -28.3039  -26.2912   20.2172 O   0  0  0  0  0  0
  -26.5666  -34.8925   22.4633 O   0  0  0  0  0  0
  -23.5507  -32.1385   23.7153 O   0  0  0  0  0  0
  -28.8760  -19.9700   22.2934 C   0  0  0  0  0  0
  -29.5267  -18.6020   20.8372 C   0  0  0  0  0  0
  -29.7813  -17.3270   18.6535 C   0  0  0  0  0  0
  -27.2958  -22.4177   22.1416 C   0  0  0  0  0  0
  -27.1497  -21.7655   19.7116 C   0  0  0  0  0  0
  -28.0164  -24.8061   20.0475 C   0  0  0  0  0  0
  -30.1185  -17.2887   20.1492 C   0  0  2  0  0  0
  -28.1370  -22.0787   20.8701 C   0  0  0  0  0  0
  -28.9162  -23.4946   20.5167 C   0  0  0  0  0  0
  -29.2640  -18.6863   22.1785 N   0  0  0  0  0  0
  -29.3571  -19.8110   20.2039 N   0  0  0  0  0  0
  -28.8591  -20.7148   21.1590 N   0  0  0  0  0  0
  -29.8143  -15.8633   20.6479 N   0  0  0  0  0  0
  -29.6405  -23.8580   21.5791 F   0  0  0  0  0  0
  -29.7736  -23.2423   19.5256 F   0  0  0  0  0  0
  -31.4519  -12.6527   19.0754 H   0  0  0  0  0  0
  -30.4643  -11.4737   19.8818 H   0  0  0  0  0  0
  -29.7422  -11.7281   17.4828 H   0  0  0  0  0  0
  -29.5820  -13.4479   17.6754 H   0  0  0  0  0  0
  -27.8430  -11.2865   18.8700 H   0  0  0  0  0  0
  -27.3416  -12.5618   17.8006 H   0  0  0  0  0  0
  -27.6520  -14.2543   19.5147 H   0  0  0  0  0  0
  -28.7451  -12.0651   21.3373 H   0  0  0  0  0  0
  -28.4505  -13.7159   21.8461 H   0  0  0  0  0  0
  -25.2750   -9.5743   22.4783 H   0  0  0  0  0  0
  -24.0038   -7.4646   22.7475 H   0  0  0  0  0  0
  -21.0844   -8.8715   19.8922 H   0  0  0  0  0  0
  -22.3612  -10.9704   19.6178 H   0  0  0  0  0  0
  -21.1929   -7.6130   23.9719 H   0  0  0  0  0  0
  -21.1494   -6.0512   25.9082 H   0  0  0  0  0  0
  -22.0589   -2.7607   23.2812 H   0  0  0  0  0  0
  -22.4060  -11.9990   22.4869 H   0  0  0  0  0  0
  -21.0990  -13.1266   22.2496 H   0  0  0  0  0  0
  -24.6393  -15.8266   20.5375 H   0  0  0  0  0  0
  -26.2454  -15.6334   20.0496 H   0  0  0  0  0  0
  -26.7245  -32.5362   23.0980 H   0  0  0  0  0  0
  -24.9949  -33.9621   25.0197 H   0  0  0  0  0  0
  -22.7332  -31.2930   21.3869 H   0  0  0  0  0  0
  -23.3739  -35.9601   23.3351 H   0  0  0  0  0  0
  -24.3544  -36.8848   22.2054 H   0  0  0  0  0  0
  -23.7261  -37.6453   23.6676 H   0  0  0  0  0  0
  -26.1287  -31.5243   20.6073 H   0  0  0  0  0  0
  -26.8553  -30.8038   22.0075 H   0  0  0  0  0  0
  -28.1389  -28.9043   21.1680 H   0  0  0  0  0  0
  -25.9115  -25.8691   19.0305 H   0  0  0  0  0  0
  -23.9536  -27.2875   19.0464 H   0  0  0  0  0  0
  -23.7586  -30.5645   19.3894 H   0  0  0  0  0  0
  -22.7709  -29.2146   19.8684 H   0  0  0  0  0  0
  -25.1330  -36.1845   25.0786 H   0  0  0  0  0  0
  -20.9978  -28.3272   24.1341 H   0  0  0  0  0  0
  -20.5655  -26.2342   23.3703 H   0  0  0  0  0  0
  -21.6660  -26.7344   22.1240 H   0  0  0  0  0  0
  -19.6957  -25.6237   21.1273 H   0  0  0  0  0  0
  -19.6660  -27.3117   20.6717 H   0  0  0  0  0  0
  -17.4180  -26.6523   21.4082 H   0  0  0  0  0  0
  -18.0322  -25.9972   22.9046 H   0  0  0  0  0  0
  -19.7852  -30.7307   24.2189 H   0  0  0  0  0  0
  -17.4913  -31.6218   24.5033 H   0  0  0  0  0  0
  -15.5300  -30.2881   23.7623 H   0  0  0  0  0  0
  -15.8658  -28.0695   22.7139 H   0  0  0  0  0  0
  -24.5831  -30.7192   25.7602 H   0  0  0  0  0  0
  -24.8887  -32.2992   26.4661 H   0  0  0  0  0  0
  -25.7882  -30.8958   27.0151 H   0  0  0  0  0  0
  -26.2986  -29.6698   24.1201 H   0  0  0  0  0  0
  -27.3930  -29.7255   25.4819 H   0  0  0  0  0  0
  -27.8911  -30.4180   23.9574 H   0  0  0  0  0  0
  -27.2519  -33.3654   26.2029 H   0  0  0  0  0  0
  -28.3842  -32.6944   25.0358 H   0  0  0  0  0  0
  -28.0645  -31.8520   26.5457 H   0  0  0  0  0  0
  -28.2586  -38.0062   24.7472 H   0  0  0  0  0  0
  -28.1035  -36.2569   24.6360 H   0  0  0  0  0  0
  -27.2251  -37.1522   25.8866 H   0  0  0  0  0  0
  -20.9448  -29.8466   21.6451 H   0  0  0  0  0  0
  -26.0132  -38.2818   24.1395 H   0  0  0  0  0  0
  -28.5050  -20.3264   23.2487 H   0  0  0  0  0  0
  -28.7039  -17.2614   18.4765 H   0  0  0  0  0  0
  -30.2667  -16.5219   18.1021 H   0  0  0  0  0  0
  -30.1422  -18.2603   18.2192 H   0  0  0  0  0  0
  -26.7123  -23.3428   22.0887 H   0  0  0  0  0  0
  -27.9508  -22.5454   23.0135 H   0  0  0  0  0  0
  -26.5732  -21.6300   22.3600 H   0  0  0  0  0  0
  -26.4469  -22.5725   19.5214 H   0  0  0  0  0  0
  -26.5479  -20.8820   19.9304 H   0  0  0  0  0  0
  -27.6831  -21.5536   18.7813 H   0  0  0  0  0  0
  -27.0469  -24.6660   20.5081 H   0  0  0  0  0  0
  -27.8174  -24.6641   18.9830 H   0  0  0  0  0  0
  -31.2045  -17.3800   20.2177 H   0  0  0  0  0  0
  -28.8468  -15.6904   20.8791 H   0  0  0  0  0  0
  1 25  1  0  0  0
  1 30  2  0  0  0
  1 83  1  0  0  0
  2  3  1  0  0  0
  2 25  1  0  0  0
  2 86  1  0  0  0
  2 87  1  0  0  0
  3  4  1  0  0  0
  3 88  1  0  0  0
  3 89  1  0  0  0
  4  5  1  0  0  0
  4 90  1  0  0  0
  4 91  1  0  0  0
  5  6  1  0  0  0
  5 26  1  0  0  0
  5 92  1  0  0  0
  6 25  1  0  0  0
  6 93  1  0  0  0
  6 94  1  0  0  0
  7  8  2  0  0  0
  7 26  1  0  0  0
  7 29  1  0  0  0
  8  9  1  0  0  0
  8 22  1  0  0  0
  9 10  1  0  0  0
  9 27  2  0  0  0
 10 11  2  0  0  0
 10 15  1  0  0  0
 11 12  1  0  0  0
 11 95  1  0  0  0
 12 13  2  0  0  0
 12 96  1  0  0  0
 13 14  1  0  0  0
 13 31  1  0  0  0
 14 15  2  0  0  0
 14 97  1  0  0  0
 15 98  1  0  0  0
 16 17  2  0  0  0
 16 21  1  0  0  0
 16 31  1  0  0  0
 17 18  1  0  0  0
 17 99  1  0  0  0
 18 19  2  0  0  0
 18100  1  0  0  0
 19 20  1  0  0  0
 19 24  1  0  0  0
 20 21  2  0  0  0
 20101  1  0  0  0
 21 23  1  0  0  0
 22 28  1  0  0  0
 22 32  2  0  0  0
 26 27  1  0  0  0
 28102  1  0  0  0
 28103  1  0  0  0
 29104  1  0  0  0
 29105  1  0  0  0
 33 34  1  0  0  0
 33 66  1  0  0  0
 33 70  2  0  0  0
 34 36  1  0  0  0
 34 59  1  0  0  0
 34106  1  0  0  0
 35 44  2  0  0  0
 35 45  1  0  0  0
 35 68  1  0  0  0
 36 56  1  0  0  0
 36107  1  0  0  0
 37 39  1  0  0  0
 37 47  1  0  0  0
 37 66  1  0  0  0
 37108  1  0  0  0
 38 43  2  0  0  0
 38 46  1  0  0  0
 38 47  1  0  0  0
 39 64  1  0  0  0
 39 67  2  0  0  0
 40 52  1  0  0  0
 40 53  2  0  0  0
 40 58  1  0  0  0
 41109  1  0  0  0
 41110  1  0  0  0
 41111  1  0  0  0
 41 48  1  0  0  0
 42 43  1  0  0  0
 42 66  1  0  0  0
 42112  1  0  0  0
 42113  1  0  0  0
 43 44  1  0  0  0
 44114  1  0  0  0
 45 46  2  0  0  0
 45115  1  0  0  0
 46116  1  0  0  0
 47117  1  0  0  0
 47118  1  0  0  0
 48 56  1  0  0  0
 48 65  1  0  0  0
 48119  1  0  0  0
 49 50  1  0  0  0
 49 53  1  0  0  0
 49 64  1  0  0  0
 49120  1  0  0  0
 50 51  1  0  0  0
 50121  1  0  0  0
 50122  1  0  0  0
 51 52  1  0  0  0
 51123  1  0  0  0
 51124  1  0  0  0
 52125  1  0  0  0
 52126  1  0  0  0
 53 54  1  0  0  0
 54 55  2  0  0  0
 54127  1  0  0  0
 55 57  1  0  0  0
 55128  1  0  0  0
 56 69  2  0  0  0
 57 58  2  0  0  0
 57129  1  0  0  0
 58130  1  0  0  0
 59 60  1  0  0  0
 59 61  1  0  0  0
 59 62  1  0  0  0
 60131  1  0  0  0
 60132  1  0  0  0
 60133  1  0  0  0
 61134  1  0  0  0
 61135  1  0  0  0
 61136  1  0  0  0
 62137  1  0  0  0
 62138  1  0  0  0
 62139  1  0  0  0
 63 65  1  0  0  0
 63140  1  0  0  0
 63141  1  0  0  0
 63142  1  0  0  0
 64143  1  0  0  0
 65144  1  0  0  0
 68 76  1  0  0  0
 71 80  2  0  0  0
 71 82  1  0  0  0
 71145  1  0  0  0
 72 77  1  0  0  0
 72 80  1  0  0  0
 72 81  2  0  0  0
 73146  1  0  0  0
 73147  1  0  0  0
 73148  1  0  0  0
 73 77  1  0  0  0
 74149  1  0  0  0
 74150  1  0  0  0
 74151  1  0  0  0
 74 78  1  0  0  0
 75 78  1  0  0  0
 75152  1  0  0  0
 75153  1  0  0  0
 75154  1  0  0  0
 76 79  1  0  0  0
 76155  1  0  0  0
 76156  1  0  0  0
 77 83  1  0  0  0
 77157  1  0  0  0
 78 79  1  0  0  0
 78 82  1  0  0  0
 79 84  1  0  0  0
 79 85  1  0  0  0
 81 82  1  0  0  0
 83158  1  0  0  0
M  ISO  4   1 100  68 101  76 101  83 100
M  END
> <chiral flag>
0

> <version>
0

> <s_m_source_file>
/data/baiqing/PycharmProjects/Reinvent-master-3.2/result/LINK_invent/BTK/process_docking_weight1_custom_sum_contain_oxygen_bond_distance_aromatic_linkinvent_7_9_3/rearranged_h_0064.sdf

> <i_m_source_file_index>
74

> <r_mmod_Potential_Energy-OPLS-2005>
208.363952636719

> <r_mmod_Stretch_Energy-OPLS-2005>
172.294326782227

> <r_mmod_Bend_Energy-OPLS-2005>
209.726760864258

> <r_mmod_Torsional_Energy-OPLS-2005>
268.6748046875

> <r_mmod_Improper_Torsional_Energy-OPLS-2005>
9.97839069366455

> <r_mmod_Van_der_Waal_Energy-OPLS-2005>
128.82373046875

> <r_mmod_Electrostatic_Energy-OPLS-2005>
-448.678649902344

> <r_mmod_Solvation_Energy-OPLS-2005>
-225.426986694336

> <b_mmod_Minimization_Converged-OPLS-2005>
0

> <r_mmod_RMS_Derivative-OPLS-2005>
8.76084899902344

$$$$
80
                    3D
 Structure written by MMmdl.
158166  0  0  1  0            999 V2000
  -30.7916  -14.3176   20.7353 C   0  0  0  0  0  0
  -30.4190  -12.2834   19.3871 C   0  0  0  0  0  0
  -29.4802  -12.5312   18.1926 C   0  0  0  0  0  0
  -28.0074  -12.3810   18.6139 C   0  0  0  0  0  0
  -27.6701  -13.1995   19.8861 C   0  0  2  0  0  0
  -28.7057  -12.9264   20.9990 C   0  0  0  0  0  0
  -25.2624  -13.8165   20.5679 C   0  0  0  0  0  0
  -24.1859  -13.0446   20.9154 C   0  0  0  0  0  0
  -24.6401  -11.6907   20.8725 C   0  0  0  0  0  0
  -23.9061  -10.4297   21.0397 C   0  0  0  0  0  0
  -24.3611   -9.4213   21.9179 C   0  0  0  0  0  0
  -23.6286   -8.2248   22.0753 C   0  0  0  0  0  0
  -22.4271   -8.0283   21.3540 C   0  0  0  0  0  0
  -21.9906   -9.0259   20.4647 C   0  0  0  0  0  0
  -22.7230  -10.2138   20.3053 C   0  0  0  0  0  0
  -21.6854   -6.0734   22.5276 C   0  0  0  0  0  0
  -21.4017   -6.5638   23.8209 C   0  0  0  0  0  0
  -21.3658   -5.6789   24.9172 C   0  0  0  0  0  0
  -21.6043   -4.3054   24.7226 C   0  0  0  0  0  0
  -21.8820   -3.8145   23.4347 C   0  0  0  0  0  0
  -21.9194   -4.6959   22.3402 C   0  0  0  0  0  0
  -22.7879  -13.5239   21.1824 C   0  0  0  0  0  0
  -22.1659   -4.2145   21.0979 F   0  0  0  0  0  0
  -21.5630   -3.4540   25.7740 F   0  0  0  0  0  0
  -30.0561  -13.2066   20.4713 N   0  0  0  0  0  0
  -26.3066  -12.9326   20.3413 N   0  0  0  0  0  0
  -25.9327  -11.6484   20.5774 N   0  0  0  0  0  0
  -22.0526  -12.8228   22.0392 N   0  0  0  0  0  0
  -25.4359  -15.1881   20.4101 N   0  0  0  0  0  0
  -31.7494  -14.6822   20.0421 O   0  0  0  0  0  0
  -21.6636   -6.8878   21.4237 O   0  0  0  0  0  0
  -22.3552  -14.5545   20.6683 O   0  0  0  0  0  0
  -24.6114  -31.8720   23.2142 C   0  0  0  0  0  0
  -25.9024  -32.4845   23.8426 C   0  0  1  0  0  0
  -27.2320  -27.4680   20.0918 C   0  0  0  0  0  0
  -25.5891  -33.8642   24.2361 N   0  0  0  0  0  0
  -23.3979  -30.4962   21.5547 C   0  0  2  0  0  0
  -24.8432  -28.9650   20.1179 C   0  0  0  0  0  0
  -22.7392  -29.4687   22.5023 C   0  0  0  0  0  0
  -18.0263  -28.1382   22.8485 C   0  0  0  0  0  0
  -24.1488  -36.7318   23.2637 C   0  0  0  0  0  0
  -25.9230  -30.8457   21.3629 C   0  0  0  0  0  0
  -26.0005  -29.4801   20.7165 C   0  0  0  0  0  0
  -27.1988  -28.7357   20.7066 C   0  0  0  0  0  0
  -26.0672  -26.9667   19.4748 C   0  0  0  0  0  0
  -24.8691  -27.7040   19.4969 C   0  0  0  0  0  0
  -23.6041  -29.8291   20.1691 C   0  0  0  0  0  0
  -25.4104  -36.3121   24.0345 C   0  0  1  0  0  0
  -20.5853  -28.3666   23.1327 C   0  0  2  0  0  0
  -20.6760  -26.9406   22.5421 C   0  0  0  0  0  0
  -19.5744  -26.6386   21.5217 C   0  0  0  0  0  0
  -18.1913  -26.7925   22.1620 C   0  0  0  0  0  0
  -19.1509  -28.8833   23.2904 C   0  0  0  0  0  0
  -18.9449  -30.1432   23.8924 C   0  0  0  0  0  0
  -17.6458  -30.6588   24.0559 C   0  0  0  0  0  0
  -25.9029  -34.9488   23.5146 C   0  0  0  0  0  0
  -16.5345  -29.9094   23.6324 C   0  0  0  0  0  0
  -16.7255  -28.6508   23.0348 C   0  0  0  0  0  0
  -26.4466  -31.6604   25.0731 C   0  0  0  0  0  0
  -25.3744  -31.3672   26.1487 C   0  0  0  0  0  0
  -27.0295  -30.3060   24.6061 C   0  0  0  0  0  0
  -27.6070  -32.4303   25.7478 C   0  0  0  0  0  0
  -27.5584  -37.1812   24.8470 C   0  0  0  0  0  0
  -21.4125  -29.3037   22.3736 N   0  0  0  0  0  0
  -26.4296  -37.3802   23.9415 N   0  0  0  0  0  0
  -24.6623  -31.0851   22.1031 N   0  0  0  0  0  0
  -23.4174  -28.8225   23.3055 O   0  0  0  0  0  0
  -28.3991  -26.7490   20.0626 O   0  0  0  0  0  0
  -26.5593  -34.8929   22.4708 O   0  0  0  0  0  0
  -23.5315  -32.1463   23.7560 O   0  0  0  0  0  0
  -28.7738  -19.3347   22.6110 C   0  0  0  0  0  0
  -27.4158  -19.6277   20.2923 C   0  0  0  0  0  0
  -28.3764  -18.2201   21.8356 C   0  0  0  0  0  0
  -27.8293  -20.7475   21.0517 C   0  0  0  0  0  0
  -30.9075  -14.5577   23.1338 C   0  0  0  0  0  0
  -28.7595  -16.8072   22.2248 C   0  0  0  0  0  0
  -27.8572  -24.3726   20.4039 C   0  0  0  0  0  0
  -30.1774  -16.4515   21.7442 C   0  0  0  0  0  0
  -28.4589  -25.6622   20.9862 C   0  0  0  0  0  0
  -28.1540  -23.1269   21.2451 C   0  0  0  0  0  0
  -27.6971  -18.3590   20.6718 N   0  0  0  0  0  0
  -28.5054  -20.6045   22.2224 N   0  0  0  0  0  0
  -30.4144  -15.0076   21.8312 N   0  0  0  0  0  0
  -27.5596  -22.0145   20.5831 O   0  0  0  0  0  0
  -31.4604  -12.3957   19.0774 H   0  0  0  0  0  0
  -30.3254  -11.2546   19.7388 H   0  0  0  0  0  0
  -29.7086  -11.8351   17.3843 H   0  0  0  0  0  0
  -29.6472  -13.5319   17.7913 H   0  0  0  0  0  0
  -27.8181  -11.3220   18.7942 H   0  0  0  0  0  0
  -27.3487  -12.6711   17.7939 H   0  0  0  0  0  0
  -27.7345  -14.2551   19.6209 H   0  0  0  0  0  0
  -28.6582  -11.8828   21.3125 H   0  0  0  0  0  0
  -28.4514  -13.5051   21.8877 H   0  0  0  0  0  0
  -25.2761   -9.5685   22.4746 H   0  0  0  0  0  0
  -23.9998   -7.4640   22.7473 H   0  0  0  0  0  0
  -21.0838   -8.8776   19.8955 H   0  0  0  0  0  0
  -22.3693  -10.9673   19.6159 H   0  0  0  0  0  0
  -21.2013   -7.6145   23.9711 H   0  0  0  0  0  0
  -21.1477   -6.0522   25.9072 H   0  0  0  0  0  0
  -22.0604   -2.7609   23.2852 H   0  0  0  0  0  0
  -22.4145  -11.9878   22.4753 H   0  0  0  0  0  0
  -21.1154  -13.1263   22.2627 H   0  0  0  0  0  0
  -24.6746  -15.8472   20.5304 H   0  0  0  0  0  0
  -26.2976  -15.6336   20.1186 H   0  0  0  0  0  0
  -26.7095  -32.5585   23.1192 H   0  0  0  0  0  0
  -25.0052  -33.9812   25.0514 H   0  0  0  0  0  0
  -22.6861  -31.3129   21.4178 H   0  0  0  0  0  0
  -23.3749  -35.9655   23.3322 H   0  0  0  0  0  0
  -24.3586  -36.8917   22.2047 H   0  0  0  0  0  0
  -23.7242  -37.6530   23.6640 H   0  0  0  0  0  0
  -26.0280  -31.6090   20.5909 H   0  0  0  0  0  0
  -26.8132  -30.9042   21.9770 H   0  0  0  0  0  0
  -28.0944  -29.1297   21.1669 H   0  0  0  0  0  0
  -26.0836  -26.0177   18.9612 H   0  0  0  0  0  0
  -23.9832  -27.3052   19.0221 H   0  0  0  0  0  0
  -23.7089  -30.6053   19.4103 H   0  0  0  0  0  0
  -22.7272  -29.2484   19.8758 H   0  0  0  0  0  0
  -25.1275  -36.2003   25.0837 H   0  0  0  0  0  0
  -20.9936  -28.3239   24.1454 H   0  0  0  0  0  0
  -20.5688  -26.2271   23.3607 H   0  0  0  0  0  0
  -21.6628  -26.7473   22.1197 H   0  0  0  0  0  0
  -19.6929  -25.6309   21.1221 H   0  0  0  0  0  0
  -19.6693  -27.3220   20.6767 H   0  0  0  0  0  0
  -17.4189  -26.6676   21.4006 H   0  0  0  0  0  0
  -18.0306  -26.0074   22.9019 H   0  0  0  0  0  0
  -19.7932  -30.7215   24.2329 H   0  0  0  0  0  0
  -17.5025  -31.6278   24.5150 H   0  0  0  0  0  0
  -15.5348  -30.3003   23.7643 H   0  0  0  0  0  0
  -15.8653  -28.0828   22.7071 H   0  0  0  0  0  0
  -24.5940  -30.6991   25.7828 H   0  0  0  0  0  0
  -24.8889  -32.2794   26.4965 H   0  0  0  0  0  0
  -25.8105  -30.8840   27.0237 H   0  0  0  0  0  0
  -26.2821  -29.6802   24.1166 H   0  0  0  0  0  0
  -27.4145  -29.7303   25.4492 H   0  0  0  0  0  0
  -27.8617  -30.4402   23.9144 H   0  0  0  0  0  0
  -27.2733  -33.3609   26.2075 H   0  0  0  0  0  0
  -28.3851  -32.6850   25.0272 H   0  0  0  0  0  0
  -28.0751  -31.8401   26.5364 H   0  0  0  0  0  0
  -28.2612  -38.0099   24.7515 H   0  0  0  0  0  0
  -28.1067  -36.2633   24.6298 H   0  0  0  0  0  0
  -27.2301  -37.1460   25.8872 H   0  0  0  0  0  0
  -20.9301  -29.8758   21.6953 H   0  0  0  0  0  0
  -26.0198  -38.2891   24.1405 H   0  0  0  0  0  0
  -29.3330  -19.2061   23.5271 H   0  0  0  0  0  0
  -26.8755  -19.7545   19.3655 H   0  0  0  0  0  0
  -30.3470  -15.0168   23.9490 H   0  0  0  0  0  0
  -31.9598  -14.8186   23.2571 H   0  0  0  0  0  0
  -30.8135  -13.4760   23.2442 H   0  0  0  0  0  0
  -28.0290  -16.1147   21.8033 H   0  0  0  0  0  0
  -28.6852  -16.7010   23.3080 H   0  0  0  0  0  0
  -28.2451  -24.2233   19.3953 H   0  0  0  0  0  0
  -26.7767  -24.4669   20.3175 H   0  0  0  0  0  0
  -30.9270  -17.0007   22.3160 H   0  0  0  0  0  0
  -30.2869  -16.7874   20.7099 H   0  0  0  0  0  0
  -29.5106  -25.4968   21.2209 H   0  0  0  0  0  0
  -27.9733  -25.9184   21.9302 H   0  0  0  0  0  0
  -27.7444  -23.2357   22.2504 H   0  0  0  0  0  0
  -29.2336  -22.9908   21.3285 H   0  0  0  0  0  0
  1 25  1  0  0  0
  1 30  2  0  0  0
  1 83  1  0  0  0
  2  3  1  0  0  0
  2 25  1  0  0  0
  2 85  1  0  0  0
  2 86  1  0  0  0
  3  4  1  0  0  0
  3 87  1  0  0  0
  3 88  1  0  0  0
  4  5  1  0  0  0
  4 89  1  0  0  0
  4 90  1  0  0  0
  5  6  1  0  0  0
  5 26  1  0  0  0
  5 91  1  0  0  0
  6 25  1  0  0  0
  6 92  1  0  0  0
  6 93  1  0  0  0
  7  8  2  0  0  0
  7 26  1  0  0  0
  7 29  1  0  0  0
  8  9  1  0  0  0
  8 22  1  0  0  0
  9 10  1  0  0  0
  9 27  2  0  0  0
 10 11  2  0  0  0
 10 15  1  0  0  0
 11 12  1  0  0  0
 11 94  1  0  0  0
 12 13  2  0  0  0
 12 95  1  0  0  0
 13 14  1  0  0  0
 13 31  1  0  0  0
 14 15  2  0  0  0
 14 96  1  0  0  0
 15 97  1  0  0  0
 16 17  2  0  0  0
 16 21  1  0  0  0
 16 31  1  0  0  0
 17 18  1  0  0  0
 17 98  1  0  0  0
 18 19  2  0  0  0
 18 99  1  0  0  0
 19 20  1  0  0  0
 19 24  1  0  0  0
 20 21  2  0  0  0
 20100  1  0  0  0
 21 23  1  0  0  0
 22 28  1  0  0  0
 22 32  2  0  0  0
 26 27  1  0  0  0
 28101  1  0  0  0
 28102  1  0  0  0
 29103  1  0  0  0
 29104  1  0  0  0
 33 34  1  0  0  0
 33 66  1  0  0  0
 33 70  2  0  0  0
 34 36  1  0  0  0
 34 59  1  0  0  0
 34105  1  0  0  0
 35 44  2  0  0  0
 35 45  1  0  0  0
 35 68  1  0  0  0
 36 56  1  0  0  0
 36106  1  0  0  0
 37 39  1  0  0  0
 37 47  1  0  0  0
 37 66  1  0  0  0
 37107  1  0  0  0
 38 43  2  0  0  0
 38 46  1  0  0  0
 38 47  1  0  0  0
 39 64  1  0  0  0
 39 67  2  0  0  0
 40 52  1  0  0  0
 40 53  2  0  0  0
 40 58  1  0  0  0
 41108  1  0  0  0
 41109  1  0  0  0
 41110  1  0  0  0
 41 48  1  0  0  0
 42 43  1  0  0  0
 42 66  1  0  0  0
 42111  1  0  0  0
 42112  1  0  0  0
 43 44  1  0  0  0
 44113  1  0  0  0
 45 46  2  0  0  0
 45114  1  0  0  0
 46115  1  0  0  0
 47116  1  0  0  0
 47117  1  0  0  0
 48 56  1  0  0  0
 48 65  1  0  0  0
 48118  1  0  0  0
 49 50  1  0  0  0
 49 53  1  0  0  0
 49 64  1  0  0  0
 49119  1  0  0  0
 50 51  1  0  0  0
 50120  1  0  0  0
 50121  1  0  0  0
 51 52  1  0  0  0
 51122  1  0  0  0
 51123  1  0  0  0
 52124  1  0  0  0
 52125  1  0  0  0
 53 54  1  0  0  0
 54 55  2  0  0  0
 54126  1  0  0  0
 55 57  1  0  0  0
 55127  1  0  0  0
 56 69  2  0  0  0
 57 58  2  0  0  0
 57128  1  0  0  0
 58129  1  0  0  0
 59 60  1  0  0  0
 59 61  1  0  0  0
 59 62  1  0  0  0
 60130  1  0  0  0
 60131  1  0  0  0
 60132  1  0  0  0
 61133  1  0  0  0
 61134  1  0  0  0
 61135  1  0  0  0
 62136  1  0  0  0
 62137  1  0  0  0
 62138  1  0  0  0
 63 65  1  0  0  0
 63139  1  0  0  0
 63140  1  0  0  0
 63141  1  0  0  0
 64142  1  0  0  0
 65143  1  0  0  0
 68 79  1  0  0  0
 71 73  2  0  0  0
 71 82  1  0  0  0
 71144  1  0  0  0
 72 74  1  0  0  0
 72 81  2  0  0  0
 72145  1  0  0  0
 73 76  1  0  0  0
 73 81  1  0  0  0
 74 82  2  0  0  0
 74 84  1  0  0  0
 75 83  1  0  0  0
 75146  1  0  0  0
 75147  1  0  0  0
 75148  1  0  0  0
 76 78  1  0  0  0
 76149  1  0  0  0
 76150  1  0  0  0
 77 79  1  0  0  0
 77 80  1  0  0  0
 77151  1  0  0  0
 77152  1  0  0  0
 78 83  1  0  0  0
 78153  1  0  0  0
 78154  1  0  0  0
 79155  1  0  0  0
 79156  1  0  0  0
 80 84  1  0  0  0
 80157  1  0  0  0
 80158  1  0  0  0
M  ISO  4   1 100  68 101  79 101  83 100
M  END
> <chiral flag>
0

> <version>
0

> <s_m_source_file>
/data/baiqing/PycharmProjects/Reinvent-master-3.2/result/LINK_invent/BTK/process_docking_weight1_custom_sum_contain_oxygen_bond_distance_aromatic_linkinvent_7_9_3/rearranged_h_0064.sdf

> <i_m_source_file_index>
75

> <r_mmod_Potential_Energy-OPLS-2005>
139.850631713867

> <r_mmod_Stretch_Energy-OPLS-2005>
33.6597061157227

> <r_mmod_Bend_Energy-OPLS-2005>
90.9107666015625

> <r_mmod_Torsional_Energy-OPLS-2005>
281.090881347656

> <r_mmod_Improper_Torsional_Energy-OPLS-2005>
4.1110782623291

> <r_mmod_Van_der_Waal_Energy-OPLS-2005>
159.757278442383

> <r_mmod_Electrostatic_Energy-OPLS-2005>
-239.485763549805

> <r_mmod_Solvation_Energy-OPLS-2005>
-197.558395385742

> <b_mmod_Minimization_Converged-OPLS-2005>
0

> <r_mmod_RMS_Derivative-OPLS-2005>
1.50102531909943

$$$$
82
                    3D
 Structure written by MMmdl.
164172  0  0  1  0            999 V2000
  -30.4992  -15.0924   20.3811 C   0  0  0  0  0  0
  -30.4286  -12.6778   19.5362 C   0  0  0  0  0  0
  -29.5347  -12.5919   18.2779 C   0  0  0  0  0  0
  -28.0639  -12.3548   18.6700 C   0  0  0  0  0  0
  -27.6193  -13.2772   19.8370 C   0  0  2  0  0  0
  -28.6543  -13.3584   20.9813 C   0  0  0  0  0  0
  -25.2374  -13.8279   20.5704 C   0  0  0  0  0  0
  -24.1729  -13.0462   20.9225 C   0  0  0  0  0  0
  -24.6383  -11.6954   20.8728 C   0  0  0  0  0  0
  -23.9081  -10.4302   21.0375 C   0  0  0  0  0  0
  -24.3630   -9.4233   21.9169 C   0  0  0  0  0  0
  -23.6291   -8.2277   22.0763 C   0  0  0  0  0  0
  -22.4289   -8.0296   21.3539 C   0  0  0  0  0  0
  -21.9914   -9.0263   20.4637 C   0  0  0  0  0  0
  -22.7252  -10.2140   20.3027 C   0  0  0  0  0  0
  -21.6871   -6.0737   22.5274 C   0  0  0  0  0  0
  -21.4031   -6.5619   23.8211 C   0  0  0  0  0  0
  -21.3687   -5.6769   24.9174 C   0  0  0  0  0  0
  -21.6071   -4.3026   24.7221 C   0  0  0  0  0  0
  -21.8810   -3.8140   23.4327 C   0  0  0  0  0  0
  -21.9195   -4.6964   22.3395 C   0  0  0  0  0  0
  -22.7736  -13.5220   21.1867 C   0  0  0  0  0  0
  -22.1644   -4.2143   21.0973 F   0  0  0  0  0  0
  -21.5654   -3.4517   25.7739 F   0  0  0  0  0  0
  -29.9191  -13.8069   20.3853 N   0  0  0  0  0  0
  -26.2816  -12.9561   20.3212 N   0  0  0  0  0  0
  -25.9330  -11.6651   20.5688 N   0  0  0  0  0  0
  -22.0359  -12.8237   22.0416 N   0  0  0  0  0  0
  -25.3982  -15.2036   20.4137 N   0  0  0  0  0  0
  -31.6972  -15.1006   20.0781 O   0  0  0  0  0  0
  -21.6669   -6.8887   21.4236 O   0  0  0  0  0  0
  -22.3417  -14.5511   20.6690 O   0  0  0  0  0  0
  -24.6515  -31.8339   23.1817 C   0  0  0  0  0  0
  -25.9256  -32.4626   23.8228 C   0  0  1  0  0  0
  -27.2043  -27.0527   20.1797 C   0  0  0  0  0  0
  -25.5991  -33.8438   24.2152 N   0  0  0  0  0  0
  -23.4560  -30.4519   21.5262 C   0  0  2  0  0  0
  -24.8997  -28.8549   20.1018 C   0  0  0  0  0  0
  -22.7601  -29.4495   22.4819 C   0  0  0  0  0  0
  -18.0313  -28.1371   22.8477 C   0  0  0  0  0  0
  -24.1483  -36.7239   23.2647 C   0  0  0  0  0  0
  -26.0123  -30.6844   21.3848 C   0  0  0  0  0  0
  -26.0747  -29.2877   20.7272 C   0  0  0  0  0  0
  -27.2204  -28.4039   20.7384 C   0  0  0  0  0  0
  -26.0072  -26.7258   19.5093 C   0  0  0  0  0  0
  -24.8847  -27.5944   19.4762 C   0  0  0  0  0  0
  -23.6838  -29.7748   20.1443 C   0  0  0  0  0  0
  -25.4123  -36.3003   24.0303 C   0  0  1  0  0  0
  -20.5933  -28.3723   23.1210 C   0  0  2  0  0  0
  -20.6801  -26.9418   22.5406 C   0  0  0  0  0  0
  -19.5771  -26.6355   21.5228 C   0  0  0  0  0  0
  -18.1943  -26.7918   22.1616 C   0  0  0  0  0  0
  -19.1572  -28.8870   23.2834 C   0  0  0  0  0  0
  -18.9483  -30.1469   23.8854 C   0  0  0  0  0  0
  -17.6479  -30.6570   24.0557 C   0  0  0  0  0  0
  -25.9074  -34.9363   23.5033 C   0  0  0  0  0  0
  -16.5372  -29.9049   23.6342 C   0  0  0  0  0  0
  -16.7298  -28.6471   23.0364 C   0  0  0  0  0  0
  -26.4537  -31.6540   25.0718 C   0  0  0  0  0  0
  -25.3728  -31.3776   26.1438 C   0  0  0  0  0  0
  -27.0417  -30.2930   24.6353 C   0  0  0  0  0  0
  -27.6036  -32.4321   25.7530 C   0  0  0  0  0  0
  -27.5563  -37.1790   24.8455 C   0  0  0  0  0  0
  -21.4288  -29.3035   22.3568 N   0  0  0  0  0  0
  -26.4280  -37.3726   23.9393 N   0  0  0  0  0  0
  -24.7271  -31.0149   22.0857 N   0  0  0  0  0  0
  -23.4211  -28.8071   23.3005 O   0  0  0  0  0  0
  -28.2727  -26.0896   20.3759 O   0  0  0  0  0  0
  -26.5643  -34.8868   22.4601 O   0  0  0  0  0  0
  -23.5622  -32.1221   23.7022 O   0  0  0  0  0  0
  -29.2664  -19.3071   20.4516 C   0  0  0  0  0  0
  -29.2218  -21.1201   21.6668 C   0  0  0  0  0  0
  -30.8448  -22.2607   23.2668 C   0  0  0  0  0  0
  -31.3353  -18.1348   19.6105 C   0  0  0  0  0  0
  -29.1652  -17.6387   18.4948 C   0  0  0  0  0  0
  -27.2907  -22.7692   18.7371 C   0  0  0  0  0  0
  -26.6887  -23.0949   21.1112 C   0  0  0  0  0  0
  -29.3804  -21.9929   22.8844 C   0  0  0  0  0  0
  -28.5855  -24.5578   20.0418 C   0  0  0  0  0  0
  -29.8450  -17.8276   19.8682 C   0  0  0  0  0  0
  -27.8903  -22.9805   20.1449 C   0  0  0  0  0  0
  -29.5795  -19.8011   21.6955 N   0  0  0  0  0  0
  -28.7369  -20.3694   19.7075 N   0  0  0  0  0  0
  -28.6710  -21.5755   20.5071 N   0  0  0  0  0  0
  -29.7387  -16.3277   20.5020 N   0  0  0  0  0  0
  -31.4656  -12.8251   19.2308 H   0  0  0  0  0  0
  -30.4227  -11.7358   20.0872 H   0  0  0  0  0  0
  -29.8816  -11.8094   17.6038 H   0  0  0  0  0  0
  -29.6146  -13.5305   17.7256 H   0  0  0  0  0  0
  -27.9508  -11.3060   18.9480 H   0  0  0  0  0  0
  -27.4220  -12.5139   17.8043 H   0  0  0  0  0  0
  -27.5589  -14.2753   19.4026 H   0  0  0  0  0  0
  -28.7658  -12.3951   21.4822 H   0  0  0  0  0  0
  -28.3248  -14.0709   21.7391 H   0  0  0  0  0  0
  -25.2771   -9.5729   22.4767 H   0  0  0  0  0  0
  -24.0010   -7.4682   22.7490 H   0  0  0  0  0  0
  -21.0876   -8.8759   19.8926 H   0  0  0  0  0  0
  -22.3705  -10.9665   19.6140 H   0  0  0  0  0  0
  -21.2001   -7.6121   23.9712 H   0  0  0  0  0  0
  -21.1536   -6.0498   25.9078 H   0  0  0  0  0  0
  -22.0568   -2.7589   23.2837 H   0  0  0  0  0  0
  -22.3926  -11.9931   22.4896 H   0  0  0  0  0  0
  -21.0959  -13.1295   22.2540 H   0  0  0  0  0  0
  -24.6240  -15.8520   20.5138 H   0  0  0  0  0  0
  -26.2464  -15.6473   20.0849 H   0  0  0  0  0  0
  -26.7326  -32.5176   23.0947 H   0  0  0  0  0  0
  -25.0231  -33.9541   25.0369 H   0  0  0  0  0  0
  -22.7659  -31.2826   21.3698 H   0  0  0  0  0  0
  -23.3754  -35.9565   23.3271 H   0  0  0  0  0  0
  -24.3587  -36.8920   22.2079 H   0  0  0  0  0  0
  -23.7218  -37.6405   23.6720 H   0  0  0  0  0  0
  -26.1781  -31.4332   20.6086 H   0  0  0  0  0  0
  -26.8811  -30.7362   22.0292 H   0  0  0  0  0  0
  -28.1158  -28.7300   21.2490 H   0  0  0  0  0  0
  -25.9058  -25.7489   19.0611 H   0  0  0  0  0  0
  -23.9819  -27.2616   18.9840 H   0  0  0  0  0  0
  -23.8345  -30.5491   19.3912 H   0  0  0  0  0  0
  -22.7911  -29.2298   19.8291 H   0  0  0  0  0  0
  -25.1327  -36.1831   25.0796 H   0  0  0  0  0  0
  -21.0035  -28.3333   24.1332 H   0  0  0  0  0  0
  -20.5721  -26.2353   23.3648 H   0  0  0  0  0  0
  -21.6658  -26.7417   22.1195 H   0  0  0  0  0  0
  -19.6931  -25.6257   21.1278 H   0  0  0  0  0  0
  -19.6699  -27.3151   20.6748 H   0  0  0  0  0  0
  -17.4243  -26.6717   21.3974 H   0  0  0  0  0  0
  -18.0287  -26.0028   22.8970 H   0  0  0  0  0  0
  -19.7960  -30.7299   24.2183 H   0  0  0  0  0  0
  -17.5022  -31.6248   24.5167 H   0  0  0  0  0  0
  -15.5367  -30.2932   23.7676 H   0  0  0  0  0  0
  -15.8706  -28.0766   22.7097 H   0  0  0  0  0  0
  -24.5864  -30.7152   25.7810 H   0  0  0  0  0  0
  -24.8979  -32.2981   26.4837 H   0  0  0  0  0  0
  -25.8024  -30.8980   27.0245 H   0  0  0  0  0  0
  -26.3045  -29.6630   24.1361 H   0  0  0  0  0  0
  -27.4018  -29.7259   25.4950 H   0  0  0  0  0  0
  -27.8954  -30.4165   23.9687 H   0  0  0  0  0  0
  -27.2596  -33.3638   26.2026 H   0  0  0  0  0  0
  -28.3906  -32.6846   25.0420 H   0  0  0  0  0  0
  -28.0623  -31.8503   26.5532 H   0  0  0  0  0  0
  -28.2568  -38.0096   24.7499 H   0  0  0  0  0  0
  -28.1065  -36.2622   24.6288 H   0  0  0  0  0  0
  -27.2274  -37.1444   25.8855 H   0  0  0  0  0  0
  -20.9531  -29.8740   21.6720 H   0  0  0  0  0  0
  -26.0133  -38.2792   24.1382 H   0  0  0  0  0  0
  -30.9110  -22.9135   24.1395 H   0  0  0  0  0  0
  -31.3781  -22.7519   22.4532 H   0  0  0  0  0  0
  -31.3760  -21.3370   23.5038 H   0  0  0  0  0  0
  -31.4512  -19.0699   19.0571 H   0  0  0  0  0  0
  -31.8414  -17.3686   19.0254 H   0  0  0  0  0  0
  -31.8672  -18.2604   20.5549 H   0  0  0  0  0  0
  -29.2938  -18.5088   17.8500 H   0  0  0  0  0  0
  -28.0923  -17.4796   18.6109 H   0  0  0  0  0  0
  -29.5650  -16.7823   17.9503 H   0  0  0  0  0  0
  -26.6928  -23.6251   18.4221 H   0  0  0  0  0  0
  -26.6433  -21.8931   18.6977 H   0  0  0  0  0  0
  -28.0771  -22.6406   17.9916 H   0  0  0  0  0  0
  -25.8659  -23.6576   20.6672 H   0  0  0  0  0  0
  -26.9499  -23.6095   22.0345 H   0  0  0  0  0  0
  -26.2940  -22.1144   21.3804 H   0  0  0  0  0  0
  -28.8556  -21.5225   23.7179 H   0  0  0  0  0  0
  -28.8933  -22.9510   22.7293 H   0  0  0  0  0  0
  -29.0616  -24.6131   19.0620 H   0  0  0  0  0  0
  -29.4321  -24.4274   20.7122 H   0  0  0  0  0  0
  -28.8232  -16.1647   20.8931 H   0  0  0  0  0  0
  1 25  1  0  0  0
  1 30  2  0  0  0
  1 85  1  0  0  0
  2  3  1  0  0  0
  2 25  1  0  0  0
  2 86  1  0  0  0
  2 87  1  0  0  0
  3  4  1  0  0  0
  3 88  1  0  0  0
  3 89  1  0  0  0
  4  5  1  0  0  0
  4 90  1  0  0  0
  4 91  1  0  0  0
  5  6  1  0  0  0
  5 26  1  0  0  0
  5 92  1  0  0  0
  6 25  1  0  0  0
  6 93  1  0  0  0
  6 94  1  0  0  0
  7  8  2  0  0  0
  7 26  1  0  0  0
  7 29  1  0  0  0
  8  9  1  0  0  0
  8 22  1  0  0  0
  9 10  1  0  0  0
  9 27  2  0  0  0
 10 11  2  0  0  0
 10 15  1  0  0  0
 11 12  1  0  0  0
 11 95  1  0  0  0
 12 13  2  0  0  0
 12 96  1  0  0  0
 13 14  1  0  0  0
 13 31  1  0  0  0
 14 15  2  0  0  0
 14 97  1  0  0  0
 15 98  1  0  0  0
 16 17  2  0  0  0
 16 21  1  0  0  0
 16 31  1  0  0  0
 17 18  1  0  0  0
 17 99  1  0  0  0
 18 19  2  0  0  0
 18100  1  0  0  0
 19 20  1  0  0  0
 19 24  1  0  0  0
 20 21  2  0  0  0
 20101  1  0  0  0
 21 23  1  0  0  0
 22 28  1  0  0  0
 22 32  2  0  0  0
 26 27  1  0  0  0
 28102  1  0  0  0
 28103  1  0  0  0
 29104  1  0  0  0
 29105  1  0  0  0
 33 34  1  0  0  0
 33 66  1  0  0  0
 33 70  2  0  0  0
 34 36  1  0  0  0
 34 59  1  0  0  0
 34106  1  0  0  0
 35 44  2  0  0  0
 35 45  1  0  0  0
 35 68  1  0  0  0
 36 56  1  0  0  0
 36107  1  0  0  0
 37 39  1  0  0  0
 37 47  1  0  0  0
 37 66  1  0  0  0
 37108  1  0  0  0
 38 43  2  0  0  0
 38 46  1  0  0  0
 38 47  1  0  0  0
 39 64  1  0  0  0
 39 67  2  0  0  0
 40 52  1  0  0  0
 40 53  2  0  0  0
 40 58  1  0  0  0
 41109  1  0  0  0
 41110  1  0  0  0
 41111  1  0  0  0
 41 48  1  0  0  0
 42 43  1  0  0  0
 42 66  1  0  0  0
 42112  1  0  0  0
 42113  1  0  0  0
 43 44  1  0  0  0
 44114  1  0  0  0
 45 46  2  0  0  0
 45115  1  0  0  0
 46116  1  0  0  0
 47117  1  0  0  0
 47118  1  0  0  0
 48 56  1  0  0  0
 48 65  1  0  0  0
 48119  1  0  0  0
 49 50  1  0  0  0
 49 53  1  0  0  0
 49 64  1  0  0  0
 49120  1  0  0  0
 50 51  1  0  0  0
 50121  1  0  0  0
 50122  1  0  0  0
 51 52  1  0  0  0
 51123  1  0  0  0
 51124  1  0  0  0
 52125  1  0  0  0
 52126  1  0  0  0
 53 54  1  0  0  0
 54 55  2  0  0  0
 54127  1  0  0  0
 55 57  1  0  0  0
 55128  1  0  0  0
 56 69  2  0  0  0
 57 58  2  0  0  0
 57129  1  0  0  0
 58130  1  0  0  0
 59 60  1  0  0  0
 59 61  1  0  0  0
 59 62  1  0  0  0
 60131  1  0  0  0
 60132  1  0  0  0
 60133  1  0  0  0
 61134  1  0  0  0
 61135  1  0  0  0
 61136  1  0  0  0
 62137  1  0  0  0
 62138  1  0  0  0
 62139  1  0  0  0
 63 65  1  0  0  0
 63140  1  0  0  0
 63141  1  0  0  0
 63142  1  0  0  0
 64143  1  0  0  0
 65144  1  0  0  0
 68 79  1  0  0  0
 71 80  1  0  0  0
 71 82  1  0  0  0
 71 83  2  0  0  0
 72 78  1  0  0  0
 72 82  2  0  0  0
 72 84  1  0  0  0
 73 78  1  0  0  0
 73145  1  0  0  0
 73146  1  0  0  0
 73147  1  0  0  0
 74148  1  0  0  0
 74149  1  0  0  0
 74150  1  0  0  0
 74 80  1  0  0  0
 75 80  1  0  0  0
 75151  1  0  0  0
 75152  1  0  0  0
 75153  1  0  0  0
 76154  1  0  0  0
 76155  1  0  0  0
 76156  1  0  0  0
 76 81  1  0  0  0
 77 81  1  0  0  0
 77157  1  0  0  0
 77158  1  0  0  0
 77159  1  0  0  0
 78160  1  0  0  0
 78161  1  0  0  0
 79 81  1  0  0  0
 79162  1  0  0  0
 79163  1  0  0  0
 80 85  1  0  0  0
 81 84  1  0  0  0
 83 84  1  0  0  0
 85164  1  0  0  0
M  ISO  4   1 100  68 101  79 101  85 100
M  END
> <chiral flag>
0

> <version>
0

> <s_m_source_file>
/data/baiqing/PycharmProjects/Reinvent-master-3.2/result/LINK_invent/BTK/process_docking_weight1_custom_sum_contain_oxygen_bond_distance_aromatic_linkinvent_7_9_3/rearranged_h_0064.sdf

> <i_m_source_file_index>
76

> <r_mmod_Potential_Energy-OPLS-2005>
776.096740722656

> <r_mmod_Stretch_Energy-OPLS-2005>
387.905944824219

> <r_mmod_Bend_Energy-OPLS-2005>
438.998504638672

> <r_mmod_Torsional_Energy-OPLS-2005>
241.503128051758

> <r_mmod_Improper_Torsional_Energy-OPLS-2005>
9.08075046539307

> <r_mmod_Van_der_Waal_Energy-OPLS-2005>
104.069931030273

> <r_mmod_Electrostatic_Energy-OPLS-2005>
-475.379943847656

> <r_mmod_Solvation_Energy-OPLS-2005>
-217.73518371582

> <b_mmod_Minimization_Converged-OPLS-2005>
0

> <r_mmod_RMS_Derivative-OPLS-2005>
3.72649073600769

$$$$
83
                    3D
 Structure written by MMmdl.
153161  0  0  1  0            999 V2000
  -30.5511  -15.0252   20.4380 C   0  0  0  0  0  0
  -30.4395  -12.6449   19.5083 C   0  0  0  0  0  0
  -29.5227  -12.4854   18.2720 C   0  0  0  0  0  0
  -28.0628  -12.2719   18.7033 C   0  0  0  0  0  0
  -27.6269  -13.2405   19.8321 C   0  0  2  0  0  0
  -28.6709  -13.3153   20.9688 C   0  0  0  0  0  0
  -25.2476  -13.8200   20.5757 C   0  0  0  0  0  0
  -24.1757  -13.0488   20.9237 C   0  0  0  0  0  0
  -24.6341  -11.6962   20.8777 C   0  0  0  0  0  0
  -23.9015  -10.4336   21.0425 C   0  0  0  0  0  0
  -24.3570   -9.4251   21.9199 C   0  0  0  0  0  0
  -23.6261   -8.2272   22.0761 C   0  0  0  0  0  0
  -22.4257   -8.0268   21.3543 C   0  0  0  0  0  0
  -21.9890   -9.0253   20.4664 C   0  0  0  0  0  0
  -22.7191  -10.2145   20.3080 C   0  0  0  0  0  0
  -21.6840   -6.0726   22.5279 C   0  0  0  0  0  0
  -21.3999   -6.5639   23.8213 C   0  0  0  0  0  0
  -21.3688   -5.6782   24.9183 C   0  0  0  0  0  0
  -21.6048   -4.3039   24.7242 C   0  0  0  0  0  0
  -21.8801   -3.8143   23.4362 C   0  0  0  0  0  0
  -21.9194   -4.6956   22.3406 C   0  0  0  0  0  0
  -22.7764  -13.5296   21.1814 C   0  0  0  0  0  0
  -22.1659   -4.2150   21.0978 F   0  0  0  0  0  0
  -21.5656   -3.4522   25.7763 F   0  0  0  0  0  0
  -29.9314  -13.7690   20.3600 N   0  0  0  0  0  0
  -26.2866  -12.9424   20.3260 N   0  0  0  0  0  0
  -25.9280  -11.6577   20.5806 N   0  0  0  0  0  0
  -22.0309  -12.8388   22.0355 N   0  0  0  0  0  0
  -25.4217  -15.1890   20.4128 N   0  0  0  0  0  0
  -31.7593  -15.0327   20.1670 O   0  0  0  0  0  0
  -21.6631   -6.8847   21.4230 O   0  0  0  0  0  0
  -22.3528  -14.5601   20.6591 O   0  0  0  0  0  0
  -24.6520  -31.8367   23.1767 C   0  0  0  0  0  0
  -25.9259  -32.4617   23.8231 C   0  0  1  0  0  0
  -27.2427  -27.0685   20.1918 C   0  0  0  0  0  0
  -25.6032  -33.8443   24.2215 N   0  0  0  0  0  0
  -23.4636  -30.4480   21.5171 C   0  0  2  0  0  0
  -24.9187  -28.8543   20.1084 C   0  0  0  0  0  0
  -22.7616  -29.4502   22.4756 C   0  0  0  0  0  0
  -18.0356  -28.1322   22.8508 C   0  0  0  0  0  0
  -24.1493  -36.7184   23.2660 C   0  0  0  0  0  0
  -26.0174  -30.6882   21.3881 C   0  0  0  0  0  0
  -26.0908  -29.2877   20.7425 C   0  0  0  0  0  0
  -27.2455  -28.4100   20.7729 C   0  0  0  0  0  0
  -26.0512  -26.7545   19.4993 C   0  0  0  0  0  0
  -24.9145  -27.6034   19.4686 C   0  0  0  0  0  0
  -23.6982  -29.7685   20.1384 C   0  0  0  0  0  0
  -25.4117  -36.2996   24.0351 C   0  0  1  0  0  0
  -20.5973  -28.3704   23.1175 C   0  0  2  0  0  0
  -20.6812  -26.9377   22.5383 C   0  0  0  0  0  0
  -19.5764  -26.6344   21.5201 C   0  0  0  0  0  0
  -18.1975  -26.7877   22.1613 C   0  0  0  0  0  0
  -19.1614  -28.8823   23.2834 C   0  0  0  0  0  0
  -18.9509  -30.1424   23.8840 C   0  0  0  0  0  0
  -17.6501  -30.6534   24.0557 C   0  0  0  0  0  0
  -25.9079  -34.9372   23.5099 C   0  0  0  0  0  0
  -16.5399  -29.9034   23.6320 C   0  0  0  0  0  0
  -16.7339  -28.6431   23.0393 C   0  0  0  0  0  0
  -26.4621  -31.6448   25.0648 C   0  0  0  0  0  0
  -25.3853  -31.3550   26.1363 C   0  0  0  0  0  0
  -27.0528  -30.2874   24.6170 C   0  0  0  0  0  0
  -27.6169  -32.4211   25.7405 C   0  0  0  0  0  0
  -27.5575  -37.1740   24.8509 C   0  0  0  0  0  0
  -21.4302  -29.3032   22.3511 N   0  0  0  0  0  0
  -26.4281  -37.3709   23.9437 N   0  0  0  0  0  0
  -24.7313  -31.0180   22.0810 N   0  0  0  0  0  0
  -23.4238  -28.8111   23.2968 O   0  0  0  0  0  0
  -28.2985  -26.0616   20.2866 O   0  0  0  0  0  0
  -26.5629  -34.8918   22.4650 O   0  0  0  0  0  0
  -23.5625  -32.1264   23.6917 O   0  0  0  0  0  0
  -27.7744  -20.8177   20.8265 C   0  0  0  0  0  0
  -28.0273  -19.4413   20.8910 C   0  0  0  0  0  0
  -29.4300  -19.2225   20.6770 C   0  0  0  0  0  0
  -27.0277  -18.3486   21.1709 C   0  0  0  0  0  0
  -29.1508  -23.1848   20.5553 C   0  0  0  0  0  0
  -28.0984  -24.4898   20.1177 C   0  0  0  0  0  0
  -30.3437  -17.7916   20.7152 C   0  0  1  0  0  0
  -31.2989  -17.8177   21.9561 C   0  0  0  0  0  0
  -29.9084  -20.5394   20.4716 N   0  0  0  0  0  0
  -28.9116  -21.5760   20.5510 N   0  0  0  0  0  0
  -29.8414  -16.2650   20.6059 N   0  0  0  0  0  0
  -32.4844  -17.2865   21.6532 F   0  0  0  0  0  0
  -31.5451  -19.0529   22.3914 F   0  0  0  0  0  0
  -30.7777  -17.1196   22.9716 F   0  0  0  0  0  0
  -30.4845  -11.7174   20.0766 H   0  0  0  0  0  0
  -31.4633  -12.8191   19.1763 H   0  0  0  0  0  0
  -29.8509  -11.6216   17.6935 H   0  0  0  0  0  0
  -29.6127  -13.3516   17.6178 H   0  0  0  0  0  0
  -27.9895  -11.2396   19.0529 H   0  0  0  0  0  0
  -27.4004  -12.3482   17.8421 H   0  0  0  0  0  0
  -27.5855  -14.2223   19.3646 H   0  0  0  0  0  0
  -28.7964  -12.3384   21.4400 H   0  0  0  0  0  0
  -28.3512  -14.0095   21.7466 H   0  0  0  0  0  0
  -25.2684   -9.5763   22.4825 H   0  0  0  0  0  0
  -23.9978   -7.4653   22.7484 H   0  0  0  0  0  0
  -21.0831   -8.8728   19.8978 H   0  0  0  0  0  0
  -22.3590  -10.9676   19.6214 H   0  0  0  0  0  0
  -21.1978   -7.6147   23.9728 H   0  0  0  0  0  0
  -21.1525   -6.0515   25.9080 H   0  0  0  0  0  0
  -22.0573   -2.7617   23.2842 H   0  0  0  0  0  0
  -22.3857  -12.0144   22.4968 H   0  0  0  0  0  0
  -21.0926  -13.1523   22.2413 H   0  0  0  0  0  0
  -24.6595  -15.8549   20.4910 H   0  0  0  0  0  0
  -26.2730  -15.5871   20.0439 H   0  0  0  0  0  0
  -26.7339  -32.5241   23.0963 H   0  0  0  0  0  0
  -25.0359  -33.9515   25.0507 H   0  0  0  0  0  0
  -22.7723  -31.2786   21.3493 H   0  0  0  0  0  0
  -23.3786  -35.9483   23.3301 H   0  0  0  0  0  0
  -24.3606  -36.8796   22.2080 H   0  0  0  0  0  0
  -23.7184  -37.6364   23.6669 H   0  0  0  0  0  0
  -26.1921  -31.4321   20.6097 H   0  0  0  0  0  0
  -26.8820  -30.7401   22.0324 H   0  0  0  0  0  0
  -28.1264  -28.7318   21.3098 H   0  0  0  0  0  0
  -25.9814  -25.8028   18.9934 H   0  0  0  0  0  0
  -24.0274  -27.2668   18.9520 H   0  0  0  0  0  0
  -23.8453  -30.5413   19.3808 H   0  0  0  0  0  0
  -22.8157  -29.2111   19.8253 H   0  0  0  0  0  0
  -25.1281  -36.1867   25.0835 H   0  0  0  0  0  0
  -21.0110  -28.3311   24.1272 H   0  0  0  0  0  0
  -20.5670  -26.2329   23.3627 H   0  0  0  0  0  0
  -21.6688  -26.7336   22.1176 H   0  0  0  0  0  0
  -19.6923  -25.6275   21.1200 H   0  0  0  0  0  0
  -19.6661  -27.3186   20.6752 H   0  0  0  0  0  0
  -17.4241  -26.6700   21.4011 H   0  0  0  0  0  0
  -18.0310  -25.9977   22.8947 H   0  0  0  0  0  0
  -19.8001  -30.7273   24.2159 H   0  0  0  0  0  0
  -17.5055  -31.6214   24.5160 H   0  0  0  0  0  0
  -15.5392  -30.2919   23.7584 H   0  0  0  0  0  0
  -15.8760  -28.0689   22.7135 H   0  0  0  0  0  0
  -24.6136  -30.6772   25.7691 H   0  0  0  0  0  0
  -24.8918  -32.2644   26.4788 H   0  0  0  0  0  0
  -25.8197  -30.8790   27.0161 H   0  0  0  0  0  0
  -26.3153  -29.6494   24.1260 H   0  0  0  0  0  0
  -27.4335  -29.7245   25.4703 H   0  0  0  0  0  0
  -27.8972  -30.4146   23.9378 H   0  0  0  0  0  0
  -27.2826  -33.3599   26.1831 H   0  0  0  0  0  0
  -28.3995  -32.6578   25.0182 H   0  0  0  0  0  0
  -28.0795  -31.8411   26.5391 H   0  0  0  0  0  0
  -28.2610  -38.0038   24.7580 H   0  0  0  0  0  0
  -28.1062  -36.2561   24.6314 H   0  0  0  0  0  0
  -27.2309  -37.1366   25.8930 H   0  0  0  0  0  0
  -20.9519  -29.8733   21.6676 H   0  0  0  0  0  0
  -26.0174  -38.2800   24.1418 H   0  0  0  0  0  0
  -26.8391  -21.3351   20.9838 H   0  0  0  0  0  0
  -27.1129  -17.9603   22.1900 H   0  0  0  0  0  0
  -27.1753  -17.4973   20.5047 H   0  0  0  0  0  0
  -25.9941  -18.6792   21.0339 H   0  0  0  0  0  0
  -29.4291  -23.4111   21.5829 H   0  0  0  0  0  0
  -30.0752  -23.3337   19.9936 H   0  0  0  0  0  0
  -27.1457  -24.2724   20.5952 H   0  0  0  0  0  0
  -27.9269  -24.3651   19.0508 H   0  0  0  0  0  0
  -31.0118  -17.8983   19.8589 H   0  0  0  0  0  0
  -28.8472  -16.1689   20.7423 H   0  0  0  0  0  0
  1 25  1  0  0  0
  1 30  2  0  0  0
  1 81  1  0  0  0
  2  3  1  0  0  0
  2 25  1  0  0  0
  2 85  1  0  0  0
  2 86  1  0  0  0
  3  4  1  0  0  0
  3 87  1  0  0  0
  3 88  1  0  0  0
  4  5  1  0  0  0
  4 89  1  0  0  0
  4 90  1  0  0  0
  5  6  1  0  0  0
  5 26  1  0  0  0
  5 91  1  0  0  0
  6 25  1  0  0  0
  6 92  1  0  0  0
  6 93  1  0  0  0
  7  8  2  0  0  0
  7 26  1  0  0  0
  7 29  1  0  0  0
  8  9  1  0  0  0
  8 22  1  0  0  0
  9 10  1  0  0  0
  9 27  2  0  0  0
 10 11  2  0  0  0
 10 15  1  0  0  0
 11 12  1  0  0  0
 11 94  1  0  0  0
 12 13  2  0  0  0
 12 95  1  0  0  0
 13 14  1  0  0  0
 13 31  1  0  0  0
 14 15  2  0  0  0
 14 96  1  0  0  0
 15 97  1  0  0  0
 16 17  2  0  0  0
 16 21  1  0  0  0
 16 31  1  0  0  0
 17 18  1  0  0  0
 17 98  1  0  0  0
 18 19  2  0  0  0
 18 99  1  0  0  0
 19 20  1  0  0  0
 19 24  1  0  0  0
 20 21  2  0  0  0
 20100  1  0  0  0
 21 23  1  0  0  0
 22 28  1  0  0  0
 22 32  2  0  0  0
 26 27  1  0  0  0
 28101  1  0  0  0
 28102  1  0  0  0
 29103  1  0  0  0
 29104  1  0  0  0
 33 34  1  0  0  0
 33 66  1  0  0  0
 33 70  2  0  0  0
 34 36  1  0  0  0
 34 59  1  0  0  0
 34105  1  0  0  0
 35 44  2  0  0  0
 35 45  1  0  0  0
 35 68  1  0  0  0
 36 56  1  0  0  0
 36106  1  0  0  0
 37 39  1  0  0  0
 37 47  1  0  0  0
 37 66  1  0  0  0
 37107  1  0  0  0
 38 43  2  0  0  0
 38 46  1  0  0  0
 38 47  1  0  0  0
 39 64  1  0  0  0
 39 67  2  0  0  0
 40 52  1  0  0  0
 40 53  2  0  0  0
 40 58  1  0  0  0
 41108  1  0  0  0
 41109  1  0  0  0
 41110  1  0  0  0
 41 48  1  0  0  0
 42 43  1  0  0  0
 42 66  1  0  0  0
 42111  1  0  0  0
 42112  1  0  0  0
 43 44  1  0  0  0
 44113  1  0  0  0
 45 46  2  0  0  0
 45114  1  0  0  0
 46115  1  0  0  0
 47116  1  0  0  0
 47117  1  0  0  0
 48 56  1  0  0  0
 48 65  1  0  0  0
 48118  1  0  0  0
 49 50  1  0  0  0
 49 53  1  0  0  0
 49 64  1  0  0  0
 49119  1  0  0  0
 50 51  1  0  0  0
 50120  1  0  0  0
 50121  1  0  0  0
 51 52  1  0  0  0
 51122  1  0  0  0
 51123  1  0  0  0
 52124  1  0  0  0
 52125  1  0  0  0
 53 54  1  0  0  0
 54 55  2  0  0  0
 54126  1  0  0  0
 55 57  1  0  0  0
 55127  1  0  0  0
 56 69  2  0  0  0
 57 58  2  0  0  0
 57128  1  0  0  0
 58129  1  0  0  0
 59 60  1  0  0  0
 59 61  1  0  0  0
 59 62  1  0  0  0
 60130  1  0  0  0
 60131  1  0  0  0
 60132  1  0  0  0
 61133  1  0  0  0
 61134  1  0  0  0
 61135  1  0  0  0
 62136  1  0  0  0
 62137  1  0  0  0
 62138  1  0  0  0
 63 65  1  0  0  0
 63139  1  0  0  0
 63140  1  0  0  0
 63141  1  0  0  0
 64142  1  0  0  0
 65143  1  0  0  0
 68 76  1  0  0  0
 71 72  2  0  0  0
 71 80  1  0  0  0
 71144  1  0  0  0
 72 73  1  0  0  0
 72 74  1  0  0  0
 73 77  1  0  0  0
 73 79  2  0  0  0
 74145  1  0  0  0
 74146  1  0  0  0
 74147  1  0  0  0
 75 76  1  0  0  0
 75 80  1  0  0  0
 75148  1  0  0  0
 75149  1  0  0  0
 76150  1  0  0  0
 76151  1  0  0  0
 77 78  1  0  0  0
 77 81  1  0  0  0
 77152  1  0  0  0
 78 82  1  0  0  0
 78 83  1  0  0  0
 78 84  1  0  0  0
 79 80  1  0  0  0
 81153  1  0  0  0
M  ISO  4   1 100  68 101  76 101  81 100
M  END
> <chiral flag>
0

> <version>
0

> <s_m_source_file>
/data/baiqing/PycharmProjects/Reinvent-master-3.2/result/LINK_invent/BTK/process_docking_weight1_custom_sum_contain_oxygen_bond_distance_aromatic_linkinvent_7_9_3/rearranged_h_0064.sdf

> <i_m_source_file_index>
77

> <r_mmod_Potential_Energy-OPLS-2005>
606.420959472656

> <r_mmod_Stretch_Energy-OPLS-2005>
356.693084716797

> <r_mmod_Bend_Energy-OPLS-2005>
315.227783203125

> <r_mmod_Torsional_Energy-OPLS-2005>
222.029876708984

> <r_mmod_Improper_Torsional_Energy-OPLS-2005>
5.19586896896362

> <r_mmod_Van_der_Waal_Energy-OPLS-2005>
106.06566619873

> <r_mmod_Electrostatic_Energy-OPLS-2005>
-424.333557128906

> <r_mmod_Solvation_Energy-OPLS-2005>
-227.325057983398

> <b_mmod_Minimization_Converged-OPLS-2005>
0

> <r_mmod_RMS_Derivative-OPLS-2005>
7.25051736831665

$$$$
84
                    3D
 Structure written by MMmdl.
170178  0  0  1  0            999 V2000
  -30.7441  -14.4183   20.6496 C   0  0  0  0  0  0
  -30.4115  -12.3083   19.4080 C   0  0  0  0  0  0
  -29.4808  -12.5143   18.1967 C   0  0  0  0  0  0
  -28.0057  -12.3759   18.6148 C   0  0  0  0  0  0
  -27.6590  -13.2085   19.8766 C   0  0  2  0  0  0
  -28.6986  -12.9774   20.9961 C   0  0  0  0  0  0
  -25.2579  -13.8175   20.5690 C   0  0  0  0  0  0
  -24.1848  -13.0459   20.9209 C   0  0  0  0  0  0
  -24.6395  -11.6923   20.8760 C   0  0  0  0  0  0
  -23.9069  -10.4309   21.0416 C   0  0  0  0  0  0
  -24.3625   -9.4223   21.9198 C   0  0  0  0  0  0
  -23.6301   -8.2250   22.0763 C   0  0  0  0  0  0
  -22.4288   -8.0295   21.3544 C   0  0  0  0  0  0
  -21.9916   -9.0271   20.4655 C   0  0  0  0  0  0
  -22.7240  -10.2154   20.3065 C   0  0  0  0  0  0
  -21.6853   -6.0751   22.5280 C   0  0  0  0  0  0
  -21.4022   -6.5652   23.8220 C   0  0  0  0  0  0
  -21.3650   -5.6801   24.9176 C   0  0  0  0  0  0
  -21.6029   -4.3061   24.7229 C   0  0  0  0  0  0
  -21.8821   -3.8163   23.4346 C   0  0  0  0  0  0
  -21.9199   -4.6981   22.3407 C   0  0  0  0  0  0
  -22.7868  -13.5258   21.1854 C   0  0  0  0  0  0
  -22.1667   -4.2172   21.0980 F   0  0  0  0  0  0
  -21.5615   -3.4541   25.7733 F   0  0  0  0  0  0
  -30.0338  -13.2753   20.4528 N   0  0  0  0  0  0
  -26.3012  -12.9344   20.3384 N   0  0  0  0  0  0
  -25.9318  -11.6500   20.5786 N   0  0  0  0  0  0
  -22.0500  -12.8266   22.0408 N   0  0  0  0  0  0
  -25.4260  -15.1890   20.4035 N   0  0  0  0  0  0
  -31.8079  -14.6493   20.0631 O   0  0  0  0  0  0
  -21.6640   -6.8897   21.4247 O   0  0  0  0  0  0
  -22.3566  -14.5562   20.6690 O   0  0  0  0  0  0
  -24.6110  -31.8694   23.2068 C   0  0  0  0  0  0
  -25.9004  -32.4828   23.8372 C   0  0  1  0  0  0
  -27.2444  -27.4342   20.0929 C   0  0  0  0  0  0
  -25.5877  -33.8621   24.2316 N   0  0  0  0  0  0
  -23.4013  -30.4863   21.5507 C   0  0  2  0  0  0
  -24.8491  -28.9474   20.1166 C   0  0  0  0  0  0
  -22.7410  -29.4641   22.5033 C   0  0  0  0  0  0
  -18.0264  -28.1357   22.8465 C   0  0  0  0  0  0
  -24.1504  -36.7317   23.2630 C   0  0  0  0  0  0
  -25.9266  -30.8318   21.3619 C   0  0  0  0  0  0
  -26.0055  -29.4639   20.7108 C   0  0  0  0  0  0
  -27.2017  -28.7126   20.6980 C   0  0  0  0  0  0
  -26.0679  -26.9314   19.4907 C   0  0  0  0  0  0
  -24.8741  -27.6797   19.5059 C   0  0  0  0  0  0
  -23.6079  -29.8101   20.1678 C   0  0  0  0  0  0
  -25.4129  -36.3106   24.0314 C   0  0  1  0  0  0
  -20.5850  -28.3636   23.1302 C   0  0  2  0  0  0
  -20.6780  -26.9379   22.5409 C   0  0  0  0  0  0
  -19.5763  -26.6372   21.5199 C   0  0  0  0  0  0
  -18.1927  -26.7902   22.1587 C   0  0  0  0  0  0
  -19.1511  -28.8817   23.2865 C   0  0  0  0  0  0
  -18.9445  -30.1424   23.8865 C   0  0  0  0  0  0
  -17.6454  -30.6567   24.0536 C   0  0  0  0  0  0
  -25.9041  -34.9463   23.5115 C   0  0  0  0  0  0
  -16.5337  -29.9078   23.6309 C   0  0  0  0  0  0
  -16.7255  -28.6491   23.0330 C   0  0  0  0  0  0
  -26.4437  -31.6596   25.0698 C   0  0  0  0  0  0
  -25.3673  -31.3708   26.1430 C   0  0  0  0  0  0
  -27.0274  -30.3034   24.6080 C   0  0  0  0  0  0
  -27.6031  -32.4312   25.7446 C   0  0  0  0  0  0
  -27.5603  -37.1811   24.8453 C   0  0  0  0  0  0
  -21.4148  -29.2996   22.3737 N   0  0  0  0  0  0
  -26.4325  -37.3792   23.9381 N   0  0  0  0  0  0
  -24.6637  -31.0778   22.0978 N   0  0  0  0  0  0
  -23.4170  -28.8208   23.3103 O   0  0  0  0  0  0
  -28.4457  -26.7506   20.1225 O   0  0  0  0  0  0
  -26.5606  -34.8909   22.4684 O   0  0  0  0  0  0
  -23.5295  -32.1456   23.7454 O   0  0  0  0  0  0
  -27.0867  -17.0835   23.5730 C   0  0  0  0  0  0
  -28.4481  -16.9271   22.0046 C   0  0  0  0  0  0
  -27.1239  -22.0474   22.4548 C   0  0  0  0  0  0
  -24.9814  -15.9524   24.3990 C   0  0  0  0  0  0
  -31.1707  -15.6507   22.6580 C   0  0  0  0  0  0
  -29.5052  -16.4536   21.0390 C   0  0  0  0  0  0
  -27.9280  -24.3375   20.5911 C   0  0  0  0  0  0
  -28.7058  -22.9919   20.6661 C   0  0  0  0  0  0
  -28.6854  -20.4501   21.2346 C   0  0  0  0  0  0
  -27.8921  -19.1630   20.8637 C   0  0  0  0  0  0
  -28.5614  -25.3977   19.6551 C   0  0  0  0  0  0
  -27.8625  -21.7719   21.1327 C   0  0  1  0  0  0
  -26.2446  -16.7388   24.7737 C   0  0  0  0  0  0
  -27.9893  -16.2132   23.0323 N   0  0  0  0  0  0
  -26.9345  -18.2293   22.9072 N   0  0  0  0  0  0
  -27.8323  -18.1219   21.8938 N   0  0  0  0  0  0
  -30.2641  -15.2942   21.5583 N   0  0  0  0  0  0
  -25.8852  -17.8507   25.4194 F   0  0  0  0  0  0
  -26.9617  -15.9918   25.6170 F   0  0  0  0  0  0
  -31.4539  -12.4086   19.1008 H   0  0  0  0  0  0
  -30.3153  -11.2926   19.7932 H   0  0  0  0  0  0
  -29.7130  -11.7890   17.4158 H   0  0  0  0  0  0
  -29.6487  -13.5012   17.7626 H   0  0  0  0  0  0
  -27.8093  -11.3190   18.8007 H   0  0  0  0  0  0
  -27.3537  -12.6617   17.7879 H   0  0  0  0  0  0
  -27.7051  -14.2571   19.5884 H   0  0  0  0  0  0
  -28.6707  -11.9383   21.3270 H   0  0  0  0  0  0
  -28.4512  -13.5727   21.8762 H   0  0  0  0  0  0
  -25.2770   -9.5693   22.4782 H   0  0  0  0  0  0
  -24.0012   -7.4638   22.7467 H   0  0  0  0  0  0
  -21.0845   -8.8799   19.8958 H   0  0  0  0  0  0
  -22.3702  -10.9705   19.6188 H   0  0  0  0  0  0
  -21.2019   -7.6164   23.9733 H   0  0  0  0  0  0
  -21.1454   -6.0524   25.9077 H   0  0  0  0  0  0
  -22.0603   -2.7629   23.2836 H   0  0  0  0  0  0
  -22.4098  -11.9927   22.4817 H   0  0  0  0  0  0
  -21.1112  -13.1295   22.2568 H   0  0  0  0  0  0
  -24.6526  -15.8377   20.4931 H   0  0  0  0  0  0
  -26.2704  -15.6223   20.0581 H   0  0  0  0  0  0
  -26.7085  -32.5557   23.1143 H   0  0  0  0  0  0
  -24.9990  -33.9783   25.0437 H   0  0  0  0  0  0
  -22.6869  -31.2996   21.4092 H   0  0  0  0  0  0
  -23.3764  -35.9655   23.3295 H   0  0  0  0  0  0
  -24.3587  -36.8956   22.2046 H   0  0  0  0  0  0
  -23.7280  -37.6525   23.6663 H   0  0  0  0  0  0
  -26.0358  -31.5976   20.5928 H   0  0  0  0  0  0
  -26.8130  -30.8873   21.9804 H   0  0  0  0  0  0
  -28.0957  -29.1111   21.1566 H   0  0  0  0  0  0
  -26.0555  -25.9657   19.0074 H   0  0  0  0  0  0
  -23.9839  -27.2762   19.0439 H   0  0  0  0  0  0
  -23.7055  -30.5778   19.3992 H   0  0  0  0  0  0
  -22.7365  -29.2186   19.8848 H   0  0  0  0  0  0
  -25.1320  -36.1980   25.0814 H   0  0  0  0  0  0
  -20.9889  -28.3224   24.1441 H   0  0  0  0  0  0
  -20.5698  -26.2256   23.3612 H   0  0  0  0  0  0
  -21.6658  -26.7472   22.1182 H   0  0  0  0  0  0
  -19.6929  -25.6290   21.1232 H   0  0  0  0  0  0
  -19.6686  -27.3170   20.6717 H   0  0  0  0  0  0
  -17.4210  -26.6595   21.3980 H   0  0  0  0  0  0
  -18.0305  -26.0062   22.8987 H   0  0  0  0  0  0
  -19.7939  -30.7216   24.2240 H   0  0  0  0  0  0
  -17.5032  -31.6245   24.5139 H   0  0  0  0  0  0
  -15.5338  -30.2955   23.7699 H   0  0  0  0  0  0
  -15.8656  -28.0828   22.7040 H   0  0  0  0  0  0
  -24.5832  -30.7098   25.7721 H   0  0  0  0  0  0
  -24.8848  -32.2862   26.4860 H   0  0  0  0  0  0
  -25.7958  -30.8849   27.0204 H   0  0  0  0  0  0
  -26.2821  -29.6781   24.1144 H   0  0  0  0  0  0
  -27.4062  -29.7286   25.4545 H   0  0  0  0  0  0
  -27.8654  -30.4352   23.9229 H   0  0  0  0  0  0
  -27.2695  -33.3637   26.2008 H   0  0  0  0  0  0
  -28.3831  -32.6832   25.0247 H   0  0  0  0  0  0
  -28.0709  -31.8435   26.5355 H   0  0  0  0  0  0
  -28.2608  -38.0117   24.7525 H   0  0  0  0  0  0
  -28.1123  -36.2652   24.6288 H   0  0  0  0  0  0
  -27.2294  -37.1464   25.8846 H   0  0  0  0  0  0
  -20.9368  -29.8709   21.6914 H   0  0  0  0  0  0
  -26.0215  -38.2875   24.1376 H   0  0  0  0  0  0
  -26.4219  -22.8770   22.3630 H   0  0  0  0  0  0
  -27.8146  -22.2866   23.2642 H   0  0  0  0  0  0
  -26.5464  -21.1756   22.7618 H   0  0  0  0  0  0
  -24.3458  -16.5163   23.7180 H   0  0  0  0  0  0
  -24.3922  -15.7186   25.2859 H   0  0  0  0  0  0
  -25.2426  -15.0134   23.9122 H   0  0  0  0  0  0
  -31.5643  -14.7536   23.1385 H   0  0  0  0  0  0
  -30.6684  -16.2286   23.4337 H   0  0  0  0  0  0
  -32.0157  -16.2399   22.2971 H   0  0  0  0  0  0
  -30.1935  -17.2743   20.8302 H   0  0  0  0  0  0
  -29.0099  -16.2144   20.0961 H   0  0  0  0  0  0
  -27.8520  -24.7506   21.5981 H   0  0  0  0  0  0
  -26.9058  -24.1519   20.2602 H   0  0  0  0  0  0
  -29.5735  -23.1232   21.3151 H   0  0  0  0  0  0
  -29.1079  -22.7580   19.6778 H   0  0  0  0  0  0
  -29.5331  -20.5081   20.5489 H   0  0  0  0  0  0
  -29.1371  -20.3542   22.2232 H   0  0  0  0  0  0
  -28.3240  -18.7252   19.9638 H   0  0  0  0  0  0
  -26.8647  -19.4094   20.5933 H   0  0  0  0  0  0
  -28.1887  -25.2957   18.6352 H   0  0  0  0  0  0
  -29.6342  -25.2103   19.5931 H   0  0  0  0  0  0
  -27.1045  -21.6379   20.3601 H   0  0  0  0  0  0
  1 25  1  0  0  0
  1 30  2  0  0  0
  1 87  1  0  0  0
  2  3  1  0  0  0
  2 25  1  0  0  0
  2 90  1  0  0  0
  2 91  1  0  0  0
  3  4  1  0  0  0
  3 92  1  0  0  0
  3 93  1  0  0  0
  4  5  1  0  0  0
  4 94  1  0  0  0
  4 95  1  0  0  0
  5  6  1  0  0  0
  5 26  1  0  0  0
  5 96  1  0  0  0
  6 25  1  0  0  0
  6 97  1  0  0  0
  6 98  1  0  0  0
  7  8  2  0  0  0
  7 26  1  0  0  0
  7 29  1  0  0  0
  8  9  1  0  0  0
  8 22  1  0  0  0
  9 10  1  0  0  0
  9 27  2  0  0  0
 10 11  2  0  0  0
 10 15  1  0  0  0
 11 12  1  0  0  0
 11 99  1  0  0  0
 12 13  2  0  0  0
 12100  1  0  0  0
 13 14  1  0  0  0
 13 31  1  0  0  0
 14 15  2  0  0  0
 14101  1  0  0  0
 15102  1  0  0  0
 16 17  2  0  0  0
 16 21  1  0  0  0
 16 31  1  0  0  0
 17 18  1  0  0  0
 17103  1  0  0  0
 18 19  2  0  0  0
 18104  1  0  0  0
 19 20  1  0  0  0
 19 24  1  0  0  0
 20 21  2  0  0  0
 20105  1  0  0  0
 21 23  1  0  0  0
 22 28  1  0  0  0
 22 32  2  0  0  0
 26 27  1  0  0  0
 28106  1  0  0  0
 28107  1  0  0  0
 29108  1  0  0  0
 29109  1  0  0  0
 33 34  1  0  0  0
 33 66  1  0  0  0
 33 70  2  0  0  0
 34 36  1  0  0  0
 34 59  1  0  0  0
 34110  1  0  0  0
 35 44  2  0  0  0
 35 45  1  0  0  0
 35 68  1  0  0  0
 36 56  1  0  0  0
 36111  1  0  0  0
 37 39  1  0  0  0
 37 47  1  0  0  0
 37 66  1  0  0  0
 37112  1  0  0  0
 38 43  2  0  0  0
 38 46  1  0  0  0
 38 47  1  0  0  0
 39 64  1  0  0  0
 39 67  2  0  0  0
 40 52  1  0  0  0
 40 53  2  0  0  0
 40 58  1  0  0  0
 41113  1  0  0  0
 41114  1  0  0  0
 41115  1  0  0  0
 41 48  1  0  0  0
 42 43  1  0  0  0
 42 66  1  0  0  0
 42116  1  0  0  0
 42117  1  0  0  0
 43 44  1  0  0  0
 44118  1  0  0  0
 45 46  2  0  0  0
 45119  1  0  0  0
 46120  1  0  0  0
 47121  1  0  0  0
 47122  1  0  0  0
 48 56  1  0  0  0
 48 65  1  0  0  0
 48123  1  0  0  0
 49 50  1  0  0  0
 49 53  1  0  0  0
 49 64  1  0  0  0
 49124  1  0  0  0
 50 51  1  0  0  0
 50125  1  0  0  0
 50126  1  0  0  0
 51 52  1  0  0  0
 51127  1  0  0  0
 51128  1  0  0  0
 52129  1  0  0  0
 52130  1  0  0  0
 53 54  1  0  0  0
 54 55  2  0  0  0
 54131  1  0  0  0
 55 57  1  0  0  0
 55132  1  0  0  0
 56 69  2  0  0  0
 57 58  2  0  0  0
 57133  1  0  0  0
 58134  1  0  0  0
 59 60  1  0  0  0
 59 61  1  0  0  0
 59 62  1  0  0  0
 60135  1  0  0  0
 60136  1  0  0  0
 60137  1  0  0  0
 61138  1  0  0  0
 61139  1  0  0  0
 61140  1  0  0  0
 62141  1  0  0  0
 62142  1  0  0  0
 62143  1  0  0  0
 63 65  1  0  0  0
 63144  1  0  0  0
 63145  1  0  0  0
 63146  1  0  0  0
 64147  1  0  0  0
 65148  1  0  0  0
 68 81  1  0  0  0
 71 83  1  0  0  0
 71 84  1  0  0  0
 71 85  2  0  0  0
 72 76  1  0  0  0
 72 84  2  0  0  0
 72 86  1  0  0  0
 73149  1  0  0  0
 73150  1  0  0  0
 73151  1  0  0  0
 73 82  1  0  0  0
 74152  1  0  0  0
 74153  1  0  0  0
 74154  1  0  0  0
 74 83  1  0  0  0
 75 87  1  0  0  0
 75155  1  0  0  0
 75156  1  0  0  0
 75157  1  0  0  0
 76 87  1  0  0  0
 76158  1  0  0  0
 76159  1  0  0  0
 77 78  1  0  0  0
 77 81  1  0  0  0
 77160  1  0  0  0
 77161  1  0  0  0
 78 82  1  0  0  0
 78162  1  0  0  0
 78163  1  0  0  0
 79 80  1  0  0  0
 79 82  1  0  0  0
 79164  1  0  0  0
 79165  1  0  0  0
 80 86  1  0  0  0
 80166  1  0  0  0
 80167  1  0  0  0
 81168  1  0  0  0
 81169  1  0  0  0
 82170  1  0  0  0
 83 88  1  0  0  0
 83 89  1  0  0  0
 85 86  1  0  0  0
M  ISO  4   1 100  68 101  81 101  87 100
M  END
> <chiral flag>
0

> <version>
0

> <s_m_source_file>
/data/baiqing/PycharmProjects/Reinvent-master-3.2/result/LINK_invent/BTK/process_docking_weight1_custom_sum_contain_oxygen_bond_distance_aromatic_linkinvent_7_9_3/rearranged_h_0064.sdf

> <i_m_source_file_index>
78

> <r_mmod_Potential_Energy-OPLS-2005>
37.3095092773438

> <r_mmod_Stretch_Energy-OPLS-2005>
39.3995552062988

> <r_mmod_Bend_Energy-OPLS-2005>
120.661766052246

> <r_mmod_Torsional_Energy-OPLS-2005>
286.436553955078

> <r_mmod_Improper_Torsional_Energy-OPLS-2005>
6.28670740127563

> <r_mmod_Van_der_Waal_Energy-OPLS-2005>
115.076118469238

> <r_mmod_Electrostatic_Energy-OPLS-2005>
-344.962371826172

> <r_mmod_Solvation_Energy-OPLS-2005>
-195.511657714844

> <b_mmod_Minimization_Converged-OPLS-2005>
0

> <r_mmod_RMS_Derivative-OPLS-2005>
2.81821775436401

$$$$
85
                    3D
 Structure written by MMmdl.
175183  0  0  1  0            999 V2000
  -30.7749  -14.3752   20.6430 C   0  0  0  0  0  0
  -30.4205  -12.2743   19.4097 C   0  0  0  0  0  0
  -29.4964  -12.5215   18.2018 C   0  0  0  0  0  0
  -28.0150  -12.3952   18.6097 C   0  0  0  0  0  0
  -27.6718  -13.2032   19.8886 C   0  0  2  0  0  0
  -28.7123  -12.9441   21.0028 C   0  0  0  0  0  0
  -25.2623  -13.8136   20.5696 C   0  0  0  0  0  0
  -24.1847  -13.0448   20.9160 C   0  0  0  0  0  0
  -24.6361  -11.6913   20.8712 C   0  0  0  0  0  0
  -23.9018  -10.4305   21.0413 C   0  0  0  0  0  0
  -24.3569   -9.4223   21.9181 C   0  0  0  0  0  0
  -23.6264   -8.2245   22.0739 C   0  0  0  0  0  0
  -22.4243   -8.0265   21.3538 C   0  0  0  0  0  0
  -21.9884   -9.0233   20.4646 C   0  0  0  0  0  0
  -22.7205  -10.2119   20.3074 C   0  0  0  0  0  0
  -21.6841   -6.0686   22.5242 C   0  0  0  0  0  0
  -21.4029   -6.5600   23.8168 C   0  0  0  0  0  0
  -21.3691   -5.6757   24.9125 C   0  0  0  0  0  0
  -21.6052   -4.3020   24.7193 C   0  0  0  0  0  0
  -21.8839   -3.8109   23.4319 C   0  0  0  0  0  0
  -21.9208   -4.6924   22.3373 C   0  0  0  0  0  0
  -22.7884  -13.5267   21.1810 C   0  0  0  0  0  0
  -22.1693   -4.2123   21.0944 F   0  0  0  0  0  0
  -21.5634   -3.4514   25.7712 F   0  0  0  0  0  0
  -30.0553  -13.2315   20.4650 N   0  0  0  0  0  0
  -26.3064  -12.9305   20.3395 N   0  0  0  0  0  0
  -25.9287  -11.6465   20.5733 N   0  0  0  0  0  0
  -22.0486  -12.8277   22.0359 N   0  0  0  0  0  0
  -25.4321  -15.1842   20.4102 N   0  0  0  0  0  0
  -31.8308  -14.6055   20.0453 O   0  0  0  0  0  0
  -21.6634   -6.8837   21.4208 O   0  0  0  0  0  0
  -22.3613  -14.5591   20.6662 O   0  0  0  0  0  0
  -24.6123  -31.8700   23.2144 C   0  0  0  0  0  0
  -25.9032  -32.4828   23.8423 C   0  0  1  0  0  0
  -27.2404  -27.4610   20.0608 C   0  0  0  0  0  0
  -25.5898  -33.8628   24.2344 N   0  0  0  0  0  0
  -23.3986  -30.4949   21.5554 C   0  0  2  0  0  0
  -24.8422  -28.9637   20.1175 C   0  0  0  0  0  0
  -22.7398  -29.4664   22.5020 C   0  0  0  0  0  0
  -18.0262  -28.1373   22.8490 C   0  0  0  0  0  0
  -24.1485  -36.7318   23.2639 C   0  0  0  0  0  0
  -25.9276  -30.8337   21.3729 C   0  0  0  0  0  0
  -26.0007  -29.4691   20.7217 C   0  0  0  0  0  0
  -27.1953  -28.7167   20.7083 C   0  0  0  0  0  0
  -26.0574  -26.9639   19.4657 C   0  0  0  0  0  0
  -24.8622  -27.7054   19.4975 C   0  0  0  0  0  0
  -23.6056  -29.8313   20.1682 C   0  0  0  0  0  0
  -25.4103  -36.3112   24.0340 C   0  0  1  0  0  0
  -20.5853  -28.3648   23.1329 C   0  0  2  0  0  0
  -20.6754  -26.9388   22.5419 C   0  0  0  0  0  0
  -19.5724  -26.6384   21.5205 C   0  0  0  0  0  0
  -18.1897  -26.7916   22.1621 C   0  0  0  0  0  0
  -19.1514  -28.8823   23.2902 C   0  0  0  0  0  0
  -18.9446  -30.1440   23.8905 C   0  0  0  0  0  0
  -17.6444  -30.6579   24.0567 C   0  0  0  0  0  0
  -25.9030  -34.9477   23.5134 C   0  0  0  0  0  0
  -16.5331  -29.9078   23.6338 C   0  0  0  0  0  0
  -16.7253  -28.6501   23.0338 C   0  0  0  0  0  0
  -26.4463  -31.6610   25.0750 C   0  0  0  0  0  0
  -25.3740  -31.3722   26.1516 C   0  0  0  0  0  0
  -27.0289  -30.3045   24.6134 C   0  0  0  0  0  0
  -27.6042  -32.4335   25.7504 C   0  0  0  0  0  0
  -27.5576  -37.1811   24.8459 C   0  0  0  0  0  0
  -21.4121  -29.3024   22.3755 N   0  0  0  0  0  0
  -26.4281  -37.3794   23.9413 N   0  0  0  0  0  0
  -24.6640  -31.0816   22.1045 N   0  0  0  0  0  0
  -23.4186  -28.8188   23.3032 O   0  0  0  0  0  0
  -28.4336  -26.7678   20.0249 O   0  0  0  0  0  0
  -26.5579  -34.8922   22.4688 O   0  0  0  0  0  0
  -23.5325  -32.1458   23.7553 O   0  0  0  0  0  0
  -29.5133  -19.3469   19.3844 C   0  0  0  0  0  0
  -28.6415  -18.6299   20.1657 C   0  0  0  0  0  0
  -27.6465  -20.5337   19.5354 C   0  0  0  0  0  0
  -26.5689  -21.5645   19.4022 C   0  0  0  0  0  0
  -30.2636  -20.9155   16.9810 C   0  0  0  0  0  0
  -31.2701  -22.0431   19.8982 C   0  0  0  0  0  0
  -31.1112  -23.5688   17.9317 C   0  0  0  0  0  0
  -30.2406  -15.2508   22.8364 C   0  0  0  0  0  0
  -28.7302  -17.2849   20.8270 C   0  0  0  0  0  0
  -28.3616  -24.5207   18.9597 C   0  0  0  0  0  0
  -29.3791  -23.6491   19.7378 C   0  0  0  0  0  0
  -30.1602  -16.7214   20.8538 C   0  0  0  0  0  0
  -28.7252  -26.0169   18.8404 C   0  0  0  0  0  0
  -29.4668  -21.5770   18.1321 C   0  0  2  0  0  0
  -30.2832  -22.6931   18.9031 C   0  0  0  0  0  0
  -28.8872  -20.5135   19.0047 N   0  0  0  0  0  0
  -27.5106  -19.3971   20.2306 N   0  3  0  0  0  0
  -30.1832  -15.3437   21.3750 N   0  0  0  0  0  0
  -31.4697  -12.3512   19.1165 H   0  0  0  0  0  0
  -30.2969  -11.2577   19.7841 H   0  0  0  0  0  0
  -29.7210  -11.8143   17.4025 H   0  0  0  0  0  0
  -29.6818  -13.5175   17.7926 H   0  0  0  0  0  0
  -27.8003  -11.3399   18.7701 H   0  0  0  0  0  0
  -27.3750  -12.7211   17.7895 H   0  0  0  0  0  0
  -27.7362  -14.2570   19.6229 H   0  0  0  0  0  0
  -28.6745  -11.9049   21.3304 H   0  0  0  0  0  0
  -28.4604  -13.5243   21.8870 H   0  0  0  0  0  0
  -25.2715   -9.5688   22.4757 H   0  0  0  0  0  0
  -23.9996   -7.4616   22.7430 H   0  0  0  0  0  0
  -21.0821   -8.8746   19.8924 H   0  0  0  0  0  0
  -22.3665  -10.9654   19.6192 H   0  0  0  0  0  0
  -21.2041   -7.6115   23.9662 H   0  0  0  0  0  0
  -21.1499   -6.0475   25.9025 H   0  0  0  0  0  0
  -22.0604   -2.7568   23.2787 H   0  0  0  0  0  0
  -22.4110  -12.0018   22.4892 H   0  0  0  0  0  0
  -21.1101  -13.1318   22.2501 H   0  0  0  0  0  0
  -24.6508  -15.8227   20.4867 H   0  0  0  0  0  0
  -26.2493  -15.5988   19.9822 H   0  0  0  0  0  0
  -26.7105  -32.5540   23.1190 H   0  0  0  0  0  0
  -25.0054  -33.9798   25.0495 H   0  0  0  0  0  0
  -22.6859  -31.3109   21.4198 H   0  0  0  0  0  0
  -23.3737  -35.9659   23.3310 H   0  0  0  0  0  0
  -24.3587  -36.8918   22.2051 H   0  0  0  0  0  0
  -23.7240  -37.6527   23.6650 H   0  0  0  0  0  0
  -26.0486  -31.6005   20.6073 H   0  0  0  0  0  0
  -26.8131  -30.8797   21.9946 H   0  0  0  0  0  0
  -28.0917  -29.1058   21.1710 H   0  0  0  0  0  0
  -26.0376  -26.0147   18.9559 H   0  0  0  0  0  0
  -23.9733  -27.3103   19.0252 H   0  0  0  0  0  0
  -23.7173  -30.6073   19.4097 H   0  0  0  0  0  0
  -22.7288  -29.2522   19.8719 H   0  0  0  0  0  0
  -25.1275  -36.1969   25.0826 H   0  0  0  0  0  0
  -20.9939  -28.3203   24.1450 H   0  0  0  0  0  0
  -20.5652  -26.2244   23.3601 H   0  0  0  0  0  0
  -21.6631  -26.7428   22.1219 H   0  0  0  0  0  0
  -19.6888  -25.6294   21.1232 H   0  0  0  0  0  0
  -19.6665  -27.3213   20.6743 H   0  0  0  0  0  0
  -17.4173  -26.6666   21.4016 H   0  0  0  0  0  0
  -18.0296  -26.0057   22.9016 H   0  0  0  0  0  0
  -19.7912  -30.7250   24.2284 H   0  0  0  0  0  0
  -17.4996  -31.6268   24.5146 H   0  0  0  0  0  0
  -15.5331  -30.2972   23.7662 H   0  0  0  0  0  0
  -15.8655  -28.0833   22.7032 H   0  0  0  0  0  0
  -24.5893  -30.7077   25.7882 H   0  0  0  0  0  0
  -24.8960  -32.2883   26.4998 H   0  0  0  0  0  0
  -25.8113  -30.8882   27.0259 H   0  0  0  0  0  0
  -26.2833  -29.6817   24.1175 H   0  0  0  0  0  0
  -27.4030  -29.7262   25.4593 H   0  0  0  0  0  0
  -27.8690  -30.4352   23.9306 H   0  0  0  0  0  0
  -27.2660  -33.3633   26.2093 H   0  0  0  0  0  0
  -28.3842  -32.6896   25.0322 H   0  0  0  0  0  0
  -28.0725  -31.8459   26.5411 H   0  0  0  0  0  0
  -28.2593  -38.0109   24.7516 H   0  0  0  0  0  0
  -28.1066  -36.2642   24.6263 H   0  0  0  0  0  0
  -27.2306  -37.1444   25.8864 H   0  0  0  0  0  0
  -20.9277  -29.8773   21.7009 H   0  0  0  0  0  0
  -26.0171  -38.2870   24.1405 H   0  0  0  0  0  0
  -30.5147  -19.1033   19.0588 H   0  0  0  0  0  0
  -26.5862  -21.9969   18.4030 H   0  0  0  0  0  0
  -26.7196  -22.3293   20.1624 H   0  0  0  0  0  0
  -25.6032  -21.0868   19.5683 H   0  0  0  0  0  0
  -30.5019  -21.6292   16.1927 H   0  0  0  0  0  0
  -29.6816  -20.1213   16.5107 H   0  0  0  0  0  0
  -31.2047  -20.4796   17.3175 H   0  0  0  0  0  0
  -31.9004  -22.7900   20.3834 H   0  0  0  0  0  0
  -31.9378  -21.3363   19.4064 H   0  0  0  0  0  0
  -30.7522  -21.5073   20.6954 H   0  0  0  0  0  0
  -31.5856  -24.4038   18.4506 H   0  0  0  0  0  0
  -30.4972  -23.9903   17.1349 H   0  0  0  0  0  0
  -31.9176  -23.0090   17.4572 H   0  0  0  0  0  0
  -30.8550  -16.0408   23.2731 H   0  0  0  0  0  0
  -30.6632  -14.3015   23.1760 H   0  0  0  0  0  0
  -29.2366  -15.3180   23.2547 H   0  0  0  0  0  0
  -28.0700  -16.6026   20.2953 H   0  0  0  0  0  0
  -28.3415  -17.3581   21.8428 H   0  0  0  0  0  0
  -27.3913  -24.4283   19.4437 H   0  0  0  0  0  0
  -28.2170  -24.1349   17.9523 H   0  0  0  0  0  0
  -28.8440  -23.0713   20.4898 H   0  0  0  0  0  0
  -30.0139  -24.3163   20.3246 H   0  0  0  0  0  0
  -30.8202  -17.3697   21.4311 H   0  0  0  0  0  0
  -30.5471  -16.7474   19.8323 H   0  0  0  0  0  0
  -28.2176  -26.4573   17.9809 H   0  0  0  0  0  0
  -29.7880  -26.1246   18.6224 H   0  0  0  0  0  0
  -28.6262  -22.0387   17.6212 H   0  0  0  0  0  0
  -26.6687  -19.1412   20.7337 H   0  0  0  0  0  0
  1 25  1  0  0  0
  1 30  2  0  0  0
  1 88  1  0  0  0
  2  3  1  0  0  0
  2 25  1  0  0  0
  2 89  1  0  0  0
  2 90  1  0  0  0
  3  4  1  0  0  0
  3 91  1  0  0  0
  3 92  1  0  0  0
  4  5  1  0  0  0
  4 93  1  0  0  0
  4 94  1  0  0  0
  5  6  1  0  0  0
  5 26  1  0  0  0
  5 95  1  0  0  0
  6 25  1  0  0  0
  6 96  1  0  0  0
  6 97  1  0  0  0
  7  8  2  0  0  0
  7 26  1  0  0  0
  7 29  1  0  0  0
  8  9  1  0  0  0
  8 22  1  0  0  0
  9 10  1  0  0  0
  9 27  2  0  0  0
 10 11  2  0  0  0
 10 15  1  0  0  0
 11 12  1  0  0  0
 11 98  1  0  0  0
 12 13  2  0  0  0
 12 99  1  0  0  0
 13 14  1  0  0  0
 13 31  1  0  0  0
 14 15  2  0  0  0
 14100  1  0  0  0
 15101  1  0  0  0
 16 17  2  0  0  0
 16 21  1  0  0  0
 16 31  1  0  0  0
 17 18  1  0  0  0
 17102  1  0  0  0
 18 19  2  0  0  0
 18103  1  0  0  0
 19 20  1  0  0  0
 19 24  1  0  0  0
 20 21  2  0  0  0
 20104  1  0  0  0
 21 23  1  0  0  0
 22 28  1  0  0  0
 22 32  2  0  0  0
 26 27  1  0  0  0
 28105  1  0  0  0
 28106  1  0  0  0
 29107  1  0  0  0
 29108  1  0  0  0
 33 34  1  0  0  0
 33 66  1  0  0  0
 33 70  2  0  0  0
 34 36  1  0  0  0
 34 59  1  0  0  0
 34109  1  0  0  0
 35 44  2  0  0  0
 35 45  1  0  0  0
 35 68  1  0  0  0
 36 56  1  0  0  0
 36110  1  0  0  0
 37 39  1  0  0  0
 37 47  1  0  0  0
 37 66  1  0  0  0
 37111  1  0  0  0
 38 43  2  0  0  0
 38 46  1  0  0  0
 38 47  1  0  0  0
 39 64  1  0  0  0
 39 67  2  0  0  0
 40 52  1  0  0  0
 40 53  2  0  0  0
 40 58  1  0  0  0
 41112  1  0  0  0
 41113  1  0  0  0
 41114  1  0  0  0
 41 48  1  0  0  0
 42 43  1  0  0  0
 42 66  1  0  0  0
 42115  1  0  0  0
 42116  1  0  0  0
 43 44  1  0  0  0
 44117  1  0  0  0
 45 46  2  0  0  0
 45118  1  0  0  0
 46119  1  0  0  0
 47120  1  0  0  0
 47121  1  0  0  0
 48 56  1  0  0  0
 48 65  1  0  0  0
 48122  1  0  0  0
 49 50  1  0  0  0
 49 53  1  0  0  0
 49 64  1  0  0  0
 49123  1  0  0  0
 50 51  1  0  0  0
 50124  1  0  0  0
 50125  1  0  0  0
 51 52  1  0  0  0
 51126  1  0  0  0
 51127  1  0  0  0
 52128  1  0  0  0
 52129  1  0  0  0
 53 54  1  0  0  0
 54 55  2  0  0  0
 54130  1  0  0  0
 55 57  1  0  0  0
 55131  1  0  0  0
 56 69  2  0  0  0
 57 58  2  0  0  0
 57132  1  0  0  0
 58133  1  0  0  0
 59 60  1  0  0  0
 59 61  1  0  0  0
 59 62  1  0  0  0
 60134  1  0  0  0
 60135  1  0  0  0
 60136  1  0  0  0
 61137  1  0  0  0
 61138  1  0  0  0
 61139  1  0  0  0
 62140  1  0  0  0
 62141  1  0  0  0
 62142  1  0  0  0
 63 65  1  0  0  0
 63143  1  0  0  0
 63144  1  0  0  0
 63145  1  0  0  0
 64146  1  0  0  0
 65147  1  0  0  0
 68 83  1  0  0  0
 71 72  2  0  0  0
 71 86  1  0  0  0
 71148  1  0  0  0
 72 79  1  0  0  0
 72 87  1  0  0  0
 73 74  1  0  0  0
 73 86  1  0  0  0
 73 87  2  0  0  0
 74149  1  0  0  0
 74150  1  0  0  0
 74151  1  0  0  0
 75152  1  0  0  0
 75153  1  0  0  0
 75154  1  0  0  0
 75 84  1  0  0  0
 76155  1  0  0  0
 76156  1  0  0  0
 76157  1  0  0  0
 76 85  1  0  0  0
 77 85  1  0  0  0
 77158  1  0  0  0
 77159  1  0  0  0
 77160  1  0  0  0
 78 88  1  0  0  0
 78161  1  0  0  0
 78162  1  0  0  0
 78163  1  0  0  0
 79 82  1  0  0  0
 79164  1  0  0  0
 79165  1  0  0  0
 80 81  1  0  0  0
 80 83  1  0  0  0
 80166  1  0  0  0
 80167  1  0  0  0
 81 85  1  0  0  0
 81168  1  0  0  0
 81169  1  0  0  0
 82 88  1  0  0  0
 82170  1  0  0  0
 82171  1  0  0  0
 83172  1  0  0  0
 83173  1  0  0  0
 84 85  1  0  0  0
 84 86  1  0  0  0
 84174  1  0  0  0
 87175  1  0  0  0
M  CHG  1  87   1
M  ISO  4   1 100  68 101  83 101  88 100
M  END
> <chiral flag>
0

> <version>
0

> <s_m_source_file>
/data/baiqing/PycharmProjects/Reinvent-master-3.2/result/LINK_invent/BTK/process_docking_weight1_custom_sum_contain_oxygen_bond_distance_aromatic_linkinvent_7_9_3/rearranged_h_0064.sdf

> <i_m_source_file_index>
79

> <r_mmod_Potential_Energy-OPLS-2005>
85.5284423828125

> <r_mmod_Stretch_Energy-OPLS-2005>
40.4193649291992

> <r_mmod_Bend_Energy-OPLS-2005>
111.008010864258

> <r_mmod_Torsional_Energy-OPLS-2005>
324.912811279297

> <r_mmod_Improper_Torsional_Energy-OPLS-2005>
6.90971946716309

> <r_mmod_Van_der_Waal_Energy-OPLS-2005>
140.267669677734

> <r_mmod_Electrostatic_Energy-OPLS-2005>
-155.57502746582

> <r_mmod_Solvation_Energy-OPLS-2005>
-390.663146972656

> <b_mmod_Minimization_Converged-OPLS-2005>
0

> <r_mmod_RMS_Derivative-OPLS-2005>
3.99313259124756

$$$$
86
                    3D
 Structure written by MMmdl.
173181  0  0  1  0            999 V2000
  -30.7593  -14.4823   20.6626 C   0  0  0  0  0  0
  -30.4253  -12.3521   19.4242 C   0  0  0  0  0  0
  -29.4992  -12.5398   18.2041 C   0  0  0  0  0  0
  -28.0144  -12.3956   18.5954 C   0  0  0  0  0  0
  -27.6608  -13.2119   19.8657 C   0  0  2  0  0  0
  -28.6997  -12.9395   20.9703 C   0  0  0  0  0  0
  -25.2567  -13.8208   20.5627 C   0  0  0  0  0  0
  -24.1830  -13.0466   20.9176 C   0  0  0  0  0  0
  -24.6409  -11.6943   20.8727 C   0  0  0  0  0  0
  -23.9080  -10.4315   21.0420 C   0  0  0  0  0  0
  -24.3636   -9.4214   21.9185 C   0  0  0  0  0  0
  -23.6303   -8.2253   22.0762 C   0  0  0  0  0  0
  -22.4269   -8.0302   21.3569 C   0  0  0  0  0  0
  -21.9927   -9.0277   20.4658 C   0  0  0  0  0  0
  -22.7264  -10.2152   20.3058 C   0  0  0  0  0  0
  -21.6844   -6.0746   22.5297 C   0  0  0  0  0  0
  -21.4005   -6.5645   23.8234 C   0  0  0  0  0  0
  -21.3652   -5.6798   24.9197 C   0  0  0  0  0  0
  -21.6039   -4.3065   24.7252 C   0  0  0  0  0  0
  -21.8819   -3.8157   23.4376 C   0  0  0  0  0  0
  -21.9195   -4.6973   22.3427 C   0  0  0  0  0  0
  -22.7843  -13.5251   21.1860 C   0  0  0  0  0  0
  -22.1639   -4.2155   21.1000 F   0  0  0  0  0  0
  -21.5643   -3.4548   25.7764 F   0  0  0  0  0  0
  -30.0294  -13.3290   20.4675 N   0  0  0  0  0  0
  -26.3006  -12.9374   20.3277 N   0  0  0  0  0  0
  -25.9320  -11.6533   20.5706 N   0  0  0  0  0  0
  -22.0471  -12.8227   22.0408 N   0  0  0  0  0  0
  -25.4293  -15.1919   20.4018 N   0  0  0  0  0  0
  -31.8256  -14.6048   20.0432 O   0  0  0  0  0  0
  -21.6634   -6.8890   21.4251 O   0  0  0  0  0  0
  -22.3495  -14.5534   20.6705 O   0  0  0  0  0  0
  -24.6134  -31.8681   23.2110 C   0  0  0  0  0  0
  -25.9023  -32.4835   23.8409 C   0  0  1  0  0  0
  -27.2331  -27.4436   20.0882 C   0  0  0  0  0  0
  -25.5909  -33.8628   24.2339 N   0  0  0  0  0  0
  -23.4039  -30.4889   21.5498 C   0  0  2  0  0  0
  -24.8534  -28.9620   20.1081 C   0  0  0  0  0  0
  -22.7413  -29.4645   22.4978 C   0  0  0  0  0  0
  -18.0273  -28.1397   22.8473 C   0  0  0  0  0  0
  -24.1501  -36.7319   23.2630 C   0  0  0  0  0  0
  -25.9330  -30.8332   21.3667 C   0  0  0  0  0  0
  -26.0123  -29.4706   20.7090 C   0  0  0  0  0  0
  -27.2081  -28.7175   20.6995 C   0  0  0  0  0  0
  -26.0631  -26.9534   19.4690 C   0  0  0  0  0  0
  -24.8725  -27.7044   19.4828 C   0  0  0  0  0  0
  -23.6131  -29.8235   20.1636 C   0  0  0  0  0  0
  -25.4123  -36.3108   24.0324 C   0  0  1  0  0  0
  -20.5857  -28.3686   23.1326 C   0  0  2  0  0  0
  -20.6779  -26.9428   22.5414 C   0  0  0  0  0  0
  -19.5767  -26.6408   21.5209 C   0  0  0  0  0  0
  -18.1938  -26.7948   22.1602 C   0  0  0  0  0  0
  -19.1512  -28.8859   23.2903 C   0  0  0  0  0  0
  -18.9443  -30.1463   23.8917 C   0  0  0  0  0  0
  -17.6449  -30.6605   24.0569 C   0  0  0  0  0  0
  -25.9042  -34.9469   23.5122 C   0  0  0  0  0  0
  -16.5340  -29.9105   23.6329 C   0  0  0  0  0  0
  -16.7262  -28.6526   23.0330 C   0  0  0  0  0  0
  -26.4468  -31.6603   25.0719 C   0  0  0  0  0  0
  -25.3737  -31.3665   26.1465 C   0  0  0  0  0  0
  -27.0299  -30.3051   24.6083 C   0  0  0  0  0  0
  -27.6066  -32.4306   25.7459 C   0  0  0  0  0  0
  -27.5600  -37.1814   24.8461 C   0  0  0  0  0  0
  -21.4139  -29.3036   22.3718 N   0  0  0  0  0  0
  -26.4325  -37.3782   23.9381 N   0  0  0  0  0  0
  -24.6677  -31.0771   22.1015 N   0  0  0  0  0  0
  -23.4184  -28.8167   23.3009 O   0  0  0  0  0  0
  -28.3717  -26.6720   20.1023 O   0  0  0  0  0  0
  -26.5584  -34.8912   22.4671 O   0  0  0  0  0  0
  -23.5321  -32.1431   23.7498 O   0  0  0  0  0  0
  -29.4461  -19.2312   21.1301 C   0  0  0  0  0  0
  -29.4551  -19.4727   19.7415 C   0  0  0  0  0  0
  -29.7318  -18.2950   18.9808 C   0  0  0  0  0  0
  -29.9371  -16.9965   20.8974 C   0  0  0  0  0  0
  -29.8761  -18.2327   17.4716 C   0  0  0  0  0  0
  -30.6377  -21.6301   19.2306 C   0  0  0  0  0  0
  -28.7700  -21.0395   17.7539 C   0  0  0  0  0  0
  -31.7447  -16.0622   22.3501 C   0  0  0  0  0  0
  -29.4085  -15.3802   22.7650 C   0  0  0  0  0  0
  -29.1522  -22.6849   22.1432 C   0  0  0  0  0  0
  -28.7851  -24.2040   20.1503 C   0  0  0  0  0  0
  -28.1209  -21.7203   20.0421 C   0  0  0  0  0  0
  -28.2403  -25.4650   20.8748 C   0  0  0  0  0  0
  -29.2531  -20.9463   19.2241 C   0  0  0  0  0  0
  -30.4108  -15.6995   21.6315 C   0  0  0  0  0  0
  -29.6705  -18.0341   21.6874 N   0  0  0  0  0  0
  -29.9547  -17.0960   19.5706 N   0  0  0  0  0  0
  -28.4334  -22.9356   20.8687 N   0  3  1  0  0  0
  -31.4668  -12.4439   19.1077 H   0  0  0  0  0  0
  -30.3505  -11.3379   19.8163 H   0  0  0  0  0  0
  -29.7586  -11.8260   17.4213 H   0  0  0  0  0  0
  -29.6626  -13.5295   17.7763 H   0  0  0  0  0  0
  -27.8054  -11.3364   18.7542 H   0  0  0  0  0  0
  -27.3782  -12.7049   17.7658 H   0  0  0  0  0  0
  -27.7179  -14.2687   19.6016 H   0  0  0  0  0  0
  -28.7059  -11.8701   21.1860 H   0  0  0  0  0  0
  -28.3860  -13.3554   21.9126 H   0  0  0  0  0  0
  -25.2808   -9.5667   22.4715 H   0  0  0  0  0  0
  -24.0040   -7.4631   22.7444 H   0  0  0  0  0  0
  -21.0885   -8.8800   19.8925 H   0  0  0  0  0  0
  -22.3769  -10.9681   19.6129 H   0  0  0  0  0  0
  -21.1959   -7.6151   23.9735 H   0  0  0  0  0  0
  -21.1461   -6.0529   25.9101 H   0  0  0  0  0  0
  -22.0602   -2.7615   23.2882 H   0  0  0  0  0  0
  -22.4115  -11.9923   22.4839 H   0  0  0  0  0  0
  -21.1051  -13.1176   22.2542 H   0  0  0  0  0  0
  -24.6680  -15.8535   20.5064 H   0  0  0  0  0  0
  -26.2890  -15.6239   20.0873 H   0  0  0  0  0  0
  -26.7082  -32.5537   23.1163 H   0  0  0  0  0  0
  -25.0107  -33.9813   25.0519 H   0  0  0  0  0  0
  -22.6920  -31.3040   21.4084 H   0  0  0  0  0  0
  -23.3760  -35.9658   23.3299 H   0  0  0  0  0  0
  -24.3598  -36.8932   22.2047 H   0  0  0  0  0  0
  -23.7288  -37.6536   23.6649 H   0  0  0  0  0  0
  -26.0470  -31.6037   20.6018 H   0  0  0  0  0  0
  -26.8185  -30.8837   21.9882 H   0  0  0  0  0  0
  -28.1006  -29.0990   21.1746 H   0  0  0  0  0  0
  -26.0683  -25.9931   18.9732 H   0  0  0  0  0  0
  -23.9828  -27.3176   19.0068 H   0  0  0  0  0  0
  -23.7141  -30.5975   19.4020 H   0  0  0  0  0  0
  -22.7397  -29.2382   19.8732 H   0  0  0  0  0  0
  -25.1309  -36.1977   25.0825 H   0  0  0  0  0  0
  -20.9940  -28.3260   24.1453 H   0  0  0  0  0  0
  -20.5731  -26.2282   23.3589 H   0  0  0  0  0  0
  -21.6650  -26.7520   22.1180 H   0  0  0  0  0  0
  -19.6952  -25.6327   21.1241 H   0  0  0  0  0  0
  -19.6734  -27.3207   20.6734 H   0  0  0  0  0  0
  -17.4218  -26.6680   21.3999 H   0  0  0  0  0  0
  -18.0344  -26.0108   22.9014 H   0  0  0  0  0  0
  -19.7911  -30.7268   24.2315 H   0  0  0  0  0  0
  -17.5000  -31.6286   24.5168 H   0  0  0  0  0  0
  -15.5335  -30.3009   23.7689 H   0  0  0  0  0  0
  -15.8646  -28.0876   22.7023 H   0  0  0  0  0  0
  -24.5927  -30.7002   25.7786 H   0  0  0  0  0  0
  -24.8897  -32.2789   26.4950 H   0  0  0  0  0  0
  -25.8108  -30.8813   27.0200 H   0  0  0  0  0  0
  -26.2835  -29.6792   24.1182 H   0  0  0  0  0  0
  -27.4126  -29.7310   25.4532 H   0  0  0  0  0  0
  -27.8641  -30.4364   23.9185 H   0  0  0  0  0  0
  -27.2729  -33.3597   26.2073 H   0  0  0  0  0  0
  -28.3853  -32.6874   25.0271 H   0  0  0  0  0  0
  -28.0755  -31.8403   26.5335 H   0  0  0  0  0  0
  -28.2614  -38.0113   24.7519 H   0  0  0  0  0  0
  -28.1113  -36.2651   24.6298 H   0  0  0  0  0  0
  -27.2300  -37.1465   25.8859 H   0  0  0  0  0  0
  -20.9315  -29.8755   21.6923 H   0  0  0  0  0  0
  -26.0216  -38.2864   24.1367 H   0  0  0  0  0  0
  -29.2887  -20.0227   21.8403 H   0  0  0  0  0  0
  -28.9397  -18.4881   16.9808 H   0  0  0  0  0  0
  -30.1334  -17.2295   17.1281 H   0  0  0  0  0  0
  -30.6750  -18.8912   17.1312 H   0  0  0  0  0  0
  -31.3365  -21.0891   18.5901 H   0  0  0  0  0  0
  -31.0976  -21.6643   20.2143 H   0  0  0  0  0  0
  -30.6039  -22.6435   18.8340 H   0  0  0  0  0  0
  -28.5523  -22.0730   17.4802 H   0  0  0  0  0  0
  -27.8529  -20.4733   17.5864 H   0  0  0  0  0  0
  -29.5211  -20.7365   17.0291 H   0  0  0  0  0  0
  -31.5965  -16.8236   23.1167 H   0  0  0  0  0  0
  -32.4827  -16.4729   21.6584 H   0  0  0  0  0  0
  -32.1910  -15.2000   22.8447 H   0  0  0  0  0  0
  -29.4345  -16.1461   23.5407 H   0  0  0  0  0  0
  -29.6404  -14.4440   23.2717 H   0  0  0  0  0  0
  -28.3820  -15.3815   22.4004 H   0  0  0  0  0  0
  -29.2265  -23.5879   22.7456 H   0  0  0  0  0  0
  -30.1633  -22.3098   22.0105 H   0  0  0  0  0  0
  -28.5967  -21.9665   22.7479 H   0  0  0  0  0  0
  -29.8615  -24.3053   20.0270 H   0  0  0  0  0  0
  -28.3537  -24.1700   19.1487 H   0  0  0  0  0  0
  -27.5705  -21.0251   20.6746 H   0  0  0  0  0  0
  -27.3343  -22.0580   19.3650 H   0  0  0  0  0  0
  -28.7789  -25.6289   21.8084 H   0  0  0  0  0  0
  -27.2025  -25.2843   21.1655 H   0  0  0  0  0  0
  -27.5053  -23.1539   21.2029 H   0  0  0  0  0  0
  1 25  1  0  0  0
  1 30  2  0  0  0
  1 85  1  0  0  0
  2  3  1  0  0  0
  2 25  1  0  0  0
  2 89  1  0  0  0
  2 90  1  0  0  0
  3  4  1  0  0  0
  3 91  1  0  0  0
  3 92  1  0  0  0
  4  5  1  0  0  0
  4 93  1  0  0  0
  4 94  1  0  0  0
  5  6  1  0  0  0
  5 26  1  0  0  0
  5 95  1  0  0  0
  6 25  1  0  0  0
  6 96  1  0  0  0
  6 97  1  0  0  0
  7  8  2  0  0  0
  7 26  1  0  0  0
  7 29  1  0  0  0
  8  9  1  0  0  0
  8 22  1  0  0  0
  9 10  1  0  0  0
  9 27  2  0  0  0
 10 11  2  0  0  0
 10 15  1  0  0  0
 11 12  1  0  0  0
 11 98  1  0  0  0
 12 13  2  0  0  0
 12 99  1  0  0  0
 13 14  1  0  0  0
 13 31  1  0  0  0
 14 15  2  0  0  0
 14100  1  0  0  0
 15101  1  0  0  0
 16 17  2  0  0  0
 16 21  1  0  0  0
 16 31  1  0  0  0
 17 18  1  0  0  0
 17102  1  0  0  0
 18 19  2  0  0  0
 18103  1  0  0  0
 19 20  1  0  0  0
 19 24  1  0  0  0
 20 21  2  0  0  0
 20104  1  0  0  0
 21 23  1  0  0  0
 22 28  1  0  0  0
 22 32  2  0  0  0
 26 27  1  0  0  0
 28105  1  0  0  0
 28106  1  0  0  0
 29107  1  0  0  0
 29108  1  0  0  0
 33 34  1  0  0  0
 33 66  1  0  0  0
 33 70  2  0  0  0
 34 36  1  0  0  0
 34 59  1  0  0  0
 34109  1  0  0  0
 35 44  2  0  0  0
 35 45  1  0  0  0
 35 68  1  0  0  0
 36 56  1  0  0  0
 36110  1  0  0  0
 37 39  1  0  0  0
 37 47  1  0  0  0
 37 66  1  0  0  0
 37111  1  0  0  0
 38 43  2  0  0  0
 38 46  1  0  0  0
 38 47  1  0  0  0
 39 64  1  0  0  0
 39 67  2  0  0  0
 40 52  1  0  0  0
 40 53  2  0  0  0
 40 58  1  0  0  0
 41112  1  0  0  0
 41113  1  0  0  0
 41114  1  0  0  0
 41 48  1  0  0  0
 42 43  1  0  0  0
 42 66  1  0  0  0
 42115  1  0  0  0
 42116  1  0  0  0
 43 44  1  0  0  0
 44117  1  0  0  0
 45 46  2  0  0  0
 45118  1  0  0  0
 46119  1  0  0  0
 47120  1  0  0  0
 47121  1  0  0  0
 48 56  1  0  0  0
 48 65  1  0  0  0
 48122  1  0  0  0
 49 50  1  0  0  0
 49 53  1  0  0  0
 49 64  1  0  0  0
 49123  1  0  0  0
 50 51  1  0  0  0
 50124  1  0  0  0
 50125  1  0  0  0
 51 52  1  0  0  0
 51126  1  0  0  0
 51127  1  0  0  0
 52128  1  0  0  0
 52129  1  0  0  0
 53 54  1  0  0  0
 54 55  2  0  0  0
 54130  1  0  0  0
 55 57  1  0  0  0
 55131  1  0  0  0
 56 69  2  0  0  0
 57 58  2  0  0  0
 57132  1  0  0  0
 58133  1  0  0  0
 59 60  1  0  0  0
 59 61  1  0  0  0
 59 62  1  0  0  0
 60134  1  0  0  0
 60135  1  0  0  0
 60136  1  0  0  0
 61137  1  0  0  0
 61138  1  0  0  0
 61139  1  0  0  0
 62140  1  0  0  0
 62141  1  0  0  0
 62142  1  0  0  0
 63 65  1  0  0  0
 63143  1  0  0  0
 63144  1  0  0  0
 63145  1  0  0  0
 64146  1  0  0  0
 65147  1  0  0  0
 68 83  1  0  0  0
 71 72  2  0  0  0
 71 86  1  0  0  0
 71148  1  0  0  0
 72 73  1  0  0  0
 72 84  1  0  0  0
 73 75  1  0  0  0
 73 87  2  0  0  0
 74 85  1  0  0  0
 74 86  2  0  0  0
 74 87  1  0  0  0
 75149  1  0  0  0
 75150  1  0  0  0
 75151  1  0  0  0
 76152  1  0  0  0
 76153  1  0  0  0
 76154  1  0  0  0
 76 84  1  0  0  0
 77 84  1  0  0  0
 77155  1  0  0  0
 77156  1  0  0  0
 77157  1  0  0  0
 78158  1  0  0  0
 78159  1  0  0  0
 78160  1  0  0  0
 78 85  1  0  0  0
 79 85  1  0  0  0
 79161  1  0  0  0
 79162  1  0  0  0
 79163  1  0  0  0
 80164  1  0  0  0
 80165  1  0  0  0
 80166  1  0  0  0
 80 88  1  0  0  0
 81 83  1  0  0  0
 81 88  1  0  0  0
 81167  1  0  0  0
 81168  1  0  0  0
 82 84  1  0  0  0
 82 88  1  0  0  0
 82169  1  0  0  0
 82170  1  0  0  0
 83171  1  0  0  0
 83172  1  0  0  0
 88173  1  0  0  0
M  CHG  1  88   1
M  ISO  4   1 100  68 101  83 101  85 100
M  END
> <chiral flag>
0

> <version>
0

> <s_m_source_file>
/data/baiqing/PycharmProjects/Reinvent-master-3.2/result/LINK_invent/BTK/process_docking_weight1_custom_sum_contain_oxygen_bond_distance_aromatic_linkinvent_7_9_3/rearranged_h_0064.sdf

> <i_m_source_file_index>
80

> <r_mmod_Potential_Energy-OPLS-2005>
-188.626968383789

> <r_mmod_Stretch_Energy-OPLS-2005>
64.5015640258789

> <r_mmod_Bend_Energy-OPLS-2005>
191.045135498047

> <r_mmod_Torsional_Energy-OPLS-2005>
248.383987426758

> <r_mmod_Improper_Torsional_Energy-OPLS-2005>
2.52932715415955

> <r_mmod_Van_der_Waal_Energy-OPLS-2005>
190.933853149414

> <r_mmod_Electrostatic_Energy-OPLS-2005>
-478.198272705078

> <r_mmod_Solvation_Energy-OPLS-2005>
-421.496490478516

> <b_mmod_Minimization_Converged-OPLS-2005>
0

> <r_mmod_RMS_Derivative-OPLS-2005>
3.66486001014709

$$$$
88
                    3D
 Structure written by MMmdl.
172180  0  0  1  0            999 V2000
  -30.5846  -14.6930   20.4913 C   0  0  0  0  0  0
  -30.4454  -12.4499   19.4106 C   0  0  0  0  0  0
  -29.4888  -12.5925   18.2039 C   0  0  0  0  0  0
  -28.0152  -12.4075   18.6162 C   0  0  0  0  0  0
  -27.6523  -13.2299   19.8791 C   0  0  2  0  0  0
  -28.7108  -13.0478   20.9898 C   0  0  0  0  0  0
  -25.2481  -13.8192   20.5661 C   0  0  0  0  0  0
  -24.1774  -13.0414   20.9234 C   0  0  0  0  0  0
  -24.6415  -11.6902   20.8806 C   0  0  0  0  0  0
  -23.9107  -10.4274   21.0439 C   0  0  0  0  0  0
  -24.3667   -9.4161   21.9196 C   0  0  0  0  0  0
  -23.6303   -8.2201   22.0751 C   0  0  0  0  0  0
  -22.4302   -8.0271   21.3525 C   0  0  0  0  0  0
  -21.9948   -9.0268   20.4637 C   0  0  0  0  0  0
  -22.7298  -10.2122   20.3048 C   0  0  0  0  0  0
  -21.6849   -6.0734   22.5279 C   0  0  0  0  0  0
  -21.4056   -6.5644   23.8224 C   0  0  0  0  0  0
  -21.3647   -5.6804   24.9190 C   0  0  0  0  0  0
  -21.6035   -4.3063   24.7237 C   0  0  0  0  0  0
  -21.8821   -3.8145   23.4350 C   0  0  0  0  0  0
  -21.9194   -4.6956   22.3401 C   0  0  0  0  0  0
  -22.7800  -13.5174   21.1907 C   0  0  0  0  0  0
  -22.1624   -4.2136   21.0967 F   0  0  0  0  0  0
  -21.5617   -3.4552   25.7734 F   0  0  0  0  0  0
  -30.0225  -13.4354   20.4328 N   0  0  0  0  0  0
  -26.2978  -12.9399   20.3423 N   0  0  0  0  0  0
  -25.9333  -11.6540   20.5816 N   0  0  0  0  0  0
  -22.0477  -12.8164   22.0538 N   0  0  0  0  0  0
  -25.4069  -15.1913   20.3875 N   0  0  0  0  0  0
  -31.7108  -14.9152   20.0422 O   0  0  0  0  0  0
  -21.6624   -6.8879   21.4238 O   0  0  0  0  0  0
  -22.3435  -14.5444   20.6701 O   0  0  0  0  0  0
  -24.6305  -31.8550   23.2019 C   0  0  0  0  0  0
  -25.9124  -32.4762   23.8353 C   0  0  1  0  0  0
  -27.2377  -27.2789   20.1059 C   0  0  0  0  0  0
  -25.5914  -33.8559   24.2263 N   0  0  0  0  0  0
  -23.4249  -30.4822   21.5461 C   0  0  2  0  0  0
  -24.8792  -28.9333   20.1085 C   0  0  0  0  0  0
  -22.7444  -29.4622   22.4927 C   0  0  0  0  0  0
  -18.0280  -28.1357   22.8492 C   0  0  0  0  0  0
  -24.1489  -36.7278   23.2653 C   0  0  0  0  0  0
  -25.9743  -30.7771   21.3798 C   0  0  0  0  0  0
  -26.0566  -29.4055   20.7055 C   0  0  0  0  0  0
  -27.2417  -28.5966   20.6827 C   0  0  0  0  0  0
  -26.0415  -26.8818   19.4715 C   0  0  0  0  0  0
  -24.8786  -27.6769   19.4815 C   0  0  0  0  0  0
  -23.6442  -29.8169   20.1642 C   0  0  0  0  0  0
  -25.4122  -36.3076   24.0335 C   0  0  1  0  0  0
  -20.5880  -28.3671   23.1270 C   0  0  2  0  0  0
  -20.6770  -26.9382   22.5418 C   0  0  0  0  0  0
  -19.5755  -26.6361   21.5211 C   0  0  0  0  0  0
  -18.1937  -26.7897   22.1623 C   0  0  0  0  0  0
  -19.1530  -28.8838   23.2883 C   0  0  0  0  0  0
  -18.9447  -30.1448   23.8890 C   0  0  0  0  0  0
  -17.6449  -30.6578   24.0551 C   0  0  0  0  0  0
  -25.9058  -34.9440   23.5107 C   0  0  0  0  0  0
  -16.5342  -29.9065   23.6343 C   0  0  0  0  0  0
  -16.7264  -28.6474   23.0374 C   0  0  0  0  0  0
  -26.4466  -31.6594   25.0747 C   0  0  0  0  0  0
  -25.3663  -31.3759   26.1458 C   0  0  0  0  0  0
  -27.0333  -30.2991   24.6302 C   0  0  0  0  0  0
  -27.6026  -32.4345   25.7496 C   0  0  0  0  0  0
  -27.5584  -37.1799   24.8463 C   0  0  0  0  0  0
  -21.4152  -29.3031   22.3650 N   0  0  0  0  0  0
  -26.4302  -37.3773   23.9401 N   0  0  0  0  0  0
  -24.6952  -31.0527   22.0988 N   0  0  0  0  0  0
  -23.4140  -28.8170   23.3038 O   0  0  0  0  0  0
  -28.3415  -26.3881   20.0970 O   0  0  0  0  0  0
  -26.5643  -34.8914   22.4681 O   0  0  0  0  0  0
  -23.5459  -32.1383   23.7315 O   0  0  0  0  0  0
  -29.8457  -18.2068   20.1911 C   0  0  0  0  0  0
  -29.4714  -17.1004   20.9520 C   0  0  0  0  0  0
  -28.2425  -18.8922   21.5957 C   0  0  0  0  0  0
  -26.7604  -20.4916   18.7262 C   0  0  0  0  0  0
  -27.2302  -18.6665   23.8950 C   0  0  0  0  0  0
  -25.7194  -18.9247   21.9282 C   0  0  0  0  0  0
  -26.9798  -20.8621   22.7850 C   0  0  0  0  0  0
  -30.5942  -20.9266   19.3277 C   0  0  0  0  0  0
  -28.2745  -20.6448   18.5463 C   0  0  0  0  0  0
  -29.0116  -23.6854   19.9157 C   0  0  0  0  0  0
  -28.7919  -22.1969   20.5700 C   0  0  0  0  0  0
  -28.1318  -24.9386   20.4695 C   0  0  0  0  0  0
  -27.0862  -19.3647   22.5051 C   0  0  0  0  0  0
  -29.1398  -20.7610   19.8386 C   0  0  2  0  0  0
  -29.0766  -19.3535   20.5860 N   0  0  0  0  0  0
  -28.4993  -17.5838   21.7551 N   0  3  0  0  0  0
  -29.7643  -15.6501   21.0390 N   0  0  0  0  0  0
  -31.4666  -12.6326   19.0710 H   0  0  0  0  0  0
  -30.4410  -11.4337   19.8107 H   0  0  0  0  0  0
  -29.7512  -11.8944   17.4107 H   0  0  0  0  0  0
  -29.6028  -13.5936   17.7825 H   0  0  0  0  0  0
  -27.8277  -11.3466   18.7856 H   0  0  0  0  0  0
  -27.3585  -12.7058   17.7961 H   0  0  0  0  0  0
  -27.6738  -14.2762   19.5787 H   0  0  0  0  0  0
  -28.7363  -12.0086   21.3168 H   0  0  0  0  0  0
  -28.4449  -13.6212   21.8773 H   0  0  0  0  0  0
  -25.2805   -9.5567   22.4820 H   0  0  0  0  0  0
  -23.9960   -7.4596   22.7488 H   0  0  0  0  0  0
  -21.0852   -8.8841   19.8978 H   0  0  0  0  0  0
  -22.3800  -10.9675   19.6179 H   0  0  0  0  0  0
  -21.2095   -7.6172   23.9721 H   0  0  0  0  0  0
  -21.1429   -6.0529   25.9080 H   0  0  0  0  0  0
  -22.0602   -2.7598   23.2861 H   0  0  0  0  0  0
  -22.4115  -11.9869   22.4975 H   0  0  0  0  0  0
  -21.1124  -13.1175   22.2834 H   0  0  0  0  0  0
  -24.5962  -15.8031   20.3881 H   0  0  0  0  0  0
  -26.2011  -15.5960   19.9114 H   0  0  0  0  0  0
  -26.7192  -32.5401   23.1104 H   0  0  0  0  0  0
  -24.9993  -33.9685   25.0357 H   0  0  0  0  0  0
  -22.7222  -31.3080   21.4021 H   0  0  0  0  0  0
  -23.3762  -35.9605   23.3310 H   0  0  0  0  0  0
  -24.3584  -36.8890   22.2075 H   0  0  0  0  0  0
  -23.7239  -37.6468   23.6673 H   0  0  0  0  0  0
  -26.1289  -31.5581   20.6359 H   0  0  0  0  0  0
  -26.8431  -30.8056   22.0267 H   0  0  0  0  0  0
  -28.1531  -28.9776   21.1222 H   0  0  0  0  0  0
  -26.0046  -25.9437   18.9372 H   0  0  0  0  0  0
  -23.9798  -27.3057   19.0088 H   0  0  0  0  0  0
  -23.7640  -30.5997   19.4136 H   0  0  0  0  0  0
  -22.7590  -29.2562   19.8561 H   0  0  0  0  0  0
  -25.1310  -36.1925   25.0834 H   0  0  0  0  0  0
  -20.9993  -28.3276   24.1383 H   0  0  0  0  0  0
  -20.5650  -26.2274   23.3626 H   0  0  0  0  0  0
  -21.6643  -26.7416   22.1228 H   0  0  0  0  0  0
  -19.6908  -25.6268   21.1263 H   0  0  0  0  0  0
  -19.6701  -27.3160   20.6733 H   0  0  0  0  0  0
  -17.4196  -26.6643   21.4037 H   0  0  0  0  0  0
  -18.0337  -26.0041   22.9023 H   0  0  0  0  0  0
  -19.7927  -30.7272   24.2230 H   0  0  0  0  0  0
  -17.5002  -31.6254   24.5135 H   0  0  0  0  0  0
  -15.5337  -30.2960   23.7667 H   0  0  0  0  0  0
  -15.8658  -28.0785   22.7105 H   0  0  0  0  0  0
  -24.5839  -30.7116   25.7762 H   0  0  0  0  0  0
  -24.8867  -32.2941   26.4863 H   0  0  0  0  0  0
  -25.7964  -30.8928   27.0245 H   0  0  0  0  0  0
  -26.2960  -29.6723   24.1285 H   0  0  0  0  0  0
  -27.3899  -29.7289   25.4892 H   0  0  0  0  0  0
  -27.8876  -30.4215   23.9648 H   0  0  0  0  0  0
  -27.2627  -33.3643   26.2075 H   0  0  0  0  0  0
  -28.3817  -32.6919   25.0301 H   0  0  0  0  0  0
  -28.0718  -31.8476   26.5401 H   0  0  0  0  0  0
  -28.2606  -38.0089   24.7512 H   0  0  0  0  0  0
  -28.1065  -36.2622   24.6283 H   0  0  0  0  0  0
  -27.2290  -37.1445   25.8859 H   0  0  0  0  0  0
  -20.9299  -29.8681   21.6825 H   0  0  0  0  0  0
  -26.0170  -38.2844   24.1382 H   0  0  0  0  0  0
  -30.5622  -18.2400   19.3838 H   0  0  0  0  0  0
  -26.5124  -19.5624   19.2319 H   0  0  0  0  0  0
  -26.2736  -20.4667   17.7500 H   0  0  0  0  0  0
  -26.3193  -21.3206   19.2760 H   0  0  0  0  0  0
  -26.5273  -19.0407   24.6395 H   0  0  0  0  0  0
  -27.0507  -17.5887   23.8483 H   0  0  0  0  0  0
  -28.2341  -18.8079   24.3011 H   0  0  0  0  0  0
  -25.4052  -19.5366   21.0845 H   0  0  0  0  0  0
  -24.9312  -19.0244   22.6741 H   0  0  0  0  0  0
  -25.7101  -17.8856   21.5988 H   0  0  0  0  0  0
  -26.4364  -21.3732   21.9958 H   0  0  0  0  0  0
  -27.9514  -21.3146   22.9575 H   0  0  0  0  0  0
  -26.3828  -21.0598   23.6742 H   0  0  0  0  0  0
  -30.7749  -21.9151   18.9076 H   0  0  0  0  0  0
  -30.8306  -20.2329   18.5193 H   0  0  0  0  0  0
  -31.3214  -20.7658   20.1243 H   0  0  0  0  0  0
  -28.4518  -21.5088   17.9005 H   0  0  0  0  0  0
  -28.6034  -19.7737   17.9758 H   0  0  0  0  0  0
  -28.8507  -23.6333   18.8392 H   0  0  0  0  0  0
  -30.0644  -23.9447   20.0228 H   0  0  0  0  0  0
  -27.7345  -22.2131   20.7501 H   0  0  0  0  0  0
  -29.2796  -22.2023   21.5481 H   0  0  0  0  0  0
  -28.2240  -24.9222   21.5560 H   0  0  0  0  0  0
  -27.0962  -24.6614   20.2893 H   0  0  0  0  0  0
  -27.9984  -17.0416   22.4467 H   0  0  0  0  0  0
  -29.0709  -15.1571   21.5717 H   0  0  0  0  0  0
  1 25  1  0  0  0
  1 30  2  0  0  0
  1 87  1  0  0  0
  2  3  1  0  0  0
  2 25  1  0  0  0
  2 88  1  0  0  0
  2 89  1  0  0  0
  3  4  1  0  0  0
  3 90  1  0  0  0
  3 91  1  0  0  0
  4  5  1  0  0  0
  4 92  1  0  0  0
  4 93  1  0  0  0
  5  6  1  0  0  0
  5 26  1  0  0  0
  5 94  1  0  0  0
  6 25  1  0  0  0
  6 95  1  0  0  0
  6 96  1  0  0  0
  7  8  2  0  0  0
  7 26  1  0  0  0
  7 29  1  0  0  0
  8  9  1  0  0  0
  8 22  1  0  0  0
  9 10  1  0  0  0
  9 27  2  0  0  0
 10 11  2  0  0  0
 10 15  1  0  0  0
 11 12  1  0  0  0
 11 97  1  0  0  0
 12 13  2  0  0  0
 12 98  1  0  0  0
 13 14  1  0  0  0
 13 31  1  0  0  0
 14 15  2  0  0  0
 14 99  1  0  0  0
 15100  1  0  0  0
 16 17  2  0  0  0
 16 21  1  0  0  0
 16 31  1  0  0  0
 17 18  1  0  0  0
 17101  1  0  0  0
 18 19  2  0  0  0
 18102  1  0  0  0
 19 20  1  0  0  0
 19 24  1  0  0  0
 20 21  2  0  0  0
 20103  1  0  0  0
 21 23  1  0  0  0
 22 28  1  0  0  0
 22 32  2  0  0  0
 26 27  1  0  0  0
 28104  1  0  0  0
 28105  1  0  0  0
 29106  1  0  0  0
 29107  1  0  0  0
 33 34  1  0  0  0
 33 66  1  0  0  0
 33 70  2  0  0  0
 34 36  1  0  0  0
 34 59  1  0  0  0
 34108  1  0  0  0
 35 44  2  0  0  0
 35 45  1  0  0  0
 35 68  1  0  0  0
 36 56  1  0  0  0
 36109  1  0  0  0
 37 39  1  0  0  0
 37 47  1  0  0  0
 37 66  1  0  0  0
 37110  1  0  0  0
 38 43  2  0  0  0
 38 46  1  0  0  0
 38 47  1  0  0  0
 39 64  1  0  0  0
 39 67  2  0  0  0
 40 52  1  0  0  0
 40 53  2  0  0  0
 40 58  1  0  0  0
 41111  1  0  0  0
 41112  1  0  0  0
 41113  1  0  0  0
 41 48  1  0  0  0
 42 43  1  0  0  0
 42 66  1  0  0  0
 42114  1  0  0  0
 42115  1  0  0  0
 43 44  1  0  0  0
 44116  1  0  0  0
 45 46  2  0  0  0
 45117  1  0  0  0
 46118  1  0  0  0
 47119  1  0  0  0
 47120  1  0  0  0
 48 56  1  0  0  0
 48 65  1  0  0  0
 48121  1  0  0  0
 49 50  1  0  0  0
 49 53  1  0  0  0
 49 64  1  0  0  0
 49122  1  0  0  0
 50 51  1  0  0  0
 50123  1  0  0  0
 50124  1  0  0  0
 51 52  1  0  0  0
 51125  1  0  0  0
 51126  1  0  0  0
 52127  1  0  0  0
 52128  1  0  0  0
 53 54  1  0  0  0
 54 55  2  0  0  0
 54129  1  0  0  0
 55 57  1  0  0  0
 55130  1  0  0  0
 56 69  2  0  0  0
 57 58  2  0  0  0
 57131  1  0  0  0
 58132  1  0  0  0
 59 60  1  0  0  0
 59 61  1  0  0  0
 59 62  1  0  0  0
 60133  1  0  0  0
 60134  1  0  0  0
 60135  1  0  0  0
 61136  1  0  0  0
 61137  1  0  0  0
 61138  1  0  0  0
 62139  1  0  0  0
 62140  1  0  0  0
 62141  1  0  0  0
 63 65  1  0  0  0
 63142  1  0  0  0
 63143  1  0  0  0
 63144  1  0  0  0
 64145  1  0  0  0
 65146  1  0  0  0
 68 82  1  0  0  0
 71 72  2  0  0  0
 71 85  1  0  0  0
 71147  1  0  0  0
 72 86  1  0  0  0
 72 87  1  0  0  0
 73 83  1  0  0  0
 73 85  1  0  0  0
 73 86  2  0  0  0
 74 79  1  0  0  0
 74148  1  0  0  0
 74149  1  0  0  0
 74150  1  0  0  0
 75151  1  0  0  0
 75152  1  0  0  0
 75153  1  0  0  0
 75 83  1  0  0  0
 76 83  1  0  0  0
 76154  1  0  0  0
 76155  1  0  0  0
 76156  1  0  0  0
 77 83  1  0  0  0
 77157  1  0  0  0
 77158  1  0  0  0
 77159  1  0  0  0
 78160  1  0  0  0
 78161  1  0  0  0
 78162  1  0  0  0
 78 84  1  0  0  0
 79 84  1  0  0  0
 79163  1  0  0  0
 79164  1  0  0  0
 80 81  1  0  0  0
 80 82  1  0  0  0
 80165  1  0  0  0
 80166  1  0  0  0
 81 84  1  0  0  0
 81167  1  0  0  0
 81168  1  0  0  0
 82169  1  0  0  0
 82170  1  0  0  0
 84 85  1  0  0  0
 86171  1  0  0  0
 87172  1  0  0  0
M  CHG  1  86   1
M  ISO  4   1 100  68 101  82 101  87 100
M  END
> <chiral flag>
0

> <version>
0

> <s_m_source_file>
/data/baiqing/PycharmProjects/Reinvent-master-3.2/result/LINK_invent/BTK/process_docking_weight1_custom_sum_contain_oxygen_bond_distance_aromatic_linkinvent_7_9_3/rearranged_h_0064.sdf

> <i_m_source_file_index>
81

> <r_mmod_Potential_Energy-OPLS-2005>
314.400848388672

> <r_mmod_Stretch_Energy-OPLS-2005>
160.520065307617

> <r_mmod_Bend_Energy-OPLS-2005>
306.269958496094

> <r_mmod_Torsional_Energy-OPLS-2005>
308.503784179688

> <r_mmod_Improper_Torsional_Energy-OPLS-2005>
5.27951860427856

> <r_mmod_Van_der_Waal_Energy-OPLS-2005>
134.947540283203

> <r_mmod_Electrostatic_Energy-OPLS-2005>
-258.506744384766

> <r_mmod_Solvation_Energy-OPLS-2005>
-410.287292480469

> <b_mmod_Minimization_Converged-OPLS-2005>
0

> <r_mmod_RMS_Derivative-OPLS-2005>
7.18442487716675

$$$$
89
                    3D
 Structure written by MMmdl.
161169  0  0  1  0            999 V2000
  -30.5796  -14.7884   20.4239 C   0  0  0  0  0  0
  -30.4544  -12.4635   19.4982 C   0  0  0  0  0  0
  -29.5340  -12.4416   18.2553 C   0  0  0  0  0  0
  -28.0486  -12.3169   18.6574 C   0  0  0  0  0  0
  -27.6478  -13.2309   19.8465 C   0  0  2  0  0  0
  -28.6908  -13.1782   20.9850 C   0  0  0  0  0  0
  -25.2552  -13.8202   20.5681 C   0  0  0  0  0  0
  -24.1833  -13.0453   20.9191 C   0  0  0  0  0  0
  -24.6419  -11.6930   20.8754 C   0  0  0  0  0  0
  -23.9099  -10.4292   21.0408 C   0  0  0  0  0  0
  -24.3646   -9.4200   21.9180 C   0  0  0  0  0  0
  -23.6300   -8.2246   22.0755 C   0  0  0  0  0  0
  -22.4281   -8.0287   21.3551 C   0  0  0  0  0  0
  -21.9925   -9.0268   20.4660 C   0  0  0  0  0  0
  -22.7273  -10.2137   20.3060 C   0  0  0  0  0  0
  -21.6852   -6.0746   22.5268 C   0  0  0  0  0  0
  -21.4030   -6.5648   23.8211 C   0  0  0  0  0  0
  -21.3651   -5.6790   24.9158 C   0  0  0  0  0  0
  -21.6041   -4.3057   24.7210 C   0  0  0  0  0  0
  -21.8822   -3.8153   23.4327 C   0  0  0  0  0  0
  -21.9191   -4.6975   22.3392 C   0  0  0  0  0  0
  -22.7839  -13.5233   21.1822 C   0  0  0  0  0  0
  -22.1652   -4.2166   21.0966 F   0  0  0  0  0  0
  -21.5611   -3.4529   25.7716 F   0  0  0  0  0  0
  -29.9911  -13.5391   20.4062 N   0  0  0  0  0  0
  -26.2987  -12.9409   20.3262 N   0  0  0  0  0  0
  -25.9362  -11.6562   20.5787 N   0  0  0  0  0  0
  -22.0467  -12.8251   22.0400 N   0  0  0  0  0  0
  -25.4254  -15.1927   20.4099 N   0  0  0  0  0  0
  -31.7690  -14.8999   20.1236 O   0  0  0  0  0  0
  -21.6636   -6.8894   21.4239 O   0  0  0  0  0  0
  -22.3520  -14.5517   20.6629 O   0  0  0  0  0  0
  -24.6294  -31.8535   23.1980 C   0  0  0  0  0  0
  -25.9118  -32.4743   23.8326 C   0  0  1  0  0  0
  -27.2244  -27.2497   20.1406 C   0  0  0  0  0  0
  -25.5928  -33.8549   24.2245 N   0  0  0  0  0  0
  -23.4287  -30.4750   21.5397 C   0  0  2  0  0  0
  -24.8790  -28.9202   20.1135 C   0  0  0  0  0  0
  -22.7496  -29.4586   22.4893 C   0  0  0  0  0  0
  -18.0287  -28.1370   22.8479 C   0  0  0  0  0  0
  -24.1494  -36.7281   23.2639 C   0  0  0  0  0  0
  -25.9749  -30.7655   21.3794 C   0  0  0  0  0  0
  -26.0508  -29.3865   20.7223 C   0  0  0  0  0  0
  -27.2265  -28.5657   20.7217 C   0  0  0  0  0  0
  -26.0268  -26.8561   19.5007 C   0  0  0  0  0  0
  -24.8733  -27.6636   19.4908 C   0  0  0  0  0  0
  -23.6498  -29.8068   20.1567 C   0  0  0  0  0  0
  -25.4123  -36.3059   24.0310 C   0  0  1  0  0  0
  -20.5892  -28.3689   23.1261 C   0  0  2  0  0  0
  -20.6770  -26.9404   22.5408 C   0  0  0  0  0  0
  -19.5751  -26.6361   21.5206 C   0  0  0  0  0  0
  -18.1932  -26.7909   22.1618 C   0  0  0  0  0  0
  -19.1542  -28.8842   23.2868 C   0  0  0  0  0  0
  -18.9466  -30.1443   23.8882 C   0  0  0  0  0  0
  -17.6471  -30.6576   24.0550 C   0  0  0  0  0  0
  -25.9061  -34.9428   23.5077 C   0  0  0  0  0  0
  -16.5362  -29.9071   23.6334 C   0  0  0  0  0  0
  -16.7278  -28.6486   23.0360 C   0  0  0  0  0  0
  -26.4499  -31.6570   25.0710 C   0  0  0  0  0  0
  -25.3737  -31.3714   26.1443 C   0  0  0  0  0  0
  -27.0339  -30.2981   24.6185 C   0  0  0  0  0  0
  -27.6045  -32.4310   25.7496 C   0  0  0  0  0  0
  -27.5578  -37.1797   24.8461 C   0  0  0  0  0  0
  -21.4204  -29.3041   22.3652 N   0  0  0  0  0  0
  -26.4295  -37.3760   23.9398 N   0  0  0  0  0  0
  -24.6964  -31.0492   22.0959 N   0  0  0  0  0  0
  -23.4203  -28.8123   23.2985 O   0  0  0  0  0  0
  -28.3184  -26.3476   20.2064 O   0  0  0  0  0  0
  -26.5645  -34.8902   22.4651 O   0  0  0  0  0  0
  -23.5443  -32.1356   23.7278 O   0  0  0  0  0  0
  -27.8265  -21.5743   20.8049 C   0  0  0  0  0  0
  -29.3036  -20.0623   20.6450 C   0  0  0  0  0  0
  -29.3458  -18.7496   17.8334 C   0  0  0  0  0  0
  -31.3228  -17.2526   18.0445 C   0  0  0  0  0  0
  -29.0231  -16.3204   17.6875 C   0  0  0  0  0  0
  -30.0257  -18.6494   20.8126 C   0  0  0  0  0  0
  -29.2296  -23.7623   20.4736 C   0  0  0  0  0  0
  -28.0682  -24.8551   20.1465 C   0  0  0  0  0  0
  -29.5834  -17.3223   19.9733 C   0  0  1  0  0  0
  -29.8339  -17.4079   18.4185 C   0  0  0  0  0  0
  -27.9664  -20.2388   20.9027 N   0  0  0  0  0  0
  -29.9295  -21.2556   20.4126 N   0  0  0  0  0  0
  -28.9440  -22.2505   20.5128 N   0  0  0  0  0  0
  -29.7296  -15.8841   20.5589 N   0  0  0  0  0  0
  -31.4907  -12.6065   19.1888 H   0  0  0  0  0  0
  -30.4309  -11.5029   20.0142 H   0  0  0  0  0  0
  -29.8075  -11.6033   17.6145 H   0  0  0  0  0  0
  -29.7017  -13.3245   17.6457 H   0  0  0  0  0  0
  -27.8810  -11.2755   18.9315 H   0  0  0  0  0  0
  -27.4062  -12.5089   17.7973 H   0  0  0  0  0  0
  -27.6377  -14.2471   19.4540 H   0  0  0  0  0  0
  -28.7296  -12.1852   21.4362 H   0  0  0  0  0  0
  -28.4190  -13.8666   21.7859 H   0  0  0  0  0  0
  -25.2786   -9.5655   22.4758 H   0  0  0  0  0  0
  -23.9984   -7.4644   22.7499 H   0  0  0  0  0  0
  -21.0838   -8.8822   19.8983 H   0  0  0  0  0  0
  -22.3745  -10.9680   19.6169 H   0  0  0  0  0  0
  -21.2052   -7.6159   23.9724 H   0  0  0  0  0  0
  -21.1453   -6.0511   25.9068 H   0  0  0  0  0  0
  -22.0616   -2.7618   23.2812 H   0  0  0  0  0  0
  -22.4056  -11.9937   22.4854 H   0  0  0  0  0  0
  -21.1103  -13.1349   22.2602 H   0  0  0  0  0  0
  -24.6635  -15.8505   20.5327 H   0  0  0  0  0  0
  -26.2760  -15.6305   20.0815 H   0  0  0  0  0  0
  -26.7180  -32.5384   23.1069 H   0  0  0  0  0  0
  -25.0065  -33.9687   25.0383 H   0  0  0  0  0  0
  -22.7245  -31.2964   21.3905 H   0  0  0  0  0  0
  -23.3747  -35.9623   23.3295 H   0  0  0  0  0  0
  -24.3597  -36.8911   22.2057 H   0  0  0  0  0  0
  -23.7251  -37.6474   23.6685 H   0  0  0  0  0  0
  -26.1127  -31.5251   20.6095 H   0  0  0  0  0  0
  -26.8518  -30.8173   22.0128 H   0  0  0  0  0  0
  -28.1218  -28.9170   21.2172 H   0  0  0  0  0  0
  -25.9474  -25.8955   19.0157 H   0  0  0  0  0  0
  -23.9760  -27.2971   19.0119 H   0  0  0  0  0  0
  -23.7781  -30.5808   19.3988 H   0  0  0  0  0  0
  -22.7685  -29.2398   19.8512 H   0  0  0  0  0  0
  -25.1310  -36.1907   25.0801 H   0  0  0  0  0  0
  -20.9991  -28.3261   24.1378 H   0  0  0  0  0  0
  -20.5652  -26.2300   23.3613 H   0  0  0  0  0  0
  -21.6638  -26.7406   22.1215 H   0  0  0  0  0  0
  -19.6918  -25.6266   21.1240 H   0  0  0  0  0  0
  -19.6687  -27.3156   20.6723 H   0  0  0  0  0  0
  -17.4207  -26.6653   21.4019 H   0  0  0  0  0  0
  -18.0347  -26.0046   22.9013 H   0  0  0  0  0  0
  -19.7951  -30.7252   24.2244 H   0  0  0  0  0  0
  -17.5033  -31.6259   24.5146 H   0  0  0  0  0  0
  -15.5365  -30.2976   23.7641 H   0  0  0  0  0  0
  -15.8680  -28.0790   22.7094 H   0  0  0  0  0  0
  -24.5920  -30.7049   25.7785 H   0  0  0  0  0  0
  -24.8930  -32.2880   26.4869 H   0  0  0  0  0  0
  -25.8073  -30.8902   27.0221 H   0  0  0  0  0  0
  -26.2908  -29.6733   24.1215 H   0  0  0  0  0  0
  -27.4026  -29.7236   25.4694 H   0  0  0  0  0  0
  -27.8795  -30.4241   23.9417 H   0  0  0  0  0  0
  -27.2645  -33.3619   26.2053 H   0  0  0  0  0  0
  -28.3889  -32.6848   25.0353 H   0  0  0  0  0  0
  -28.0688  -31.8448   26.5441 H   0  0  0  0  0  0
  -28.2584  -38.0106   24.7506 H   0  0  0  0  0  0
  -28.1080  -36.2625   24.6292 H   0  0  0  0  0  0
  -27.2295  -37.1452   25.8865 H   0  0  0  0  0  0
  -20.9387  -29.8793   21.6878 H   0  0  0  0  0  0
  -26.0157  -38.2821   24.1419 H   0  0  0  0  0  0
  -26.8848  -22.0730   20.9895 H   0  0  0  0  0  0
  -29.3548  -18.7383   16.7425 H   0  0  0  0  0  0
  -29.9796  -19.5861   18.1262 H   0  0  0  0  0  0
  -28.3215  -18.9706   18.1360 H   0  0  0  0  0  0
  -31.5144  -17.6148   17.0331 H   0  0  0  0  0  0
  -31.6503  -16.2153   18.0505 H   0  0  0  0  0  0
  -31.9720  -17.8128   18.7163 H   0  0  0  0  0  0
  -29.1825  -16.3465   16.6083 H   0  0  0  0  0  0
  -27.9522  -16.4208   17.8674 H   0  0  0  0  0  0
  -29.3099  -15.3317   18.0136 H   0  0  0  0  0  0
  -29.9594  -18.3957   21.8700 H   0  0  0  0  0  0
  -31.0897  -18.8104   20.6427 H   0  0  0  0  0  0
  -29.6457  -24.0151   21.4486 H   0  0  0  0  0  0
  -30.0444  -23.9165   19.7667 H   0  0  0  0  0  0
  -27.2368  -24.6508   20.8219 H   0  0  0  0  0  0
  -27.7106  -24.6222   19.1437 H   0  0  0  0  0  0
  -28.4992  -17.4128   20.0523 H   0  0  0  0  0  0
  -28.8464  -15.5677   20.9291 H   0  0  0  0  0  0
  1 25  1  0  0  0
  1 30  2  0  0  0
  1 84  1  0  0  0
  2  3  1  0  0  0
  2 25  1  0  0  0
  2 85  1  0  0  0
  2 86  1  0  0  0
  3  4  1  0  0  0
  3 87  1  0  0  0
  3 88  1  0  0  0
  4  5  1  0  0  0
  4 89  1  0  0  0
  4 90  1  0  0  0
  5  6  1  0  0  0
  5 26  1  0  0  0
  5 91  1  0  0  0
  6 25  1  0  0  0
  6 92  1  0  0  0
  6 93  1  0  0  0
  7  8  2  0  0  0
  7 26  1  0  0  0
  7 29  1  0  0  0
  8  9  1  0  0  0
  8 22  1  0  0  0
  9 10  1  0  0  0
  9 27  2  0  0  0
 10 11  2  0  0  0
 10 15  1  0  0  0
 11 12  1  0  0  0
 11 94  1  0  0  0
 12 13  2  0  0  0
 12 95  1  0  0  0
 13 14  1  0  0  0
 13 31  1  0  0  0
 14 15  2  0  0  0
 14 96  1  0  0  0
 15 97  1  0  0  0
 16 17  2  0  0  0
 16 21  1  0  0  0
 16 31  1  0  0  0
 17 18  1  0  0  0
 17 98  1  0  0  0
 18 19  2  0  0  0
 18 99  1  0  0  0
 19 20  1  0  0  0
 19 24  1  0  0  0
 20 21  2  0  0  0
 20100  1  0  0  0
 21 23  1  0  0  0
 22 28  1  0  0  0
 22 32  2  0  0  0
 26 27  1  0  0  0
 28101  1  0  0  0
 28102  1  0  0  0
 29103  1  0  0  0
 29104  1  0  0  0
 33 34  1  0  0  0
 33 66  1  0  0  0
 33 70  2  0  0  0
 34 36  1  0  0  0
 34 59  1  0  0  0
 34105  1  0  0  0
 35 44  2  0  0  0
 35 45  1  0  0  0
 35 68  1  0  0  0
 36 56  1  0  0  0
 36106  1  0  0  0
 37 39  1  0  0  0
 37 47  1  0  0  0
 37 66  1  0  0  0
 37107  1  0  0  0
 38 43  2  0  0  0
 38 46  1  0  0  0
 38 47  1  0  0  0
 39 64  1  0  0  0
 39 67  2  0  0  0
 40 52  1  0  0  0
 40 53  2  0  0  0
 40 58  1  0  0  0
 41108  1  0  0  0
 41109  1  0  0  0
 41110  1  0  0  0
 41 48  1  0  0  0
 42 43  1  0  0  0
 42 66  1  0  0  0
 42111  1  0  0  0
 42112  1  0  0  0
 43 44  1  0  0  0
 44113  1  0  0  0
 45 46  2  0  0  0
 45114  1  0  0  0
 46115  1  0  0  0
 47116  1  0  0  0
 47117  1  0  0  0
 48 56  1  0  0  0
 48 65  1  0  0  0
 48118  1  0  0  0
 49 50  1  0  0  0
 49 53  1  0  0  0
 49 64  1  0  0  0
 49119  1  0  0  0
 50 51  1  0  0  0
 50120  1  0  0  0
 50121  1  0  0  0
 51 52  1  0  0  0
 51122  1  0  0  0
 51123  1  0  0  0
 52124  1  0  0  0
 52125  1  0  0  0
 53 54  1  0  0  0
 54 55  2  0  0  0
 54126  1  0  0  0
 55 57  1  0  0  0
 55127  1  0  0  0
 56 69  2  0  0  0
 57 58  2  0  0  0
 57128  1  0  0  0
 58129  1  0  0  0
 59 60  1  0  0  0
 59 61  1  0  0  0
 59 62  1  0  0  0
 60130  1  0  0  0
 60131  1  0  0  0
 60132  1  0  0  0
 61133  1  0  0  0
 61134  1  0  0  0
 61135  1  0  0  0
 62136  1  0  0  0
 62137  1  0  0  0
 62138  1  0  0  0
 63 65  1  0  0  0
 63139  1  0  0  0
 63140  1  0  0  0
 63141  1  0  0  0
 64142  1  0  0  0
 65143  1  0  0  0
 68 78  1  0  0  0
 71 81  2  0  0  0
 71 83  1  0  0  0
 71144  1  0  0  0
 72 76  1  0  0  0
 72 81  1  0  0  0
 72 82  2  0  0  0
 73145  1  0  0  0
 73146  1  0  0  0
 73147  1  0  0  0
 73 80  1  0  0  0
 74 80  1  0  0  0
 74148  1  0  0  0
 74149  1  0  0  0
 74150  1  0  0  0
 75 80  1  0  0  0
 75151  1  0  0  0
 75152  1  0  0  0
 75153  1  0  0  0
 76154  1  0  0  0
 76155  1  0  0  0
 76 79  1  0  0  0
 77 78  1  0  0  0
 77 83  1  0  0  0
 77156  1  0  0  0
 77157  1  0  0  0
 78158  1  0  0  0
 78159  1  0  0  0
 79 80  1  0  0  0
 79 84  1  0  0  0
 79160  1  0  0  0
 82 83  1  0  0  0
 84161  1  0  0  0
M  ISO  4   1 100  68 101  78 101  84 100
M  END
> <chiral flag>
0

> <version>
0

> <s_m_source_file>
/data/baiqing/PycharmProjects/Reinvent-master-3.2/result/LINK_invent/BTK/process_docking_weight1_custom_sum_contain_oxygen_bond_distance_aromatic_linkinvent_7_9_3/rearranged_h_0064.sdf

> <i_m_source_file_index>
82

> <r_mmod_Potential_Energy-OPLS-2005>
203.842895507812

> <r_mmod_Stretch_Energy-OPLS-2005>
147.675430297852

> <r_mmod_Bend_Energy-OPLS-2005>
210.870895385742

> <r_mmod_Torsional_Energy-OPLS-2005>
246.479965209961

> <r_mmod_Improper_Torsional_Energy-OPLS-2005>
7.58359670639038

> <r_mmod_Van_der_Waal_Energy-OPLS-2005>
116.940940856934

> <r_mmod_Electrostatic_Energy-OPLS-2005>
-398.560272216797

> <r_mmod_Solvation_Energy-OPLS-2005>
-228.477630615234

> <b_mmod_Minimization_Converged-OPLS-2005>
0

> <r_mmod_RMS_Derivative-OPLS-2005>
2.46177411079407

$$$$
90
                    3D
 Structure written by MMmdl.
184192  0  0  1  0            999 V2000
  -30.6968  -14.7323   20.5861 C   0  0  0  0  0  0
  -30.4247  -12.4748   19.4938 C   0  0  0  0  0  0
  -29.5160  -12.5478   18.2456 C   0  0  0  0  0  0
  -28.0411  -12.3477   18.6356 C   0  0  0  0  0  0
  -27.6488  -13.2169   19.8540 C   0  0  2  0  0  0
  -28.6871  -13.0818   20.9931 C   0  0  0  0  0  0
  -25.2392  -13.8123   20.5494 C   0  0  0  0  0  0
  -24.1765  -13.0378   20.9195 C   0  0  0  0  0  0
  -24.6405  -11.6878   20.8763 C   0  0  0  0  0  0
  -23.9099  -10.4266   21.0433 C   0  0  0  0  0  0
  -24.3650   -9.4175   21.9209 C   0  0  0  0  0  0
  -23.6292   -8.2230   22.0775 C   0  0  0  0  0  0
  -22.4258   -8.0294   21.3585 C   0  0  0  0  0  0
  -21.9929   -9.0258   20.4667 C   0  0  0  0  0  0
  -22.7280  -10.2120   20.3078 C   0  0  0  0  0  0
  -21.6830   -6.0743   22.5316 C   0  0  0  0  0  0
  -21.3991   -6.5657   23.8251 C   0  0  0  0  0  0
  -21.3658   -5.6816   24.9223 C   0  0  0  0  0  0
  -21.6030   -4.3080   24.7266 C   0  0  0  0  0  0
  -21.8804   -3.8162   23.4388 C   0  0  0  0  0  0
  -21.9175   -4.6968   22.3439 C   0  0  0  0  0  0
  -22.7767  -13.5129   21.1880 C   0  0  0  0  0  0
  -22.1647   -4.2159   21.1010 F   0  0  0  0  0  0
  -21.5635   -3.4573   25.7782 F   0  0  0  0  0  0
  -30.0017  -13.5212   20.4798 N   0  0  0  0  0  0
  -26.2927  -12.9378   20.3224 N   0  0  0  0  0  0
  -25.9337  -11.6531   20.5763 N   0  0  0  0  0  0
  -22.0414  -12.8161   22.0462 N   0  0  0  0  0  0
  -25.3787  -15.1838   20.3595 N   0  0  0  0  0  0
  -31.7080  -14.8011   19.8762 O   0  0  0  0  0  0
  -21.6617   -6.8896   21.4278 O   0  0  0  0  0  0
  -22.3433  -14.5426   20.6709 O   0  0  0  0  0  0
  -24.6291  -31.8559   23.1978 C   0  0  0  0  0  0
  -25.9118  -32.4748   23.8322 C   0  0  1  0  0  0
  -27.2445  -27.2830   20.1230 C   0  0  0  0  0  0
  -25.5921  -33.8552   24.2250 N   0  0  0  0  0  0
  -23.4258  -30.4766   21.5424 C   0  0  2  0  0  0
  -24.8789  -28.9233   20.1128 C   0  0  0  0  0  0
  -22.7476  -29.4598   22.4917 C   0  0  0  0  0  0
  -18.0274  -28.1350   22.8499 C   0  0  0  0  0  0
  -24.1500  -36.7280   23.2642 C   0  0  0  0  0  0
  -25.9694  -30.7744   21.3779 C   0  0  0  0  0  0
  -26.0473  -29.3970   20.7219 C   0  0  0  0  0  0
  -27.2311  -28.5928   20.7109 C   0  0  0  0  0  0
  -26.0480  -26.8704   19.4906 C   0  0  0  0  0  0
  -24.8851  -27.6678   19.4848 C   0  0  0  0  0  0
  -23.6457  -29.8061   20.1603 C   0  0  0  0  0  0
  -25.4131  -36.3083   24.0330 C   0  0  1  0  0  0
  -20.5875  -28.3678   23.1271 C   0  0  2  0  0  0
  -20.6766  -26.9404   22.5416 C   0  0  0  0  0  0
  -19.5744  -26.6371   21.5212 C   0  0  0  0  0  0
  -18.1917  -26.7899   22.1619 C   0  0  0  0  0  0
  -19.1531  -28.8834   23.2874 C   0  0  0  0  0  0
  -18.9455  -30.1419   23.8917 C   0  0  0  0  0  0
  -17.6468  -30.6573   24.0562 C   0  0  0  0  0  0
  -25.9068  -34.9442   23.5105 C   0  0  0  0  0  0
  -16.5350  -29.9088   23.6318 C   0  0  0  0  0  0
  -16.7261  -28.6469   23.0389 C   0  0  0  0  0  0
  -26.4514  -31.6540   25.0684 C   0  0  0  0  0  0
  -25.3743  -31.3642   26.1400 C   0  0  0  0  0  0
  -27.0371  -30.2962   24.6144 C   0  0  0  0  0  0
  -27.6082  -32.4269   25.7448 C   0  0  0  0  0  0
  -27.5597  -37.1791   24.8463 C   0  0  0  0  0  0
  -21.4183  -29.3032   22.3661 N   0  0  0  0  0  0
  -26.4311  -37.3781   23.9412 N   0  0  0  0  0  0
  -24.6931  -31.0538   22.0952 N   0  0  0  0  0  0
  -23.4186  -28.8157   23.3032 O   0  0  0  0  0  0
  -28.3851  -26.4443   20.1393 O   0  0  0  0  0  0
  -26.5646  -34.8924   22.4673 O   0  0  0  0  0  0
  -23.5440  -32.1364   23.7290 O   0  0  0  0  0  0
  -30.3126  -19.0456   19.4046 C   0  0  0  0  0  0
  -29.8243  -18.6708   21.4404 C   0  0  0  0  0  0
  -29.9103  -19.7632   20.5811 C   0  0  0  0  0  0
  -30.9042  -20.9109   23.2136 C   0  0  0  0  0  0
  -32.1273  -15.9761   23.8050 C   0  0  0  0  0  0
  -32.9084  -17.2633   21.7798 C   0  0  0  0  0  0
  -29.2657  -16.6769   23.9540 C   0  0  0  0  0  0
  -27.9298  -16.0695   21.9786 C   0  0  0  0  0  0
  -28.1876  -21.3886   21.4899 C   0  0  0  0  0  0
  -28.6176  -22.0923   18.6055 C   0  0  0  0  0  0
  -31.0712  -22.1575   18.9583 C   0  0  0  0  0  0
  -30.5654  -21.8402   22.0321 C   0  0  0  0  0  0
  -28.2653  -24.9435   20.1653 C   0  0  0  0  0  0
  -31.9667  -16.1386   22.2783 C   0  0  0  0  0  0
  -29.3172  -15.8579   22.6283 C   0  0  0  0  0  0
  -29.6097  -21.3299   20.8912 C   0  0  1  0  0  0
  -30.5014  -16.0559   21.5754 C   0  0  0  0  0  0
  -29.6963  -22.4281   19.6609 C   0  0  0  0  0  0
  -29.5988  -24.0720   19.9078 C   0  0  0  0  0  0
  -30.5150  -17.7222   19.5808 N   0  0  0  0  0  0
  -30.2343  -17.4326   20.8815 N   0  0  0  0  0  0
  -29.9802  -24.6298   18.7558 F   0  0  0  0  0  0
  -30.4963  -24.4408   20.8185 F   0  0  0  0  0  0
  -31.4689  -12.5595   19.1905 H   0  0  0  0  0  0
  -30.3592  -11.4802   19.9376 H   0  0  0  0  0  0
  -29.8117  -11.7900   17.5181 H   0  0  0  0  0  0
  -29.6474  -13.5137   17.7545 H   0  0  0  0  0  0
  -27.8965  -11.2923   18.8699 H   0  0  0  0  0  0
  -27.3965  -12.5674   17.7835 H   0  0  0  0  0  0
  -27.6629  -14.2398   19.4832 H   0  0  0  0  0  0
  -28.7374  -12.0425   21.3248 H   0  0  0  0  0  0
  -28.3252  -13.5960   21.8667 H   0  0  0  0  0  0
  -25.2803   -9.5623   22.4783 H   0  0  0  0  0  0
  -23.9991   -7.4608   22.7496 H   0  0  0  0  0  0
  -21.0870   -8.8778   19.8959 H   0  0  0  0  0  0
  -22.3769  -10.9662   19.6181 H   0  0  0  0  0  0
  -21.1982   -7.6166   23.9773 H   0  0  0  0  0  0
  -21.1493   -6.0553   25.9133 H   0  0  0  0  0  0
  -22.0573   -2.7619   23.2915 H   0  0  0  0  0  0
  -22.3992  -11.9834   22.4913 H   0  0  0  0  0  0
  -21.1015  -13.1178   22.2650 H   0  0  0  0  0  0
  -24.5958  -15.8205   20.4601 H   0  0  0  0  0  0
  -26.2267  -15.6411   20.0522 H   0  0  0  0  0  0
  -26.7171  -32.5427   23.1060 H   0  0  0  0  0  0
  -25.0033  -33.9672   25.0375 H   0  0  0  0  0  0
  -22.7196  -31.2969   21.3948 H   0  0  0  0  0  0
  -23.3793  -35.9580   23.3278 H   0  0  0  0  0  0
  -24.3588  -36.8932   22.2061 H   0  0  0  0  0  0
  -23.7219  -37.6457   23.6681 H   0  0  0  0  0  0
  -26.1086  -31.5411   20.6138 H   0  0  0  0  0  0
  -26.8442  -30.8201   22.0144 H   0  0  0  0  0  0
  -28.1303  -28.9601   21.1857 H   0  0  0  0  0  0
  -25.9840  -25.9231   18.9795 H   0  0  0  0  0  0
  -23.9945  -27.3057   18.9895 H   0  0  0  0  0  0
  -23.7618  -30.5813   19.4018 H   0  0  0  0  0  0
  -22.7648  -29.2347   19.8607 H   0  0  0  0  0  0
  -25.1320  -36.1942   25.0830 H   0  0  0  0  0  0
  -20.9940  -28.3280   24.1398 H   0  0  0  0  0  0
  -20.5654  -26.2304   23.3623 H   0  0  0  0  0  0
  -21.6642  -26.7426   22.1230 H   0  0  0  0  0  0
  -19.6931  -25.6292   21.1225 H   0  0  0  0  0  0
  -19.6676  -27.3202   20.6757 H   0  0  0  0  0  0
  -17.4196  -26.6641   21.4014 H   0  0  0  0  0  0
  -18.0323  -26.0017   22.8988 H   0  0  0  0  0  0
  -19.7943  -30.7197   24.2330 H   0  0  0  0  0  0
  -17.5038  -31.6269   24.5139 H   0  0  0  0  0  0
  -15.5359  -30.3021   23.7594 H   0  0  0  0  0  0
  -15.8645  -28.0769   22.7165 H   0  0  0  0  0  0
  -24.5963  -30.6951   25.7707 H   0  0  0  0  0  0
  -24.8878  -32.2780   26.4813 H   0  0  0  0  0  0
  -25.8074  -30.8826   27.0175 H   0  0  0  0  0  0
  -26.2944  -29.6670   24.1226 H   0  0  0  0  0  0
  -27.4140  -29.7249   25.4634 H   0  0  0  0  0  0
  -27.8788  -30.4238   23.9333 H   0  0  0  0  0  0
  -27.2724  -33.3592   26.2002 H   0  0  0  0  0  0
  -28.3905  -32.6775   25.0269 H   0  0  0  0  0  0
  -28.0740  -31.8392   26.5371 H   0  0  0  0  0  0
  -28.2600  -38.0107   24.7580 H   0  0  0  0  0  0
  -28.1115  -36.2646   24.6238 H   0  0  0  0  0  0
  -27.2301  -37.1381   25.8858 H   0  0  0  0  0  0
  -20.9368  -29.8732   21.6847 H   0  0  0  0  0  0
  -26.0200  -38.2854   24.1442 H   0  0  0  0  0  0
  -30.4861  -19.4345   18.4121 H   0  0  0  0  0  0
  -29.5225  -18.7139   22.4679 H   0  0  0  0  0  0
  -31.4280  -21.4621   23.9944 H   0  0  0  0  0  0
  -31.5712  -20.1041   22.9130 H   0  0  0  0  0  0
  -30.0152  -20.4836   23.6742 H   0  0  0  0  0  0
  -33.1460  -15.6775   24.0492 H   0  0  0  0  0  0
  -31.4885  -15.1931   24.2067 H   0  0  0  0  0  0
  -31.9677  -16.9047   24.3493 H   0  0  0  0  0  0
  -33.9055  -17.1632   22.2095 H   0  0  0  0  0  0
  -32.5498  -18.2533   22.0554 H   0  0  0  0  0  0
  -33.0327  -17.2318   20.6959 H   0  0  0  0  0  0
  -29.4290  -16.0342   24.8209 H   0  0  0  0  0  0
  -28.2970  -17.1483   24.1240 H   0  0  0  0  0  0
  -29.9909  -17.4776   24.0162 H   0  0  0  0  0  0
  -27.1476  -15.5243   22.5086 H   0  0  0  0  0  0
  -27.9278  -15.7546   20.9426 H   0  0  0  0  0  0
  -27.6274  -17.1163   21.9652 H   0  0  0  0  0  0
  -28.1090  -20.7956   22.4000 H   0  0  0  0  0  0
  -27.4398  -20.9989   20.8013 H   0  0  0  0  0  0
  -27.8985  -22.4068   21.7501 H   0  0  0  0  0  0
  -28.6252  -21.0369   18.3397 H   0  0  0  0  0  0
  -28.7764  -22.6542   17.6842 H   0  0  0  0  0  0
  -27.6142  -22.3302   18.9530 H   0  0  0  0  0  0
  -30.9617  -21.5969   18.0304 H   0  0  0  0  0  0
  -31.7637  -21.5813   19.5679 H   0  0  0  0  0  0
  -31.6199  -23.0603   18.6982 H   0  0  0  0  0  0
  -31.5256  -22.1467   21.6197 H   0  0  0  0  0  0
  -30.1438  -22.7474   22.4628 H   0  0  0  0  0  0
  -27.8283  -24.6665   21.1242 H   0  0  0  0  0  0
  -27.5532  -24.6257   19.4098 H   0  0  0  0  0  0
  -32.5323  -15.2464   22.0065 H   0  0  0  0  0  0
  -29.4117  -14.8397   22.9928 H   0  0  0  0  0  0
  1 25  1  0  0  0
  1 30  2  0  0  0
  1 87  1  0  0  0
  2  3  1  0  0  0
  2 25  1  0  0  0
  2 94  1  0  0  0
  2 95  1  0  0  0
  3  4  1  0  0  0
  3 96  1  0  0  0
  3 97  1  0  0  0
  4  5  1  0  0  0
  4 98  1  0  0  0
  4 99  1  0  0  0
  5  6  1  0  0  0
  5 26  1  0  0  0
  5100  1  0  0  0
  6 25  1  0  0  0
  6101  1  0  0  0
  6102  1  0  0  0
  7  8  2  0  0  0
  7 26  1  0  0  0
  7 29  1  0  0  0
  8  9  1  0  0  0
  8 22  1  0  0  0
  9 10  1  0  0  0
  9 27  2  0  0  0
 10 11  2  0  0  0
 10 15  1  0  0  0
 11 12  1  0  0  0
 11103  1  0  0  0
 12 13  2  0  0  0
 12104  1  0  0  0
 13 14  1  0  0  0
 13 31  1  0  0  0
 14 15  2  0  0  0
 14105  1  0  0  0
 15106  1  0  0  0
 16 17  2  0  0  0
 16 21  1  0  0  0
 16 31  1  0  0  0
 17 18  1  0  0  0
 17107  1  0  0  0
 18 19  2  0  0  0
 18108  1  0  0  0
 19 20  1  0  0  0
 19 24  1  0  0  0
 20 21  2  0  0  0
 20109  1  0  0  0
 21 23  1  0  0  0
 22 28  1  0  0  0
 22 32  2  0  0  0
 26 27  1  0  0  0
 28110  1  0  0  0
 28111  1  0  0  0
 29112  1  0  0  0
 29113  1  0  0  0
 33 34  1  0  0  0
 33 66  1  0  0  0
 33 70  2  0  0  0
 34 36  1  0  0  0
 34 59  1  0  0  0
 34114  1  0  0  0
 35 44  2  0  0  0
 35 45  1  0  0  0
 35 68  1  0  0  0
 36 56  1  0  0  0
 36115  1  0  0  0
 37 39  1  0  0  0
 37 47  1  0  0  0
 37 66  1  0  0  0
 37116  1  0  0  0
 38 43  2  0  0  0
 38 46  1  0  0  0
 38 47  1  0  0  0
 39 64  1  0  0  0
 39 67  2  0  0  0
 40 52  1  0  0  0
 40 53  2  0  0  0
 40 58  1  0  0  0
 41117  1  0  0  0
 41118  1  0  0  0
 41119  1  0  0  0
 41 48  1  0  0  0
 42 43  1  0  0  0
 42 66  1  0  0  0
 42120  1  0  0  0
 42121  1  0  0  0
 43 44  1  0  0  0
 44122  1  0  0  0
 45 46  2  0  0  0
 45123  1  0  0  0
 46124  1  0  0  0
 47125  1  0  0  0
 47126  1  0  0  0
 48 56  1  0  0  0
 48 65  1  0  0  0
 48127  1  0  0  0
 49 50  1  0  0  0
 49 53  1  0  0  0
 49 64  1  0  0  0
 49128  1  0  0  0
 50 51  1  0  0  0
 50129  1  0  0  0
 50130  1  0  0  0
 51 52  1  0  0  0
 51131  1  0  0  0
 51132  1  0  0  0
 52133  1  0  0  0
 52134  1  0  0  0
 53 54  1  0  0  0
 54 55  2  0  0  0
 54135  1  0  0  0
 55 57  1  0  0  0
 55136  1  0  0  0
 56 69  2  0  0  0
 57 58  2  0  0  0
 57137  1  0  0  0
 58138  1  0  0  0
 59 60  1  0  0  0
 59 61  1  0  0  0
 59 62  1  0  0  0
 60139  1  0  0  0
 60140  1  0  0  0
 60141  1  0  0  0
 61142  1  0  0  0
 61143  1  0  0  0
 61144  1  0  0  0
 62145  1  0  0  0
 62146  1  0  0  0
 62147  1  0  0  0
 63 65  1  0  0  0
 63148  1  0  0  0
 63149  1  0  0  0
 63150  1  0  0  0
 64151  1  0  0  0
 65152  1  0  0  0
 68 83  1  0  0  0
 71 73  1  0  0  0
 71 90  2  0  0  0
 71153  1  0  0  0
 72 73  2  0  0  0
 72 91  1  0  0  0
 72154  1  0  0  0
 73 86  1  0  0  0
 74 82  1  0  0  0
 74155  1  0  0  0
 74156  1  0  0  0
 74157  1  0  0  0
 75158  1  0  0  0
 75159  1  0  0  0
 75160  1  0  0  0
 75 84  1  0  0  0
 76 84  1  0  0  0
 76161  1  0  0  0
 76162  1  0  0  0
 76163  1  0  0  0
 77164  1  0  0  0
 77165  1  0  0  0
 77166  1  0  0  0
 77 85  1  0  0  0
 78 85  1  0  0  0
 78167  1  0  0  0
 78168  1  0  0  0
 78169  1  0  0  0
 79170  1  0  0  0
 79171  1  0  0  0
 79172  1  0  0  0
 79 86  1  0  0  0
 80173  1  0  0  0
 80174  1  0  0  0
 80175  1  0  0  0
 80 88  1  0  0  0
 81 88  1  0  0  0
 81176  1  0  0  0
 81177  1  0  0  0
 81178  1  0  0  0
 82 86  1  0  0  0
 82179  1  0  0  0
 82180  1  0  0  0
 83 89  1  0  0  0
 83181  1  0  0  0
 83182  1  0  0  0
 84 87  1  0  0  0
 84183  1  0  0  0
 85 87  1  0  0  0
 85184  1  0  0  0
 86 88  1  0  0  0
 87 91  1  0  0  0
 88 89  1  0  0  0
 89 92  1  0  0  0
 89 93  1  0  0  0
 90 91  1  0  0  0
M  ISO  4   1 100  68 101  83 101  87 100
M  END
> <chiral flag>
0

> <version>
0

> <s_m_source_file>
/data/baiqing/PycharmProjects/Reinvent-master-3.2/result/LINK_invent/BTK/process_docking_weight1_custom_sum_contain_oxygen_bond_distance_aromatic_linkinvent_7_9_3/rearranged_h_0064.sdf

> <i_m_source_file_index>
83

> <r_mmod_Potential_Energy-OPLS-2005>
697.434875488281

> <r_mmod_Stretch_Energy-OPLS-2005>
203.366195678711

> <r_mmod_Bend_Energy-OPLS-2005>
298.706359863281

> <r_mmod_Torsional_Energy-OPLS-2005>
278.746734619141

> <r_mmod_Improper_Torsional_Energy-OPLS-2005>
3.15884137153625

> <r_mmod_Van_der_Waal_Energy-OPLS-2005>
191.555206298828

> <r_mmod_Electrostatic_Energy-OPLS-2005>
-162.460510253906

> <r_mmod_Solvation_Energy-OPLS-2005>
-185.252227783203

> <b_mmod_Minimization_Converged-OPLS-2005>
0

> <r_mmod_RMS_Derivative-OPLS-2005>
3.50832986831665

$$$$
92
                    3D
 Structure written by MMmdl.
173181  0  0  1  0            999 V2000
  -30.5908  -14.7823   20.4132 C   0  0  0  0  0  0
  -30.4423  -12.4579   19.4835 C   0  0  0  0  0  0
  -29.5179  -12.4044   18.2460 C   0  0  0  0  0  0
  -28.0309  -12.3081   18.6511 C   0  0  0  0  0  0
  -27.6354  -13.2286   19.8397 C   0  0  2  0  0  0
  -28.6843  -13.1980   20.9690 C   0  0  0  0  0  0
  -25.2489  -13.8180   20.5681 C   0  0  0  0  0  0
  -24.1786  -13.0433   20.9213 C   0  0  0  0  0  0
  -24.6377  -11.6913   20.8774 C   0  0  0  0  0  0
  -23.9056  -10.4295   21.0431 C   0  0  0  0  0  0
  -24.3608   -9.4211   21.9204 C   0  0  0  0  0  0
  -23.6291   -8.2243   22.0761 C   0  0  0  0  0  0
  -22.4277   -8.0278   21.3544 C   0  0  0  0  0  0
  -21.9910   -9.0252   20.4646 C   0  0  0  0  0  0
  -22.7234  -10.2139   20.3068 C   0  0  0  0  0  0
  -21.6855   -6.0736   22.5282 C   0  0  0  0  0  0
  -21.4016   -6.5640   23.8213 C   0  0  0  0  0  0
  -21.3657   -5.6796   24.9175 C   0  0  0  0  0  0
  -21.6041   -4.3058   24.7230 C   0  0  0  0  0  0
  -21.8818   -3.8146   23.4351 C   0  0  0  0  0  0
  -21.9193   -4.6963   22.3405 C   0  0  0  0  0  0
  -22.7805  -13.5229   21.1863 C   0  0  0  0  0  0
  -22.1663   -4.2146   21.0982 F   0  0  0  0  0  0
  -21.5625   -3.4540   25.7742 F   0  0  0  0  0  0
  -29.9716  -13.5509   20.3634 N   0  0  0  0  0  0
  -26.2916  -12.9385   20.3292 N   0  0  0  0  0  0
  -25.9312  -11.6539   20.5810 N   0  0  0  0  0  0
  -22.0449  -12.8220   22.0411 N   0  0  0  0  0  0
  -25.4150  -15.1887   20.4046 N   0  0  0  0  0  0
  -31.8130  -14.8496   20.2483 O   0  0  0  0  0  0
  -21.6639   -6.8875   21.4240 O   0  0  0  0  0  0
  -22.3492  -14.5541   20.6718 O   0  0  0  0  0  0
  -24.6304  -31.8546   23.1963 C   0  0  0  0  0  0
  -25.9132  -32.4749   23.8311 C   0  0  1  0  0  0
  -27.2203  -27.2563   20.1454 C   0  0  0  0  0  0
  -25.5927  -33.8550   24.2239 N   0  0  0  0  0  0
  -23.4278  -30.4769   21.5394 C   0  0  2  0  0  0
  -24.8766  -28.9209   20.1112 C   0  0  0  0  0  0
  -22.7506  -29.4598   22.4900 C   0  0  0  0  0  0
  -18.0298  -28.1400   22.8470 C   0  0  0  0  0  0
  -24.1491  -36.7283   23.2644 C   0  0  0  0  0  0
  -25.9725  -30.7695   21.3745 C   0  0  0  0  0  0
  -26.0462  -29.3902   20.7206 C   0  0  0  0  0  0
  -27.2220  -28.5719   20.7221 C   0  0  0  0  0  0
  -26.0285  -26.8550   19.5032 C   0  0  0  0  0  0
  -24.8732  -27.6629   19.4887 C   0  0  0  0  0  0
  -23.6472  -29.8089   20.1561 C   0  0  0  0  0  0
  -25.4115  -36.3066   24.0328 C   0  0  1  0  0  0
  -20.5900  -28.3703   23.1283 C   0  0  2  0  0  0
  -20.6781  -26.9424   22.5411 C   0  0  0  0  0  0
  -19.5757  -26.6386   21.5220 C   0  0  0  0  0  0
  -18.1936  -26.7933   22.1626 C   0  0  0  0  0  0
  -19.1550  -28.8866   23.2866 C   0  0  0  0  0  0
  -18.9479  -30.1461   23.8890 C   0  0  0  0  0  0
  -17.6476  -30.6589   24.0568 C   0  0  0  0  0  0
  -25.9064  -34.9437   23.5095 C   0  0  0  0  0  0
  -16.5366  -29.9087   23.6337 C   0  0  0  0  0  0
  -16.7289  -28.6522   23.0331 C   0  0  0  0  0  0
  -26.4503  -31.6576   25.0700 C   0  0  0  0  0  0
  -25.3722  -31.3730   26.1416 C   0  0  0  0  0  0
  -27.0360  -30.3007   24.6157 C   0  0  0  0  0  0
  -27.6045  -32.4313   25.7483 C   0  0  0  0  0  0
  -27.5578  -37.1791   24.8468 C   0  0  0  0  0  0
  -21.4212  -29.3046   22.3667 N   0  0  0  0  0  0
  -26.4286  -37.3763   23.9423 N   0  0  0  0  0  0
  -24.6967  -31.0507   22.0940 N   0  0  0  0  0  0
  -23.4211  -28.8127   23.2995 O   0  0  0  0  0  0
  -28.3242  -26.3738   20.2022 O   0  0  0  0  0  0
  -26.5632  -34.8914   22.4651 O   0  0  0  0  0  0
  -23.5454  -32.1360   23.7266 O   0  0  0  0  0  0
  -29.5238  -20.1127   20.7714 C   0  0  0  0  0  0
  -29.2755  -22.3239   20.7704 C   0  0  0  0  0  0
  -30.4851  -21.0106   17.7103 C   0  0  0  0  0  0
  -31.5886  -18.6991   20.2836 C   0  0  0  0  0  0
  -30.2369  -24.1344   19.1542 C   0  0  0  0  0  0
  -30.2679  -24.5261   21.5575 C   0  0  0  0  0  0
  -28.0388  -17.3239   21.2365 C   0  0  0  0  0  0
  -30.1890  -17.0611   22.3922 C   0  0  0  0  0  0
  -29.5390  -16.1481   18.7474 C   0  0  0  0  0  0
  -29.1654  -21.1582   18.4828 C   0  0  0  0  0  0
  -28.1109  -24.8807   20.3263 C   0  0  0  0  0  0
  -30.0476  -18.6686   20.3192 C   0  0  1  0  0  0
  -29.4037  -23.9043   20.4317 C   0  0  0  0  0  0
  -29.5600  -17.2347   20.9864 C   0  0  0  0  0  0
  -29.4584  -20.5137   22.0478 N   0  0  0  0  0  0
  -29.2359  -21.8907   22.0445 N   0  0  0  0  0  0
  -29.3169  -21.2079   19.9330 N   0  0  0  0  0  0
  -29.7992  -15.9230   20.1788 N   0  0  0  0  0  0
  -31.4781  -12.5995   19.1696 H   0  0  0  0  0  0
  -30.4204  -11.5096   20.0224 H   0  0  0  0  0  0
  -29.7790  -11.5361   17.6400 H   0  0  0  0  0  0
  -29.6890  -13.2566   17.5938 H   0  0  0  0  0  0
  -27.8462  -11.2680   18.9222 H   0  0  0  0  0  0
  -27.3914  -12.5084   17.7905 H   0  0  0  0  0  0
  -27.6108  -14.2410   19.4410 H   0  0  0  0  0  0
  -28.7332  -12.2135   21.4364 H   0  0  0  0  0  0
  -28.4245  -13.9082   21.7559 H   0  0  0  0  0  0
  -25.2748   -9.5695   22.4787 H   0  0  0  0  0  0
  -23.9997   -7.4636   22.7486 H   0  0  0  0  0  0
  -21.0843   -8.8771   19.8950 H   0  0  0  0  0  0
  -22.3691  -10.9679   19.6180 H   0  0  0  0  0  0
  -21.2010   -7.6150   23.9717 H   0  0  0  0  0  0
  -21.1480   -6.0524   25.9077 H   0  0  0  0  0  0
  -22.0596   -2.7607   23.2854 H   0  0  0  0  0  0
  -22.4060  -11.9877   22.4797 H   0  0  0  0  0  0
  -21.1066  -13.1251   22.2627 H   0  0  0  0  0  0
  -24.6511  -15.8445   20.5227 H   0  0  0  0  0  0
  -26.2760  -15.6291   20.1088 H   0  0  0  0  0  0
  -26.7190  -32.5405   23.1049 H   0  0  0  0  0  0
  -25.0075  -33.9691   25.0385 H   0  0  0  0  0  0
  -22.7244  -31.2992   21.3906 H   0  0  0  0  0  0
  -23.3756  -35.9617   23.3306 H   0  0  0  0  0  0
  -24.3583  -36.8903   22.2062 H   0  0  0  0  0  0
  -23.7244  -37.6480   23.6668 H   0  0  0  0  0  0
  -26.1046  -31.5280   20.6015 H   0  0  0  0  0  0
  -26.8524  -30.8235   22.0038 H   0  0  0  0  0  0
  -28.1184  -28.9236   21.2139 H   0  0  0  0  0  0
  -25.9622  -25.8980   19.0103 H   0  0  0  0  0  0
  -23.9802  -27.2995   19.0004 H   0  0  0  0  0  0
  -23.7715  -30.5835   19.3994 H   0  0  0  0  0  0
  -22.7663  -29.2424   19.8499 H   0  0  0  0  0  0
  -25.1295  -36.1914   25.0820 H   0  0  0  0  0  0
  -20.9985  -28.3270   24.1409 H   0  0  0  0  0  0
  -20.5709  -26.2308   23.3608 H   0  0  0  0  0  0
  -21.6647  -26.7449   22.1197 H   0  0  0  0  0  0
  -19.6928  -25.6298   21.1249 H   0  0  0  0  0  0
  -19.6707  -27.3192   20.6751 H   0  0  0  0  0  0
  -17.4209  -26.6698   21.4024 H   0  0  0  0  0  0
  -18.0320  -26.0076   22.9029 H   0  0  0  0  0  0
  -19.7958  -30.7273   24.2252 H   0  0  0  0  0  0
  -17.5037  -31.6272   24.5162 H   0  0  0  0  0  0
  -15.5365  -30.2985   23.7671 H   0  0  0  0  0  0
  -15.8693  -28.0849   22.7023 H   0  0  0  0  0  0
  -24.5907  -30.7070   25.7748 H   0  0  0  0  0  0
  -24.8905  -32.2902   26.4809 H   0  0  0  0  0  0
  -25.8025  -30.8934   27.0216 H   0  0  0  0  0  0
  -26.2947  -29.6740   24.1183 H   0  0  0  0  0  0
  -27.4088  -29.7273   25.4655 H   0  0  0  0  0  0
  -27.8795  -30.4320   23.9373 H   0  0  0  0  0  0
  -27.2661  -33.3635   26.2015 H   0  0  0  0  0  0
  -28.3883  -32.6823   25.0328 H   0  0  0  0  0  0
  -28.0671  -31.8458   26.5438 H   0  0  0  0  0  0
  -28.2570  -38.0105   24.7498 H   0  0  0  0  0  0
  -28.1086  -36.2623   24.6297 H   0  0  0  0  0  0
  -27.2292  -37.1440   25.8867 H   0  0  0  0  0  0
  -20.9384  -29.8811   21.6915 H   0  0  0  0  0  0
  -26.0170  -38.2845   24.1403 H   0  0  0  0  0  0
  -30.3306  -21.2196   16.6522 H   0  0  0  0  0  0
  -30.8764  -19.9964   17.7702 H   0  0  0  0  0  0
  -31.2565  -21.6898   18.0685 H   0  0  0  0  0  0
  -31.9661  -19.5165   19.6721 H   0  0  0  0  0  0
  -32.0009  -17.7711   19.8880 H   0  0  0  0  0  0
  -31.9996  -18.8459   21.2822 H   0  0  0  0  0  0
  -31.1925  -23.6148   19.2094 H   0  0  0  0  0  0
  -30.4605  -25.1931   19.0194 H   0  0  0  0  0  0
  -29.7242  -23.8262   18.2481 H   0  0  0  0  0  0
  -31.2231  -24.0094   21.6574 H   0  0  0  0  0  0
  -29.7650  -24.4828   22.5242 H   0  0  0  0  0  0
  -30.4902  -25.5769   21.3719 H   0  0  0  0  0  0
  -27.7913  -18.1346   21.9224 H   0  0  0  0  0  0
  -27.6496  -16.4060   21.6779 H   0  0  0  0  0  0
  -27.4815  -17.5124   20.3198 H   0  0  0  0  0  0
  -30.0153  -17.9374   23.0175 H   0  0  0  0  0  0
  -31.2673  -16.9062   22.3497 H   0  0  0  0  0  0
  -29.7637  -16.2074   22.9226 H   0  0  0  0  0  0
  -30.3960  -16.6234   18.2686 H   0  0  0  0  0  0
  -28.6604  -16.7671   18.5752 H   0  0  0  0  0  0
  -29.3484  -15.2288   18.2049 H   0  0  0  0  0  0
  -28.5013  -20.3289   18.2371 H   0  0  0  0  0  0
  -28.6148  -22.0376   18.1578 H   0  0  0  0  0  0
  -27.4919  -24.7240   21.2102 H   0  0  0  0  0  0
  -27.5207  -24.5258   19.4834 H   0  0  0  0  0  0
  -29.7307  -18.6222   19.2823 H   0  0  0  0  0  0
  1 25  1  0  0  0
  1 30  2  0  0  0
  1 88  1  0  0  0
  2  3  1  0  0  0
  2 25  1  0  0  0
  2 89  1  0  0  0
  2 90  1  0  0  0
  3  4  1  0  0  0
  3 91  1  0  0  0
  3 92  1  0  0  0
  4  5  1  0  0  0
  4 93  1  0  0  0
  4 94  1  0  0  0
  5  6  1  0  0  0
  5 26  1  0  0  0
  5 95  1  0  0  0
  6 25  1  0  0  0
  6 96  1  0  0  0
  6 97  1  0  0  0
  7  8  2  0  0  0
  7 26  1  0  0  0
  7 29  1  0  0  0
  8  9  1  0  0  0
  8 22  1  0  0  0
  9 10  1  0  0  0
  9 27  2  0  0  0
 10 11  2  0  0  0
 10 15  1  0  0  0
 11 12  1  0  0  0
 11 98  1  0  0  0
 12 13  2  0  0  0
 12 99  1  0  0  0
 13 14  1  0  0  0
 13 31  1  0  0  0
 14 15  2  0  0  0
 14100  1  0  0  0
 15101  1  0  0  0
 16 17  2  0  0  0
 16 21  1  0  0  0
 16 31  1  0  0  0
 17 18  1  0  0  0
 17102  1  0  0  0
 18 19  2  0  0  0
 18103  1  0  0  0
 19 20  1  0  0  0
 19 24  1  0  0  0
 20 21  2  0  0  0
 20104  1  0  0  0
 21 23  1  0  0  0
 22 28  1  0  0  0
 22 32  2  0  0  0
 26 27  1  0  0  0
 28105  1  0  0  0
 28106  1  0  0  0
 29107  1  0  0  0
 29108  1  0  0  0
 33 34  1  0  0  0
 33 66  1  0  0  0
 33 70  2  0  0  0
 34 36  1  0  0  0
 34 59  1  0  0  0
 34109  1  0  0  0
 35 44  2  0  0  0
 35 45  1  0  0  0
 35 68  1  0  0  0
 36 56  1  0  0  0
 36110  1  0  0  0
 37 39  1  0  0  0
 37 47  1  0  0  0
 37 66  1  0  0  0
 37111  1  0  0  0
 38 43  2  0  0  0
 38 46  1  0  0  0
 38 47  1  0  0  0
 39 64  1  0  0  0
 39 67  2  0  0  0
 40 52  1  0  0  0
 40 53  2  0  0  0
 40 58  1  0  0  0
 41112  1  0  0  0
 41113  1  0  0  0
 41114  1  0  0  0
 41 48  1  0  0  0
 42 43  1  0  0  0
 42 66  1  0  0  0
 42115  1  0  0  0
 42116  1  0  0  0
 43 44  1  0  0  0
 44117  1  0  0  0
 45 46  2  0  0  0
 45118  1  0  0  0
 46119  1  0  0  0
 47120  1  0  0  0
 47121  1  0  0  0
 48 56  1  0  0  0
 48 65  1  0  0  0
 48122  1  0  0  0
 49 50  1  0  0  0
 49 53  1  0  0  0
 49 64  1  0  0  0
 49123  1  0  0  0
 50 51  1  0  0  0
 50124  1  0  0  0
 50125  1  0  0  0
 51 52  1  0  0  0
 51126  1  0  0  0
 51127  1  0  0  0
 52128  1  0  0  0
 52129  1  0  0  0
 53 54  1  0  0  0
 54 55  2  0  0  0
 54130  1  0  0  0
 55 57  1  0  0  0
 55131  1  0  0  0
 56 69  2  0  0  0
 57 58  2  0  0  0
 57132  1  0  0  0
 58133  1  0  0  0
 59 60  1  0  0  0
 59 61  1  0  0  0
 59 62  1  0  0  0
 60134  1  0  0  0
 60135  1  0  0  0
 60136  1  0  0  0
 61137  1  0  0  0
 61138  1  0  0  0
 61139  1  0  0  0
 62140  1  0  0  0
 62141  1  0  0  0
 62142  1  0  0  0
 63 65  1  0  0  0
 63143  1  0  0  0
 63144  1  0  0  0
 63145  1  0  0  0
 64146  1  0  0  0
 65147  1  0  0  0
 68 81  1  0  0  0
 71 82  1  0  0  0
 71 85  2  0  0  0
 71 87  1  0  0  0
 72 83  1  0  0  0
 72 86  2  0  0  0
 72 87  1  0  0  0
 73 80  1  0  0  0
 73148  1  0  0  0
 73149  1  0  0  0
 73150  1  0  0  0
 74151  1  0  0  0
 74152  1  0  0  0
 74153  1  0  0  0
 74 82  1  0  0  0
 75154  1  0  0  0
 75155  1  0  0  0
 75156  1  0  0  0
 75 83  1  0  0  0
 76 83  1  0  0  0
 76157  1  0  0  0
 76158  1  0  0  0
 76159  1  0  0  0
 77160  1  0  0  0
 77161  1  0  0  0
 77162  1  0  0  0
 77 84  1  0  0  0
 78 84  1  0  0  0
 78163  1  0  0  0
 78164  1  0  0  0
 78165  1  0  0  0
 79 88  1  0  0  0
 79166  1  0  0  0
 79167  1  0  0  0
 79168  1  0  0  0
 80 87  1  0  0  0
 80169  1  0  0  0
 80170  1  0  0  0
 81 83  1  0  0  0
 81171  1  0  0  0
 81172  1  0  0  0
 82 84  1  0  0  0
 82173  1  0  0  0
 84 88  1  0  0  0
 85 86  1  0  0  0
M  ISO  4   1 100  68 101  81 101  88 100
M  END
> <chiral flag>
0

> <version>
0

> <s_m_source_file>
/data/baiqing/PycharmProjects/Reinvent-master-3.2/result/LINK_invent/BTK/process_docking_weight1_custom_sum_contain_oxygen_bond_distance_aromatic_linkinvent_7_9_3/rearranged_h_0064.sdf

> <i_m_source_file_index>
84

> <r_mmod_Potential_Energy-OPLS-2005>
529.937561035156

> <r_mmod_Stretch_Energy-OPLS-2005>
165.186676025391

> <r_mmod_Bend_Energy-OPLS-2005>
217.758285522461

> <r_mmod_Torsional_Energy-OPLS-2005>
373.047882080078

> <r_mmod_Improper_Torsional_Energy-OPLS-2005>
16.9652099609375

> <r_mmod_Van_der_Waal_Energy-OPLS-2005>
118.581024169922

> <r_mmod_Electrostatic_Energy-OPLS-2005>
-253.834747314453

> <r_mmod_Solvation_Energy-OPLS-2005>
-209.749801635742

> <b_mmod_Minimization_Converged-OPLS-2005>
0

> <r_mmod_RMS_Derivative-OPLS-2005>
1.93534243106842

$$$$
93
                    3D
 Structure written by MMmdl.
164172  0  0  1  0            999 V2000
  -30.7358  -14.4650   20.6255 C   0  0  0  0  0  0
  -30.4254  -12.3283   19.4221 C   0  0  0  0  0  0
  -29.4937  -12.5175   18.2091 C   0  0  0  0  0  0
  -28.0178  -12.3528   18.6232 C   0  0  0  0  0  0
  -27.6621  -13.1862   19.8800 C   0  0  2  0  0  0
  -28.7084  -12.9468   20.9975 C   0  0  0  0  0  0
  -25.2571  -13.8086   20.5644 C   0  0  0  0  0  0
  -24.1818  -13.0393   20.9198 C   0  0  0  0  0  0
  -24.6367  -11.6866   20.8789 C   0  0  0  0  0  0
  -23.9017  -10.4283   21.0465 C   0  0  0  0  0  0
  -24.3577   -9.4210   21.9244 C   0  0  0  0  0  0
  -23.6262   -8.2241   22.0804 C   0  0  0  0  0  0
  -22.4264   -8.0296   21.3570 C   0  0  0  0  0  0
  -21.9858   -9.0277   20.4713 C   0  0  0  0  0  0
  -22.7180  -10.2147   20.3134 C   0  0  0  0  0  0
  -21.6813   -6.0771   22.5274 C   0  0  0  0  0  0
  -21.3980   -6.5721   23.8189 C   0  0  0  0  0  0
  -21.3636   -5.6915   24.9172 C   0  0  0  0  0  0
  -21.6016   -4.3164   24.7251 C   0  0  0  0  0  0
  -21.8790   -3.8222   23.4381 C   0  0  0  0  0  0
  -21.9168   -4.7006   22.3417 C   0  0  0  0  0  0
  -22.7857  -13.5229   21.1880 C   0  0  0  0  0  0
  -22.1666   -4.2170   21.1011 F   0  0  0  0  0  0
  -21.5583   -3.4664   25.7775 F   0  0  0  0  0  0
  -30.0296  -13.3046   20.4589 N   0  0  0  0  0  0
  -26.3013  -12.9220   20.3395 N   0  0  0  0  0  0
  -25.9289  -11.6396   20.5809 N   0  0  0  0  0  0
  -22.0538  -12.8283   22.0522 N   0  0  0  0  0  0
  -25.4204  -15.1781   20.3909 N   0  0  0  0  0  0
  -31.8224  -14.6453   20.0713 O   0  0  0  0  0  0
  -21.6625   -6.8900   21.4249 O   0  0  0  0  0  0
  -22.3521  -14.5510   20.6710 O   0  0  0  0  0  0
  -24.6118  -31.8692   23.2112 C   0  0  0  0  0  0
  -25.9035  -32.4830   23.8388 C   0  0  1  0  0  0
  -27.2471  -27.4600   20.0859 C   0  0  0  0  0  0
  -25.5908  -33.8627   24.2329 N   0  0  0  0  0  0
  -23.3976  -30.4927   21.5507 C   0  0  2  0  0  0
  -24.8449  -28.9568   20.1180 C   0  0  0  0  0  0
  -22.7379  -29.4677   22.4995 C   0  0  0  0  0  0
  -18.0282  -28.1374   22.8498 C   0  0  0  0  0  0
  -24.1488  -36.7316   23.2637 C   0  0  0  0  0  0
  -25.9223  -30.8434   21.3591 C   0  0  0  0  0  0
  -26.0024  -29.4773   20.7098 C   0  0  0  0  0  0
  -27.2032  -28.7353   20.6898 C   0  0  0  0  0  0
  -26.0696  -26.9455   19.4962 C   0  0  0  0  0  0
  -24.8726  -27.6877   19.5131 C   0  0  0  0  0  0
  -23.6061  -29.8226   20.1649 C   0  0  0  0  0  0
  -25.4111  -36.3114   24.0335 C   0  0  1  0  0  0
  -20.5866  -28.3664   23.1324 C   0  0  2  0  0  0
  -20.6763  -26.9401   22.5419 C   0  0  0  0  0  0
  -19.5749  -26.6391   21.5202 C   0  0  0  0  0  0
  -18.1934  -26.7930   22.1619 C   0  0  0  0  0  0
  -19.1526  -28.8834   23.2918 C   0  0  0  0  0  0
  -18.9457  -30.1444   23.8924 C   0  0  0  0  0  0
  -17.6459  -30.6582   24.0574 C   0  0  0  0  0  0
  -25.9035  -34.9480   23.5125 C   0  0  0  0  0  0
  -16.5350  -29.9091   23.6317 C   0  0  0  0  0  0
  -16.7277  -28.6505   23.0341 C   0  0  0  0  0  0
  -26.4473  -31.6597   25.0695 C   0  0  0  0  0  0
  -25.3747  -31.3685   26.1443 C   0  0  0  0  0  0
  -27.0285  -30.3049   24.6030 C   0  0  0  0  0  0
  -27.6070  -32.4278   25.7459 C   0  0  0  0  0  0
  -27.5579  -37.1812   24.8463 C   0  0  0  0  0  0
  -21.4113  -29.3027   22.3717 N   0  0  0  0  0  0
  -26.4295  -37.3794   23.9405 N   0  0  0  0  0  0
  -24.6620  -31.0813   22.1006 N   0  0  0  0  0  0
  -23.4164  -28.8240   23.3043 O   0  0  0  0  0  0
  -28.4520  -26.7883   20.0672 O   0  0  0  0  0  0
  -26.5593  -34.8927   22.4682 O   0  0  0  0  0  0
  -23.5324  -32.1440   23.7527 O   0  0  0  0  0  0
  -26.0091  -21.1541   22.7930 C   0  0  0  0  0  0
  -26.0777  -19.8235   23.0792 C   0  0  0  0  0  0
  -26.9353  -21.3190   21.7319 C   0  0  0  0  0  0
  -25.2801  -19.0397   24.0710 C   0  0  0  0  0  0
  -25.8411  -23.1384   20.7130 C   0  0  0  0  0  0
  -28.8191  -17.4709   21.7525 C   0  0  0  0  0  0
  -28.0311  -24.8939   21.5411 C   0  0  0  0  0  0
  -27.3593  -17.8484   22.1046 C   0  0  0  0  0  0
  -28.9758  -15.9304   21.8074 C   0  0  0  0  0  0
  -28.1085  -23.3703   21.8025 C   0  0  0  0  0  0
  -28.4592  -25.3594   20.1367 C   0  0  0  0  0  0
  -27.5687  -20.2027   21.4051 N   0  0  0  0  0  0
  -27.0377  -19.2686   22.2411 N   0  0  0  0  0  0
  -30.3148  -15.4323   21.4694 N   0  0  0  0  0  0
  -27.1302  -22.5466   21.0795 N   0  0  0  0  0  0
  -31.4660  -12.4332   19.1091 H   0  0  0  0  0  0
  -30.3479  -11.3099   19.8089 H   0  0  0  0  0  0
  -29.7451  -11.7979   17.4298 H   0  0  0  0  0  0
  -29.6553  -13.5063   17.7757 H   0  0  0  0  0  0
  -27.8454  -11.2943   18.8207 H   0  0  0  0  0  0
  -27.3616  -12.6210   17.7949 H   0  0  0  0  0  0
  -27.7052  -14.2242   19.5586 H   0  0  0  0  0  0
  -28.7079  -11.8904   21.2735 H   0  0  0  0  0  0
  -28.4686  -13.4575   21.9271 H   0  0  0  0  0  0
  -25.2728   -9.5674   22.4815 H   0  0  0  0  0  0
  -23.9924   -7.4646   22.7571 H   0  0  0  0  0  0
  -21.0736   -8.8796   19.9097 H   0  0  0  0  0  0
  -22.3607  -10.9686   19.6272 H   0  0  0  0  0  0
  -21.2011   -7.6253   23.9621 H   0  0  0  0  0  0
  -21.1461   -6.0736   25.9034 H   0  0  0  0  0  0
  -22.0581   -2.7683   23.2905 H   0  0  0  0  0  0
  -22.4197  -12.0012   22.4986 H   0  0  0  0  0  0
  -21.1196  -13.1373   22.2802 H   0  0  0  0  0  0
  -24.6332  -15.8137   20.4694 H   0  0  0  0  0  0
  -26.2385  -15.6040   19.9773 H   0  0  0  0  0  0
  -26.7101  -32.5568   23.1153 H   0  0  0  0  0  0
  -25.0073  -33.9784   25.0484 H   0  0  0  0  0  0
  -22.6868  -31.3098   21.4110 H   0  0  0  0  0  0
  -23.3736  -35.9657   23.3317 H   0  0  0  0  0  0
  -24.3584  -36.8913   22.2044 H   0  0  0  0  0  0
  -23.7234  -37.6529   23.6634 H   0  0  0  0  0  0
  -26.0227  -31.6090   20.5889 H   0  0  0  0  0  0
  -26.8146  -30.9037   21.9705 H   0  0  0  0  0  0
  -28.1013  -29.1372   21.1386 H   0  0  0  0  0  0
  -26.0653  -25.9881   18.9995 H   0  0  0  0  0  0
  -23.9859  -27.2814   19.0475 H   0  0  0  0  0  0
  -23.7153  -30.5974   19.4053 H   0  0  0  0  0  0
  -22.7284  -29.2455   19.8664 H   0  0  0  0  0  0
  -25.1280  -36.1982   25.0823 H   0  0  0  0  0  0
  -20.9980  -28.3231   24.1435 H   0  0  0  0  0  0
  -20.5653  -26.2264   23.3604 H   0  0  0  0  0  0
  -21.6642  -26.7443   22.1215 H   0  0  0  0  0  0
  -19.6908  -25.6304   21.1226 H   0  0  0  0  0  0
  -19.6689  -27.3199   20.6733 H   0  0  0  0  0  0
  -17.4195  -26.6690   21.4030 H   0  0  0  0  0  0
  -18.0351  -26.0060   22.9006 H   0  0  0  0  0  0
  -19.7932  -30.7258   24.2299 H   0  0  0  0  0  0
  -17.5012  -31.6266   24.5174 H   0  0  0  0  0  0
  -15.5352  -30.3005   23.7615 H   0  0  0  0  0  0
  -15.8680  -28.0837   22.7027 H   0  0  0  0  0  0
  -24.5937  -30.7021   25.7771 H   0  0  0  0  0  0
  -24.8924  -32.2834   26.4894 H   0  0  0  0  0  0
  -25.8119  -30.8852   27.0190 H   0  0  0  0  0  0
  -26.2807  -29.6822   24.1113 H   0  0  0  0  0  0
  -27.4100  -29.7269   25.4455 H   0  0  0  0  0  0
  -27.8619  -30.4375   23.9125 H   0  0  0  0  0  0
  -27.2726  -33.3561   26.2094 H   0  0  0  0  0  0
  -28.3869  -32.6852   25.0280 H   0  0  0  0  0  0
  -28.0748  -31.8348   26.5326 H   0  0  0  0  0  0
  -28.2610  -38.0099   24.7507 H   0  0  0  0  0  0
  -28.1067  -36.2633   24.6302 H   0  0  0  0  0  0
  -27.2303  -37.1481   25.8869 H   0  0  0  0  0  0
  -20.9263  -29.8750   21.6952 H   0  0  0  0  0  0
  -26.0191  -38.2874   24.1412 H   0  0  0  0  0  0
  -25.3615  -21.8873   23.2517 H   0  0  0  0  0  0
  -24.4287  -19.6199   24.4281 H   0  0  0  0  0  0
  -25.8916  -18.7814   24.9355 H   0  0  0  0  0  0
  -24.8853  -18.1220   23.6332 H   0  0  0  0  0  0
  -25.3736  -23.6429   21.5614 H   0  0  0  0  0  0
  -25.1450  -22.3791   20.3524 H   0  0  0  0  0  0
  -25.9579  -23.8660   19.9117 H   0  0  0  0  0  0
  -29.5105  -17.9502   22.4467 H   0  0  0  0  0  0
  -29.0595  -17.8410   20.7546 H   0  0  0  0  0  0
  -28.7008  -25.3802   22.2513 H   0  0  0  0  0  0
  -27.0394  -25.2745   21.7846 H   0  0  0  0  0  0
  -27.1026  -17.3599   23.0449 H   0  0  0  0  0  0
  -26.6808  -17.4416   21.3548 H   0  0  0  0  0  0
  -28.2314  -15.5217   21.1366 H   0  0  0  0  0  0
  -28.7299  -15.5787   22.8112 H   0  0  0  0  0  0
  -28.0012  -23.2052   22.8778 H   0  0  0  0  0  0
  -29.1088  -23.0186   21.5462 H   0  0  0  0  0  0
  -27.8750  -24.9000   19.3433 H   0  0  0  0  0  0
  -29.4845  -25.0317   19.9607 H   0  0  0  0  0  0
  -31.0422  -16.1153   21.6242 H   0  0  0  0  0  0
  1 25  1  0  0  0
  1 30  2  0  0  0
  1 84  1  0  0  0
  2  3  1  0  0  0
  2 25  1  0  0  0
  2 86  1  0  0  0
  2 87  1  0  0  0
  3  4  1  0  0  0
  3 88  1  0  0  0
  3 89  1  0  0  0
  4  5  1  0  0  0
  4 90  1  0  0  0
  4 91  1  0  0  0
  5  6  1  0  0  0
  5 26  1  0  0  0
  5 92  1  0  0  0
  6 25  1  0  0  0
  6 93  1  0  0  0
  6 94  1  0  0  0
  7  8  2  0  0  0
  7 26  1  0  0  0
  7 29  1  0  0  0
  8  9  1  0  0  0
  8 22  1  0  0  0
  9 10  1  0  0  0
  9 27  2  0  0  0
 10 11  2  0  0  0
 10 15  1  0  0  0
 11 12  1  0  0  0
 11 95  1  0  0  0
 12 13  2  0  0  0
 12 96  1  0  0  0
 13 14  1  0  0  0
 13 31  1  0  0  0
 14 15  2  0  0  0
 14 97  1  0  0  0
 15 98  1  0  0  0
 16 17  2  0  0  0
 16 21  1  0  0  0
 16 31  1  0  0  0
 17 18  1  0  0  0
 17 99  1  0  0  0
 18 19  2  0  0  0
 18100  1  0  0  0
 19 20  1  0  0  0
 19 24  1  0  0  0
 20 21  2  0  0  0
 20101  1  0  0  0
 21 23  1  0  0  0
 22 28  1  0  0  0
 22 32  2  0  0  0
 26 27  1  0  0  0
 28102  1  0  0  0
 28103  1  0  0  0
 29104  1  0  0  0
 29105  1  0  0  0
 33 34  1  0  0  0
 33 66  1  0  0  0
 33 70  2  0  0  0
 34 36  1  0  0  0
 34 59  1  0  0  0
 34106  1  0  0  0
 35 44  2  0  0  0
 35 45  1  0  0  0
 35 68  1  0  0  0
 36 56  1  0  0  0
 36107  1  0  0  0
 37 39  1  0  0  0
 37 47  1  0  0  0
 37 66  1  0  0  0
 37108  1  0  0  0
 38 43  2  0  0  0
 38 46  1  0  0  0
 38 47  1  0  0  0
 39 64  1  0  0  0
 39 67  2  0  0  0
 40 52  1  0  0  0
 40 53  2  0  0  0
 40 58  1  0  0  0
 41109  1  0  0  0
 41110  1  0  0  0
 41111  1  0  0  0
 41 48  1  0  0  0
 42 43  1  0  0  0
 42 66  1  0  0  0
 42112  1  0  0  0
 42113  1  0  0  0
 43 44  1  0  0  0
 44114  1  0  0  0
 45 46  2  0  0  0
 45115  1  0  0  0
 46116  1  0  0  0
 47117  1  0  0  0
 47118  1  0  0  0
 48 56  1  0  0  0
 48 65  1  0  0  0
 48119  1  0  0  0
 49 50  1  0  0  0
 49 53  1  0  0  0
 49 64  1  0  0  0
 49120  1  0  0  0
 50 51  1  0  0  0
 50121  1  0  0  0
 50122  1  0  0  0
 51 52  1  0  0  0
 51123  1  0  0  0
 51124  1  0  0  0
 52125  1  0  0  0
 52126  1  0  0  0
 53 54  1  0  0  0
 54 55  2  0  0  0
 54127  1  0  0  0
 55 57  1  0  0  0
 55128  1  0  0  0
 56 69  2  0  0  0
 57 58  2  0  0  0
 57129  1  0  0  0
 58130  1  0  0  0
 59 60  1  0  0  0
 59 61  1  0  0  0
 59 62  1  0  0  0
 60131  1  0  0  0
 60132  1  0  0  0
 60133  1  0  0  0
 61134  1  0  0  0
 61135  1  0  0  0
 61136  1  0  0  0
 62137  1  0  0  0
 62138  1  0  0  0
 62139  1  0  0  0
 63 65  1  0  0  0
 63140  1  0  0  0
 63141  1  0  0  0
 63142  1  0  0  0
 64143  1  0  0  0
 65144  1  0  0  0
 68 81  1  0  0  0
 71 72  2  0  0  0
 71 73  1  0  0  0
 71145  1  0  0  0
 72 74  1  0  0  0
 72 83  1  0  0  0
 73 82  2  0  0  0
 73 85  1  0  0  0
 74146  1  0  0  0
 74147  1  0  0  0
 74148  1  0  0  0
 75 85  1  0  0  0
 75149  1  0  0  0
 75150  1  0  0  0
 75151  1  0  0  0
 76 78  1  0  0  0
 76 79  1  0  0  0
 76152  1  0  0  0
 76153  1  0  0  0
 77 80  1  0  0  0
 77 81  1  0  0  0
 77154  1  0  0  0
 77155  1  0  0  0
 78 83  1  0  0  0
 78156  1  0  0  0
 78157  1  0  0  0
 79 84  1  0  0  0
 79158  1  0  0  0
 79159  1  0  0  0
 80 85  1  0  0  0
 80160  1  0  0  0
 80161  1  0  0  0
 81162  1  0  0  0
 81163  1  0  0  0
 82 83  1  0  0  0
 84164  1  0  0  0
M  ISO  4   1 100  68 101  81 101  84 100
M  END
> <chiral flag>
0

> <version>
0

> <s_m_source_file>
/data/baiqing/PycharmProjects/Reinvent-master-3.2/result/LINK_invent/BTK/process_docking_weight1_custom_sum_contain_oxygen_bond_distance_aromatic_linkinvent_7_9_3/rearranged_h_0064.sdf

> <i_m_source_file_index>
85

> <r_mmod_Potential_Energy-OPLS-2005>
-88.205924987793

> <r_mmod_Stretch_Energy-OPLS-2005>
35.7050857543945

> <r_mmod_Bend_Energy-OPLS-2005>
133.980743408203

> <r_mmod_Torsional_Energy-OPLS-2005>
280.882202148438

> <r_mmod_Improper_Torsional_Energy-OPLS-2005>
8.94601535797119

> <r_mmod_Van_der_Waal_Energy-OPLS-2005>
136.116760253906

> <r_mmod_Electrostatic_Energy-OPLS-2005>
-457.965057373047

> <r_mmod_Solvation_Energy-OPLS-2005>
-236.967071533203

> <b_mmod_Minimization_Converged-OPLS-2005>
0

> <r_mmod_RMS_Derivative-OPLS-2005>
2.76739597320557

$$$$
94
                    3D
 Structure written by MMmdl.
166174  0  0  1  0            999 V2000
  -30.7176  -14.5003   20.4998 C   0  0  0  0  0  0
  -30.4446  -12.2836   19.4685 C   0  0  0  0  0  0
  -29.5283  -12.3848   18.2305 C   0  0  0  0  0  0
  -28.0343  -12.3310   18.6238 C   0  0  0  0  0  0
  -27.6665  -13.2037   19.8585 C   0  0  2  0  0  0
  -28.7110  -13.0515   20.9890 C   0  0  0  0  0  0
  -25.2664  -13.8172   20.5661 C   0  0  0  0  0  0
  -24.1881  -13.0469   20.9167 C   0  0  0  0  0  0
  -24.6413  -11.6931   20.8719 C   0  0  0  0  0  0
  -23.9063  -10.4334   21.0394 C   0  0  0  0  0  0
  -24.3636   -9.4269   21.9183 C   0  0  0  0  0  0
  -23.6326   -8.2294   22.0752 C   0  0  0  0  0  0
  -22.4291   -8.0344   21.3554 C   0  0  0  0  0  0
  -21.9907   -9.0299   20.4657 C   0  0  0  0  0  0
  -22.7216  -10.2191   20.3055 C   0  0  0  0  0  0
  -21.6882   -6.0801   22.5300 C   0  0  0  0  0  0
  -21.4054   -6.5694   23.8243 C   0  0  0  0  0  0
  -21.3619   -5.6823   24.9188 C   0  0  0  0  0  0
  -21.6007   -4.3086   24.7222 C   0  0  0  0  0  0
  -21.8827   -3.8194   23.4342 C   0  0  0  0  0  0
  -21.9207   -4.7032   22.3408 C   0  0  0  0  0  0
  -22.7899  -13.5277   21.1838 C   0  0  0  0  0  0
  -22.1672   -4.2230   21.0984 F   0  0  0  0  0  0
  -21.5578   -3.4552   25.7728 F   0  0  0  0  0  0
  -30.0375  -13.3278   20.4152 N   0  0  0  0  0  0
  -26.3086  -12.9324   20.3305 N   0  0  0  0  0  0
  -25.9348  -11.6488   20.5723 N   0  0  0  0  0  0
  -22.0523  -12.8294   22.0408 N   0  0  0  0  0  0
  -25.4457  -15.1883   20.4062 N   0  0  0  0  0  0
  -31.9173  -14.6032   20.2269 O   0  0  0  0  0  0
  -21.6656   -6.8936   21.4249 O   0  0  0  0  0  0
  -22.3580  -14.5572   20.6681 O   0  0  0  0  0  0
  -24.6130  -31.8672   23.2094 C   0  0  0  0  0  0
  -25.9038  -32.4814   23.8354 C   0  0  1  0  0  0
  -27.2365  -27.4432   20.1017 C   0  0  0  0  0  0
  -25.5890  -33.8602   24.2294 N   0  0  0  0  0  0
  -23.4014  -30.4907   21.5464 C   0  0  2  0  0  0
  -24.8535  -28.9606   20.1064 C   0  0  0  0  0  0
  -22.7403  -29.4658   22.4960 C   0  0  0  0  0  0
  -18.0273  -28.1393   22.8459 C   0  0  0  0  0  0
  -24.1490  -36.7303   23.2632 C   0  0  0  0  0  0
  -25.9302  -30.8384   21.3612 C   0  0  0  0  0  0
  -26.0126  -29.4751   20.7040 C   0  0  0  0  0  0
  -27.2108  -28.7226   20.6998 C   0  0  0  0  0  0
  -26.0680  -26.9447   19.4907 C   0  0  0  0  0  0
  -24.8759  -27.6943   19.4956 C   0  0  0  0  0  0
  -23.6107  -29.8216   20.1607 C   0  0  0  0  0  0
  -25.4097  -36.3077   24.0334 C   0  0  1  0  0  0
  -20.5861  -28.3684   23.1289 C   0  0  2  0  0  0
  -20.6760  -26.9401   22.5442 C   0  0  0  0  0  0
  -19.5774  -26.6380   21.5200 C   0  0  0  0  0  0
  -18.1926  -26.7949   22.1565 C   0  0  0  0  0  0
  -19.1522  -28.8844   23.2876 C   0  0  0  0  0  0
  -18.9463  -30.1432   23.8923 C   0  0  0  0  0  0
  -17.6474  -30.6590   24.0584 C   0  0  0  0  0  0
  -25.9027  -34.9457   23.5106 C   0  0  0  0  0  0
  -16.5362  -29.9098   23.6319 C   0  0  0  0  0  0
  -16.7269  -28.6508   23.0340 C   0  0  0  0  0  0
  -26.4468  -31.6603   25.0687 C   0  0  0  0  0  0
  -25.3767  -31.3806   26.1494 C   0  0  0  0  0  0
  -27.0237  -30.2996   24.6112 C   0  0  0  0  0  0
  -27.6082  -32.4302   25.7416 C   0  0  0  0  0  0
  -27.5589  -37.1763   24.8422 C   0  0  0  0  0  0
  -21.4128  -29.3039   22.3682 N   0  0  0  0  0  0
  -26.4263  -37.3775   23.9423 N   0  0  0  0  0  0
  -24.6659  -31.0780   22.0980 N   0  0  0  0  0  0
  -23.4163  -28.8209   23.3010 O   0  0  0  0  0  0
  -28.3527  -26.6390   20.1629 O   0  0  0  0  0  0
  -26.5596  -34.8917   22.4680 O   0  0  0  0  0  0
  -23.5344  -32.1436   23.7497 O   0  0  0  0  0  0
  -28.2308  -20.6300   20.9224 C   0  0  0  0  0  0
  -28.8163  -21.7168   21.6357 C   0  0  0  0  0  0
  -29.9933  -19.2452   21.5235 C   0  0  0  0  0  0
  -30.5281  -20.2821   22.3374 C   0  0  0  0  0  0
  -27.0226  -20.7836   18.7159 C   0  0  0  0  0  0
  -29.7912  -16.1200   18.9936 C   0  0  0  0  0  0
  -26.8807  -20.6428   20.2315 C   0  0  0  0  0  0
  -28.1977  -23.1197   21.7379 C   0  0  0  0  0  0
  -30.6853  -17.9115   21.2099 C   0  0  0  0  0  0
  -28.7919  -24.2190   20.8061 C   0  0  0  0  0  0
  -29.7693  -16.6504   21.3857 C   0  0  0  0  0  0
  -28.2111  -25.6104   21.1635 C   0  0  0  0  0  0
  -31.7701  -20.0819   23.2141 C   0  0  0  0  0  0
  -28.8543  -19.4373   20.8230 N   0  0  0  0  0  0
  -29.9560  -21.5266   22.3476 N   0  0  0  0  0  0
  -29.9411  -15.6004   20.3593 N   0  0  0  0  0  0
  -32.8691  -20.1027   22.4588 F   0  0  0  0  0  0
  -31.8726  -21.0403   24.1393 F   0  0  0  0  0  0
  -31.7061  -18.9116   23.8531 F   0  0  0  0  0  0
  -31.4913  -12.3811   19.1763 H   0  0  0  0  0  0
  -30.3584  -11.3050   19.9436 H   0  0  0  0  0  0
  -29.7521  -11.5524   17.5623 H   0  0  0  0  0  0
  -29.7591  -13.2799   17.6542 H   0  0  0  0  0  0
  -27.8025  -11.2855   18.8291 H   0  0  0  0  0  0
  -27.4161  -12.6077   17.7672 H   0  0  0  0  0  0
  -27.6906  -14.2382   19.5222 H   0  0  0  0  0  0
  -28.6864  -12.0420   21.4028 H   0  0  0  0  0  0
  -28.4922  -13.7282   21.8177 H   0  0  0  0  0  0
  -25.2810   -9.5783   22.4715 H   0  0  0  0  0  0
  -24.0104   -7.4693   22.7417 H   0  0  0  0  0  0
  -21.0869   -8.8773   19.8963 H   0  0  0  0  0  0
  -22.3661  -10.9715   19.6149 H   0  0  0  0  0  0
  -21.2084   -7.6213   23.9753 H   0  0  0  0  0  0
  -21.1379   -6.0565   25.9083 H   0  0  0  0  0  0
  -22.0617   -2.7660   23.2813 H   0  0  0  0  0  0
  -22.4111  -11.9982   22.4879 H   0  0  0  0  0  0
  -21.1125  -13.1319   22.2528 H   0  0  0  0  0  0
  -24.6935  -15.8589   20.5156 H   0  0  0  0  0  0
  -26.3174  -15.6146   20.1174 H   0  0  0  0  0  0
  -26.7119  -32.5510   23.1124 H   0  0  0  0  0  0
  -25.0037  -33.9763   25.0434 H   0  0  0  0  0  0
  -22.6883  -31.3061   21.4059 H   0  0  0  0  0  0
  -23.3751  -35.9628   23.3244 H   0  0  0  0  0  0
  -24.3619  -36.8985   22.2061 H   0  0  0  0  0  0
  -23.7250  -37.6490   23.6702 H   0  0  0  0  0  0
  -26.0440  -31.6082   20.5954 H   0  0  0  0  0  0
  -26.8154  -30.8881   21.9839 H   0  0  0  0  0  0
  -28.0992  -29.1071   21.1811 H   0  0  0  0  0  0
  -26.0767  -25.9634   19.0371 H   0  0  0  0  0  0
  -23.9840  -27.2874   19.0389 H   0  0  0  0  0  0
  -23.7097  -30.5951   19.3980 H   0  0  0  0  0  0
  -22.7365  -29.2361   19.8697 H   0  0  0  0  0  0
  -25.1279  -36.1913   25.0826 H   0  0  0  0  0  0
  -20.9957  -28.3308   24.1407 H   0  0  0  0  0  0
  -20.5575  -26.2322   23.3658 H   0  0  0  0  0  0
  -21.6661  -26.7394   22.1319 H   0  0  0  0  0  0
  -19.6942  -25.6283   21.1248 H   0  0  0  0  0  0
  -19.6743  -27.3172   20.6715 H   0  0  0  0  0  0
  -17.4223  -26.6717   21.3938 H   0  0  0  0  0  0
  -18.0278  -26.0069   22.8923 H   0  0  0  0  0  0
  -19.7943  -30.7220   24.2325 H   0  0  0  0  0  0
  -17.5040  -31.6263   24.5189 H   0  0  0  0  0  0
  -15.5372  -30.3029   23.7613 H   0  0  0  0  0  0
  -15.8659  -28.0828   22.7073 H   0  0  0  0  0  0
  -24.5926  -30.7120   25.7928 H   0  0  0  0  0  0
  -24.8978  -32.3011   26.4842 H   0  0  0  0  0  0
  -25.8151  -30.9097   27.0302 H   0  0  0  0  0  0
  -26.2745  -29.6782   24.1195 H   0  0  0  0  0  0
  -27.3972  -29.7229   25.4584 H   0  0  0  0  0  0
  -27.8614  -30.4222   23.9247 H   0  0  0  0  0  0
  -27.2712  -33.3570   26.2069 H   0  0  0  0  0  0
  -28.3832  -32.6926   25.0200 H   0  0  0  0  0  0
  -28.0827  -31.8395   26.5269 H   0  0  0  0  0  0
  -28.2579  -38.0088   24.7524 H   0  0  0  0  0  0
  -28.1117  -36.2639   24.6132 H   0  0  0  0  0  0
  -27.2353  -37.1301   25.8834 H   0  0  0  0  0  0
  -20.9289  -29.8759   21.6905 H   0  0  0  0  0  0
  -26.0146  -38.2826   24.1527 H   0  0  0  0  0  0
  -26.0499  -20.8083   18.2285 H   0  0  0  0  0  0
  -27.5782  -19.9409   18.3024 H   0  0  0  0  0  0
  -27.5573  -21.6952   18.4576 H   0  0  0  0  0  0
  -29.6308  -15.3268   18.2664 H   0  0  0  0  0  0
  -30.6970  -16.6320   18.6635 H   0  0  0  0  0  0
  -28.9520  -16.8123   18.9197 H   0  0  0  0  0  0
  -26.2083  -21.3907   20.6448 H   0  0  0  0  0  0
  -26.3951  -19.6879   20.4448 H   0  0  0  0  0  0
  -28.3156  -23.4388   22.7758 H   0  0  0  0  0  0
  -27.1205  -23.0715   21.5874 H   0  0  0  0  0  0
  -31.6205  -17.7874   21.7539 H   0  0  0  0  0  0
  -31.0074  -18.0403   20.1815 H   0  0  0  0  0  0
  -28.5688  -23.9766   19.7652 H   0  0  0  0  0  0
  -29.8797  -24.2562   20.8910 H   0  0  0  0  0  0
  -28.7202  -16.9399   21.3127 H   0  0  0  0  0  0
  -29.8803  -16.2447   22.3915 H   0  0  0  0  0  0
  -28.6803  -25.9703   22.0806 H   0  0  0  0  0  0
  -27.1595  -25.4666   21.4185 H   0  0  0  0  0  0
  1 25  1  0  0  0
  1 30  2  0  0  0
  1 86  1  0  0  0
  2  3  1  0  0  0
  2 25  1  0  0  0
  2 90  1  0  0  0
  2 91  1  0  0  0
  3  4  1  0  0  0
  3 92  1  0  0  0
  3 93  1  0  0  0
  4  5  1  0  0  0
  4 94  1  0  0  0
  4 95  1  0  0  0
  5  6  1  0  0  0
  5 26  1  0  0  0
  5 96  1  0  0  0
  6 25  1  0  0  0
  6 97  1  0  0  0
  6 98  1  0  0  0
  7  8  2  0  0  0
  7 26  1  0  0  0
  7 29  1  0  0  0
  8  9  1  0  0  0
  8 22  1  0  0  0
  9 10  1  0  0  0
  9 27  2  0  0  0
 10 11  2  0  0  0
 10 15  1  0  0  0
 11 12  1  0  0  0
 11 99  1  0  0  0
 12 13  2  0  0  0
 12100  1  0  0  0
 13 14  1  0  0  0
 13 31  1  0  0  0
 14 15  2  0  0  0
 14101  1  0  0  0
 15102  1  0  0  0
 16 17  2  0  0  0
 16 21  1  0  0  0
 16 31  1  0  0  0
 17 18  1  0  0  0
 17103  1  0  0  0
 18 19  2  0  0  0
 18104  1  0  0  0
 19 20  1  0  0  0
 19 24  1  0  0  0
 20 21  2  0  0  0
 20105  1  0  0  0
 21 23  1  0  0  0
 22 28  1  0  0  0
 22 32  2  0  0  0
 26 27  1  0  0  0
 28106  1  0  0  0
 28107  1  0  0  0
 29108  1  0  0  0
 29109  1  0  0  0
 33 34  1  0  0  0
 33 66  1  0  0  0
 33 70  2  0  0  0
 34 36  1  0  0  0
 34 59  1  0  0  0
 34110  1  0  0  0
 35 44  2  0  0  0
 35 45  1  0  0  0
 35 68  1  0  0  0
 36 56  1  0  0  0
 36111  1  0  0  0
 37 39  1  0  0  0
 37 47  1  0  0  0
 37 66  1  0  0  0
 37112  1  0  0  0
 38 43  2  0  0  0
 38 46  1  0  0  0
 38 47  1  0  0  0
 39 64  1  0  0  0
 39 67  2  0  0  0
 40 52  1  0  0  0
 40 53  2  0  0  0
 40 58  1  0  0  0
 41113  1  0  0  0
 41114  1  0  0  0
 41115  1  0  0  0
 41 48  1  0  0  0
 42 43  1  0  0  0
 42 66  1  0  0  0
 42116  1  0  0  0
 42117  1  0  0  0
 43 44  1  0  0  0
 44118  1  0  0  0
 45 46  2  0  0  0
 45119  1  0  0  0
 46120  1  0  0  0
 47121  1  0  0  0
 47122  1  0  0  0
 48 56  1  0  0  0
 48 65  1  0  0  0
 48123  1  0  0  0
 49 50  1  0  0  0
 49 53  1  0  0  0
 49 64  1  0  0  0
 49124  1  0  0  0
 50 51  1  0  0  0
 50125  1  0  0  0
 50126  1  0  0  0
 51 52  1  0  0  0
 51127  1  0  0  0
 51128  1  0  0  0
 52129  1  0  0  0
 52130  1  0  0  0
 53 54  1  0  0  0
 54 55  2  0  0  0
 54131  1  0  0  0
 55 57  1  0  0  0
 55132  1  0  0  0
 56 69  2  0  0  0
 57 58  2  0  0  0
 57133  1  0  0  0
 58134  1  0  0  0
 59 60  1  0  0  0
 59 61  1  0  0  0
 59 62  1  0  0  0
 60135  1  0  0  0
 60136  1  0  0  0
 60137  1  0  0  0
 61138  1  0  0  0
 61139  1  0  0  0
 61140  1  0  0  0
 62141  1  0  0  0
 62142  1  0  0  0
 62143  1  0  0  0
 63 65  1  0  0  0
 63144  1  0  0  0
 63145  1  0  0  0
 63146  1  0  0  0
 64147  1  0  0  0
 65148  1  0  0  0
 68 82  1  0  0  0
 71 72  2  0  0  0
 71 77  1  0  0  0
 71 84  1  0  0  0
 72 78  1  0  0  0
 72 85  1  0  0  0
 73 74  1  0  0  0
 73 79  1  0  0  0
 73 84  2  0  0  0
 74 83  1  0  0  0
 74 85  2  0  0  0
 75 77  1  0  0  0
 75149  1  0  0  0
 75150  1  0  0  0
 75151  1  0  0  0
 76 86  1  0  0  0
 76152  1  0  0  0
 76153  1  0  0  0
 76154  1  0  0  0
 77155  1  0  0  0
 77156  1  0  0  0
 78 80  1  0  0  0
 78157  1  0  0  0
 78158  1  0  0  0
 79 81  1  0  0  0
 79159  1  0  0  0
 79160  1  0  0  0
 80 82  1  0  0  0
 80161  1  0  0  0
 80162  1  0  0  0
 81 86  1  0  0  0
 81163  1  0  0  0
 81164  1  0  0  0
 82165  1  0  0  0
 82166  1  0  0  0
 83 87  1  0  0  0
 83 88  1  0  0  0
 83 89  1  0  0  0
M  ISO  4   1 100  68 101  82 101  86 100
M  END
> <chiral flag>
0

> <version>
0

> <s_m_source_file>
/data/baiqing/PycharmProjects/Reinvent-master-3.2/result/LINK_invent/BTK/process_docking_weight1_custom_sum_contain_oxygen_bond_distance_aromatic_linkinvent_7_9_3/rearranged_h_0064.sdf

> <i_m_source_file_index>
86

> <r_mmod_Potential_Energy-OPLS-2005>
311.341735839844

> <r_mmod_Stretch_Energy-OPLS-2005>
44.5978507995605

> <r_mmod_Bend_Energy-OPLS-2005>
114.034942626953

> <r_mmod_Torsional_Energy-OPLS-2005>
329.371765136719

> <r_mmod_Improper_Torsional_Energy-OPLS-2005>
19.5876026153564

> <r_mmod_Van_der_Waal_Energy-OPLS-2005>
156.378479003906

> <r_mmod_Electrostatic_Energy-OPLS-2005>
-191.497787475586

> <r_mmod_Solvation_Energy-OPLS-2005>
-188.404190063477

> <b_mmod_Minimization_Converged-OPLS-2005>
0

> <r_mmod_RMS_Derivative-OPLS-2005>
5.21847915649414

$$$$
95
                    3D
 Structure written by MMmdl.
179187  0  0  1  0            999 V2000
  -30.4750  -15.0184   20.4922 C   0  0  0  0  0  0
  -30.4747  -12.6535   19.4773 C   0  0  0  0  0  0
  -29.5277  -12.5565   18.2523 C   0  0  0  0  0  0
  -28.0648  -12.2895   18.6725 C   0  0  0  0  0  0
  -27.6396  -13.1892   19.8525 C   0  0  2  0  0  0
  -28.7104  -13.1380   20.9774 C   0  0  0  0  0  0
  -25.2432  -13.8007   20.5610 C   0  0  0  0  0  0
  -24.1779  -13.0327   20.9327 C   0  0  0  0  0  0
  -24.6371  -11.6822   20.8868 C   0  0  0  0  0  0
  -23.9052  -10.4240   21.0468 C   0  0  0  0  0  0
  -24.3627   -9.4154   21.9223 C   0  0  0  0  0  0
  -23.6302   -8.2204   22.0758 C   0  0  0  0  0  0
  -22.4286   -8.0274   21.3533 C   0  0  0  0  0  0
  -21.9918   -9.0247   20.4639 C   0  0  0  0  0  0
  -22.7251  -10.2124   20.3076 C   0  0  0  0  0  0
  -21.6842   -6.0759   22.5287 C   0  0  0  0  0  0
  -21.4011   -6.5641   23.8239 C   0  0  0  0  0  0
  -21.3652   -5.6777   24.9187 C   0  0  0  0  0  0
  -21.6037   -4.3045   24.7213 C   0  0  0  0  0  0
  -21.8835   -3.8159   23.4333 C   0  0  0  0  0  0
  -21.9199   -4.6987   22.3408 C   0  0  0  0  0  0
  -22.7820  -13.5198   21.1883 C   0  0  0  0  0  0
  -22.1693   -4.2202   21.0981 F   0  0  0  0  0  0
  -21.5602   -3.4514   25.7715 F   0  0  0  0  0  0
  -29.9495  -13.7071   20.4071 N   0  0  0  0  0  0
  -26.2894  -12.9164   20.3289 N   0  0  0  0  0  0
  -25.9286  -11.6372   20.5859 N   0  0  0  0  0  0
  -22.0328  -12.8228   22.0320 N   0  0  0  0  0  0
  -25.3724  -15.1723   20.3563 N   0  0  0  0  0  0
  -31.6565  -15.0965   20.1293 O   0  0  0  0  0  0
  -21.6619   -6.8894   21.4254 O   0  0  0  0  0  0
  -22.3683  -14.5612   20.6774 O   0  0  0  0  0  0
  -24.6424  -31.8443   23.1867 C   0  0  0  0  0  0
  -25.9187  -32.4703   23.8280 C   0  0  1  0  0  0
  -27.2468  -27.1507   20.1704 C   0  0  0  0  0  0
  -25.5928  -33.8507   24.2193 N   0  0  0  0  0  0
  -23.4492  -30.4580   21.5309 C   0  0  2  0  0  0
  -24.9063  -28.8765   20.1228 C   0  0  0  0  0  0
  -22.7575  -29.4534   22.4858 C   0  0  0  0  0  0
  -18.0302  -28.1390   22.8484 C   0  0  0  0  0  0
  -24.1487  -36.7251   23.2643 C   0  0  0  0  0  0
  -26.0023  -30.7244   21.3848 C   0  0  0  0  0  0
  -26.0808  -29.3324   20.7347 C   0  0  0  0  0  0
  -27.2529  -28.4881   20.7349 C   0  0  0  0  0  0
  -26.0418  -26.7821   19.5355 C   0  0  0  0  0  0
  -24.8968  -27.6120   19.5092 C   0  0  0  0  0  0
  -23.6809  -29.7771   20.1554 C   0  0  0  0  0  0
  -25.4121  -36.3038   24.0322 C   0  0  1  0  0  0
  -20.5917  -28.3720   23.1237 C   0  0  2  0  0  0
  -20.6785  -26.9417   22.5409 C   0  0  0  0  0  0
  -19.5758  -26.6375   21.5222 C   0  0  0  0  0  0
  -18.1938  -26.7932   22.1631 C   0  0  0  0  0  0
  -19.1555  -28.8878   23.2858 C   0  0  0  0  0  0
  -18.9476  -30.1476   23.8882 C   0  0  0  0  0  0
  -17.6471  -30.6596   24.0557 C   0  0  0  0  0  0
  -25.9071  -34.9409   23.5072 C   0  0  0  0  0  0
  -16.5364  -29.9083   23.6326 C   0  0  0  0  0  0
  -16.7292  -28.6495   23.0365 C   0  0  0  0  0  0
  -26.4512  -31.6568   25.0718 C   0  0  0  0  0  0
  -25.3693  -31.3750   26.1401 C   0  0  0  0  0  0
  -27.0388  -30.2972   24.6295 C   0  0  0  0  0  0
  -27.6044  -32.4332   25.7505 C   0  0  0  0  0  0
  -27.5580  -37.1780   24.8463 C   0  0  0  0  0  0
  -21.4263  -29.3043   22.3619 N   0  0  0  0  0  0
  -26.4287  -37.3753   23.9414 N   0  0  0  0  0  0
  -24.7170  -31.0303   22.0892 N   0  0  0  0  0  0
  -23.4208  -28.8083   23.3028 O   0  0  0  0  0  0
  -28.3351  -26.2066   20.1642 O   0  0  0  0  0  0
  -26.5665  -34.8904   22.4658 O   0  0  0  0  0  0
  -23.5536  -32.1301   23.7083 O   0  0  0  0  0  0
  -30.1008  -19.9484   19.2770 C   0  0  0  0  0  0
  -29.5345  -20.4118   20.4514 C   0  0  0  0  0  0
  -29.9167  -18.0228   20.5145 C   0  0  0  0  0  0
  -30.4011  -21.3394   23.2867 C   0  0  0  0  0  0
  -29.8992  -17.0594   17.3753 C   0  0  0  0  0  0
  -27.7438  -21.7050   21.7183 C   0  0  0  0  0  0
  -30.0039  -16.4368   22.5343 C   0  0  0  0  0  0
  -28.0042  -22.9038   18.8411 C   0  0  0  0  0  0
  -30.2606  -23.7053   19.4525 C   0  0  0  0  0  0
  -30.1704  -22.2891   22.0907 C   0  0  0  0  0  0
  -30.9283  -17.7831   18.2503 C   0  0  0  0  0  0
  -28.1502  -16.2884   20.7995 C   0  0  0  0  0  0
  -28.1903  -24.7354   20.6480 C   0  0  0  0  0  0
  -29.1044  -21.9081   21.0114 C   0  0  1  0  0  0
  -29.6870  -16.4505   21.0191 C   0  0  2  0  0  0
  -28.8901  -23.3063   20.0391 C   0  0  0  0  0  0
  -30.3211  -18.5619   19.3366 N   0  0  0  0  0  0
  -29.4848  -19.1754   21.1726 N   0  3  0  0  0  0
  -27.1929  -17.2167   21.4412 N   0  3  0  0  0  0
  -31.4850  -12.8729   19.1360 H   0  0  0  0  0  0
  -30.5573  -11.6861   19.9747 H   0  0  0  0  0  0
  -29.8710  -11.7798   17.5672 H   0  0  0  0  0  0
  -29.5752  -13.4954   17.6978 H   0  0  0  0  0  0
  -27.9782  -11.2413   18.9629 H   0  0  0  0  0  0
  -27.3944  -12.4295   17.8232 H   0  0  0  0  0  0
  -27.6068  -14.1778   19.4086 H   0  0  0  0  0  0
  -28.8584  -12.0989   21.2790 H   0  0  0  0  0  0
  -28.4283  -13.6115   21.9155 H   0  0  0  0  0  0
  -25.2770   -9.5649   22.4801 H   0  0  0  0  0  0
  -24.0016   -7.4594   22.7481 H   0  0  0  0  0  0
  -21.0839   -8.8793   19.8945 H   0  0  0  0  0  0
  -22.3726  -10.9684   19.6197 H   0  0  0  0  0  0
  -21.2005   -7.6150   23.9773 H   0  0  0  0  0  0
  -21.1456   -6.0490   25.9102 H   0  0  0  0  0  0
  -22.0618   -2.7624   23.2814 H   0  0  0  0  0  0
  -22.3756  -11.9780   22.4627 H   0  0  0  0  0  0
  -21.0954  -13.1386   22.2427 H   0  0  0  0  0  0
  -25.6481  -15.3089   19.3900 H   0  0  0  0  0  0
  -24.4391  -15.5621   20.4655 H   0  0  0  0  0  0
  -26.7258  -32.5331   23.1028 H   0  0  0  0  0  0
  -25.0040  -33.9625   25.0314 H   0  0  0  0  0  0
  -22.7513  -31.2820   21.3688 H   0  0  0  0  0  0
  -23.3770  -35.9561   23.3283 H   0  0  0  0  0  0
  -24.3576  -36.8909   22.2064 H   0  0  0  0  0  0
  -23.7219  -37.6428   23.6699 H   0  0  0  0  0  0
  -26.1546  -31.4777   20.6108 H   0  0  0  0  0  0
  -26.8725  -30.7804   22.0273 H   0  0  0  0  0  0
  -28.1534  -28.8415   21.2172 H   0  0  0  0  0  0
  -25.9794  -25.8141   19.0607 H   0  0  0  0  0  0
  -23.9991  -27.2530   19.0249 H   0  0  0  0  0  0
  -23.8201  -30.5451   19.3944 H   0  0  0  0  0  0
  -22.7993  -29.2150   19.8440 H   0  0  0  0  0  0
  -25.1310  -36.1874   25.0814 H   0  0  0  0  0  0
  -21.0008  -28.3307   24.1364 H   0  0  0  0  0  0
  -20.5674  -26.2334   23.3635 H   0  0  0  0  0  0
  -21.6650  -26.7417   22.1212 H   0  0  0  0  0  0
  -19.6909  -25.6276   21.1273 H   0  0  0  0  0  0
  -19.6690  -27.3167   20.6740 H   0  0  0  0  0  0
  -17.4206  -26.6689   21.4033 H   0  0  0  0  0  0
  -18.0323  -26.0079   22.9030 H   0  0  0  0  0  0
  -19.7955  -30.7298   24.2241 H   0  0  0  0  0  0
  -17.5025  -31.6272   24.5159 H   0  0  0  0  0  0
  -15.5361  -30.2987   23.7657 H   0  0  0  0  0  0
  -15.8694  -28.0811   22.7096 H   0  0  0  0  0  0
  -24.5868  -30.7110   25.7703 H   0  0  0  0  0  0
  -24.8877  -32.2926   26.4790 H   0  0  0  0  0  0
  -25.7954  -30.8931   27.0212 H   0  0  0  0  0  0
  -26.3010  -29.6690   24.1285 H   0  0  0  0  0  0
  -27.3989  -29.7275   25.4878 H   0  0  0  0  0  0
  -27.8922  -30.4222   23.9627 H   0  0  0  0  0  0
  -27.2642  -33.3652   26.2042 H   0  0  0  0  0  0
  -28.3878  -32.6866   25.0348 H   0  0  0  0  0  0
  -28.0690  -31.8483   26.5460 H   0  0  0  0  0  0
  -28.2570  -38.0101   24.7544 H   0  0  0  0  0  0
  -28.1101  -36.2635   24.6253 H   0  0  0  0  0  0
  -27.2299  -37.1383   25.8863 H   0  0  0  0  0  0
  -20.9475  -29.8773   21.6811 H   0  0  0  0  0  0
  -26.0153  -38.2819   24.1433 H   0  0  0  0  0  0
  -30.3749  -20.5127   18.3955 H   0  0  0  0  0  0
  -31.0919  -21.7947   23.9961 H   0  0  0  0  0  0
  -30.8607  -20.3979   22.9890 H   0  0  0  0  0  0
  -29.4884  -21.1260   23.8427 H   0  0  0  0  0  0
  -30.3997  -16.4736   16.6053 H   0  0  0  0  0  0
  -29.2374  -17.7707   16.8831 H   0  0  0  0  0  0
  -29.2875  -16.3729   17.9530 H   0  0  0  0  0  0
  -27.7720  -20.9371   22.4870 H   0  0  0  0  0  0
  -26.9687  -21.4028   21.0168 H   0  0  0  0  0  0
  -27.4034  -22.6140   22.2120 H   0  0  0  0  0  0
  -29.3976  -17.1314   23.1146 H   0  0  0  0  0  0
  -31.0474  -16.7062   22.7045 H   0  0  0  0  0  0
  -29.8580  -15.4479   22.9762 H   0  0  0  0  0  0
  -27.8742  -23.7364   18.1491 H   0  0  0  0  0  0
  -27.0023  -22.6105   19.1547 H   0  0  0  0  0  0
  -28.4245  -22.0725   18.2768 H   0  0  0  0  0  0
  -30.1545  -24.4352   18.6495 H   0  0  0  0  0  0
  -30.7860  -22.8436   19.0413 H   0  0  0  0  0  0
  -30.9059  -24.1576   20.2049 H   0  0  0  0  0  0
  -31.1415  -22.3943   21.6062 H   0  0  0  0  0  0
  -29.9410  -23.2727   22.4974 H   0  0  0  0  0  0
  -31.5013  -18.4726   17.6293 H   0  0  0  0  0  0
  -31.6557  -17.0968   18.6774 H   0  0  0  0  0  0
  -27.7963  -15.3727   21.2220 H   0  0  0  0  0  0
  -27.9269  -16.2963   19.7338 H   0  0  0  0  0  0
  -28.5066  -24.8020   21.6881 H   0  0  0  0  0  0
  -27.1200  -24.5419   20.7324 H   0  0  0  0  0  0
  -29.1906  -19.1592   22.1417 H   0  0  0  0  0  0
  -27.2726  -17.2531   22.4424 H   0  0  0  0  0  0
  -26.2849  -16.8051   21.2501 H   0  0  0  0  0  0
  -27.1786  -18.1351   21.0328 H   0  0  0  0  0  0
  1 25  1  0  0  0
  1 30  2  0  0  0
  1 85  1  0  0  0
  2  3  1  0  0  0
  2 25  1  0  0  0
  2 90  1  0  0  0
  2 91  1  0  0  0
  3  4  1  0  0  0
  3 92  1  0  0  0
  3 93  1  0  0  0
  4  5  1  0  0  0
  4 94  1  0  0  0
  4 95  1  0  0  0
  5  6  1  0  0  0
  5 26  1  0  0  0
  5 96  1  0  0  0
  6 25  1  0  0  0
  6 97  1  0  0  0
  6 98  1  0  0  0
  7  8  2  0  0  0
  7 26  1  0  0  0
  7 29  1  0  0  0
  8  9  1  0  0  0
  8 22  1  0  0  0
  9 10  1  0  0  0
  9 27  2  0  0  0
 10 11  2  0  0  0
 10 15  1  0  0  0
 11 12  1  0  0  0
 11 99  1  0  0  0
 12 13  2  0  0  0
 12100  1  0  0  0
 13 14  1  0  0  0
 13 31  1  0  0  0
 14 15  2  0  0  0
 14101  1  0  0  0
 15102  1  0  0  0
 16 17  2  0  0  0
 16 21  1  0  0  0
 16 31  1  0  0  0
 17 18  1  0  0  0
 17103  1  0  0  0
 18 19  2  0  0  0
 18104  1  0  0  0
 19 20  1  0  0  0
 19 24  1  0  0  0
 20 21  2  0  0  0
 20105  1  0  0  0
 21 23  1  0  0  0
 22 28  1  0  0  0
 22 32  2  0  0  0
 26 27  1  0  0  0
 28106  1  0  0  0
 28107  1  0  0  0
 29108  1  0  0  0
 29109  1  0  0  0
 33 34  1  0  0  0
 33 66  1  0  0  0
 33 70  2  0  0  0
 34 36  1  0  0  0
 34 59  1  0  0  0
 34110  1  0  0  0
 35 44  2  0  0  0
 35 45  1  0  0  0
 35 68  1  0  0  0
 36 56  1  0  0  0
 36111  1  0  0  0
 37 39  1  0  0  0
 37 47  1  0  0  0
 37 66  1  0  0  0
 37112  1  0  0  0
 38 43  2  0  0  0
 38 46  1  0  0  0
 38 47  1  0  0  0
 39 64  1  0  0  0
 39 67  2  0  0  0
 40 52  1  0  0  0
 40 53  2  0  0  0
 40 58  1  0  0  0
 41113  1  0  0  0
 41114  1  0  0  0
 41115  1  0  0  0
 41 48  1  0  0  0
 42 43  1  0  0  0
 42 66  1  0  0  0
 42116  1  0  0  0
 42117  1  0  0  0
 43 44  1  0  0  0
 44118  1  0  0  0
 45 46  2  0  0  0
 45119  1  0  0  0
 46120  1  0  0  0
 47121  1  0  0  0
 47122  1  0  0  0
 48 56  1  0  0  0
 48 65  1  0  0  0
 48123  1  0  0  0
 49 50  1  0  0  0
 49 53  1  0  0  0
 49 64  1  0  0  0
 49124  1  0  0  0
 50 51  1  0  0  0
 50125  1  0  0  0
 50126  1  0  0  0
 51 52  1  0  0  0
 51127  1  0  0  0
 51128  1  0  0  0
 52129  1  0  0  0
 52130  1  0  0  0
 53 54  1  0  0  0
 54 55  2  0  0  0
 54131  1  0  0  0
 55 57  1  0  0  0
 55132  1  0  0  0
 56 69  2  0  0  0
 57 58  2  0  0  0
 57133  1  0  0  0
 58134  1  0  0  0
 59 60  1  0  0  0
 59 61  1  0  0  0
 59 62  1  0  0  0
 60135  1  0  0  0
 60136  1  0  0  0
 60137  1  0  0  0
 61138  1  0  0  0
 61139  1  0  0  0
 61140  1  0  0  0
 62141  1  0  0  0
 62142  1  0  0  0
 62143  1  0  0  0
 63 65  1  0  0  0
 63144  1  0  0  0
 63145  1  0  0  0
 63146  1  0  0  0
 64147  1  0  0  0
 65148  1  0  0  0
 68 83  1  0  0  0
 71 72  2  0  0  0
 71 87  1  0  0  0
 71149  1  0  0  0
 72 84  1  0  0  0
 72 88  1  0  0  0
 73 85  1  0  0  0
 73 87  1  0  0  0
 73 88  2  0  0  0
 74 80  1  0  0  0
 74150  1  0  0  0
 74151  1  0  0  0
 74152  1  0  0  0
 75 81  1  0  0  0
 75153  1  0  0  0
 75154  1  0  0  0
 75155  1  0  0  0
 76156  1  0  0  0
 76157  1  0  0  0
 76158  1  0  0  0
 76 84  1  0  0  0
 77159  1  0  0  0
 77160  1  0  0  0
 77161  1  0  0  0
 77 85  1  0  0  0
 78162  1  0  0  0
 78163  1  0  0  0
 78164  1  0  0  0
 78 86  1  0  0  0
 79 86  1  0  0  0
 79165  1  0  0  0
 79166  1  0  0  0
 79167  1  0  0  0
 80 84  1  0  0  0
 80168  1  0  0  0
 80169  1  0  0  0
 81 87  1  0  0  0
 81170  1  0  0  0
 81171  1  0  0  0
 82 85  1  0  0  0
 82 89  1  0  0  0
 82172  1  0  0  0
 82173  1  0  0  0
 83 86  1  0  0  0
 83174  1  0  0  0
 83175  1  0  0  0
 84 86  1  0  0  0
 88176  1  0  0  0
 89177  1  0  0  0
 89178  1  0  0  0
 89179  1  0  0  0
M  CHG  2  88   1  89   1
M  ISO  4   1 100  68 101  83 101  85 100
M  END
> <chiral flag>
0

> <version>
0

> <s_m_source_file>
/data/baiqing/PycharmProjects/Reinvent-master-3.2/result/LINK_invent/BTK/process_docking_weight1_custom_sum_contain_oxygen_bond_distance_aromatic_linkinvent_7_9_3/rearranged_h_0064.sdf

> <i_m_source_file_index>
87

> <r_mmod_Potential_Energy-OPLS-2005>
470.317413330078

> <r_mmod_Stretch_Energy-OPLS-2005>
318.314819335938

> <r_mmod_Bend_Energy-OPLS-2005>
334.345977783203

> <r_mmod_Torsional_Energy-OPLS-2005>
311.115600585938

> <r_mmod_Improper_Torsional_Energy-OPLS-2005>
9.8304615020752

> <r_mmod_Van_der_Waal_Energy-OPLS-2005>
133.213806152344

> <r_mmod_Electrostatic_Energy-OPLS-2005>
103.623817443848

> <r_mmod_Solvation_Energy-OPLS-2005>
-938.841796875

> <b_mmod_Minimization_Converged-OPLS-2005>
0

> <r_mmod_RMS_Derivative-OPLS-2005>
3.21742558479309

$$$$
