0
                    3D
 Structure written by MMmdl.
159168  0  0  1  0            999 V2000
  -30.5032  -15.0796   20.3890 C   0  0  0  0  0  0
  -30.4263  -12.6791   19.5039 C   0  0  0  0  0  0
  -29.5154  -12.5359   18.2631 C   0  0  0  0  0  0
  -28.0565  -12.3001   18.6907 C   0  0  0  0  0  0
  -27.6125  -13.2599   19.8249 C   0  0  2  0  0  0
  -28.6505  -13.3634   20.9589 C   0  0  0  0  0  0
  -25.2408  -13.8244   20.5773 C   0  0  0  0  0  0
  -24.1719  -13.0449   20.9233 C   0  0  0  0  0  0
  -24.6349  -11.6940   20.8729 C   0  0  0  0  0  0
  -23.9045  -10.4306   21.0375 C   0  0  0  0  0  0
  -24.3597   -9.4238   21.9164 C   0  0  0  0  0  0
  -23.6272   -8.2276   22.0755 C   0  0  0  0  0  0
  -22.4258   -8.0297   21.3542 C   0  0  0  0  0  0
  -21.9889   -9.0260   20.4628 C   0  0  0  0  0  0
  -22.7218  -10.2139   20.3027 C   0  0  0  0  0  0
  -21.6856   -6.0742   22.5296 C   0  0  0  0  0  0
  -21.4007   -6.5642   23.8228 C   0  0  0  0  0  0
  -21.3655   -5.6791   24.9188 C   0  0  0  0  0  0
  -21.6037   -4.3055   24.7240 C   0  0  0  0  0  0
  -21.8809   -3.8149   23.4359 C   0  0  0  0  0  0
  -21.9191   -4.6967   22.3416 C   0  0  0  0  0  0
  -22.7741  -13.5210   21.1889 C   0  0  0  0  0  0
  -22.1657   -4.2151   21.0993 F   0  0  0  0  0  0
  -21.5624   -3.4537   25.7749 F   0  0  0  0  0  0
  -29.9011  -13.8104   20.3360 N   0  0  0  0  0  0
  -26.2799  -12.9484   20.3225 N   0  0  0  0  0  0
  -25.9273  -11.6596   20.5682 N   0  0  0  0  0  0
  -22.0396  -12.8187   22.0442 N   0  0  0  0  0  0
  -25.4127  -15.1978   20.4326 N   0  0  0  0  0  0
  -31.7251  -15.0755   20.1813 O   0  0  0  0  0  0
  -21.6625   -6.8891   21.4260 O   0  0  0  0  0  0
  -22.3417  -14.5505   20.6729 O   0  0  0  0  0  0
  -24.6486  -31.8345   23.1799 C   0  0  0  0  0  0
  -25.9212  -32.4643   23.8228 C   0  0  1  0  0  0
  -27.2166  -27.0455   20.1674 C   0  0  0  0  0  0
  -25.5929  -33.8453   24.2138 N   0  0  0  0  0  0
  -23.4584  -30.4462   21.5288 C   0  0  2  0  0  0
  -24.9088  -28.8498   20.1162 C   0  0  0  0  0  0
  -22.7599  -29.4486   22.4863 C   0  0  0  0  0  0
  -18.0301  -28.1398   22.8473 C   0  0  0  0  0  0
  -24.1495  -36.7222   23.2648 C   0  0  0  0  0  0
  -26.0182  -30.6778   21.3916 C   0  0  0  0  0  0
  -26.0866  -29.2766   20.7416 C   0  0  0  0  0  0
  -27.2389  -28.3904   20.7476 C   0  0  0  0  0  0
  -26.0140  -26.7386   19.4982 C   0  0  0  0  0  0
  -24.8887  -27.5977   19.4786 C   0  0  0  0  0  0
  -23.6885  -29.7616   20.1539 C   0  0  0  0  0  0
  -25.4129  -36.2998   24.0316 C   0  0  1  0  0  0
  -20.5914  -28.3721   23.1232 C   0  0  2  0  0  0
  -20.6776  -26.9417   22.5411 C   0  0  0  0  0  0
  -19.5753  -26.6379   21.5215 C   0  0  0  0  0  0
  -18.1937  -26.7932   22.1627 C   0  0  0  0  0  0
  -19.1559  -28.8879   23.2836 C   0  0  0  0  0  0
  -18.9478  -30.1476   23.8863 C   0  0  0  0  0  0
  -17.6473  -30.6595   24.0550 C   0  0  0  0  0  0
  -25.9081  -34.9378   23.5050 C   0  0  0  0  0  0
  -16.5362  -29.9085   23.6340 C   0  0  0  0  0  0
  -16.7282  -28.6502   23.0361 C   0  0  0  0  0  0
  -26.4521  -31.6540   25.0700 C   0  0  0  0  0  0
  -25.3688  -31.3741   26.1384 C   0  0  0  0  0  0
  -27.0410  -30.2933   24.6324 C   0  0  0  0  0  0
  -27.6037  -32.4328   25.7480 C   0  0  0  0  0  0
  -27.5577  -37.1769   24.8464 C   0  0  0  0  0  0
  -21.4281  -29.3027   22.3604 N   0  0  0  0  0  0
  -26.4286  -37.3718   23.9411 N   0  0  0  0  0  0
  -24.7292  -31.0108   22.0883 N   0  0  0  0  0  0
  -23.4205  -28.8052   23.3051 O   0  0  0  0  0  0
  -28.2843  -26.0469   20.1730 O   0  0  0  0  0  0
  -26.5697  -34.8892   22.4650 O   0  0  0  0  0  0
  -23.5581  -32.1264   23.6965 O   0  0  0  0  0  0
  -29.3509  -22.4173   19.5566 C   0  0  0  0  0  0
  -28.6566  -21.4491   20.3780 C   0  0  0  0  0  0
  -27.6927  -22.2043   21.1695 C   0  0  0  0  0  0
  -27.5154  -23.6727   21.1171 C   0  0  0  0  0  0
  -28.2539  -24.5429   20.2361 C   0  0  0  0  0  0
  -29.4764  -18.8379   19.2326 C   0  0  0  0  0  0
  -29.3433  -18.8845   21.6286 C   0  0  0  0  0  0
  -29.3040  -17.1910   19.3084 C   0  0  0  0  0  0
  -30.1552  -17.4480   21.4853 C   0  0  0  0  0  0
  -28.8238  -19.7397   20.3738 C   0  0  0  0  0  0
  -26.7965  -21.4315   22.1322 C   0  0  0  0  0  0
  -26.5157  -24.3380   22.0576 C   0  0  0  0  0  0
  -29.1787  -23.8174   19.5016 N   0  0  0  0  0  0
  -29.7849  -16.3499   20.4945 N   0  0  0  0  0  0
  -31.4546  -12.8487   19.1817 H   0  0  0  0  0  0
  -30.4447  -11.7515   20.0791 H   0  0  0  0  0  0
  -29.8586  -11.7134   17.6337 H   0  0  0  0  0  0
  -29.5786  -13.4381   17.6531 H   0  0  0  0  0  0
  -27.9815  -11.2672   19.0334 H   0  0  0  0  0  0
  -27.3863  -12.3850   17.8342 H   0  0  0  0  0  0
  -27.5505  -14.2439   19.3585 H   0  0  0  0  0  0
  -28.7753  -12.4104   21.4747 H   0  0  0  0  0  0
  -28.3250  -14.0878   21.7076 H   0  0  0  0  0  0
  -25.2738   -9.5732   22.4743 H   0  0  0  0  0  0
  -23.9973   -7.4679   22.7493 H   0  0  0  0  0  0
  -21.0822   -8.8777   19.8931 H   0  0  0  0  0  0
  -22.3665  -10.9673   19.6130 H   0  0  0  0  0  0
  -21.1985   -7.6148   23.9740 H   0  0  0  0  0  0
  -21.1485   -6.0516   25.9092 H   0  0  0  0  0  0
  -22.0579   -2.7613   23.2864 H   0  0  0  0  0  0
  -21.0994  -13.1170   22.2628 H   0  0  0  0  0  0
  -22.4033  -11.9859   22.4832 H   0  0  0  0  0  0
  -24.6655  -15.8633   20.5994 H   0  0  0  0  0  0
  -26.2888  -15.6413   20.1897 H   0  0  0  0  0  0
  -26.7272  -32.5226   23.0944 H   0  0  0  0  0  0
  -25.0009  -33.9547   25.0240 H   0  0  0  0  0  0
  -22.7651  -31.2734   21.3644 H   0  0  0  0  0  0
  -23.3766  -35.9543   23.3298 H   0  0  0  0  0  0
  -24.3572  -36.8868   22.2063 H   0  0  0  0  0  0
  -23.7246  -37.6413   23.6697 H   0  0  0  0  0  0
  -26.1775  -31.4238   20.6118 H   0  0  0  0  0  0
  -26.8876  -30.7366   22.0353 H   0  0  0  0  0  0
  -28.1422  -28.7167   21.2440 H   0  0  0  0  0  0
  -25.9271  -25.7800   19.0065 H   0  0  0  0  0  0
  -23.9899  -27.2685   18.9753 H   0  0  0  0  0  0
  -23.8267  -30.5281   19.3907 H   0  0  0  0  0  0
  -22.8023  -29.2018   19.8496 H   0  0  0  0  0  0
  -25.1323  -36.1813   25.0807 H   0  0  0  0  0  0
  -20.9988  -28.3307   24.1359 H   0  0  0  0  0  0
  -20.5656  -26.2329   23.3630 H   0  0  0  0  0  0
  -21.6642  -26.7412   22.1215 H   0  0  0  0  0  0
  -19.6918  -25.6287   21.1256 H   0  0  0  0  0  0
  -19.6691  -27.3178   20.6739 H   0  0  0  0  0  0
  -17.4197  -26.6656   21.4043 H   0  0  0  0  0  0
  -18.0345  -26.0093   22.9045 H   0  0  0  0  0  0
  -19.7956  -30.7295   24.2217 H   0  0  0  0  0  0
  -17.5031  -31.6273   24.5153 H   0  0  0  0  0  0
  -15.5362  -30.2971   23.7693 H   0  0  0  0  0  0
  -15.8683  -28.0810   22.7102 H   0  0  0  0  0  0
  -24.5829  -30.7145   25.7681 H   0  0  0  0  0  0
  -24.8924  -32.2936   26.4797 H   0  0  0  0  0  0
  -25.7943  -30.8883   27.0173 H   0  0  0  0  0  0
  -26.3059  -29.6635   24.1303 H   0  0  0  0  0  0
  -27.3979  -29.7242   25.4918 H   0  0  0  0  0  0
  -27.8976  -30.4164   23.9692 H   0  0  0  0  0  0
  -27.2589  -33.3589   26.2087 H   0  0  0  0  0  0
  -28.3818  -32.6970   25.0306 H   0  0  0  0  0  0
  -28.0757  -31.8461   26.5367 H   0  0  0  0  0  0
  -28.2576  -38.0082   24.7513 H   0  0  0  0  0  0
  -28.1095  -36.2613   24.6286 H   0  0  0  0  0  0
  -27.2301  -37.1399   25.8868 H   0  0  0  0  0  0
  -20.9516  -29.8693   21.6729 H   0  0  0  0  0  0
  -26.0148  -38.2780   24.1428 H   0  0  0  0  0  0
  -30.1045  -22.0460   18.8778 H   0  0  0  0  0  0
  -29.0696  -19.1660   18.2753 H   0  0  0  0  0  0
  -30.5398  -19.0739   19.1774 H   0  0  0  0  0  0
  -30.0061  -19.5388   22.1953 H   0  0  0  0  0  0
  -28.4960  -18.7234   22.2949 H   0  0  0  0  0  0
  -29.7634  -16.7724   18.4112 H   0  0  0  0  0  0
  -28.2419  -16.9663   19.2016 H   0  0  0  0  0  0
  -30.1837  -16.9861   22.4732 H   0  0  0  0  0  0
  -31.1975  -17.6917   21.2726 H   0  0  0  0  0  0
  -27.7773  -19.4513   20.2678 H   0  0  0  0  0  0
  -26.8411  -20.3535   22.0125 H   0  0  0  0  0  0
  -25.7523  -21.7125   21.9932 H   0  0  0  0  0  0
  -27.0750  -21.6502   23.1632 H   0  0  0  0  0  0
  -26.5584  -23.9153   23.0603 H   0  0  0  0  0  0
  -25.5012  -24.2273   21.6749 H   0  0  0  0  0  0
  -26.7132  -25.4022   22.1758 H   0  0  0  0  0  0
  1 25  1  0  0  0
  1 30  2  0  0  0
  1 84  1  0  0  0
  2  3  1  0  0  0
  2 25  1  0  0  0
  2 85  1  0  0  0
  2 86  1  0  0  0
  3  4  1  0  0  0
  3 87  1  0  0  0
  3 88  1  0  0  0
  4  5  1  0  0  0
  4 89  1  0  0  0
  4 90  1  0  0  0
  5  6  1  0  0  0
  5 26  1  0  0  0
  5 91  1  0  0  0
  6 25  1  0  0  0
  6 92  1  0  0  0
  6 93  1  0  0  0
  7  8  2  0  0  0
  7 26  1  0  0  0
  7 29  1  0  0  0
  8  9  1  0  0  0
  8 22  1  0  0  0
  9 10  1  0  0  0
  9 27  2  0  0  0
 10 11  2  0  0  0
 10 15  1  0  0  0
 11 12  1  0  0  0
 11 94  1  0  0  0
 12 13  2  0  0  0
 12 95  1  0  0  0
 13 14  1  0  0  0
 13 31  1  0  0  0
 14 15  2  0  0  0
 14 96  1  0  0  0
 15 97  1  0  0  0
 16 17  2  0  0  0
 16 21  1  0  0  0
 16 31  1  0  0  0
 17 18  1  0  0  0
 17 98  1  0  0  0
 18 19  2  0  0  0
 18 99  1  0  0  0
 19 20  1  0  0  0
 19 24  1  0  0  0
 20 21  2  0  0  0
 20100  1  0  0  0
 21 23  1  0  0  0
 22 28  1  0  0  0
 22 32  2  0  0  0
 26 27  1  0  0  0
 28101  1  0  0  0
 28102  1  0  0  0
 29103  1  0  0  0
 29104  1  0  0  0
 33 34  1  0  0  0
 33 66  1  0  0  0
 33 70  2  0  0  0
 34 36  1  0  0  0
 34 59  1  0  0  0
 34105  1  0  0  0
 35 44  2  0  0  0
 35 45  1  0  0  0
 35 68  1  0  0  0
 36 56  1  0  0  0
 36106  1  0  0  0
 37 39  1  0  0  0
 37 47  1  0  0  0
 37 66  1  0  0  0
 37107  1  0  0  0
 38 43  2  0  0  0
 38 46  1  0  0  0
 38 47  1  0  0  0
 39 64  1  0  0  0
 39 67  2  0  0  0
 40 52  1  0  0  0
 40 53  2  0  0  0
 40 58  1  0  0  0
 41108  1  0  0  0
 41109  1  0  0  0
 41110  1  0  0  0
 41 48  1  0  0  0
 42 43  1  0  0  0
 42 66  1  0  0  0
 42111  1  0  0  0
 42112  1  0  0  0
 43 44  1  0  0  0
 44113  1  0  0  0
 45 46  2  0  0  0
 45114  1  0  0  0
 46115  1  0  0  0
 47116  1  0  0  0
 47117  1  0  0  0
 48 56  1  0  0  0
 48 65  1  0  0  0
 48118  1  0  0  0
 49 50  1  0  0  0
 49 53  1  0  0  0
 49 64  1  0  0  0
 49119  1  0  0  0
 50 51  1  0  0  0
 50120  1  0  0  0
 50121  1  0  0  0
 51 52  1  0  0  0
 51122  1  0  0  0
 51123  1  0  0  0
 52124  1  0  0  0
 52125  1  0  0  0
 53 54  1  0  0  0
 54 55  2  0  0  0
 54126  1  0  0  0
 55 57  1  0  0  0
 55127  1  0  0  0
 56 69  2  0  0  0
 57 58  2  0  0  0
 57128  1  0  0  0
 58129  1  0  0  0
 59 60  1  0  0  0
 59 61  1  0  0  0
 59 62  1  0  0  0
 60130  1  0  0  0
 60131  1  0  0  0
 60132  1  0  0  0
 61133  1  0  0  0
 61134  1  0  0  0
 61135  1  0  0  0
 62136  1  0  0  0
 62137  1  0  0  0
 62138  1  0  0  0
 63 65  1  0  0  0
 63139  1  0  0  0
 63140  1  0  0  0
 63141  1  0  0  0
 64142  1  0  0  0
 65143  1  0  0  0
 68 75  1  0  0  0
 71 72  2  0  0  0
 71 83  1  0  0  0
 71144  1  0  0  0
 72 73  1  0  0  0
 72 80  1  0  0  0
 73 74  2  0  0  0
 73 81  1  0  0  0
 74 75  1  0  0  0
 74 82  1  0  0  0
 75 83  2  0  0  0
 76 78  1  0  0  0
 76 80  1  0  0  0
 76145  1  0  0  0
 76146  1  0  0  0
 77 79  1  0  0  0
 77 80  1  0  0  0
 77147  1  0  0  0
 77148  1  0  0  0
 78 84  1  0  0  0
 78149  1  0  0  0
 78150  1  0  0  0
 79 84  1  0  0  0
 79151  1  0  0  0
 79152  1  0  0  0
 80153  1  0  0  0
 81154  1  0  0  0
 81155  1  0  0  0
 81156  1  0  0  0
 82157  1  0  0  0
 82158  1  0  0  0
 82159  1  0  0  0
M  ISO  4   1 100  68 101  75 101  84 100
M  END
> <chiral flag>
0

> <version>
0

> <s_m_source_file>
/data/baiqing/PycharmProjects/Reinvent-master-3.2/result/LINK_invent/BTK/process_docking_weight1_custom_sum_contain_oxygen_bond_distance_aromatic_linkinvent_7_9_3/rearranged_h_0174.sdf

> <i_m_source_file_index>
1

> <r_mmod_Potential_Energy-OPLS-2005>
833.13232421875

> <r_mmod_Stretch_Energy-OPLS-2005>
314.932891845703

> <r_mmod_Bend_Energy-OPLS-2005>
359.404663085938

> <r_mmod_Torsional_Energy-OPLS-2005>
343.196502685547

> <r_mmod_Improper_Torsional_Energy-OPLS-2005>
7.94420099258423

> <r_mmod_Van_der_Waal_Energy-OPLS-2005>
136.700653076172

> <r_mmod_Electrostatic_Energy-OPLS-2005>
-403.087432861328

> <r_mmod_Solvation_Energy-OPLS-2005>
-208.859344482422

> <b_mmod_Minimization_Converged-OPLS-2005>
0

> <r_mmod_RMS_Derivative-OPLS-2005>
1.42174637317657

$$$$
1
                    3D
 Structure written by MMmdl.
157167  0  0  1  0            999 V2000
  -30.3941  -15.4736   20.3421 C   0  0  0  0  0  0
  -30.4217  -12.9640   19.5249 C   0  0  0  0  0  0
  -29.5321  -12.6189   18.3017 C   0  0  0  0  0  0
  -28.1007  -12.2918   18.7493 C   0  0  0  0  0  0
  -27.5989  -13.2921   19.8174 C   0  0  2  0  0  0
  -28.6254  -13.5784   20.9367 C   0  0  0  0  0  0
  -25.2349  -13.8274   20.5784 C   0  0  0  0  0  0
  -24.1712  -13.0444   20.9267 C   0  0  0  0  0  0
  -24.6385  -11.6946   20.8765 C   0  0  0  0  0  0
  -23.9089  -10.4297   21.0409 C   0  0  0  0  0  0
  -24.3638   -9.4210   21.9180 C   0  0  0  0  0  0
  -23.6305   -8.2253   22.0754 C   0  0  0  0  0  0
  -22.4280   -8.0290   21.3549 C   0  0  0  0  0  0
  -21.9925   -9.0257   20.4647 C   0  0  0  0  0  0
  -22.7265  -10.2132   20.3059 C   0  0  0  0  0  0
  -21.6860   -6.0732   22.5276 C   0  0  0  0  0  0
  -21.4017   -6.5634   23.8205 C   0  0  0  0  0  0
  -21.3666   -5.6790   24.9169 C   0  0  0  0  0  0
  -21.6052   -4.3053   24.7225 C   0  0  0  0  0  0
  -21.8821   -3.8142   23.4344 C   0  0  0  0  0  0
  -21.9195   -4.6957   22.3401 C   0  0  0  0  0  0
  -22.7733  -13.5189   21.1912 C   0  0  0  0  0  0
  -22.1662   -4.2143   21.0980 F   0  0  0  0  0  0
  -21.5637   -3.4535   25.7743 F   0  0  0  0  0  0
  -29.8216  -14.1450   20.2796 N   0  0  0  0  0  0
  -26.2778  -12.9572   20.3266 N   0  0  0  0  0  0
  -25.9333  -11.6658   20.5736 N   0  0  0  0  0  0
  -22.0398  -12.8155   22.0462 N   0  0  0  0  0  0
  -25.4002  -15.2005   20.4240 N   0  0  0  0  0  0
  -31.6255  -15.3881   20.1757 O   0  0  0  0  0  0
  -21.6652   -6.8880   21.4241 O   0  0  0  0  0  0
  -22.3410  -14.5495   20.6768 O   0  0  0  0  0  0
  -24.6755  -31.8085   23.1592 C   0  0  0  0  0  0
  -25.9380  -32.4502   23.8109 C   0  0  1  0  0  0
  -27.2220  -26.7923   20.1980 C   0  0  0  0  0  0
  -25.5996  -33.8325   24.2000 N   0  0  0  0  0  0
  -23.4977  -30.4152   21.5110 C   0  0  2  0  0  0
  -24.9540  -28.7765   20.1121 C   0  0  0  0  0  0
  -22.7737  -29.4357   22.4727 C   0  0  0  0  0  0
  -18.0341  -28.1414   22.8470 C   0  0  0  0  0  0
  -24.1488  -36.7153   23.2653 C   0  0  0  0  0  0
  -26.0730  -30.5685   21.4129 C   0  0  0  0  0  0
  -26.1389  -29.1448   20.7596 C   0  0  0  0  0  0
  -27.2607  -28.1766   20.7776 C   0  0  0  0  0  0
  -26.0085  -26.6140   19.4904 C   0  0  0  0  0  0
  -24.9223  -27.5346   19.4550 C   0  0  0  0  0  0
  -23.7463  -29.7213   20.1412 C   0  0  0  0  0  0
  -25.4134  -36.2904   24.0289 C   0  0  1  0  0  0
  -20.5972  -28.3769   23.1160 C   0  0  2  0  0  0
  -20.6808  -26.9438   22.5405 C   0  0  0  0  0  0
  -19.5786  -26.6379   21.5215 C   0  0  0  0  0  0
  -18.1963  -26.7953   22.1609 C   0  0  0  0  0  0
  -19.1607  -28.8916   23.2795 C   0  0  0  0  0  0
  -18.9513  -30.1503   23.8835 C   0  0  0  0  0  0
  -17.6506  -30.6601   24.0561 C   0  0  0  0  0  0
  -25.9114  -34.9297   23.4971 C   0  0  0  0  0  0
  -16.5396  -29.9088   23.6349 C   0  0  0  0  0  0
  -16.7323  -28.6508   23.0369 C   0  0  0  0  0  0
  -26.4593  -31.6509   25.0702 C   0  0  0  0  0  0
  -25.3682  -31.3780   26.1331 C   0  0  0  0  0  0
  -27.0515  -30.2862   24.6537 C   0  0  0  0  0  0
  -27.6057  -32.4358   25.7499 C   0  0  0  0  0  0
  -27.5562  -37.1720   24.8468 C   0  0  0  0  0  0
  -21.4392  -29.3030   22.3480 N   0  0  0  0  0  0
  -26.4260  -37.3666   23.9423 N   0  0  0  0  0  0
  -24.7711  -30.9617   22.0805 N   0  0  0  0  0  0
  -23.4216  -28.7945   23.3035 O   0  0  0  0  0  0
  -28.1805  -25.6036   20.3045 O   0  0  0  0  0  0
  -26.5751  -34.8867   22.4586 O   0  0  0  0  0  0
  -23.5790  -32.1124   23.6591 O   0  0  0  0  0  0
  -29.1666  -21.8736   21.5876 C   0  0  0  0  0  0
  -29.1030  -19.5837   19.9425 C   0  0  0  0  0  0
  -28.6389  -22.3003   20.3077 C   0  0  0  0  0  0
  -28.6456  -20.9906   19.4879 C   0  0  0  0  0  0
  -29.5689  -19.4590   21.2103 C   0  0  0  0  0  0
  -30.0176  -17.9304   21.5350 C   0  0  0  0  0  0
  -27.9470  -17.8727   17.1142 C   0  0  0  0  0  0
  -28.1394  -16.4574   17.5894 C   0  0  0  0  0  0
  -29.2715  -17.9977   19.3984 C   0  0  2  0  0  0
  -28.0514  -17.5843   18.5961 C   0  0  0  0  0  0
  -28.1362  -21.0770   18.0642 C   0  0  0  0  0  0
  -27.9256  -23.9495   19.9561 C   0  0  0  0  0  0
  -29.5998  -20.5924   22.0033 N   0  0  0  0  0  0
  -29.7156  -16.8474   20.4527 N   0  0  0  0  0  0
  -31.4272  -13.1880   19.1666 H   0  0  0  0  0  0
  -30.5358  -12.0976   20.1778 H   0  0  0  0  0  0
  -29.9527  -11.7805   17.7442 H   0  0  0  0  0  0
  -29.5139  -13.4665   17.6152 H   0  0  0  0  0  0
  -28.1076  -11.2854   19.1681 H   0  0  0  0  0  0
  -27.4247  -12.2665   17.8935 H   0  0  0  0  0  0
  -27.4755  -14.2279   19.2729 H   0  0  0  0  0  0
  -28.8498  -12.6842   21.5195 H   0  0  0  0  0  0
  -28.2219  -14.3131   21.6355 H   0  0  0  0  0  0
  -25.2779   -9.5688   22.4755 H   0  0  0  0  0  0
  -24.0014   -7.4644   22.7475 H   0  0  0  0  0  0
  -21.0863   -8.8784   19.8940 H   0  0  0  0  0  0
  -22.3724  -10.9679   19.6169 H   0  0  0  0  0  0
  -21.2000   -7.6135   23.9713 H   0  0  0  0  0  0
  -21.1489   -6.0513   25.9076 H   0  0  0  0  0  0
  -22.0589   -2.7601   23.2854 H   0  0  0  0  0  0
  -22.4045  -11.9824   22.4839 H   0  0  0  0  0  0
  -21.1007  -13.1159   22.2677 H   0  0  0  0  0  0
  -24.6321  -15.8535   20.5362 H   0  0  0  0  0  0
  -26.2566  -15.6438   20.1188 H   0  0  0  0  0  0
  -26.7456  -32.5003   23.0814 H   0  0  0  0  0  0
  -25.0089  -33.9384   25.0115 H   0  0  0  0  0  0
  -22.8177  -31.2498   21.3293 H   0  0  0  0  0  0
  -23.3775  -35.9455   23.3259 H   0  0  0  0  0  0
  -24.3557  -36.8868   22.2078 H   0  0  0  0  0  0
  -23.7226  -37.6306   23.6767 H   0  0  0  0  0  0
  -26.2700  -31.2987   20.6271 H   0  0  0  0  0  0
  -26.9262  -30.6299   22.0763 H   0  0  0  0  0  0
  -28.1479  -28.4566   21.3278 H   0  0  0  0  0  0
  -25.8538  -25.6708   18.9871 H   0  0  0  0  0  0
  -24.0257  -27.2466   18.9231 H   0  0  0  0  0  0
  -23.9159  -30.4866   19.3834 H   0  0  0  0  0  0
  -22.8526  -29.1846   19.8178 H   0  0  0  0  0  0
  -25.1326  -36.1669   25.0778 H   0  0  0  0  0  0
  -21.0058  -28.3399   24.1285 H   0  0  0  0  0  0
  -20.5681  -26.2392   23.3658 H   0  0  0  0  0  0
  -21.6670  -26.7398   22.1218 H   0  0  0  0  0  0
  -19.6941  -25.6272   21.1287 H   0  0  0  0  0  0
  -19.6730  -27.3148   20.6716 H   0  0  0  0  0  0
  -17.4241  -26.6721   21.4002 H   0  0  0  0  0  0
  -18.0330  -26.0093   22.8998 H   0  0  0  0  0  0
  -19.7989  -30.7334   24.2177 H   0  0  0  0  0  0
  -17.5059  -31.6273   24.5175 H   0  0  0  0  0  0
  -15.5390  -30.2970   23.7714 H   0  0  0  0  0  0
  -15.8724  -28.0810   22.7115 H   0  0  0  0  0  0
  -24.5948  -30.7029   25.7656 H   0  0  0  0  0  0
  -24.8773  -32.2968   26.4545 H   0  0  0  0  0  0
  -25.7895  -30.9127   27.0255 H   0  0  0  0  0  0
  -26.3220  -29.6495   24.1529 H   0  0  0  0  0  0
  -27.3981  -29.7279   25.5245 H   0  0  0  0  0  0
  -27.9185  -30.4011   24.0028 H   0  0  0  0  0  0
  -27.2632  -33.3746   26.1866 H   0  0  0  0  0  0
  -28.3964  -32.6782   25.0385 H   0  0  0  0  0  0
  -28.0629  -31.8637   26.5582 H   0  0  0  0  0  0
  -28.2532  -38.0062   24.7540 H   0  0  0  0  0  0
  -28.1103  -36.2583   24.6253 H   0  0  0  0  0  0
  -27.2289  -37.1315   25.8875 H   0  0  0  0  0  0
  -20.9672  -29.8705   21.6576 H   0  0  0  0  0  0
  -26.0083  -38.2704   24.1479 H   0  0  0  0  0  0
  -29.2194  -22.6156   22.3708 H   0  0  0  0  0  0
  -29.5418  -17.6201   22.4647 H   0  0  0  0  0  0
  -31.0908  -17.9308   21.7242 H   0  0  0  0  0  0
  -26.9680  -18.1461   16.7250 H   0  0  0  0  0  0
  -28.7930  -18.3421   16.6169 H   0  0  0  0  0  0
  -29.1117  -16.0009   17.4144 H   0  0  0  0  0  0
  -27.2866  -15.7875   17.4999 H   0  0  0  0  0  0
  -30.1058  -18.0401   18.6940 H   0  0  0  0  0  0
  -27.1218  -17.6360   19.1615 H   0  0  0  0  0  0
  -28.8344  -20.5835   17.3886 H   0  0  0  0  0  0
  -28.0339  -22.1024   17.7163 H   0  0  0  0  0  0
  -27.1651  -20.5909   17.9775 H   0  0  0  0  0  0
  -26.8880  -23.8049   20.2598 H   0  0  0  0  0  0
  -27.8731  -23.9706   18.8691 H   0  0  0  0  0  0
  1 25  1  0  0  0
  1 30  2  0  0  0
  1 84  1  0  0  0
  2  3  1  0  0  0
  2 25  1  0  0  0
  2 85  1  0  0  0
  2 86  1  0  0  0
  3  4  1  0  0  0
  3 87  1  0  0  0
  3 88  1  0  0  0
  4  5  1  0  0  0
  4 89  1  0  0  0
  4 90  1  0  0  0
  5  6  1  0  0  0
  5 26  1  0  0  0
  5 91  1  0  0  0
  6 25  1  0  0  0
  6 92  1  0  0  0
  6 93  1  0  0  0
  7  8  2  0  0  0
  7 26  1  0  0  0
  7 29  1  0  0  0
  8  9  1  0  0  0
  8 22  1  0  0  0
  9 10  1  0  0  0
  9 27  2  0  0  0
 10 11  2  0  0  0
 10 15  1  0  0  0
 11 12  1  0  0  0
 11 94  1  0  0  0
 12 13  2  0  0  0
 12 95  1  0  0  0
 13 14  1  0  0  0
 13 31  1  0  0  0
 14 15  2  0  0  0
 14 96  1  0  0  0
 15 97  1  0  0  0
 16 17  2  0  0  0
 16 21  1  0  0  0
 16 31  1  0  0  0
 17 18  1  0  0  0
 17 98  1  0  0  0
 18 19  2  0  0  0
 18 99  1  0  0  0
 19 20  1  0  0  0
 19 24  1  0  0  0
 20 21  2  0  0  0
 20100  1  0  0  0
 21 23  1  0  0  0
 22 28  1  0  0  0
 22 32  2  0  0  0
 26 27  1  0  0  0
 28101  1  0  0  0
 28102  1  0  0  0
 29103  1  0  0  0
 29104  1  0  0  0
 33 34  1  0  0  0
 33 66  1  0  0  0
 33 70  2  0  0  0
 34 36  1  0  0  0
 34 59  1  0  0  0
 34105  1  0  0  0
 35 44  2  0  0  0
 35 45  1  0  0  0
 35 68  1  0  0  0
 36 56  1  0  0  0
 36106  1  0  0  0
 37 39  1  0  0  0
 37 47  1  0  0  0
 37 66  1  0  0  0
 37107  1  0  0  0
 38 43  2  0  0  0
 38 46  1  0  0  0
 38 47  1  0  0  0
 39 64  1  0  0  0
 39 67  2  0  0  0
 40 52  1  0  0  0
 40 53  2  0  0  0
 40 58  1  0  0  0
 41108  1  0  0  0
 41109  1  0  0  0
 41110  1  0  0  0
 41 48  1  0  0  0
 42 43  1  0  0  0
 42 66  1  0  0  0
 42111  1  0  0  0
 42112  1  0  0  0
 43 44  1  0  0  0
 44113  1  0  0  0
 45 46  2  0  0  0
 45114  1  0  0  0
 46115  1  0  0  0
 47116  1  0  0  0
 47117  1  0  0  0
 48 56  1  0  0  0
 48 65  1  0  0  0
 48118  1  0  0  0
 49 50  1  0  0  0
 49 53  1  0  0  0
 49 64  1  0  0  0
 49119  1  0  0  0
 50 51  1  0  0  0
 50120  1  0  0  0
 50121  1  0  0  0
 51 52  1  0  0  0
 51122  1  0  0  0
 51123  1  0  0  0
 52124  1  0  0  0
 52125  1  0  0  0
 53 54  1  0  0  0
 54 55  2  0  0  0
 54126  1  0  0  0
 55 57  1  0  0  0
 55127  1  0  0  0
 56 69  2  0  0  0
 57 58  2  0  0  0
 57128  1  0  0  0
 58129  1  0  0  0
 59 60  1  0  0  0
 59 61  1  0  0  0
 59 62  1  0  0  0
 60130  1  0  0  0
 60131  1  0  0  0
 60132  1  0  0  0
 61133  1  0  0  0
 61134  1  0  0  0
 61135  1  0  0  0
 62136  1  0  0  0
 62137  1  0  0  0
 62138  1  0  0  0
 63 65  1  0  0  0
 63139  1  0  0  0
 63140  1  0  0  0
 63141  1  0  0  0
 64142  1  0  0  0
 65143  1  0  0  0
 68 82  1  0  0  0
 71 73  2  0  0  0
 71 83  1  0  0  0
 71144  1  0  0  0
 72 74  2  0  0  0
 72 75  1  0  0  0
 72 79  1  0  0  0
 73 74  1  0  0  0
 73 82  1  0  0  0
 74 81  1  0  0  0
 75 76  1  0  0  0
 75 83  2  0  0  0
 76 84  1  0  0  0
 76145  1  0  0  0
 76146  1  0  0  0
 77 78  1  0  0  0
 77147  1  0  0  0
 77148  1  0  0  0
 77 80  1  0  0  0
 78 80  1  0  0  0
 78149  1  0  0  0
 78150  1  0  0  0
 79 80  1  0  0  0
 79 84  1  0  0  0
 79151  1  0  0  0
 80152  1  0  0  0
 81153  1  0  0  0
 81154  1  0  0  0
 81155  1  0  0  0
 82156  1  0  0  0
 82157  1  0  0  0
M  ISO  4   1 100  68 101  82 101  84 100
M  END
> <chiral flag>
0

> <version>
0

> <s_m_source_file>
/data/baiqing/PycharmProjects/Reinvent-master-3.2/result/LINK_invent/BTK/process_docking_weight1_custom_sum_contain_oxygen_bond_distance_aromatic_linkinvent_7_9_3/rearranged_h_0174.sdf

> <i_m_source_file_index>
2

> <r_mmod_Potential_Energy-OPLS-2005>
1751.47045898438

> <r_mmod_Stretch_Energy-OPLS-2005>
727.830871582031

> <r_mmod_Bend_Energy-OPLS-2005>
566.618225097656

> <r_mmod_Torsional_Energy-OPLS-2005>
329.587371826172

> <r_mmod_Improper_Torsional_Energy-OPLS-2005>
7.48721837997437

> <r_mmod_Van_der_Waal_Energy-OPLS-2005>
105.882148742676

> <r_mmod_Electrostatic_Energy-OPLS-2005>
-462.629211425781

> <r_mmod_Solvation_Energy-OPLS-2005>
-220.03173828125

> <b_mmod_Minimization_Converged-OPLS-2005>
0

> <r_mmod_RMS_Derivative-OPLS-2005>
1.69714760780334

$$$$
2
                    3D
 Structure written by MMmdl.
176185  0  0  1  0            999 V2000
  -30.7015  -14.4442   20.5184 C   0  0  0  0  0  0
  -30.4221  -12.2721   19.4201 C   0  0  0  0  0  0
  -29.4971  -12.4792   18.2042 C   0  0  0  0  0  0
  -28.0194  -12.3448   18.6224 C   0  0  0  0  0  0
  -27.6634  -13.1961   19.8718 C   0  0  2  0  0  0
  -28.7071  -12.9785   20.9911 C   0  0  0  0  0  0
  -25.2609  -13.8105   20.5635 C   0  0  0  0  0  0
  -24.1863  -13.0411   20.9152 C   0  0  0  0  0  0
  -24.6404  -11.6873   20.8746 C   0  0  0  0  0  0
  -23.9068  -10.4271   21.0448 C   0  0  0  0  0  0
  -24.3614   -9.4187   21.9222 C   0  0  0  0  0  0
  -23.6289   -8.2226   22.0768 C   0  0  0  0  0  0
  -22.4265   -8.0281   21.3566 C   0  0  0  0  0  0
  -21.9910   -9.0271   20.4662 C   0  0  0  0  0  0
  -22.7244  -10.2143   20.3084 C   0  0  0  0  0  0
  -21.6846   -6.0731   22.5291 C   0  0  0  0  0  0
  -21.4004   -6.5636   23.8216 C   0  0  0  0  0  0
  -21.3661   -5.6793   24.9185 C   0  0  0  0  0  0
  -21.6070   -4.3059   24.7230 C   0  0  0  0  0  0
  -21.8816   -3.8140   23.4348 C   0  0  0  0  0  0
  -21.9180   -4.6962   22.3403 C   0  0  0  0  0  0
  -22.7878  -13.5212   21.1829 C   0  0  0  0  0  0
  -22.1648   -4.2147   21.0983 F   0  0  0  0  0  0
  -21.5642   -3.4542   25.7737 F   0  0  0  0  0  0
  -30.0338  -13.2667   20.4278 N   0  0  0  0  0  0
  -26.3043  -12.9274   20.3359 N   0  0  0  0  0  0
  -25.9331  -11.6441   20.5787 N   0  0  0  0  0  0
  -22.0534  -12.8219   22.0400 N   0  0  0  0  0  0
  -25.4320  -15.1816   20.3992 N   0  0  0  0  0  0
  -31.8914  -14.5609   20.2080 O   0  0  0  0  0  0
  -21.6626   -6.8884   21.4252 O   0  0  0  0  0  0
  -22.3563  -14.5529   20.6690 O   0  0  0  0  0  0
  -24.6126  -31.8719   23.2150 C   0  0  0  0  0  0
  -25.9019  -32.4846   23.8442 C   0  0  1  0  0  0
  -27.2351  -27.4761   20.0821 C   0  0  0  0  0  0
  -25.5892  -33.8645   24.2367 N   0  0  0  0  0  0
  -23.3996  -30.4972   21.5542 C   0  0  2  0  0  0
  -24.8484  -28.9718   20.1182 C   0  0  0  0  0  0
  -22.7400  -29.4683   22.5012 C   0  0  0  0  0  0
  -18.0270  -28.1374   22.8495 C   0  0  0  0  0  0
  -24.1482  -36.7329   23.2635 C   0  0  0  0  0  0
  -25.9267  -30.8511   21.3620 C   0  0  0  0  0  0
  -26.0100  -29.4897   20.7081 C   0  0  0  0  0  0
  -27.2153  -28.7517   20.6903 C   0  0  0  0  0  0
  -26.0563  -26.9608   19.5117 C   0  0  0  0  0  0
  -24.8641  -27.7027   19.5175 C   0  0  0  0  0  0
  -23.6070  -29.8317   20.1686 C   0  0  0  0  0  0
  -25.4099  -36.3128   24.0345 C   0  0  1  0  0  0
  -20.5859  -28.3660   23.1324 C   0  0  2  0  0  0
  -20.6763  -26.9403   22.5410 C   0  0  0  0  0  0
  -19.5738  -26.6390   21.5207 C   0  0  0  0  0  0
  -18.1917  -26.7923   22.1624 C   0  0  0  0  0  0
  -19.1517  -28.8832   23.2911 C   0  0  0  0  0  0
  -18.9448  -30.1442   23.8916 C   0  0  0  0  0  0
  -17.6452  -30.6584   24.0567 C   0  0  0  0  0  0
  -25.9024  -34.9488   23.5149 C   0  0  0  0  0  0
  -16.5342  -29.9087   23.6328 C   0  0  0  0  0  0
  -16.7260  -28.6501   23.0352 C   0  0  0  0  0  0
  -26.4467  -31.6609   25.0749 C   0  0  0  0  0  0
  -25.3758  -31.3709   26.1517 C   0  0  0  0  0  0
  -27.0277  -30.3054   24.6084 C   0  0  0  0  0  0
  -27.6062  -32.4316   25.7487 C   0  0  0  0  0  0
  -27.5586  -37.1811   24.8460 C   0  0  0  0  0  0
  -21.4129  -29.3036   22.3736 N   0  0  0  0  0  0
  -26.4291  -37.3808   23.9417 N   0  0  0  0  0  0
  -24.6641  -31.0860   22.1021 N   0  0  0  0  0  0
  -23.4183  -28.8213   23.3035 O   0  0  0  0  0  0
  -28.3191  -26.6429   20.0156 O   0  0  0  0  0  0
  -26.5583  -34.8929   22.4706 O   0  0  0  0  0  0
  -23.5318  -32.1446   23.7563 O   0  0  0  0  0  0
  -30.2978  -20.9756   22.9445 C   0  0  0  0  0  0
  -30.1001  -22.3034   22.2286 C   0  0  0  0  0  0
  -30.3531  -17.7514   19.3664 C   0  0  0  0  0  0
  -28.5370  -17.4876   21.1008 C   0  0  0  0  0  0
  -29.5123  -19.8708   22.2430 C   0  0  0  0  0  0
  -29.9737  -16.2815   19.1228 C   0  0  0  0  0  0
  -29.4313  -16.3025   21.5436 C   0  0  0  0  0  0
  -29.2857  -18.5161   20.1912 C   0  0  0  0  0  0
  -30.5217  -22.1711   20.7521 C   0  0  1  0  0  0
  -29.7839  -20.9612   20.0748 C   0  0  1  0  0  0
  -30.2619  -20.8012   18.6113 C   0  0  0  0  0  0
  -30.3623  -24.7198   20.6919 C   0  0  0  0  0  0
  -29.6405  -27.1268   20.1369 C   0  0  0  0  0  0
  -30.4465  -25.8903   19.6841 C   0  0  1  0  0  0
  -29.8954  -15.5214   20.3837 N   0  0  0  0  0  0
  -29.9324  -19.6902   20.8435 N   0  0  0  0  0  0
  -31.8444  -26.1934   19.4300 N   0  0  0  0  0  0
  -30.2973  -23.4261   19.9806 N   0  3  0  0  0  0
  -31.4697  -12.3568   19.1248 H   0  0  0  0  0  0
  -30.3035  -11.2660   19.8246 H   0  0  0  0  0  0
  -29.7306  -11.7534   17.4234 H   0  0  0  0  0  0
  -29.6736  -13.4646   17.7706 H   0  0  0  0  0  0
  -27.8389  -11.2921   18.8420 H   0  0  0  0  0  0
  -27.3693  -12.5975   17.7849 H   0  0  0  0  0  0
  -27.7039  -14.2402   19.5653 H   0  0  0  0  0  0
  -28.6759  -11.9466   21.3429 H   0  0  0  0  0  0
  -28.4879  -13.5886   21.8663 H   0  0  0  0  0  0
  -25.2765   -9.5646   22.4793 H   0  0  0  0  0  0
  -24.0024   -7.4597   22.7447 H   0  0  0  0  0  0
  -21.0864   -8.8792   19.8943 H   0  0  0  0  0  0
  -22.3733  -10.9696   19.6188 H   0  0  0  0  0  0
  -21.1978   -7.6140   23.9715 H   0  0  0  0  0  0
  -21.1501   -6.0520   25.9091 H   0  0  0  0  0  0
  -22.0582   -2.7596   23.2850 H   0  0  0  0  0  0
  -22.4119  -11.9857   22.4792 H   0  0  0  0  0  0
  -21.1181  -13.1299   22.2653 H   0  0  0  0  0  0
  -24.6657  -15.8400   20.4864 H   0  0  0  0  0  0
  -26.2936  -15.6137   20.0934 H   0  0  0  0  0  0
  -26.7095  -32.5591   23.1222 H   0  0  0  0  0  0
  -25.0057  -33.9815   25.0520 H   0  0  0  0  0  0
  -22.6859  -31.3126   21.4179 H   0  0  0  0  0  0
  -23.3750  -35.9656   23.3282 H   0  0  0  0  0  0
  -24.3583  -36.8959   22.2054 H   0  0  0  0  0  0
  -23.7221  -37.6525   23.6656 H   0  0  0  0  0  0
  -26.0320  -31.6211   20.5966 H   0  0  0  0  0  0
  -26.8158  -30.9067   21.9772 H   0  0  0  0  0  0
  -28.1059  -29.1559   21.1497 H   0  0  0  0  0  0
  -26.0658  -25.9810   19.0553 H   0  0  0  0  0  0
  -23.9707  -27.2941   19.0658 H   0  0  0  0  0  0
  -23.7092  -30.6075   19.4081 H   0  0  0  0  0  0
  -22.7330  -29.2471   19.8765 H   0  0  0  0  0  0
  -25.1265  -36.2005   25.0838 H   0  0  0  0  0  0
  -20.9954  -28.3219   24.1442 H   0  0  0  0  0  0
  -20.5670  -26.2264   23.3590 H   0  0  0  0  0  0
  -21.6638  -26.7443   22.1204 H   0  0  0  0  0  0
  -19.6899  -25.6305   21.1229 H   0  0  0  0  0  0
  -19.6673  -27.3211   20.6747 H   0  0  0  0  0  0
  -17.4184  -26.6668   21.4031 H   0  0  0  0  0  0
  -18.0323  -26.0061   22.9016 H   0  0  0  0  0  0
  -19.7924  -30.7255   24.2294 H   0  0  0  0  0  0
  -17.5007  -31.6264   24.5168 H   0  0  0  0  0  0
  -15.5347  -30.2996   23.7633 H   0  0  0  0  0  0
  -15.8662  -28.0828   22.7058 H   0  0  0  0  0  0
  -24.5870  -30.7125   25.7859 H   0  0  0  0  0  0
  -24.9026  -32.2872   26.5060 H   0  0  0  0  0  0
  -25.8130  -30.8794   27.0214 H   0  0  0  0  0  0
  -26.2793  -29.6825   24.1164 H   0  0  0  0  0  0
  -27.4084  -29.7282   25.4521 H   0  0  0  0  0  0
  -27.8626  -30.4380   23.9192 H   0  0  0  0  0  0
  -27.2703  -33.3614   26.2088 H   0  0  0  0  0  0
  -28.3850  -32.6873   25.0288 H   0  0  0  0  0  0
  -28.0747  -31.8421   26.5376 H   0  0  0  0  0  0
  -28.2592  -38.0123   24.7535 H   0  0  0  0  0  0
  -28.1093  -36.2656   24.6246 H   0  0  0  0  0  0
  -27.2309  -37.1419   25.8864 H   0  0  0  0  0  0
  -20.9280  -29.8773   21.6978 H   0  0  0  0  0  0
  -26.0187  -38.2886   24.1436 H   0  0  0  0  0  0
  -29.9647  -21.0642   23.9802 H   0  0  0  0  0  0
  -31.3566  -20.7165   22.9834 H   0  0  0  0  0  0
  -30.6964  -23.0538   22.7469 H   0  0  0  0  0  0
  -29.0557  -22.6112   22.3001 H   0  0  0  0  0  0
  -30.5343  -18.2112   18.3988 H   0  0  0  0  0  0
  -31.3106  -17.7759   19.8894 H   0  0  0  0  0  0
  -27.9991  -17.9257   21.9387 H   0  0  0  0  0  0
  -27.7262  -17.0640   20.5058 H   0  0  0  0  0  0
  -28.4428  -20.0831   22.2965 H   0  0  0  0  0  0
  -29.6995  -18.9578   22.8108 H   0  0  0  0  0  0
  -30.6879  -15.8419   18.4217 H   0  0  0  0  0  0
  -29.0070  -16.2163   18.6232 H   0  0  0  0  0  0
  -28.8896  -15.6706   22.2447 H   0  0  0  0  0  0
  -30.2992  -16.6876   22.0838 H   0  0  0  0  0  0
  -28.5154  -18.8898   19.5142 H   0  0  0  0  0  0
  -31.5967  -21.9826   20.7328 H   0  0  0  0  0  0
  -28.7179  -21.1953   20.0476 H   0  0  0  0  0  0
  -31.2873  -20.4294   18.5647 H   0  0  0  0  0  0
  -30.2320  -21.7354   18.0544 H   0  0  0  0  0  0
  -29.6183  -20.1328   18.0408 H   0  0  0  0  0  0
  -29.4658  -24.8093   21.3079 H   0  0  0  0  0  0
  -31.2135  -24.7468   21.3743 H   0  0  0  0  0  0
  -29.7963  -27.9771   19.4703 H   0  0  0  0  0  0
  -29.8758  -27.4246   21.1599 H   0  0  0  0  0  0
  -30.0159  -25.5787   18.7293 H   0  0  0  0  0  0
  -32.2611  -26.5804   20.2711 H   0  0  0  0  0  0
  -31.9058  -26.9520   18.7578 H   0  0  0  0  0  0
  -29.3880  -23.3724   19.5495 H   0  0  0  0  0  0
  -30.9829  -23.4691   19.2414 H   0  0  0  0  0  0
  1 25  1  0  0  0
  1 30  2  0  0  0
  1 85  1  0  0  0
  2  3  1  0  0  0
  2 25  1  0  0  0
  2 89  1  0  0  0
  2 90  1  0  0  0
  3  4  1  0  0  0
  3 91  1  0  0  0
  3 92  1  0  0  0
  4  5  1  0  0  0
  4 93  1  0  0  0
  4 94  1  0  0  0
  5  6  1  0  0  0
  5 26  1  0  0  0
  5 95  1  0  0  0
  6 25  1  0  0  0
  6 96  1  0  0  0
  6 97  1  0  0  0
  7  8  2  0  0  0
  7 26  1  0  0  0
  7 29  1  0  0  0
  8  9  1  0  0  0
  8 22  1  0  0  0
  9 10  1  0  0  0
  9 27  2  0  0  0
 10 11  2  0  0  0
 10 15  1  0  0  0
 11 12  1  0  0  0
 11 98  1  0  0  0
 12 13  2  0  0  0
 12 99  1  0  0  0
 13 14  1  0  0  0
 13 31  1  0  0  0
 14 15  2  0  0  0
 14100  1  0  0  0
 15101  1  0  0  0
 16 17  2  0  0  0
 16 21  1  0  0  0
 16 31  1  0  0  0
 17 18  1  0  0  0
 17102  1  0  0  0
 18 19  2  0  0  0
 18103  1  0  0  0
 19 20  1  0  0  0
 19 24  1  0  0  0
 20 21  2  0  0  0
 20104  1  0  0  0
 21 23  1  0  0  0
 22 28  1  0  0  0
 22 32  2  0  0  0
 26 27  1  0  0  0
 28105  1  0  0  0
 28106  1  0  0  0
 29107  1  0  0  0
 29108  1  0  0  0
 33 34  1  0  0  0
 33 66  1  0  0  0
 33 70  2  0  0  0
 34 36  1  0  0  0
 34 59  1  0  0  0
 34109  1  0  0  0
 35 44  2  0  0  0
 35 45  1  0  0  0
 35 68  1  0  0  0
 36 56  1  0  0  0
 36110  1  0  0  0
 37 39  1  0  0  0
 37 47  1  0  0  0
 37 66  1  0  0  0
 37111  1  0  0  0
 38 43  2  0  0  0
 38 46  1  0  0  0
 38 47  1  0  0  0
 39 64  1  0  0  0
 39 67  2  0  0  0
 40 52  1  0  0  0
 40 53  2  0  0  0
 40 58  1  0  0  0
 41112  1  0  0  0
 41113  1  0  0  0
 41114  1  0  0  0
 41 48  1  0  0  0
 42 43  1  0  0  0
 42 66  1  0  0  0
 42115  1  0  0  0
 42116  1  0  0  0
 43 44  1  0  0  0
 44117  1  0  0  0
 45 46  2  0  0  0
 45118  1  0  0  0
 46119  1  0  0  0
 47120  1  0  0  0
 47121  1  0  0  0
 48 56  1  0  0  0
 48 65  1  0  0  0
 48122  1  0  0  0
 49 50  1  0  0  0
 49 53  1  0  0  0
 49 64  1  0  0  0
 49123  1  0  0  0
 50 51  1  0  0  0
 50124  1  0  0  0
 50125  1  0  0  0
 51 52  1  0  0  0
 51126  1  0  0  0
 51127  1  0  0  0
 52128  1  0  0  0
 52129  1  0  0  0
 53 54  1  0  0  0
 54 55  2  0  0  0
 54130  1  0  0  0
 55 57  1  0  0  0
 55131  1  0  0  0
 56 69  2  0  0  0
 57 58  2  0  0  0
 57132  1  0  0  0
 58133  1  0  0  0
 59 60  1  0  0  0
 59 61  1  0  0  0
 59 62  1  0  0  0
 60134  1  0  0  0
 60135  1  0  0  0
 60136  1  0  0  0
 61137  1  0  0  0
 61138  1  0  0  0
 61139  1  0  0  0
 62140  1  0  0  0
 62141  1  0  0  0
 62142  1  0  0  0
 63 65  1  0  0  0
 63143  1  0  0  0
 63144  1  0  0  0
 63145  1  0  0  0
 64146  1  0  0  0
 65147  1  0  0  0
 68 83  1  0  0  0
 71 72  1  0  0  0
 71 75  1  0  0  0
 71148  1  0  0  0
 71149  1  0  0  0
 72 79  1  0  0  0
 72150  1  0  0  0
 72151  1  0  0  0
 73 76  1  0  0  0
 73 78  1  0  0  0
 73152  1  0  0  0
 73153  1  0  0  0
 74 77  1  0  0  0
 74 78  1  0  0  0
 74154  1  0  0  0
 74155  1  0  0  0
 75156  1  0  0  0
 75157  1  0  0  0
 75 86  1  0  0  0
 76 85  1  0  0  0
 76158  1  0  0  0
 76159  1  0  0  0
 77 85  1  0  0  0
 77160  1  0  0  0
 77161  1  0  0  0
 78 86  1  0  0  0
 78162  1  0  0  0
 79 80  1  0  0  0
 79 88  1  0  0  0
 79163  1  0  0  0
 80 81  1  0  0  0
 80 86  1  0  0  0
 80164  1  0  0  0
 81165  1  0  0  0
 81166  1  0  0  0
 81167  1  0  0  0
 82 84  1  0  0  0
 82 88  1  0  0  0
 82168  1  0  0  0
 82169  1  0  0  0
 83 84  1  0  0  0
 83170  1  0  0  0
 83171  1  0  0  0
 84 87  1  0  0  0
 84172  1  0  0  0
 87173  1  0  0  0
 87174  1  0  0  0
 88175  1  0  0  0
 88176  1  0  0  0
M  CHG  1  88   1
M  ISO  4   1 100  68 101  83 101  85 100
M  END
> <chiral flag>
0

> <version>
0

> <s_m_source_file>
/data/baiqing/PycharmProjects/Reinvent-master-3.2/result/LINK_invent/BTK/process_docking_weight1_custom_sum_contain_oxygen_bond_distance_aromatic_linkinvent_7_9_3/rearranged_h_0174.sdf

> <i_m_source_file_index>
3

> <r_mmod_Potential_Energy-OPLS-2005>
102.832672119141

> <r_mmod_Stretch_Energy-OPLS-2005>
43.7258949279785

> <r_mmod_Bend_Energy-OPLS-2005>
137.044204711914

> <r_mmod_Torsional_Energy-OPLS-2005>
396.810424804688

> <r_mmod_Improper_Torsional_Energy-OPLS-2005>
21.3830184936523

> <r_mmod_Van_der_Waal_Energy-OPLS-2005>
174.978759765625

> <r_mmod_Electrostatic_Energy-OPLS-2005>
-262.78662109375

> <r_mmod_Solvation_Energy-OPLS-2005>
-425.091186523438

> <b_mmod_Minimization_Converged-OPLS-2005>
0

> <r_mmod_RMS_Derivative-OPLS-2005>
2.65240001678467

$$$$
3
                    3D
 Structure written by MMmdl.
164173  0  0  1  0            999 V2000
  -30.6427  -14.6590   20.5043 C   0  0  0  0  0  0
  -30.4334  -12.4122   19.4659 C   0  0  0  0  0  0
  -29.5090  -12.5033   18.2331 C   0  0  0  0  0  0
  -28.0303  -12.3402   18.6413 C   0  0  0  0  0  0
  -27.6458  -13.2253   19.8576 C   0  0  2  0  0  0
  -28.6911  -13.1177   20.9883 C   0  0  0  0  0  0
  -25.2527  -13.8205   20.5692 C   0  0  0  0  0  0
  -24.1821  -13.0463   20.9209 C   0  0  0  0  0  0
  -24.6395  -11.6920   20.8751 C   0  0  0  0  0  0
  -23.9063  -10.4291   21.0404 C   0  0  0  0  0  0
  -24.3622   -9.4209   21.9172 C   0  0  0  0  0  0
  -23.6307   -8.2244   22.0746 C   0  0  0  0  0  0
  -22.4290   -8.0276   21.3534 C   0  0  0  0  0  0
  -21.9919   -9.0252   20.4640 C   0  0  0  0  0  0
  -22.7241  -10.2137   20.3047 C   0  0  0  0  0  0
  -21.6860   -6.0732   22.5264 C   0  0  0  0  0  0
  -21.4018   -6.5626   23.8200 C   0  0  0  0  0  0
  -21.3671   -5.6771   24.9154 C   0  0  0  0  0  0
  -21.6068   -4.3035   24.7204 C   0  0  0  0  0  0
  -21.8824   -3.8130   23.4317 C   0  0  0  0  0  0
  -21.9202   -4.6955   22.3380 C   0  0  0  0  0  0
  -22.7834  -13.5230   21.1852 C   0  0  0  0  0  0
  -22.1666   -4.2146   21.0954 F   0  0  0  0  0  0
  -21.5641   -3.4516   25.7710 F   0  0  0  0  0  0
  -30.0002  -13.4532   20.4149 N   0  0  0  0  0  0
  -26.2961  -12.9396   20.3322 N   0  0  0  0  0  0
  -25.9332  -11.6538   20.5768 N   0  0  0  0  0  0
  -22.0495  -12.8217   22.0405 N   0  0  0  0  0  0
  -25.4243  -15.1947   20.4083 N   0  0  0  0  0  0
  -31.8238  -14.7758   20.1633 O   0  0  0  0  0  0
  -21.6651   -6.8881   21.4228 O   0  0  0  0  0  0
  -22.3502  -14.5518   20.6664 O   0  0  0  0  0  0
  -24.6222  -31.8643   23.2025 C   0  0  0  0  0  0
  -25.9079  -32.4803   23.8352 C   0  0  1  0  0  0
  -27.2281  -27.3552   20.1256 C   0  0  0  0  0  0
  -25.5920  -33.8596   24.2289 N   0  0  0  0  0  0
  -23.4151  -30.4868   21.5460 C   0  0  2  0  0  0
  -24.8658  -28.9483   20.1119 C   0  0  0  0  0  0
  -22.7457  -29.4637   22.4946 C   0  0  0  0  0  0
  -18.0299  -28.1387   22.8506 C   0  0  0  0  0  0
  -24.1494  -36.7304   23.2640 C   0  0  0  0  0  0
  -25.9508  -30.8106   21.3655 C   0  0  0  0  0  0
  -26.0326  -29.4385   20.7143 C   0  0  0  0  0  0
  -27.2205  -28.6523   20.7138 C   0  0  0  0  0  0
  -26.0433  -26.9093   19.5026 C   0  0  0  0  0  0
  -24.8703  -27.6860   19.5002 C   0  0  0  0  0  0
  -23.6287  -29.8215   20.1611 C   0  0  0  0  0  0
  -25.4115  -36.3101   24.0331 C   0  0  1  0  0  0
  -20.5897  -28.3687   23.1307 C   0  0  2  0  0  0
  -20.6788  -26.9401   22.5441 C   0  0  0  0  0  0
  -19.5752  -26.6383   21.5253 C   0  0  0  0  0  0
  -18.1927  -26.7935   22.1645 C   0  0  0  0  0  0
  -19.1547  -28.8850   23.2907 C   0  0  0  0  0  0
  -18.9464  -30.1463   23.8906 C   0  0  0  0  0  0
  -17.6459  -30.6581   24.0583 C   0  0  0  0  0  0
  -25.9043  -34.9471   23.5108 C   0  0  0  0  0  0
  -16.5356  -29.9091   23.6337 C   0  0  0  0  0  0
  -16.7285  -28.6518   23.0344 C   0  0  0  0  0  0
  -26.4473  -31.6597   25.0707 C   0  0  0  0  0  0
  -25.3708  -31.3754   26.1451 C   0  0  0  0  0  0
  -27.0302  -30.3027   24.6125 C   0  0  0  0  0  0
  -27.6051  -32.4322   25.7470 C   0  0  0  0  0  0
  -27.5585  -37.1807   24.8460 C   0  0  0  0  0  0
  -21.4174  -29.3037   22.3675 N   0  0  0  0  0  0
  -26.4300  -37.3788   23.9397 N   0  0  0  0  0  0
  -24.6816  -31.0688   22.0969 N   0  0  0  0  0  0
  -23.4193  -28.8172   23.3004 O   0  0  0  0  0  0
  -28.3171  -26.4824   20.1568 O   0  0  0  0  0  0
  -26.5602  -34.8931   22.4671 O   0  0  0  0  0  0
  -23.5394  -32.1425   23.7376 O   0  0  0  0  0  0
  -29.2907  -23.1361   21.7638 C   0  0  0  0  0  0
  -28.7103  -23.9127   20.7344 C   0  0  0  0  0  0
  -28.5377  -23.1910   19.5315 C   0  0  0  0  0  0
  -29.5182  -21.2556   20.4232 C   0  0  0  0  0  0
  -29.5416  -17.9853   21.9773 C   0  0  0  0  0  0
  -29.5850  -18.4866   20.5632 C   0  0  2  0  0  0
  -30.3460  -17.1572   20.9827 C   0  0  2  0  0  0
  -27.8361  -23.7983   18.3352 C   0  0  0  0  0  0
  -32.5885  -19.2078   19.2465 C   0  0  0  0  0  0
  -32.3956  -19.8763   21.7131 C   0  0  0  0  0  0
  -28.1348  -25.3389   21.0604 C   0  0  0  0  0  0
  -30.2487  -19.8766   20.1539 C   0  0  2  0  0  0
  -31.8051  -20.0282   20.2925 C   0  0  0  0  0  0
  -29.6689  -21.8389   21.6130 N   0  0  0  0  0  0
  -28.9563  -21.8993   19.3886 N   0  0  0  0  0  0
  -29.8843  -15.7609   20.8055 N   0  0  0  0  0  0
  -31.4746  -12.5365   19.1641 H   0  0  0  0  0  0
  -30.3686  -11.4303   19.9370 H   0  0  0  0  0  0
  -29.7818  -11.7421   17.5004 H   0  0  0  0  0  0
  -29.6484  -13.4688   17.7439 H   0  0  0  0  0  0
  -27.8727  -11.2880   18.8837 H   0  0  0  0  0  0
  -27.3755  -12.5571   17.7959 H   0  0  0  0  0  0
  -27.6501  -14.2556   19.4997 H   0  0  0  0  0  0
  -28.7131  -12.1084   21.4008 H   0  0  0  0  0  0
  -28.4339  -13.7801   21.8163 H   0  0  0  0  0  0
  -25.2789   -9.5674   22.4720 H   0  0  0  0  0  0
  -24.0030   -7.4628   22.7457 H   0  0  0  0  0  0
  -21.0859   -8.8768   19.8939 H   0  0  0  0  0  0
  -22.3720  -10.9665   19.6133 H   0  0  0  0  0  0
  -21.1988   -7.6132   23.9697 H   0  0  0  0  0  0
  -21.1509   -6.0495   25.9066 H   0  0  0  0  0  0
  -22.0601   -2.7590   23.2812 H   0  0  0  0  0  0
  -22.4145  -11.9891   22.4792 H   0  0  0  0  0  0
  -21.1103  -13.1209   22.2610 H   0  0  0  0  0  0
  -24.6574  -15.8493   20.5136 H   0  0  0  0  0  0
  -26.2655  -15.6293   20.0512 H   0  0  0  0  0  0
  -26.7145  -32.5509   23.1112 H   0  0  0  0  0  0
  -25.0114  -33.9744   25.0469 H   0  0  0  0  0  0
  -22.7088  -31.3068   21.4032 H   0  0  0  0  0  0
  -23.3765  -35.9632   23.3310 H   0  0  0  0  0  0
  -24.3588  -36.8914   22.2053 H   0  0  0  0  0  0
  -23.7235  -37.6507   23.6649 H   0  0  0  0  0  0
  -26.0657  -31.5719   20.5926 H   0  0  0  0  0  0
  -26.8358  -30.8691   21.9864 H   0  0  0  0  0  0
  -28.1135  -29.0214   21.1982 H   0  0  0  0  0  0
  -26.0138  -25.9363   19.0395 H   0  0  0  0  0  0
  -23.9728  -27.3044   19.0333 H   0  0  0  0  0  0
  -23.7355  -30.5981   19.4028 H   0  0  0  0  0  0
  -22.7527  -29.2436   19.8618 H   0  0  0  0  0  0
  -25.1291  -36.1975   25.0822 H   0  0  0  0  0  0
  -21.0021  -28.3273   24.1419 H   0  0  0  0  0  0
  -20.5740  -26.2272   23.3631 H   0  0  0  0  0  0
  -21.6642  -26.7437   22.1191 H   0  0  0  0  0  0
  -19.6908  -25.6308   21.1244 H   0  0  0  0  0  0
  -19.6709  -27.3235   20.6809 H   0  0  0  0  0  0
  -17.4216  -26.6748   21.4025 H   0  0  0  0  0  0
  -18.0275  -26.0067   22.9009 H   0  0  0  0  0  0
  -19.7934  -30.7298   24.2253 H   0  0  0  0  0  0
  -17.5008  -31.6253   24.5189 H   0  0  0  0  0  0
  -15.5356  -30.2987   23.7644 H   0  0  0  0  0  0
  -15.8695  -28.0848   22.7018 H   0  0  0  0  0  0
  -24.5893  -30.7084   25.7800 H   0  0  0  0  0  0
  -24.8894  -32.2936   26.4830 H   0  0  0  0  0  0
  -25.8045  -30.8981   27.0248 H   0  0  0  0  0  0
  -26.2863  -29.6801   24.1153 H   0  0  0  0  0  0
  -27.4026  -29.7265   25.4603 H   0  0  0  0  0  0
  -27.8711  -30.4330   23.9310 H   0  0  0  0  0  0
  -27.2673  -33.3636   26.2026 H   0  0  0  0  0  0
  -28.3866  -32.6853   25.0290 H   0  0  0  0  0  0
  -28.0702  -31.8452   26.5403 H   0  0  0  0  0  0
  -28.2604  -38.0101   24.7494 H   0  0  0  0  0  0
  -28.1072  -36.2631   24.6300 H   0  0  0  0  0  0
  -27.2291  -37.1469   25.8859 H   0  0  0  0  0  0
  -20.9338  -29.8779   21.6916 H   0  0  0  0  0  0
  -26.0199  -38.2864   24.1430 H   0  0  0  0  0  0
  -29.4389  -23.5535   22.7492 H   0  0  0  0  0  0
  -28.5815  -17.5970   22.3173 H   0  0  0  0  0  0
  -30.0676  -18.5783   22.7217 H   0  0  0  0  0  0
  -28.6578  -18.3333   20.0149 H   0  0  0  0  0  0
  -31.4207  -17.2327   21.1012 H   0  0  0  0  0  0
  -26.7698  -23.8882   18.5390 H   0  0  0  0  0  0
  -27.9521  -23.1887   17.4391 H   0  0  0  0  0  0
  -28.2416  -24.7853   18.1157 H   0  0  0  0  0  0
  -33.6555  -19.4274   19.2889 H   0  0  0  0  0  0
  -32.2601  -19.4517   18.2334 H   0  0  0  0  0  0
  -32.4710  -18.1352   19.3813 H   0  0  0  0  0  0
  -31.9738  -20.6132   22.3980 H   0  0  0  0  0  0
  -33.4758  -20.0314   21.7050 H   0  0  0  0  0  0
  -32.2248  -18.8991   22.1513 H   0  0  0  0  0  0
  -28.5829  -25.6512   22.0059 H   0  0  0  0  0  0
  -27.0785  -25.1932   21.2958 H   0  0  0  0  0  0
  -30.1299  -19.8196   19.0705 H   0  0  0  0  0  0
  -32.0235  -21.0642   20.0202 H   0  0  0  0  0  0
  -28.9066  -15.5803   20.9735 H   0  0  0  0  0  0
  1 25  1  0  0  0
  1 30  2  0  0  0
  1 86  1  0  0  0
  2  3  1  0  0  0
  2 25  1  0  0  0
  2 87  1  0  0  0
  2 88  1  0  0  0
  3  4  1  0  0  0
  3 89  1  0  0  0
  3 90  1  0  0  0
  4  5  1  0  0  0
  4 91  1  0  0  0
  4 92  1  0  0  0
  5  6  1  0  0  0
  5 26  1  0  0  0
  5 93  1  0  0  0
  6 25  1  0  0  0
  6 94  1  0  0  0
  6 95  1  0  0  0
  7  8  2  0  0  0
  7 26  1  0  0  0
  7 29  1  0  0  0
  8  9  1  0  0  0
  8 22  1  0  0  0
  9 10  1  0  0  0
  9 27  2  0  0  0
 10 11  2  0  0  0
 10 15  1  0  0  0
 11 12  1  0  0  0
 11 96  1  0  0  0
 12 13  2  0  0  0
 12 97  1  0  0  0
 13 14  1  0  0  0
 13 31  1  0  0  0
 14 15  2  0  0  0
 14 98  1  0  0  0
 15 99  1  0  0  0
 16 17  2  0  0  0
 16 21  1  0  0  0
 16 31  1  0  0  0
 17 18  1  0  0  0
 17100  1  0  0  0
 18 19  2  0  0  0
 18101  1  0  0  0
 19 20  1  0  0  0
 19 24  1  0  0  0
 20 21  2  0  0  0
 20102  1  0  0  0
 21 23  1  0  0  0
 22 28  1  0  0  0
 22 32  2  0  0  0
 26 27  1  0  0  0
 28103  1  0  0  0
 28104  1  0  0  0
 29105  1  0  0  0
 29106  1  0  0  0
 33 34  1  0  0  0
 33 66  1  0  0  0
 33 70  2  0  0  0
 34 36  1  0  0  0
 34 59  1  0  0  0
 34107  1  0  0  0
 35 44  2  0  0  0
 35 45  1  0  0  0
 35 68  1  0  0  0
 36 56  1  0  0  0
 36108  1  0  0  0
 37 39  1  0  0  0
 37 47  1  0  0  0
 37 66  1  0  0  0
 37109  1  0  0  0
 38 43  2  0  0  0
 38 46  1  0  0  0
 38 47  1  0  0  0
 39 64  1  0  0  0
 39 67  2  0  0  0
 40 52  1  0  0  0
 40 53  2  0  0  0
 40 58  1  0  0  0
 41110  1  0  0  0
 41111  1  0  0  0
 41112  1  0  0  0
 41 48  1  0  0  0
 42 43  1  0  0  0
 42 66  1  0  0  0
 42113  1  0  0  0
 42114  1  0  0  0
 43 44  1  0  0  0
 44115  1  0  0  0
 45 46  2  0  0  0
 45116  1  0  0  0
 46117  1  0  0  0
 47118  1  0  0  0
 47119  1  0  0  0
 48 56  1  0  0  0
 48 65  1  0  0  0
 48120  1  0  0  0
 49 50  1  0  0  0
 49 53  1  0  0  0
 49 64  1  0  0  0
 49121  1  0  0  0
 50 51  1  0  0  0
 50122  1  0  0  0
 50123  1  0  0  0
 51 52  1  0  0  0
 51124  1  0  0  0
 51125  1  0  0  0
 52126  1  0  0  0
 52127  1  0  0  0
 53 54  1  0  0  0
 54 55  2  0  0  0
 54128  1  0  0  0
 55 57  1  0  0  0
 55129  1  0  0  0
 56 69  2  0  0  0
 57 58  2  0  0  0
 57130  1  0  0  0
 58131  1  0  0  0
 59 60  1  0  0  0
 59 61  1  0  0  0
 59 62  1  0  0  0
 60132  1  0  0  0
 60133  1  0  0  0
 60134  1  0  0  0
 61135  1  0  0  0
 61136  1  0  0  0
 61137  1  0  0  0
 62138  1  0  0  0
 62139  1  0  0  0
 62140  1  0  0  0
 63 65  1  0  0  0
 63141  1  0  0  0
 63142  1  0  0  0
 63143  1  0  0  0
 64144  1  0  0  0
 65145  1  0  0  0
 68 81  1  0  0  0
 71 72  2  0  0  0
 71 84  1  0  0  0
 71146  1  0  0  0
 72 73  1  0  0  0
 72 81  1  0  0  0
 73 78  1  0  0  0
 73 85  2  0  0  0
 74 84  2  0  0  0
 74 85  1  0  0  0
 74 82  1  0  0  0
 75 77  1  0  0  0
 75147  1  0  0  0
 75148  1  0  0  0
 75 76  1  0  0  0
 76 77  1  0  0  0
 76 82  1  0  0  0
 76149  1  0  0  0
 77 86  1  0  0  0
 77150  1  0  0  0
 78151  1  0  0  0
 78152  1  0  0  0
 78153  1  0  0  0
 79154  1  0  0  0
 79155  1  0  0  0
 79156  1  0  0  0
 79 83  1  0  0  0
 80 83  1  0  0  0
 80157  1  0  0  0
 80158  1  0  0  0
 80159  1  0  0  0
 81160  1  0  0  0
 81161  1  0  0  0
 82 83  1  0  0  0
 82162  1  0  0  0
 83163  1  0  0  0
 86164  1  0  0  0
M  ISO  4   1 100  68 101  81 101  86 100
M  END
> <chiral flag>
0

> <version>
0

> <s_m_source_file>
/data/baiqing/PycharmProjects/Reinvent-master-3.2/result/LINK_invent/BTK/process_docking_weight1_custom_sum_contain_oxygen_bond_distance_aromatic_linkinvent_7_9_3/rearranged_h_0174.sdf

> <i_m_source_file_index>
4

> <r_mmod_Potential_Energy-OPLS-2005>
-159.248092651367

> <r_mmod_Stretch_Energy-OPLS-2005>
80.8517761230469

> <r_mmod_Bend_Energy-OPLS-2005>
164.075897216797

> <r_mmod_Torsional_Energy-OPLS-2005>
296.776092529297

> <r_mmod_Improper_Torsional_Energy-OPLS-2005>
6.2873010635376

> <r_mmod_Van_der_Waal_Energy-OPLS-2005>
145.966979980469

> <r_mmod_Electrostatic_Energy-OPLS-2005>
-680.72021484375

> <r_mmod_Solvation_Energy-OPLS-2005>
-222.0537109375

> <b_mmod_Minimization_Converged-OPLS-2005>
0

> <r_mmod_RMS_Derivative-OPLS-2005>
3.5641975402832

$$$$
4
                    3D
 Structure written by MMmdl.
171180  0  0  1  0            999 V2000
  -30.7189  -14.4668   20.5920 C   0  0  0  0  0  0
  -30.4158  -12.3142   19.4226 C   0  0  0  0  0  0
  -29.4891  -12.5100   18.2065 C   0  0  0  0  0  0
  -28.0121  -12.3672   18.6211 C   0  0  0  0  0  0
  -27.6591  -13.2103   19.8757 C   0  0  2  0  0  0
  -28.7010  -13.0012   20.9976 C   0  0  0  0  0  0
  -25.2574  -13.8171   20.5688 C   0  0  0  0  0  0
  -24.1828  -13.0446   20.9180 C   0  0  0  0  0  0
  -24.6384  -11.6910   20.8738 C   0  0  0  0  0  0
  -23.9055  -10.4297   21.0406 C   0  0  0  0  0  0
  -24.3608   -9.4216   21.9187 C   0  0  0  0  0  0
  -23.6290   -8.2249   22.0756 C   0  0  0  0  0  0
  -22.4276   -8.0280   21.3543 C   0  0  0  0  0  0
  -21.9909   -9.0254   20.4646 C   0  0  0  0  0  0
  -22.7231  -10.2136   20.3056 C   0  0  0  0  0  0
  -21.6851   -6.0736   22.5278 C   0  0  0  0  0  0
  -21.4013   -6.5641   23.8210 C   0  0  0  0  0  0
  -21.3662   -5.6795   24.9175 C   0  0  0  0  0  0
  -21.6048   -4.3057   24.7227 C   0  0  0  0  0  0
  -21.8820   -3.8147   23.4346 C   0  0  0  0  0  0
  -21.9195   -4.6965   22.3403 C   0  0  0  0  0  0
  -22.7854  -13.5241   21.1844 C   0  0  0  0  0  0
  -22.1663   -4.2150   21.0981 F   0  0  0  0  0  0
  -21.5632   -3.4542   25.7740 F   0  0  0  0  0  0
  -30.0300  -13.3026   20.4416 N   0  0  0  0  0  0
  -26.3012  -12.9348   20.3384 N   0  0  0  0  0  0
  -25.9314  -11.6503   20.5779 N   0  0  0  0  0  0
  -22.0498  -12.8226   22.0398 N   0  0  0  0  0  0
  -25.4304  -15.1889   20.4095 N   0  0  0  0  0  0
  -31.8292  -14.6477   20.0859 O   0  0  0  0  0  0
  -21.6639   -6.8877   21.4239 O   0  0  0  0  0  0
  -22.3545  -14.5554   20.6703 O   0  0  0  0  0  0
  -24.6159  -31.8662   23.2109 C   0  0  0  0  0  0
  -25.9050  -32.4812   23.8408 C   0  0  1  0  0  0
  -27.2319  -27.4227   20.1014 C   0  0  0  0  0  0
  -25.5899  -33.8611   24.2336 N   0  0  0  0  0  0
  -23.4041  -30.4897   21.5515 C   0  0  2  0  0  0
  -24.8494  -28.9503   20.1191 C   0  0  0  0  0  0
  -22.7408  -29.4649   22.4991 C   0  0  0  0  0  0
  -18.0270  -28.1378   22.8511 C   0  0  0  0  0  0
  -24.1479  -36.7310   23.2645 C   0  0  0  0  0  0
  -25.9333  -30.8301   21.3623 C   0  0  0  0  0  0
  -26.0117  -29.4635   20.7082 C   0  0  0  0  0  0
  -27.2088  -28.7105   20.6881 C   0  0  0  0  0  0
  -26.0523  -26.9230   19.5095 C   0  0  0  0  0  0
  -24.8643  -27.6790   19.5171 C   0  0  0  0  0  0
  -23.6128  -29.8202   20.1675 C   0  0  0  0  0  0
  -25.4105  -36.3105   24.0337 C   0  0  1  0  0  0
  -20.5861  -28.3665   23.1326 C   0  0  2  0  0  0
  -20.6752  -26.9403   22.5423 C   0  0  0  0  0  0
  -19.5725  -26.6395   21.5226 C   0  0  0  0  0  0
  -18.1904  -26.7929   22.1637 C   0  0  0  0  0  0
  -19.1520  -28.8840   23.2912 C   0  0  0  0  0  0
  -18.9441  -30.1449   23.8913 C   0  0  0  0  0  0
  -17.6446  -30.6588   24.0575 C   0  0  0  0  0  0
  -25.9028  -34.9465   23.5133 C   0  0  0  0  0  0
  -16.5336  -29.9090   23.6335 C   0  0  0  0  0  0
  -16.7261  -28.6501   23.0368 C   0  0  0  0  0  0
  -26.4478  -31.6596   25.0745 C   0  0  0  0  0  0
  -25.3749  -31.3672   26.1498 C   0  0  0  0  0  0
  -27.0348  -30.3054   24.6127 C   0  0  0  0  0  0
  -27.6051  -32.4329   25.7498 C   0  0  0  0  0  0
  -27.5577  -37.1804   24.8468 C   0  0  0  0  0  0
  -21.4132  -29.3036   22.3734 N   0  0  0  0  0  0
  -26.4291  -37.3794   23.9418 N   0  0  0  0  0  0
  -24.6700  -31.0758   22.1009 N   0  0  0  0  0  0
  -23.4177  -28.8193   23.3038 O   0  0  0  0  0  0
  -28.3967  -26.6827   20.0890 O   0  0  0  0  0  0
  -26.5589  -34.8915   22.4693 O   0  0  0  0  0  0
  -23.5349  -32.1413   23.7498 O   0  0  0  0  0  0
  -29.5676  -18.0007   19.6869 C   0  0  0  0  0  0
  -29.9951  -18.0035   21.0285 C   0  0  0  0  0  0
  -29.0881  -19.1941   19.1036 C   0  0  0  0  0  0
  -29.8871  -19.2270   21.7342 C   0  0  0  0  0  0
  -29.0479  -20.3769   19.8815 C   0  0  0  0  0  0
  -30.2901  -19.3306   23.1920 C   0  0  0  0  0  0
  -31.2850  -18.2470   23.6156 C   0  0  0  0  0  0
  -30.6657  -16.7557   21.6523 C   0  0  1  0  0  0
  -30.8301  -16.8352   23.1958 C   0  0  1  0  0  0
  -28.6552  -19.1852   17.6455 C   0  0  0  0  0  0
  -31.8783  -15.6589   25.2619 C   0  0  0  0  0  0
  -28.6122  -21.7260   19.2796 C   0  0  0  0  0  0
  -31.7995  -15.7506   23.7301 C   0  0  0  0  0  0
  -28.4364  -24.2099   19.6362 C   0  0  0  0  0  0
  -28.3347  -25.3627   20.6725 C   0  0  0  0  0  0
  -29.4284  -20.3770   21.1801 N   0  0  0  0  0  0
  -30.0861  -15.4527   21.2622 N   0  0  0  0  0  0
  -28.6038  -22.8518   20.2471 N   0  3  0  0  0  0
  -31.4605  -12.4064   19.1205 H   0  0  0  0  0  0
  -30.3126  -11.3057   19.8263 H   0  0  0  0  0  0
  -29.7293  -11.7859   17.4269 H   0  0  0  0  0  0
  -29.6545  -13.4970   17.7714 H   0  0  0  0  0  0
  -27.8241  -11.3116   18.8199 H   0  0  0  0  0  0
  -27.3599  -12.6398   17.7905 H   0  0  0  0  0  0
  -27.7009  -14.2571   19.5740 H   0  0  0  0  0  0
  -28.6806  -11.9689   21.3492 H   0  0  0  0  0  0
  -28.4596  -13.6097   21.8703 H   0  0  0  0  0  0
  -25.2750   -9.5700   22.4766 H   0  0  0  0  0  0
  -24.0006   -7.4643   22.7477 H   0  0  0  0  0  0
  -21.0844   -8.8766   19.8946 H   0  0  0  0  0  0
  -22.3684  -10.9675   19.6165 H   0  0  0  0  0  0
  -21.1999   -7.6149   23.9711 H   0  0  0  0  0  0
  -21.1487   -6.0526   25.9078 H   0  0  0  0  0  0
  -22.0597   -2.7611   23.2846 H   0  0  0  0  0  0
  -22.4114  -11.9871   22.4759 H   0  0  0  0  0  0
  -21.1118  -13.1245   22.2614 H   0  0  0  0  0  0
  -24.6664  -15.8464   20.5205 H   0  0  0  0  0  0
  -26.2882  -15.6275   20.0991 H   0  0  0  0  0  0
  -26.7119  -32.5520   23.1166 H   0  0  0  0  0  0
  -25.0056  -33.9777   25.0484 H   0  0  0  0  0  0
  -22.6930  -31.3064   21.4111 H   0  0  0  0  0  0
  -23.3740  -35.9645   23.3312 H   0  0  0  0  0  0
  -24.3565  -36.8936   22.2060 H   0  0  0  0  0  0
  -23.7236  -37.6508   23.6671 H   0  0  0  0  0  0
  -26.0448  -31.5973   20.5947 H   0  0  0  0  0  0
  -26.8218  -30.8849   21.9807 H   0  0  0  0  0  0
  -28.1099  -29.1075   21.1347 H   0  0  0  0  0  0
  -26.0441  -25.9539   19.0337 H   0  0  0  0  0  0
  -23.9697  -27.2778   19.0610 H   0  0  0  0  0  0
  -23.7230  -30.5945   19.4072 H   0  0  0  0  0  0
  -22.7352  -29.2420   19.8729 H   0  0  0  0  0  0
  -25.1280  -36.1964   25.0829 H   0  0  0  0  0  0
  -20.9957  -28.3243   24.1446 H   0  0  0  0  0  0
  -20.5672  -26.2272   23.3607 H   0  0  0  0  0  0
  -21.6617  -26.7455   22.1210 H   0  0  0  0  0  0
  -19.6878  -25.6317   21.1232 H   0  0  0  0  0  0
  -19.6662  -27.3222   20.6773 H   0  0  0  0  0  0
  -17.4183  -26.6714   21.4025 H   0  0  0  0  0  0
  -18.0269  -26.0059   22.9016 H   0  0  0  0  0  0
  -19.7920  -30.7261   24.2281 H   0  0  0  0  0  0
  -17.5006  -31.6266   24.5185 H   0  0  0  0  0  0
  -15.5333  -30.2996   23.7650 H   0  0  0  0  0  0
  -15.8661  -28.0826   22.7079 H   0  0  0  0  0  0
  -24.5938  -30.7000   25.7839 H   0  0  0  0  0  0
  -24.8908  -32.2807   26.4964 H   0  0  0  0  0  0
  -25.8120  -30.8841   27.0250 H   0  0  0  0  0  0
  -26.2905  -29.6753   24.1244 H   0  0  0  0  0  0
  -27.4210  -29.7350   25.4585 H   0  0  0  0  0  0
  -27.8688  -30.4405   23.9235 H   0  0  0  0  0  0
  -27.2691  -33.3652   26.2050 H   0  0  0  0  0  0
  -28.3861  -32.6851   25.0313 H   0  0  0  0  0  0
  -28.0712  -31.8468   26.5430 H   0  0  0  0  0  0
  -28.2586  -38.0109   24.7539 H   0  0  0  0  0  0
  -28.1082  -36.2643   24.6276 H   0  0  0  0  0  0
  -27.2288  -37.1432   25.8866 H   0  0  0  0  0  0
  -20.9284  -29.8751   21.6952 H   0  0  0  0  0  0
  -26.0170  -38.2863   24.1453 H   0  0  0  0  0  0
  -29.6399  -17.0967   19.0986 H   0  0  0  0  0  0
  -29.3867  -19.2554   23.7981 H   0  0  0  0  0  0
  -30.7155  -20.3154   23.3898 H   0  0  0  0  0  0
  -31.4252  -18.3160   24.6932 H   0  0  0  0  0  0
  -32.2546  -18.4582   23.1622 H   0  0  0  0  0  0
  -31.6794  -16.8095   21.2495 H   0  0  0  0  0  0
  -29.8510  -16.6636   23.6469 H   0  0  0  0  0  0
  -28.7586  -18.1925   17.2054 H   0  0  0  0  0  0
  -29.2637  -19.8716   17.0555 H   0  0  0  0  0  0
  -27.6093  -19.4784   17.5482 H   0  0  0  0  0  0
  -32.4769  -14.7984   25.5636 H   0  0  0  0  0  0
  -30.8880  -15.5396   25.7038 H   0  0  0  0  0  0
  -32.3425  -16.5410   25.7021 H   0  0  0  0  0  0
  -27.6174  -21.6222   18.8459 H   0  0  0  0  0  0
  -29.2950  -21.9662   18.4638 H   0  0  0  0  0  0
  -32.7984  -15.9134   23.3228 H   0  0  0  0  0  0
  -31.4893  -14.7701   23.3705 H   0  0  0  0  0  0
  -29.2849  -24.4004   18.9785 H   0  0  0  0  0  0
  -27.5473  -24.2091   19.0059 H   0  0  0  0  0  0
  -29.1784  -25.2933   21.3598 H   0  0  0  0  0  0
  -27.4443  -25.2407   21.2927 H   0  0  0  0  0  0
  -29.1704  -15.2323   21.6221 H   0  0  0  0  0  0
  -29.4718  -22.7736   20.7552 H   0  0  0  0  0  0
  -27.8710  -22.6528   20.9088 H   0  0  0  0  0  0
  1 25  1  0  0  0
  1 30  2  0  0  0
  1 87  1  0  0  0
  2  3  1  0  0  0
  2 25  1  0  0  0
  2 89  1  0  0  0
  2 90  1  0  0  0
  3  4  1  0  0  0
  3 91  1  0  0  0
  3 92  1  0  0  0
  4  5  1  0  0  0
  4 93  1  0  0  0
  4 94  1  0  0  0
  5  6  1  0  0  0
  5 26  1  0  0  0
  5 95  1  0  0  0
  6 25  1  0  0  0
  6 96  1  0  0  0
  6 97  1  0  0  0
  7  8  2  0  0  0
  7 26  1  0  0  0
  7 29  1  0  0  0
  8  9  1  0  0  0
  8 22  1  0  0  0
  9 10  1  0  0  0
  9 27  2  0  0  0
 10 11  2  0  0  0
 10 15  1  0  0  0
 11 12  1  0  0  0
 11 98  1  0  0  0
 12 13  2  0  0  0
 12 99  1  0  0  0
 13 14  1  0  0  0
 13 31  1  0  0  0
 14 15  2  0  0  0
 14100  1  0  0  0
 15101  1  0  0  0
 16 17  2  0  0  0
 16 21  1  0  0  0
 16 31  1  0  0  0
 17 18  1  0  0  0
 17102  1  0  0  0
 18 19  2  0  0  0
 18103  1  0  0  0
 19 20  1  0  0  0
 19 24  1  0  0  0
 20 21  2  0  0  0
 20104  1  0  0  0
 21 23  1  0  0  0
 22 28  1  0  0  0
 22 32  2  0  0  0
 26 27  1  0  0  0
 28105  1  0  0  0
 28106  1  0  0  0
 29107  1  0  0  0
 29108  1  0  0  0
 33 34  1  0  0  0
 33 66  1  0  0  0
 33 70  2  0  0  0
 34 36  1  0  0  0
 34 59  1  0  0  0
 34109  1  0  0  0
 35 44  2  0  0  0
 35 45  1  0  0  0
 35 68  1  0  0  0
 36 56  1  0  0  0
 36110  1  0  0  0
 37 39  1  0  0  0
 37 47  1  0  0  0
 37 66  1  0  0  0
 37111  1  0  0  0
 38 43  2  0  0  0
 38 46  1  0  0  0
 38 47  1  0  0  0
 39 64  1  0  0  0
 39 67  2  0  0  0
 40 52  1  0  0  0
 40 53  2  0  0  0
 40 58  1  0  0  0
 41112  1  0  0  0
 41113  1  0  0  0
 41114  1  0  0  0
 41 48  1  0  0  0
 42 43  1  0  0  0
 42 66  1  0  0  0
 42115  1  0  0  0
 42116  1  0  0  0
 43 44  1  0  0  0
 44117  1  0  0  0
 45 46  2  0  0  0
 45118  1  0  0  0
 46119  1  0  0  0
 47120  1  0  0  0
 47121  1  0  0  0
 48 56  1  0  0  0
 48 65  1  0  0  0
 48122  1  0  0  0
 49 50  1  0  0  0
 49 53  1  0  0  0
 49 64  1  0  0  0
 49123  1  0  0  0
 50 51  1  0  0  0
 50124  1  0  0  0
 50125  1  0  0  0
 51 52  1  0  0  0
 51126  1  0  0  0
 51127  1  0  0  0
 52128  1  0  0  0
 52129  1  0  0  0
 53 54  1  0  0  0
 54 55  2  0  0  0
 54130  1  0  0  0
 55 57  1  0  0  0
 55131  1  0  0  0
 56 69  2  0  0  0
 57 58  2  0  0  0
 57132  1  0  0  0
 58133  1  0  0  0
 59 60  1  0  0  0
 59 61  1  0  0  0
 59 62  1  0  0  0
 60134  1  0  0  0
 60135  1  0  0  0
 60136  1  0  0  0
 61137  1  0  0  0
 61138  1  0  0  0
 61139  1  0  0  0
 62140  1  0  0  0
 62141  1  0  0  0
 62142  1  0  0  0
 63 65  1  0  0  0
 63143  1  0  0  0
 63144  1  0  0  0
 63145  1  0  0  0
 64146  1  0  0  0
 65147  1  0  0  0
 68 85  1  0  0  0
 71 72  2  0  0  0
 71 73  1  0  0  0
 71148  1  0  0  0
 72 74  1  0  0  0
 72 78  1  0  0  0
 73 75  2  0  0  0
 73 80  1  0  0  0
 74 76  1  0  0  0
 74 86  2  0  0  0
 75 82  1  0  0  0
 75 86  1  0  0  0
 76 77  1  0  0  0
 76149  1  0  0  0
 76150  1  0  0  0
 77 79  1  0  0  0
 77151  1  0  0  0
 77152  1  0  0  0
 78 79  1  0  0  0
 78 87  1  0  0  0
 78153  1  0  0  0
 79 83  1  0  0  0
 79154  1  0  0  0
 80155  1  0  0  0
 80156  1  0  0  0
 80157  1  0  0  0
 81 83  1  0  0  0
 81158  1  0  0  0
 81159  1  0  0  0
 81160  1  0  0  0
 82 88  1  0  0  0
 82161  1  0  0  0
 82162  1  0  0  0
 83163  1  0  0  0
 83164  1  0  0  0
 84 85  1  0  0  0
 84 88  1  0  0  0
 84165  1  0  0  0
 84166  1  0  0  0
 85167  1  0  0  0
 85168  1  0  0  0
 87169  1  0  0  0
 88170  1  0  0  0
 88171  1  0  0  0
M  CHG  1  88   1
M  ISO  4   1 100  68 101  85 101  87 100
M  END
> <chiral flag>
0

> <version>
0

> <s_m_source_file>
/data/baiqing/PycharmProjects/Reinvent-master-3.2/result/LINK_invent/BTK/process_docking_weight1_custom_sum_contain_oxygen_bond_distance_aromatic_linkinvent_7_9_3/rearranged_h_0174.sdf

> <i_m_source_file_index>
5

> <r_mmod_Potential_Energy-OPLS-2005>
-410.165649414062

> <r_mmod_Stretch_Energy-OPLS-2005>
42.4244155883789

> <r_mmod_Bend_Energy-OPLS-2005>
102.625694274902

> <r_mmod_Torsional_Energy-OPLS-2005>
221.897277832031

> <r_mmod_Improper_Torsional_Energy-OPLS-2005>
2.61881518363953

> <r_mmod_Van_der_Waal_Energy-OPLS-2005>
157.281463623047

> <r_mmod_Electrostatic_Energy-OPLS-2005>
-519.815612792969

> <r_mmod_Solvation_Energy-OPLS-2005>
-429.670440673828

> <b_mmod_Minimization_Converged-OPLS-2005>
0

> <r_mmod_RMS_Derivative-OPLS-2005>
1.22779560089111

$$$$
5
                    3D
 Structure written by MMmdl.
165175  0  0  1  0            999 V2000
  -30.7698  -14.4086   20.6239 C   0  0  0  0  0  0
  -30.4018  -12.2919   19.4165 C   0  0  0  0  0  0
  -29.4833  -12.5233   18.2029 C   0  0  0  0  0  0
  -28.0059  -12.3930   18.6135 C   0  0  0  0  0  0
  -27.6609  -13.2183   19.8823 C   0  0  2  0  0  0
  -28.7017  -12.9971   21.0039 C   0  0  0  0  0  0
  -25.2554  -13.8196   20.5694 C   0  0  0  0  0  0
  -24.1817  -13.0443   20.9168 C   0  0  0  0  0  0
  -24.6397  -11.6917   20.8730 C   0  0  0  0  0  0
  -23.9069  -10.4299   21.0392 C   0  0  0  0  0  0
  -24.3616   -9.4219   21.9178 C   0  0  0  0  0  0
  -23.6292   -8.2250   22.0752 C   0  0  0  0  0  0
  -22.4275   -8.0283   21.3544 C   0  0  0  0  0  0
  -21.9915   -9.0253   20.4638 C   0  0  0  0  0  0
  -22.7240  -10.2136   20.3045 C   0  0  0  0  0  0
  -21.6858   -6.0735   22.5277 C   0  0  0  0  0  0
  -21.4013   -6.5641   23.8211 C   0  0  0  0  0  0
  -21.3661   -5.6794   24.9175 C   0  0  0  0  0  0
  -21.6046   -4.3056   24.7223 C   0  0  0  0  0  0
  -21.8821   -3.8148   23.4345 C   0  0  0  0  0  0
  -21.9191   -4.6961   22.3399 C   0  0  0  0  0  0
  -22.7836  -13.5223   21.1831 C   0  0  0  0  0  0
  -22.1659   -4.2145   21.0975 F   0  0  0  0  0  0
  -21.5632   -3.4538   25.7740 F   0  0  0  0  0  0
  -30.0382  -13.2744   20.4531 N   0  0  0  0  0  0
  -26.3018  -12.9391   20.3411 N   0  0  0  0  0  0
  -25.9329  -11.6532   20.5775 N   0  0  0  0  0  0
  -22.0485  -12.8209   22.0395 N   0  0  0  0  0  0
  -25.4263  -15.1912   20.4102 N   0  0  0  0  0  0
  -31.8418  -14.5910   20.0412 O   0  0  0  0  0  0
  -21.6639   -6.8879   21.4242 O   0  0  0  0  0  0
  -22.3518  -14.5532   20.6696 O   0  0  0  0  0  0
  -24.6131  -31.8681   23.2111 C   0  0  0  0  0  0
  -25.9030  -32.4825   23.8403 C   0  0  1  0  0  0
  -27.2333  -27.4478   20.1022 C   0  0  0  0  0  0
  -25.5890  -33.8623   24.2334 N   0  0  0  0  0  0
  -23.4020  -30.4893   21.5515 C   0  0  2  0  0  0
  -24.8535  -28.9613   20.1111 C   0  0  0  0  0  0
  -22.7417  -29.4643   22.5003 C   0  0  0  0  0  0
  -18.0270  -28.1373   22.8503 C   0  0  0  0  0  0
  -24.1480  -36.7311   23.2641 C   0  0  0  0  0  0
  -25.9295  -30.8372   21.3661 C   0  0  0  0  0  0
  -26.0114  -29.4727   20.7147 C   0  0  0  0  0  0
  -27.2067  -28.7186   20.7174 C   0  0  0  0  0  0
  -26.0730  -26.9579   19.4731 C   0  0  0  0  0  0
  -24.8779  -27.7007   19.4889 C   0  0  0  0  0  0
  -23.6118  -29.8213   20.1655 C   0  0  0  0  0  0
  -25.4106  -36.3112   24.0332 C   0  0  1  0  0  0
  -20.5860  -28.3664   23.1333 C   0  0  2  0  0  0
  -20.6751  -26.9402   22.5433 C   0  0  0  0  0  0
  -19.5739  -26.6388   21.5218 C   0  0  0  0  0  0
  -18.1909  -26.7933   22.1612 C   0  0  0  0  0  0
  -19.1518  -28.8840   23.2913 C   0  0  0  0  0  0
  -18.9447  -30.1441   23.8929 C   0  0  0  0  0  0
  -17.6450  -30.6587   24.0566 C   0  0  0  0  0  0
  -25.9031  -34.9477   23.5134 C   0  0  0  0  0  0
  -16.5344  -29.9083   23.6332 C   0  0  0  0  0  0
  -16.7260  -28.6490   23.0374 C   0  0  0  0  0  0
  -26.4479  -31.6600   25.0723 C   0  0  0  0  0  0
  -25.3751  -31.3648   26.1463 C   0  0  0  0  0  0
  -27.0341  -30.3065   24.6074 C   0  0  0  0  0  0
  -27.6048  -32.4328   25.7485 C   0  0  0  0  0  0
  -27.5579  -37.1811   24.8468 C   0  0  0  0  0  0
  -21.4145  -29.3026   22.3735 N   0  0  0  0  0  0
  -26.4302  -37.3794   23.9397 N   0  0  0  0  0  0
  -24.6658  -31.0783   22.1012 N   0  0  0  0  0  0
  -23.4181  -28.8186   23.3046 O   0  0  0  0  0  0
  -28.3413  -26.6354   20.1330 O   0  0  0  0  0  0
  -26.5601  -34.8930   22.4701 O   0  0  0  0  0  0
  -23.5323  -32.1434   23.7504 O   0  0  0  0  0  0
  -30.2756  -18.9824   21.4998 C   0  0  0  0  0  0
  -29.1423  -18.9868   24.1109 C   0  0  0  0  0  0
  -29.7388  -20.1549   22.0649 C   0  0  0  0  0  0
  -29.2099  -20.1564   23.3343 C   0  0  0  0  0  0
  -30.2713  -17.7882   22.2719 C   0  0  0  0  0  0
  -29.6814  -17.7900   23.5719 C   0  0  0  0  0  0
  -29.7038  -21.5358   21.5039 C   0  0  0  0  0  0
  -28.8069  -21.5694   23.6718 C   0  0  0  0  0  0
  -27.7476  -24.3571   23.0616 C   0  0  0  0  0  0
  -27.2810  -25.4592   22.1068 C   0  0  0  0  0  0
  -29.3054  -24.6159   21.1951 C   0  0  0  0  0  0
  -29.0919  -23.8213   22.5133 C   0  0  2  0  0  0
  -28.5462  -25.9430   21.3794 C   0  0  1  0  0  0
  -29.6611  -16.5330   24.4267 C   0  0  0  0  0  0
  -31.0414  -16.5783   21.7379 C   0  0  0  0  0  0
  -29.1325  -22.3379   22.4435 N   0  0  0  0  0  0
  -30.2767  -15.3590   21.4367 N   0  0  0  0  0  0
  -30.1703  -21.8467   20.4038 O   0  0  0  0  0  0
  -31.4484  -12.3592   19.1147 H   0  0  0  0  0  0
  -30.2759  -11.2782   19.8014 H   0  0  0  0  0  0
  -29.7115  -11.8115   17.4083 H   0  0  0  0  0  0
  -29.6647  -13.5164   17.7872 H   0  0  0  0  0  0
  -27.7986  -11.3366   18.7872 H   0  0  0  0  0  0
  -27.3612  -12.6971   17.7874 H   0  0  0  0  0  0
  -27.7091  -14.2699   19.5975 H   0  0  0  0  0  0
  -28.6634  -11.9658   21.3571 H   0  0  0  0  0  0
  -28.4684  -13.6138   21.8723 H   0  0  0  0  0  0
  -25.2762   -9.5693   22.4756 H   0  0  0  0  0  0
  -23.9996   -7.4649   22.7477 H   0  0  0  0  0  0
  -21.0850   -8.8781   19.8936 H   0  0  0  0  0  0
  -22.3707  -10.9678   19.6148 H   0  0  0  0  0  0
  -21.2016   -7.6149   23.9714 H   0  0  0  0  0  0
  -21.1478   -6.0522   25.9076 H   0  0  0  0  0  0
  -22.0602   -2.7609   23.2851 H   0  0  0  0  0  0
  -22.4110  -11.9856   22.4752 H   0  0  0  0  0  0
  -21.1099  -13.1218   22.2605 H   0  0  0  0  0  0
  -24.6629  -15.8496   20.5214 H   0  0  0  0  0  0
  -26.2895  -15.6314   20.1164 H   0  0  0  0  0  0
  -26.7107  -32.5559   23.1175 H   0  0  0  0  0  0
  -25.0079  -33.9791   25.0505 H   0  0  0  0  0  0
  -22.6897  -31.3047   21.4105 H   0  0  0  0  0  0
  -23.3754  -35.9636   23.3312 H   0  0  0  0  0  0
  -24.3572  -36.8927   22.2056 H   0  0  0  0  0  0
  -23.7234  -37.6510   23.6675 H   0  0  0  0  0  0
  -26.0392  -31.6017   20.5952 H   0  0  0  0  0  0
  -26.8156  -30.8925   21.9849 H   0  0  0  0  0  0
  -28.0969  -29.0971   21.2023 H   0  0  0  0  0  0
  -26.0879  -25.9845   19.0039 H   0  0  0  0  0  0
  -23.9885  -27.2987   19.0229 H   0  0  0  0  0  0
  -23.7096  -30.5962   19.4044 H   0  0  0  0  0  0
  -22.7392  -29.2331   19.8764 H   0  0  0  0  0  0
  -25.1284  -36.1986   25.0827 H   0  0  0  0  0  0
  -20.9943  -28.3232   24.1457 H   0  0  0  0  0  0
  -20.5648  -26.2267   23.3617 H   0  0  0  0  0  0
  -21.6622  -26.7429   22.1232 H   0  0  0  0  0  0
  -19.6896  -25.6303   21.1239 H   0  0  0  0  0  0
  -19.6687  -27.3196   20.6748 H   0  0  0  0  0  0
  -17.4191  -26.6736   21.3990 H   0  0  0  0  0  0
  -18.0259  -26.0045   22.8962 H   0  0  0  0  0  0
  -19.7922  -30.7245   24.2323 H   0  0  0  0  0  0
  -17.5010  -31.6271   24.5158 H   0  0  0  0  0  0
  -15.5345  -30.3000   23.7644 H   0  0  0  0  0  0
  -15.8656  -28.0805   22.7113 H   0  0  0  0  0  0
  -24.6005  -30.6907   25.7788 H   0  0  0  0  0  0
  -24.8844  -32.2763   26.4882 H   0  0  0  0  0  0
  -25.8135  -30.8873   27.0236 H   0  0  0  0  0  0
  -26.2880  -29.6784   24.1198 H   0  0  0  0  0  0
  -27.4217  -29.7345   25.4511 H   0  0  0  0  0  0
  -27.8661  -30.4417   23.9162 H   0  0  0  0  0  0
  -27.2683  -33.3649   26.2042 H   0  0  0  0  0  0
  -28.3871  -32.6847   25.0311 H   0  0  0  0  0  0
  -28.0707  -31.8464   26.5415 H   0  0  0  0  0  0
  -28.2613  -38.0090   24.7528 H   0  0  0  0  0  0
  -28.1063  -36.2636   24.6297 H   0  0  0  0  0  0
  -27.2303  -37.1456   25.8871 H   0  0  0  0  0  0
  -20.9312  -29.8756   21.6959 H   0  0  0  0  0  0
  -26.0196  -38.2878   24.1395 H   0  0  0  0  0  0
  -30.7297  -19.0169   20.5191 H   0  0  0  0  0  0
  -28.7205  -19.0159   25.1067 H   0  0  0  0  0  0
  -29.3793  -21.9369   24.5248 H   0  0  0  0  0  0
  -27.7448  -21.6075   23.9138 H   0  0  0  0  0  0
  -26.9736  -23.5939   23.1425 H   0  0  0  0  0  0
  -27.8981  -24.7658   24.0619 H   0  0  0  0  0  0
  -26.7593  -26.2653   22.6262 H   0  0  0  0  0  0
  -26.5809  -25.0205   21.3931 H   0  0  0  0  0  0
  -28.8585  -24.0832   20.3543 H   0  0  0  0  0  0
  -30.3608  -24.7677   20.9658 H   0  0  0  0  0  0
  -29.8767  -24.1248   23.2081 H   0  0  0  0  0  0
  -29.1172  -26.5944   22.0425 H   0  0  0  0  0  0
  -29.3354  -16.7489   25.4451 H   0  0  0  0  0  0
  -30.6503  -16.0795   24.4921 H   0  0  0  0  0  0
  -28.9719  -15.7998   24.0079 H   0  0  0  0  0  0
  -31.8170  -16.3231   22.4621 H   0  0  0  0  0  0
  -31.5831  -16.9052   20.8481 H   0  0  0  0  0  0
  -29.3889  -15.2101   21.8897 H   0  0  0  0  0  0
  1 25  1  0  0  0
  1 30  2  0  0  0
  1 87  1  0  0  0
  2  3  1  0  0  0
  2 25  1  0  0  0
  2 89  1  0  0  0
  2 90  1  0  0  0
  3  4  1  0  0  0
  3 91  1  0  0  0
  3 92  1  0  0  0
  4  5  1  0  0  0
  4 93  1  0  0  0
  4 94  1  0  0  0
  5  6  1  0  0  0
  5 26  1  0  0  0
  5 95  1  0  0  0
  6 25  1  0  0  0
  6 96  1  0  0  0
  6 97  1  0  0  0
  7  8  2  0  0  0
  7 26  1  0  0  0
  7 29  1  0  0  0
  8  9  1  0  0  0
  8 22  1  0  0  0
  9 10  1  0  0  0
  9 27  2  0  0  0
 10 11  2  0  0  0
 10 15  1  0  0  0
 11 12  1  0  0  0
 11 98  1  0  0  0
 12 13  2  0  0  0
 12 99  1  0  0  0
 13 14  1  0  0  0
 13 31  1  0  0  0
 14 15  2  0  0  0
 14100  1  0  0  0
 15101  1  0  0  0
 16 17  2  0  0  0
 16 21  1  0  0  0
 16 31  1  0  0  0
 17 18  1  0  0  0
 17102  1  0  0  0
 18 19  2  0  0  0
 18103  1  0  0  0
 19 20  1  0  0  0
 19 24  1  0  0  0
 20 21  2  0  0  0
 20104  1  0  0  0
 21 23  1  0  0  0
 22 28  1  0  0  0
 22 32  2  0  0  0
 26 27  1  0  0  0
 28105  1  0  0  0
 28106  1  0  0  0
 29107  1  0  0  0
 29108  1  0  0  0
 33 34  1  0  0  0
 33 66  1  0  0  0
 33 70  2  0  0  0
 34 36  1  0  0  0
 34 59  1  0  0  0
 34109  1  0  0  0
 35 44  2  0  0  0
 35 45  1  0  0  0
 35 68  1  0  0  0
 36 56  1  0  0  0
 36110  1  0  0  0
 37 39  1  0  0  0
 37 47  1  0  0  0
 37 66  1  0  0  0
 37111  1  0  0  0
 38 43  2  0  0  0
 38 46  1  0  0  0
 38 47  1  0  0  0
 39 64  1  0  0  0
 39 67  2  0  0  0
 40 52  1  0  0  0
 40 53  2  0  0  0
 40 58  1  0  0  0
 41112  1  0  0  0
 41113  1  0  0  0
 41114  1  0  0  0
 41 48  1  0  0  0
 42 43  1  0  0  0
 42 66  1  0  0  0
 42115  1  0  0  0
 42116  1  0  0  0
 43 44  1  0  0  0
 44117  1  0  0  0
 45 46  2  0  0  0
 45118  1  0  0  0
 46119  1  0  0  0
 47120  1  0  0  0
 47121  1  0  0  0
 48 56  1  0  0  0
 48 65  1  0  0  0
 48122  1  0  0  0
 49 50  1  0  0  0
 49 53  1  0  0  0
 49 64  1  0  0  0
 49123  1  0  0  0
 50 51  1  0  0  0
 50124  1  0  0  0
 50125  1  0  0  0
 51 52  1  0  0  0
 51126  1  0  0  0
 51127  1  0  0  0
 52128  1  0  0  0
 52129  1  0  0  0
 53 54  1  0  0  0
 54 55  2  0  0  0
 54130  1  0  0  0
 55 57  1  0  0  0
 55131  1  0  0  0
 56 69  2  0  0  0
 57 58  2  0  0  0
 57132  1  0  0  0
 58133  1  0  0  0
 59 60  1  0  0  0
 59 61  1  0  0  0
 59 62  1  0  0  0
 60134  1  0  0  0
 60135  1  0  0  0
 60136  1  0  0  0
 61137  1  0  0  0
 61138  1  0  0  0
 61139  1  0  0  0
 62140  1  0  0  0
 62141  1  0  0  0
 62142  1  0  0  0
 63 65  1  0  0  0
 63143  1  0  0  0
 63144  1  0  0  0
 63145  1  0  0  0
 64146  1  0  0  0
 65147  1  0  0  0
 68 83  1  0  0  0
 71 73  2  0  0  0
 71 75  1  0  0  0
 71148  1  0  0  0
 72 74  2  0  0  0
 72 76  1  0  0  0
 72149  1  0  0  0
 73 74  1  0  0  0
 73 77  1  0  0  0
 74 78  1  0  0  0
 75 76  2  0  0  0
 75 85  1  0  0  0
 76 84  1  0  0  0
 77 86  1  0  0  0
 77 88  2  0  0  0
 78 86  1  0  0  0
 78150  1  0  0  0
 78151  1  0  0  0
 79 80  1  0  0  0
 79 82  1  0  0  0
 79152  1  0  0  0
 79153  1  0  0  0
 80 83  1  0  0  0
 80154  1  0  0  0
 80155  1  0  0  0
 81 82  1  0  0  0
 81 83  1  0  0  0
 81156  1  0  0  0
 81157  1  0  0  0
 82 86  1  0  0  0
 82158  1  0  0  0
 83159  1  0  0  0
 84160  1  0  0  0
 84161  1  0  0  0
 84162  1  0  0  0
 85 87  1  0  0  0
 85163  1  0  0  0
 85164  1  0  0  0
 87165  1  0  0  0
M  ISO  4   1 100  68 101  83 101  87 100
M  END
> <chiral flag>
0

> <version>
0

> <s_m_source_file>
/data/baiqing/PycharmProjects/Reinvent-master-3.2/result/LINK_invent/BTK/process_docking_weight1_custom_sum_contain_oxygen_bond_distance_aromatic_linkinvent_7_9_3/rearranged_h_0174.sdf

> <i_m_source_file_index>
6

> <r_mmod_Potential_Energy-OPLS-2005>
80.9714736938477

> <r_mmod_Stretch_Energy-OPLS-2005>
42.7575454711914

> <r_mmod_Bend_Energy-OPLS-2005>
193.511505126953

> <r_mmod_Torsional_Energy-OPLS-2005>
291.661407470703

> <r_mmod_Improper_Torsional_Energy-OPLS-2005>
3.27672028541565

> <r_mmod_Van_der_Waal_Energy-OPLS-2005>
149.976181030273

> <r_mmod_Electrostatic_Energy-OPLS-2005>
-386.068420410156

> <r_mmod_Solvation_Energy-OPLS-2005>
-225.603607177734

> <b_mmod_Minimization_Converged-OPLS-2005>
0

> <r_mmod_RMS_Derivative-OPLS-2005>
2.12463903427124

$$$$
6
                    3D
 Structure written by MMmdl.
154163  0  0  1  0            999 V2000
  -30.2910  -15.7674   20.3161 C   0  0  0  0  0  0
  -30.4074  -13.1888   19.5138 C   0  0  0  0  0  0
  -29.5475  -12.6798   18.3214 C   0  0  0  0  0  0
  -28.1342  -12.2987   18.7805 C   0  0  0  0  0  0
  -27.5895  -13.3193   19.8036 C   0  0  2  0  0  0
  -28.6031  -13.7320   20.9008 C   0  0  0  0  0  0
  -25.2354  -13.8303   20.5841 C   0  0  0  0  0  0
  -24.1738  -13.0445   20.9298 C   0  0  0  0  0  0
  -24.6437  -11.6958   20.8754 C   0  0  0  0  0  0
  -23.9131  -10.4301   21.0390 C   0  0  0  0  0  0
  -24.3669   -9.4212   21.9166 C   0  0  0  0  0  0
  -23.6334   -8.2253   22.0746 C   0  0  0  0  0  0
  -22.4310   -8.0281   21.3539 C   0  0  0  0  0  0
  -21.9952   -9.0252   20.4637 C   0  0  0  0  0  0
  -22.7294  -10.2132   20.3041 C   0  0  0  0  0  0
  -21.6876   -6.0744   22.5284 C   0  0  0  0  0  0
  -21.4021   -6.5643   23.8213 C   0  0  0  0  0  0
  -21.3671   -5.6799   24.9177 C   0  0  0  0  0  0
  -21.6057   -4.3062   24.7230 C   0  0  0  0  0  0
  -21.8823   -3.8151   23.4350 C   0  0  0  0  0  0
  -21.9200   -4.6969   22.3407 C   0  0  0  0  0  0
  -22.7738  -13.5158   21.1918 C   0  0  0  0  0  0
  -22.1660   -4.2154   21.0978 F   0  0  0  0  0  0
  -21.5635   -3.4539   25.7737 F   0  0  0  0  0  0
  -29.7404  -14.3974   20.2091 N   0  0  0  0  0  0
  -26.2797  -12.9644   20.3270 N   0  0  0  0  0  0
  -25.9386  -11.6700   20.5682 N   0  0  0  0  0  0
  -22.0404  -12.8133   22.0480 N   0  0  0  0  0  0
  -25.3971  -15.2037   20.4275 N   0  0  0  0  0  0
  -31.5314  -15.6157   20.2455 O   0  0  0  0  0  0
  -21.6663   -6.8886   21.4240 O   0  0  0  0  0  0
  -22.3392  -14.5444   20.6738 O   0  0  0  0  0  0
  -24.6942  -31.7876   23.1428 C   0  0  0  0  0  0
  -25.9478  -32.4411   23.8003 C   0  0  1  0  0  0
  -27.2213  -26.6028   20.2219 C   0  0  0  0  0  0
  -25.6014  -33.8236   24.1896 N   0  0  0  0  0  0
  -23.5242  -30.3878   21.4986 C   0  0  2  0  0  0
  -24.9782  -28.7033   20.1280 C   0  0  0  0  0  0
  -22.7811  -29.4267   22.4677 C   0  0  0  0  0  0
  -18.0334  -28.1438   22.8442 C   0  0  0  0  0  0
  -24.1490  -36.7130   23.2657 C   0  0  0  0  0  0
  -26.1106  -30.4894   21.4197 C   0  0  0  0  0  0
  -26.1729  -29.0421   20.7737 C   0  0  0  0  0  0
  -27.2794  -28.0254   20.7777 C   0  0  0  0  0  0
  -25.9892  -26.4975   19.5233 C   0  0  0  0  0  0
  -24.9308  -27.4583   19.4763 C   0  0  0  0  0  0
  -23.7843  -29.6745   20.1396 C   0  0  0  0  0  0
  -25.4141  -36.2865   24.0285 C   0  0  1  0  0  0
  -20.5982  -28.3803   23.1112 C   0  0  2  0  0  0
  -20.6797  -26.9449   22.5395 C   0  0  0  0  0  0
  -19.5774  -26.6372   21.5211 C   0  0  0  0  0  0
  -18.1962  -26.7961   22.1621 C   0  0  0  0  0  0
  -19.1609  -28.8939   23.2765 C   0  0  0  0  0  0
  -18.9523  -30.1516   23.8824 C   0  0  0  0  0  0
  -17.6519  -30.6616   24.0540 C   0  0  0  0  0  0
  -25.9128  -34.9255   23.4930 C   0  0  0  0  0  0
  -16.5401  -29.9097   23.6358 C   0  0  0  0  0  0
  -16.7315  -28.6516   23.0370 C   0  0  0  0  0  0
  -26.4611  -31.6493   25.0671 C   0  0  0  0  0  0
  -25.3657  -31.3845   26.1277 C   0  0  0  0  0  0
  -27.0535  -30.2817   24.6643 C   0  0  0  0  0  0
  -27.6039  -32.4371   25.7495 C   0  0  0  0  0  0
  -27.5557  -37.1729   24.8465 C   0  0  0  0  0  0
  -21.4448  -29.3040   22.3428 N   0  0  0  0  0  0
  -26.4254  -37.3649   23.9418 N   0  0  0  0  0  0
  -24.8018  -30.9231   22.0732 N   0  0  0  0  0  0
  -23.4214  -28.7869   23.3052 O   0  0  0  0  0  0
  -28.1861  -25.3528   20.2172 O   0  0  0  0  0  0
  -26.5767  -34.8845   22.4549 O   0  0  0  0  0  0
  -23.5945  -32.0967   23.6345 O   0  0  0  0  0  0
  -30.1528  -20.2138   17.6190 C   0  0  0  0  0  0
  -29.8933  -21.5668   17.4311 C   0  0  0  0  0  0
  -29.8004  -19.5790   18.8055 C   0  0  0  0  0  0
  -29.1847  -20.3189   19.8671 C   0  0  0  0  0  0
  -29.2720  -22.3971   18.3887 C   0  0  0  0  0  0
  -28.8528  -21.9839   19.7060 C   0  0  0  0  0  0
  -30.1204  -18.0104   18.9091 C   0  0  0  0  0  0
  -29.1964  -18.7657   20.7581 C   0  0  0  0  0  0
  -29.0399  -23.8142   17.8659 C   0  0  0  0  0  0
  -27.9520  -23.3794   21.9384 C   0  0  0  0  0  0
  -28.0472  -23.5561   20.4204 C   0  0  1  0  0  0
  -29.6440  -17.2178   20.0954 N   0  0  0  0  0  0
  -31.3866  -13.4660   19.1221 H   0  0  0  0  0  0
  -30.6057  -12.3762   20.2144 H   0  0  0  0  0  0
  -30.0278  -11.8288   17.8351 H   0  0  0  0  0  0
  -29.4859  -13.4676   17.5704 H   0  0  0  0  0  0
  -28.1878  -11.3110   19.2409 H   0  0  0  0  0  0
  -27.4636  -12.2032   17.9256 H   0  0  0  0  0  0
  -27.4252  -14.2150   19.2037 H   0  0  0  0  0  0
  -28.9078  -12.8868   21.5196 H   0  0  0  0  0  0
  -28.1416  -14.4568   21.5744 H   0  0  0  0  0  0
  -25.2809   -9.5698   22.4752 H   0  0  0  0  0  0
  -24.0057   -7.4644   22.7457 H   0  0  0  0  0  0
  -21.0896   -8.8762   19.8929 H   0  0  0  0  0  0
  -22.3735  -10.9667   19.6156 H   0  0  0  0  0  0
  -21.1998   -7.6149   23.9723 H   0  0  0  0  0  0
  -21.1497   -6.0523   25.9088 H   0  0  0  0  0  0
  -22.0589   -2.7609   23.2851 H   0  0  0  0  0  0
  -22.4050  -11.9824   22.4903 H   0  0  0  0  0  0
  -21.0990  -13.1078   22.2632 H   0  0  0  0  0  0
  -24.6335  -15.8583   20.5511 H   0  0  0  0  0  0
  -26.2528  -15.6452   20.1134 H   0  0  0  0  0  0
  -26.7560  -32.4853   23.0710 H   0  0  0  0  0  0
  -25.0078  -33.9250   24.9992 H   0  0  0  0  0  0
  -22.8583  -31.2294   21.2973 H   0  0  0  0  0  0
  -23.3774  -35.9439   23.3263 H   0  0  0  0  0  0
  -24.3551  -36.8841   22.2079 H   0  0  0  0  0  0
  -23.7210  -37.6283   23.6761 H   0  0  0  0  0  0
  -26.3197  -31.2078   20.6259 H   0  0  0  0  0  0
  -26.9609  -30.5650   22.0852 H   0  0  0  0  0  0
  -28.1884  -28.3028   21.2949 H   0  0  0  0  0  0
  -25.8088  -25.5625   19.0124 H   0  0  0  0  0  0
  -24.0355  -27.1931   18.9314 H   0  0  0  0  0  0
  -23.9758  -30.4264   19.3726 H   0  0  0  0  0  0
  -22.8876  -29.1480   19.8092 H   0  0  0  0  0  0
  -25.1358  -36.1613   25.0777 H   0  0  0  0  0  0
  -21.0063  -28.3422   24.1240 H   0  0  0  0  0  0
  -20.5630  -26.2438   23.3668 H   0  0  0  0  0  0
  -21.6661  -26.7354   22.1231 H   0  0  0  0  0  0
  -19.6926  -25.6255   21.1304 H   0  0  0  0  0  0
  -19.6726  -27.3120   20.6687 H   0  0  0  0  0  0
  -17.4229  -26.6684   21.4029 H   0  0  0  0  0  0
  -18.0362  -26.0125   22.9039 H   0  0  0  0  0  0
  -19.8002  -30.7334   24.2191 H   0  0  0  0  0  0
  -17.5070  -31.6294   24.5143 H   0  0  0  0  0  0
  -15.5402  -30.2981   23.7723 H   0  0  0  0  0  0
  -15.8714  -28.0800   22.7154 H   0  0  0  0  0  0
  -24.5815  -30.7246   25.7543 H   0  0  0  0  0  0
  -24.8890  -32.3091   26.4550 H   0  0  0  0  0  0
  -25.7801  -30.9052   27.0161 H   0  0  0  0  0  0
  -26.3254  -29.6422   24.1653 H   0  0  0  0  0  0
  -27.3924  -29.7284   25.5412 H   0  0  0  0  0  0
  -27.9253  -30.3898   24.0191 H   0  0  0  0  0  0
  -27.2562  -33.3732   26.1883 H   0  0  0  0  0  0
  -28.3958  -32.6862   25.0416 H   0  0  0  0  0  0
  -28.0612  -31.8646   26.5581 H   0  0  0  0  0  0
  -28.2552  -38.0048   24.7529 H   0  0  0  0  0  0
  -28.1085  -36.2579   24.6282 H   0  0  0  0  0  0
  -27.2290  -37.1348   25.8872 H   0  0  0  0  0  0
  -20.9781  -29.8713   21.6488 H   0  0  0  0  0  0
  -26.0077  -38.2693   24.1451 H   0  0  0  0  0  0
  -30.6185  -19.6513   16.8194 H   0  0  0  0  0  0
  -30.1772  -21.9769   16.4714 H   0  0  0  0  0  0
  -31.2054  -17.9032   18.8400 H   0  0  0  0  0  0
  -29.7236  -17.5301   18.0124 H   0  0  0  0  0  0
  -28.2031  -18.6487   21.1942 H   0  0  0  0  0  0
  -29.8574  -18.9246   21.6110 H   0  0  0  0  0  0
  -29.3497  -23.9289   16.8264 H   0  0  0  0  0  0
  -29.6234  -24.5415   18.4287 H   0  0  0  0  0  0
  -27.9813  -24.0814   17.8881 H   0  0  0  0  0  0
  -27.5614  -22.3918   22.1846 H   0  0  0  0  0  0
  -27.2818  -24.1169   22.3836 H   0  0  0  0  0  0
  -28.9270  -23.4783   22.4146 H   0  0  0  0  0  0
  -27.0249  -23.4154   20.0656 H   0  0  0  0  0  0
  1 25  1  0  0  0
  1 30  2  0  0  0
  1 82  1  0  0  0
  2  3  1  0  0  0
  2 25  1  0  0  0
  2 83  1  0  0  0
  2 84  1  0  0  0
  3  4  1  0  0  0
  3 85  1  0  0  0
  3 86  1  0  0  0
  4  5  1  0  0  0
  4 87  1  0  0  0
  4 88  1  0  0  0
  5  6  1  0  0  0
  5 26  1  0  0  0
  5 89  1  0  0  0
  6 25  1  0  0  0
  6 90  1  0  0  0
  6 91  1  0  0  0
  7  8  2  0  0  0
  7 26  1  0  0  0
  7 29  1  0  0  0
  8  9  1  0  0  0
  8 22  1  0  0  0
  9 10  1  0  0  0
  9 27  2  0  0  0
 10 11  2  0  0  0
 10 15  1  0  0  0
 11 12  1  0  0  0
 11 92  1  0  0  0
 12 13  2  0  0  0
 12 93  1  0  0  0
 13 14  1  0  0  0
 13 31  1  0  0  0
 14 15  2  0  0  0
 14 94  1  0  0  0
 15 95  1  0  0  0
 16 17  2  0  0  0
 16 21  1  0  0  0
 16 31  1  0  0  0
 17 18  1  0  0  0
 17 96  1  0  0  0
 18 19  2  0  0  0
 18 97  1  0  0  0
 19 20  1  0  0  0
 19 24  1  0  0  0
 20 21  2  0  0  0
 20 98  1  0  0  0
 21 23  1  0  0  0
 22 28  1  0  0  0
 22 32  2  0  0  0
 26 27  1  0  0  0
 28 99  1  0  0  0
 28100  1  0  0  0
 29101  1  0  0  0
 29102  1  0  0  0
 33 34  1  0  0  0
 33 66  1  0  0  0
 33 70  2  0  0  0
 34 36  1  0  0  0
 34 59  1  0  0  0
 34103  1  0  0  0
 35 44  2  0  0  0
 35 45  1  0  0  0
 35 68  1  0  0  0
 36 56  1  0  0  0
 36104  1  0  0  0
 37 39  1  0  0  0
 37 47  1  0  0  0
 37 66  1  0  0  0
 37105  1  0  0  0
 38 43  2  0  0  0
 38 46  1  0  0  0
 38 47  1  0  0  0
 39 64  1  0  0  0
 39 67  2  0  0  0
 40 52  1  0  0  0
 40 53  2  0  0  0
 40 58  1  0  0  0
 41106  1  0  0  0
 41107  1  0  0  0
 41108  1  0  0  0
 41 48  1  0  0  0
 42 43  1  0  0  0
 42 66  1  0  0  0
 42109  1  0  0  0
 42110  1  0  0  0
 43 44  1  0  0  0
 44111  1  0  0  0
 45 46  2  0  0  0
 45112  1  0  0  0
 46113  1  0  0  0
 47114  1  0  0  0
 47115  1  0  0  0
 48 56  1  0  0  0
 48 65  1  0  0  0
 48116  1  0  0  0
 49 50  1  0  0  0
 49 53  1  0  0  0
 49 64  1  0  0  0
 49117  1  0  0  0
 50 51  1  0  0  0
 50118  1  0  0  0
 50119  1  0  0  0
 51 52  1  0  0  0
 51120  1  0  0  0
 51121  1  0  0  0
 52122  1  0  0  0
 52123  1  0  0  0
 53 54  1  0  0  0
 54 55  2  0  0  0
 54124  1  0  0  0
 55 57  1  0  0  0
 55125  1  0  0  0
 56 69  2  0  0  0
 57 58  2  0  0  0
 57126  1  0  0  0
 58127  1  0  0  0
 59 60  1  0  0  0
 59 61  1  0  0  0
 59 62  1  0  0  0
 60128  1  0  0  0
 60129  1  0  0  0
 60130  1  0  0  0
 61131  1  0  0  0
 61132  1  0  0  0
 61133  1  0  0  0
 62134  1  0  0  0
 62135  1  0  0  0
 62136  1  0  0  0
 63 65  1  0  0  0
 63137  1  0  0  0
 63138  1  0  0  0
 63139  1  0  0  0
 64140  1  0  0  0
 65141  1  0  0  0
 68 81  1  0  0  0
 71 72  2  0  0  0
 71 73  1  0  0  0
 71142  1  0  0  0
 72 75  1  0  0  0
 72143  1  0  0  0
 73 74  2  0  0  0
 73 77  1  0  0  0
 74 76  1  0  0  0
 74 78  1  0  0  0
 75 76  2  0  0  0
 75 79  1  0  0  0
 76 81  1  0  0  0
 77 82  1  0  0  0
 77144  1  0  0  0
 77145  1  0  0  0
 78 82  1  0  0  0
 78146  1  0  0  0
 78147  1  0  0  0
 79148  1  0  0  0
 79149  1  0  0  0
 79150  1  0  0  0
 80151  1  0  0  0
 80152  1  0  0  0
 80153  1  0  0  0
 80 81  1  0  0  0
 81154  1  0  0  0
M  ISO  4   1 100  68 101  81 101  82 100
M  END
> <chiral flag>
0

> <version>
0

> <s_m_source_file>
/data/baiqing/PycharmProjects/Reinvent-master-3.2/result/LINK_invent/BTK/process_docking_weight1_custom_sum_contain_oxygen_bond_distance_aromatic_linkinvent_7_9_3/rearranged_h_0174.sdf

> <i_m_source_file_index>
7

> <r_mmod_Potential_Energy-OPLS-2005>
3152.17895507812

> <r_mmod_Stretch_Energy-OPLS-2005>
1253.62316894531

> <r_mmod_Bend_Energy-OPLS-2005>
883.802185058594

> <r_mmod_Torsional_Energy-OPLS-2005>
288.483581542969

> <r_mmod_Improper_Torsional_Energy-OPLS-2005>
19.0517444610596

> <r_mmod_Van_der_Waal_Energy-OPLS-2005>
131.382797241211

> <r_mmod_Electrostatic_Energy-OPLS-2005>
-323.244659423828

> <r_mmod_Solvation_Energy-OPLS-2005>
-202.754287719727

> <b_mmod_Minimization_Converged-OPLS-2005>
0

> <r_mmod_RMS_Derivative-OPLS-2005>
2.69699358940125

$$$$
7
                    3D
 Structure written by MMmdl.
160169  0  0  1  0            999 V2000
  -30.6403  -14.6435   20.4862 C   0  0  0  0  0  0
  -30.4279  -12.3988   19.4610 C   0  0  0  0  0  0
  -29.5086  -12.5087   18.2253 C   0  0  0  0  0  0
  -28.0315  -12.3419   18.6320 C   0  0  0  0  0  0
  -27.6451  -13.2218   19.8530 C   0  0  2  0  0  0
  -28.6863  -13.1124   20.9881 C   0  0  0  0  0  0
  -25.2520  -13.8177   20.5690 C   0  0  0  0  0  0
  -24.1786  -13.0434   20.9192 C   0  0  0  0  0  0
  -24.6385  -11.6915   20.8750 C   0  0  0  0  0  0
  -23.9059  -10.4279   21.0410 C   0  0  0  0  0  0
  -24.3609   -9.4205   21.9203 C   0  0  0  0  0  0
  -23.6292   -8.2232   22.0769 C   0  0  0  0  0  0
  -22.4287   -8.0276   21.3544 C   0  0  0  0  0  0
  -21.9908   -9.0235   20.4638 C   0  0  0  0  0  0
  -22.7232  -10.2120   20.3056 C   0  0  0  0  0  0
  -21.6851   -6.0725   22.5282 C   0  0  0  0  0  0
  -21.3997   -6.5639   23.8211 C   0  0  0  0  0  0
  -21.3663   -5.6803   24.9181 C   0  0  0  0  0  0
  -21.6049   -4.3062   24.7231 C   0  0  0  0  0  0
  -21.8825   -3.8149   23.4353 C   0  0  0  0  0  0
  -21.9187   -4.6952   22.3402 C   0  0  0  0  0  0
  -22.7805  -13.5226   21.1845 C   0  0  0  0  0  0
  -22.1670   -4.2155   21.0972 F   0  0  0  0  0  0
  -21.5636   -3.4544   25.7738 F   0  0  0  0  0  0
  -29.9972  -13.4387   20.4135 N   0  0  0  0  0  0
  -26.2933  -12.9360   20.3241 N   0  0  0  0  0  0
  -25.9313  -11.6522   20.5737 N   0  0  0  0  0  0
  -22.0460  -12.8208   22.0407 N   0  0  0  0  0  0
  -25.4218  -15.1889   20.4092 N   0  0  0  0  0  0
  -31.8337  -14.7456   20.1899 O   0  0  0  0  0  0
  -21.6639   -6.8879   21.4258 O   0  0  0  0  0  0
  -22.3519  -14.5545   20.6734 O   0  0  0  0  0  0
  -24.6321  -31.8585   23.2026 C   0  0  0  0  0  0
  -25.9137  -32.4776   23.8355 C   0  0  1  0  0  0
  -27.2176  -27.2888   20.1004 C   0  0  0  0  0  0
  -25.5938  -33.8573   24.2269 N   0  0  0  0  0  0
  -23.4230  -30.4864   21.5474 C   0  0  2  0  0  0
  -24.8643  -28.9380   20.1106 C   0  0  0  0  0  0
  -22.7450  -29.4668   22.4940 C   0  0  0  0  0  0
  -18.0279  -28.1403   22.8500 C   0  0  0  0  0  0
  -24.1485  -36.7265   23.2634 C   0  0  0  0  0  0
  -25.9672  -30.7812   21.3708 C   0  0  0  0  0  0
  -26.0394  -29.4059   20.7116 C   0  0  0  0  0  0
  -27.2145  -28.5910   20.7009 C   0  0  0  0  0  0
  -26.0038  -26.8740   19.5061 C   0  0  0  0  0  0
  -24.8509  -27.6779   19.5018 C   0  0  0  0  0  0
  -23.6356  -29.8222   20.1624 C   0  0  0  0  0  0
  -25.4107  -36.3075   24.0331 C   0  0  1  0  0  0
  -20.5877  -28.3748   23.1287 C   0  0  2  0  0  0
  -20.6769  -26.9477   22.5426 C   0  0  0  0  0  0
  -19.5756  -26.6423   21.5219 C   0  0  0  0  0  0
  -18.1929  -26.7949   22.1623 C   0  0  0  0  0  0
  -19.1530  -28.8885   23.2883 C   0  0  0  0  0  0
  -18.9443  -30.1455   23.8941 C   0  0  0  0  0  0
  -17.6446  -30.6602   24.0594 C   0  0  0  0  0  0
  -25.9074  -34.9456   23.5105 C   0  0  0  0  0  0
  -16.5338  -29.9122   23.6337 C   0  0  0  0  0  0
  -16.7256  -28.6525   23.0394 C   0  0  0  0  0  0
  -26.4491  -31.6568   25.0733 C   0  0  0  0  0  0
  -25.3698  -31.3663   26.1433 C   0  0  0  0  0  0
  -27.0312  -30.2991   24.6171 C   0  0  0  0  0  0
  -27.6095  -32.4233   25.7494 C   0  0  0  0  0  0
  -27.5570  -37.1773   24.8452 C   0  0  0  0  0  0
  -21.4166  -29.3108   22.3670 N   0  0  0  0  0  0
  -26.4269  -37.3791   23.9428 N   0  0  0  0  0  0
  -24.6939  -31.0592   22.0972 N   0  0  0  0  0  0
  -23.4145  -28.8207   23.3026 O   0  0  0  0  0  0
  -28.3328  -26.4243   20.1647 O   0  0  0  0  0  0
  -26.5654  -34.8928   22.4668 O   0  0  0  0  0  0
  -23.5480  -32.1413   23.7351 O   0  0  0  0  0  0
  -30.1126  -23.2144   19.5486 C   0  0  0  0  0  0
  -28.8359  -23.7797   19.8100 C   0  0  0  0  0  0
  -28.1401  -21.5793   20.3845 C   0  0  0  0  0  0
  -29.4306  -21.0064   20.0943 C   0  0  0  0  0  0
  -29.1574  -18.3427   20.5214 C   0  0  0  0  0  0
  -31.1753  -19.2461   19.6521 C   0  0  0  0  0  0
  -30.2702  -17.2322   20.7459 C   0  0  2  0  0  0
  -31.3058  -17.7047   19.7078 C   0  0  2  0  0  0
  -26.9627  -20.7374   20.8334 C   0  0  0  0  0  0
  -28.4617  -25.2300   19.2829 C   0  0  0  0  0  0
  -30.3949  -21.8826   19.6943 N   0  0  0  0  0  0
  -27.8582  -22.9265   20.2444 N   0  0  0  0  0  0
  -29.8465  -19.6124   20.1437 N   0  0  0  0  0  0
  -29.8732  -15.7672   20.6748 N   0  0  0  0  0  0
  -32.6799  -17.2712   19.9987 N   0  3  0  0  0  0
  -31.4722  -12.5130   19.1659 H   0  0  0  0  0  0
  -30.3472  -11.4094   19.9166 H   0  0  0  0  0  0
  -29.7814  -11.7611   17.4795 H   0  0  0  0  0  0
  -29.6496  -13.4809   17.7487 H   0  0  0  0  0  0
  -27.8753  -11.2900   18.8701 H   0  0  0  0  0  0
  -27.3807  -12.5628   17.7857 H   0  0  0  0  0  0
  -27.6524  -14.2523   19.4980 H   0  0  0  0  0  0
  -28.6932  -12.1052   21.4091 H   0  0  0  0  0  0
  -28.4326  -13.7805   21.8118 H   0  0  0  0  0  0
  -25.2755   -9.5673   22.4762 H   0  0  0  0  0  0
  -24.0008   -7.4630   22.7503 H   0  0  0  0  0  0
  -21.0852   -8.8736   19.8930 H   0  0  0  0  0  0
  -22.3702  -10.9653   19.6144 H   0  0  0  0  0  0
  -21.1986   -7.6150   23.9718 H   0  0  0  0  0  0
  -21.1491   -6.0531   25.9089 H   0  0  0  0  0  0
  -22.0596   -2.7614   23.2859 H   0  0  0  0  0  0
  -22.4102  -11.9864   22.4750 H   0  0  0  0  0  0
  -21.1077  -13.1228   22.2626 H   0  0  0  0  0  0
  -24.6454  -15.8353   20.4931 H   0  0  0  0  0  0
  -26.2623  -15.6265   20.0559 H   0  0  0  0  0  0
  -26.7206  -32.5443   23.1106 H   0  0  0  0  0  0
  -25.0064  -33.9725   25.0401 H   0  0  0  0  0  0
  -22.7195  -31.3099   21.4041 H   0  0  0  0  0  0
  -23.3801  -35.9544   23.3241 H   0  0  0  0  0  0
  -24.3565  -36.8952   22.2057 H   0  0  0  0  0  0
  -23.7178  -37.6417   23.6706 H   0  0  0  0  0  0
  -26.0889  -31.5401   20.5968 H   0  0  0  0  0  0
  -26.8512  -30.8407   21.9930 H   0  0  0  0  0  0
  -28.1136  -28.9476   21.1822 H   0  0  0  0  0  0
  -25.8751  -25.8965   19.0721 H   0  0  0  0  0  0
  -23.9438  -27.3046   19.0489 H   0  0  0  0  0  0
  -23.7511  -30.5989   19.4057 H   0  0  0  0  0  0
  -22.7534  -29.2556   19.8618 H   0  0  0  0  0  0
  -25.1279  -36.1921   25.0828 H   0  0  0  0  0  0
  -20.9942  -28.3363   24.1421 H   0  0  0  0  0  0
  -20.5708  -26.2372   23.3630 H   0  0  0  0  0  0
  -21.6647  -26.7543   22.1222 H   0  0  0  0  0  0
  -19.6959  -25.6334   21.1256 H   0  0  0  0  0  0
  -19.6691  -27.3235   20.6741 H   0  0  0  0  0  0
  -17.4201  -26.6705   21.4018 H   0  0  0  0  0  0
  -18.0333  -26.0077   22.9007 H   0  0  0  0  0  0
  -19.7904  -30.7239   24.2382 H   0  0  0  0  0  0
  -17.5011  -31.6297   24.5171 H   0  0  0  0  0  0
  -15.5350  -30.3060   23.7617 H   0  0  0  0  0  0
  -15.8638  -28.0829   22.7165 H   0  0  0  0  0  0
  -24.5940  -30.6949   25.7702 H   0  0  0  0  0  0
  -24.8826  -32.2828   26.4795 H   0  0  0  0  0  0
  -25.8031  -30.8866   27.0227 H   0  0  0  0  0  0
  -26.2873  -29.6742   24.1229 H   0  0  0  0  0  0
  -27.4030  -29.7226   25.4643 H   0  0  0  0  0  0
  -27.8735  -30.4237   23.9362 H   0  0  0  0  0  0
  -27.2796  -33.3569   26.2041 H   0  0  0  0  0  0
  -28.3947  -32.6684   25.0331 H   0  0  0  0  0  0
  -28.0711  -31.8340   26.5434 H   0  0  0  0  0  0
  -28.2552  -38.0110   24.7599 H   0  0  0  0  0  0
  -28.1109  -36.2655   24.6167 H   0  0  0  0  0  0
  -27.2301  -37.1270   25.8854 H   0  0  0  0  0  0
  -20.9333  -29.8816   21.6873 H   0  0  0  0  0  0
  -26.0151  -38.2845   24.1531 H   0  0  0  0  0  0
  -30.9023  -23.8144   19.1250 H   0  0  0  0  0  0
  -28.5536  -18.4420   21.4207 H   0  0  0  0  0  0
  -28.4978  -18.0550   19.7008 H   0  0  0  0  0  0
  -31.3178  -19.5935   18.6286 H   0  0  0  0  0  0
  -31.9338  -19.7323   20.2683 H   0  0  0  0  0  0
  -30.6771  -17.3970   21.7439 H   0  0  0  0  0  0
  -31.0211  -17.3002   18.7351 H   0  0  0  0  0  0
  -26.1314  -21.3617   21.1637 H   0  0  0  0  0  0
  -27.2356  -20.1088   21.6774 H   0  0  0  0  0  0
  -26.6052  -20.1070   20.0171 H   0  0  0  0  0  0
  -27.6326  -25.0909   18.5986 H   0  0  0  0  0  0
  -29.2678  -25.5084   18.6035 H   0  0  0  0  0  0
  -28.8974  -15.5772   20.8466 H   0  0  0  0  0  0
  -33.0132  -17.6543   20.8657 H   0  0  0  0  0  0
  -33.3060  -17.5315   19.2560 H   0  0  0  0  0  0
  -32.6596  -16.2574   20.0755 H   0  0  0  0  0  0
  1 25  1  0  0  0
  1 30  2  0  0  0
  1 84  1  0  0  0
  2  3  1  0  0  0
  2 25  1  0  0  0
  2 86  1  0  0  0
  2 87  1  0  0  0
  3  4  1  0  0  0
  3 88  1  0  0  0
  3 89  1  0  0  0
  4  5  1  0  0  0
  4 90  1  0  0  0
  4 91  1  0  0  0
  5  6  1  0  0  0
  5 26  1  0  0  0
  5 92  1  0  0  0
  6 25  1  0  0  0
  6 93  1  0  0  0
  6 94  1  0  0  0
  7  8  2  0  0  0
  7 26  1  0  0  0
  7 29  1  0  0  0
  8  9  1  0  0  0
  8 22  1  0  0  0
  9 10  1  0  0  0
  9 27  2  0  0  0
 10 11  2  0  0  0
 10 15  1  0  0  0
 11 12  1  0  0  0
 11 95  1  0  0  0
 12 13  2  0  0  0
 12 96  1  0  0  0
 13 14  1  0  0  0
 13 31  1  0  0  0
 14 15  2  0  0  0
 14 97  1  0  0  0
 15 98  1  0  0  0
 16 17  2  0  0  0
 16 21  1  0  0  0
 16 31  1  0  0  0
 17 18  1  0  0  0
 17 99  1  0  0  0
 18 19  2  0  0  0
 18100  1  0  0  0
 19 20  1  0  0  0
 19 24  1  0  0  0
 20 21  2  0  0  0
 20101  1  0  0  0
 21 23  1  0  0  0
 22 28  1  0  0  0
 22 32  2  0  0  0
 26 27  1  0  0  0
 28102  1  0  0  0
 28103  1  0  0  0
 29104  1  0  0  0
 29105  1  0  0  0
 33 34  1  0  0  0
 33 66  1  0  0  0
 33 70  2  0  0  0
 34 36  1  0  0  0
 34 59  1  0  0  0
 34106  1  0  0  0
 35 44  2  0  0  0
 35 45  1  0  0  0
 35 68  1  0  0  0
 36 56  1  0  0  0
 36107  1  0  0  0
 37 39  1  0  0  0
 37 47  1  0  0  0
 37 66  1  0  0  0
 37108  1  0  0  0
 38 43  2  0  0  0
 38 46  1  0  0  0
 38 47  1  0  0  0
 39 64  1  0  0  0
 39 67  2  0  0  0
 40 52  1  0  0  0
 40 53  2  0  0  0
 40 58  1  0  0  0
 41109  1  0  0  0
 41110  1  0  0  0
 41111  1  0  0  0
 41 48  1  0  0  0
 42 43  1  0  0  0
 42 66  1  0  0  0
 42112  1  0  0  0
 42113  1  0  0  0
 43 44  1  0  0  0
 44114  1  0  0  0
 45 46  2  0  0  0
 45115  1  0  0  0
 46116  1  0  0  0
 47117  1  0  0  0
 47118  1  0  0  0
 48 56  1  0  0  0
 48 65  1  0  0  0
 48119  1  0  0  0
 49 50  1  0  0  0
 49 53  1  0  0  0
 49 64  1  0  0  0
 49120  1  0  0  0
 50 51  1  0  0  0
 50121  1  0  0  0
 50122  1  0  0  0
 51 52  1  0  0  0
 51123  1  0  0  0
 51124  1  0  0  0
 52125  1  0  0  0
 52126  1  0  0  0
 53 54  1  0  0  0
 54 55  2  0  0  0
 54127  1  0  0  0
 55 57  1  0  0  0
 55128  1  0  0  0
 56 69  2  0  0  0
 57 58  2  0  0  0
 57129  1  0  0  0
 58130  1  0  0  0
 59 60  1  0  0  0
 59 61  1  0  0  0
 59 62  1  0  0  0
 60131  1  0  0  0
 60132  1  0  0  0
 60133  1  0  0  0
 61134  1  0  0  0
 61135  1  0  0  0
 61136  1  0  0  0
 62137  1  0  0  0
 62138  1  0  0  0
 62139  1  0  0  0
 63 65  1  0  0  0
 63140  1  0  0  0
 63141  1  0  0  0
 63142  1  0  0  0
 64143  1  0  0  0
 65144  1  0  0  0
 68 80  1  0  0  0
 71 72  2  0  0  0
 71 81  1  0  0  0
 71145  1  0  0  0
 72 80  1  0  0  0
 72 82  1  0  0  0
 73 74  1  0  0  0
 73 79  1  0  0  0
 73 82  2  0  0  0
 74 81  2  0  0  0
 74 83  1  0  0  0
 75 77  1  0  0  0
 75 83  1  0  0  0
 75146  1  0  0  0
 75147  1  0  0  0
 76 78  1  0  0  0
 76 83  1  0  0  0
 76148  1  0  0  0
 76149  1  0  0  0
 77 78  1  0  0  0
 77 84  1  0  0  0
 77150  1  0  0  0
 78 85  1  0  0  0
 78151  1  0  0  0
 79152  1  0  0  0
 79153  1  0  0  0
 79154  1  0  0  0
 80155  1  0  0  0
 80156  1  0  0  0
 84157  1  0  0  0
 85158  1  0  0  0
 85159  1  0  0  0
 85160  1  0  0  0
M  CHG  1  85   1
M  ISO  4   1 100  68 101  80 101  84 100
M  END
> <chiral flag>
0

> <version>
0

> <s_m_source_file>
/data/baiqing/PycharmProjects/Reinvent-master-3.2/result/LINK_invent/BTK/process_docking_weight1_custom_sum_contain_oxygen_bond_distance_aromatic_linkinvent_7_9_3/rearranged_h_0174.sdf

> <i_m_source_file_index>
8

> <r_mmod_Potential_Energy-OPLS-2005>
-126.812881469727

> <r_mmod_Stretch_Energy-OPLS-2005>
95.1015319824219

> <r_mmod_Bend_Energy-OPLS-2005>
225.188186645508

> <r_mmod_Torsional_Energy-OPLS-2005>
290.382232666016

> <r_mmod_Improper_Torsional_Energy-OPLS-2005>
7.70796298980713

> <r_mmod_Van_der_Waal_Energy-OPLS-2005>
164.148513793945

> <r_mmod_Electrostatic_Energy-OPLS-2005>
-493.288665771484

> <r_mmod_Solvation_Energy-OPLS-2005>
-474.663360595703

> <b_mmod_Minimization_Converged-OPLS-2005>
0

> <r_mmod_RMS_Derivative-OPLS-2005>
4.33707809448242

$$$$
9
                    3D
 Structure written by MMmdl.
161170  0  0  1  0            999 V2000
  -30.7570  -14.4664   20.5723 C   0  0  0  0  0  0
  -30.4019  -12.3089   19.4256 C   0  0  0  0  0  0
  -29.4880  -12.5036   18.2034 C   0  0  0  0  0  0
  -28.0121  -12.3645   18.6198 C   0  0  0  0  0  0
  -27.6566  -13.2161   19.8700 C   0  0  2  0  0  0
  -28.7022  -13.0401   20.9950 C   0  0  0  0  0  0
  -25.2575  -13.8189   20.5698 C   0  0  0  0  0  0
  -24.1825  -13.0445   20.9173 C   0  0  0  0  0  0
  -24.6404  -11.6922   20.8729 C   0  0  0  0  0  0
  -23.9068  -10.4304   21.0399 C   0  0  0  0  0  0
  -24.3613   -9.4221   21.9180 C   0  0  0  0  0  0
  -23.6289   -8.2251   22.0753 C   0  0  0  0  0  0
  -22.4270   -8.0298   21.3546 C   0  0  0  0  0  0
  -21.9908   -9.0274   20.4649 C   0  0  0  0  0  0
  -22.7232  -10.2159   20.3052 C   0  0  0  0  0  0
  -21.6869   -6.0745   22.5278 C   0  0  0  0  0  0
  -21.4034   -6.5639   23.8217 C   0  0  0  0  0  0
  -21.3643   -5.6784   24.9165 C   0  0  0  0  0  0
  -21.6031   -4.3052   24.7210 C   0  0  0  0  0  0
  -21.8818   -3.8151   23.4334 C   0  0  0  0  0  0
  -21.9197   -4.6972   22.3393 C   0  0  0  0  0  0
  -22.7858  -13.5251   21.1829 C   0  0  0  0  0  0
  -22.1670   -4.2158   21.0972 F   0  0  0  0  0  0
  -21.5615   -3.4531   25.7720 F   0  0  0  0  0  0
  -30.0297  -13.3217   20.4281 N   0  0  0  0  0  0
  -26.3018  -12.9377   20.3377 N   0  0  0  0  0  0
  -25.9340  -11.6531   20.5801 N   0  0  0  0  0  0
  -22.0507  -12.8259   22.0407 N   0  0  0  0  0  0
  -25.4281  -15.1918   20.4136 N   0  0  0  0  0  0
  -31.8803  -14.6035   20.0893 O   0  0  0  0  0  0
  -21.6646   -6.8891   21.4240 O   0  0  0  0  0  0
  -22.3552  -14.5560   20.6691 O   0  0  0  0  0  0
  -24.6155  -31.8677   23.2096 C   0  0  0  0  0  0
  -25.9050  -32.4826   23.8397 C   0  0  1  0  0  0
  -27.2330  -27.4105   20.0922 C   0  0  0  0  0  0
  -25.5912  -33.8624   24.2337 N   0  0  0  0  0  0
  -23.4053  -30.4895   21.5520 C   0  0  2  0  0  0
  -24.8494  -28.9490   20.1171 C   0  0  0  0  0  0
  -22.7416  -29.4657   22.5002 C   0  0  0  0  0  0
  -18.0274  -28.1378   22.8504 C   0  0  0  0  0  0
  -24.1487  -36.7298   23.2634 C   0  0  0  0  0  0
  -25.9360  -30.8219   21.3674 C   0  0  0  0  0  0
  -26.0103  -29.4548   20.7125 C   0  0  0  0  0  0
  -27.2023  -28.6921   20.6968 C   0  0  0  0  0  0
  -26.0477  -26.9238   19.4931 C   0  0  0  0  0  0
  -24.8618  -27.6832   19.5077 C   0  0  0  0  0  0
  -23.6140  -29.8197   20.1669 C   0  0  0  0  0  0
  -25.4110  -36.3117   24.0339 C   0  0  1  0  0  0
  -20.5859  -28.3665   23.1315 C   0  0  2  0  0  0
  -20.6764  -26.9409   22.5417 C   0  0  0  0  0  0
  -19.5742  -26.6389   21.5212 C   0  0  0  0  0  0
  -18.1926  -26.7928   22.1631 C   0  0  0  0  0  0
  -19.1518  -28.8837   23.2904 C   0  0  0  0  0  0
  -18.9447  -30.1443   23.8909 C   0  0  0  0  0  0
  -17.6449  -30.6585   24.0564 C   0  0  0  0  0  0
  -25.9034  -34.9474   23.5133 C   0  0  0  0  0  0
  -16.5340  -29.9086   23.6332 C   0  0  0  0  0  0
  -16.7257  -28.6504   23.0357 C   0  0  0  0  0  0
  -26.4469  -31.6618   25.0737 C   0  0  0  0  0  0
  -25.3721  -31.3726   26.1486 C   0  0  0  0  0  0
  -27.0300  -30.3058   24.6121 C   0  0  0  0  0  0
  -27.6059  -32.4333   25.7495 C   0  0  0  0  0  0
  -27.5584  -37.1802   24.8470 C   0  0  0  0  0  0
  -21.4138  -29.3038   22.3731 N   0  0  0  0  0  0
  -26.4299  -37.3797   23.9408 N   0  0  0  0  0  0
  -24.6708  -31.0741   22.1015 N   0  0  0  0  0  0
  -23.4179  -28.8196   23.3055 O   0  0  0  0  0  0
  -28.4184  -26.6946   20.1078 O   0  0  0  0  0  0
  -26.5588  -34.8937   22.4689 O   0  0  0  0  0  0
  -23.5346  -32.1450   23.7483 O   0  0  0  0  0  0
  -28.3156  -20.6123   19.9015 C   0  0  0  0  0  0
  -28.1180  -22.0056   19.7170 C   0  0  0  0  0  0
  -28.0657  -22.8577   20.8599 C   0  0  0  0  0  0
  -28.2037  -22.2224   22.1242 C   0  0  0  0  0  0
  -28.4028  -20.0897   21.2033 C   0  0  0  0  0  0
  -29.2122  -17.1198   19.6131 C   0  0  0  0  0  0
  -29.4354  -17.8478   20.9175 C   0  0  1  0  0  0
  -29.1777  -16.3390   20.9152 C   0  0  1  0  0  0
  -27.9067  -22.5160   18.3019 C   0  0  0  0  0  0
  -28.1329  -22.9809   23.4391 C   0  0  0  0  0  0
  -27.7515  -24.3822   20.8050 C   0  0  0  0  0  0
  -28.4512  -25.2933   19.7555 C   0  0  0  0  0  0
  -28.3569  -20.8883   22.2789 N   0  0  0  0  0  0
  -28.4240  -18.7206   21.5036 N   0  0  0  0  0  0
  -30.2573  -15.4744   21.3051 N   0  0  0  0  0  0
  -31.4515  -12.3674   19.1314 H   0  0  0  0  0  0
  -30.2690  -11.3072   19.8365 H   0  0  0  0  0  0
  -29.7310  -11.7716   17.4310 H   0  0  0  0  0  0
  -29.6606  -13.4867   17.7623 H   0  0  0  0  0  0
  -27.8259  -11.3098   18.8223 H   0  0  0  0  0  0
  -27.3586  -12.6311   17.7881 H   0  0  0  0  0  0
  -27.6884  -14.2557   19.5475 H   0  0  0  0  0  0
  -28.6787  -12.0236   21.3899 H   0  0  0  0  0  0
  -28.4710  -13.6884   21.8407 H   0  0  0  0  0  0
  -25.2763   -9.5708   22.4749 H   0  0  0  0  0  0
  -24.0000   -7.4646   22.7478 H   0  0  0  0  0  0
  -21.0840   -8.8799   19.8959 H   0  0  0  0  0  0
  -22.3693  -10.9696   19.6155 H   0  0  0  0  0  0
  -21.2064   -7.6153   23.9731 H   0  0  0  0  0  0
  -21.1444   -6.0510   25.9068 H   0  0  0  0  0  0
  -22.0611   -2.7621   23.2827 H   0  0  0  0  0  0
  -22.4137  -11.9908   22.4767 H   0  0  0  0  0  0
  -21.1135  -13.1315   22.2612 H   0  0  0  0  0  0
  -24.6734  -15.8525   20.5573 H   0  0  0  0  0  0
  -26.2851  -15.6388   20.1126 H   0  0  0  0  0  0
  -26.7112  -32.5518   23.1150 H   0  0  0  0  0  0
  -25.0097  -33.9799   25.0508 H   0  0  0  0  0  0
  -22.6948  -31.3053   21.4106 H   0  0  0  0  0  0
  -23.3763  -35.9620   23.3320 H   0  0  0  0  0  0
  -24.3572  -36.8889   22.2043 H   0  0  0  0  0  0
  -23.7236  -37.6502   23.6634 H   0  0  0  0  0  0
  -26.0530  -31.5871   20.5995 H   0  0  0  0  0  0
  -26.8215  -30.8718   21.9894 H   0  0  0  0  0  0
  -28.1002  -29.0794   21.1571 H   0  0  0  0  0  0
  -26.0159  -25.9594   19.0092 H   0  0  0  0  0  0
  -23.9673  -27.2857   19.0489 H   0  0  0  0  0  0
  -23.7261  -30.5919   19.4061 H   0  0  0  0  0  0
  -22.7384  -29.2386   19.8721 H   0  0  0  0  0  0
  -25.1291  -36.1976   25.0830 H   0  0  0  0  0  0
  -20.9940  -28.3212   24.1439 H   0  0  0  0  0  0
  -20.5670  -26.2270   23.3597 H   0  0  0  0  0  0
  -21.6632  -26.7454   22.1202 H   0  0  0  0  0  0
  -19.6905  -25.6303   21.1247 H   0  0  0  0  0  0
  -19.6689  -27.3197   20.6738 H   0  0  0  0  0  0
  -17.4193  -26.6683   21.4034 H   0  0  0  0  0  0
  -18.0316  -26.0064   22.9019 H   0  0  0  0  0  0
  -19.7920  -30.7253   24.2277 H   0  0  0  0  0  0
  -17.5004  -31.6265   24.5158 H   0  0  0  0  0  0
  -15.5340  -30.2995   23.7642 H   0  0  0  0  0  0
  -15.8657  -28.0830   22.7065 H   0  0  0  0  0  0
  -24.5901  -30.7074   25.7810 H   0  0  0  0  0  0
  -24.8907  -32.2880   26.4929 H   0  0  0  0  0  0
  -25.8066  -30.8894   27.0246 H   0  0  0  0  0  0
  -26.2849  -29.6831   24.1159 H   0  0  0  0  0  0
  -27.4042  -29.7297   25.4591 H   0  0  0  0  0  0
  -27.8706  -30.4391   23.9308 H   0  0  0  0  0  0
  -27.2698  -33.3632   26.2097 H   0  0  0  0  0  0
  -28.3850  -32.6882   25.0298 H   0  0  0  0  0  0
  -28.0746  -31.8435   26.5384 H   0  0  0  0  0  0
  -28.2611  -38.0088   24.7516 H   0  0  0  0  0  0
  -28.1075  -36.2620   24.6312 H   0  0  0  0  0  0
  -27.2301  -37.1476   25.8873 H   0  0  0  0  0  0
  -20.9293  -29.8767   21.6964 H   0  0  0  0  0  0
  -26.0194  -38.2875   24.1414 H   0  0  0  0  0  0
  -28.3251  -19.9441   19.0510 H   0  0  0  0  0  0
  -30.0730  -16.9887   18.9584 H   0  0  0  0  0  0
  -28.2669  -17.2846   19.0999 H   0  0  0  0  0  0
  -30.4420  -18.2037   21.1386 H   0  0  0  0  0  0
  -28.1894  -16.0247   21.2452 H   0  0  0  0  0  0
  -27.6993  -21.6966   17.6113 H   0  0  0  0  0  0
  -28.8004  -23.0264   17.9442 H   0  0  0  0  0  0
  -27.0555  -23.1945   18.2493 H   0  0  0  0  0  0
  -28.2409  -22.3150   24.2966 H   0  0  0  0  0  0
  -27.1732  -23.4872   23.5425 H   0  0  0  0  0  0
  -28.9323  -23.7191   23.5052 H   0  0  0  0  0  0
  -28.0070  -24.8330   21.7610 H   0  0  0  0  0  0
  -26.6699  -24.4894   20.7293 H   0  0  0  0  0  0
  -28.0680  -25.1555   18.7451 H   0  0  0  0  0  0
  -29.5066  -25.0227   19.7159 H   0  0  0  0  0  0
  -28.3095  -18.5606   22.4977 H   0  0  0  0  0  0
  -31.0057  -16.0093   21.7233 H   0  0  0  0  0  0
  1 25  1  0  0  0
  1 30  2  0  0  0
  1 85  1  0  0  0
  2  3  1  0  0  0
  2 25  1  0  0  0
  2 86  1  0  0  0
  2 87  1  0  0  0
  3  4  1  0  0  0
  3 88  1  0  0  0
  3 89  1  0  0  0
  4  5  1  0  0  0
  4 90  1  0  0  0
  4 91  1  0  0  0
  5  6  1  0  0  0
  5 26  1  0  0  0
  5 92  1  0  0  0
  6 25  1  0  0  0
  6 93  1  0  0  0
  6 94  1  0  0  0
  7  8  2  0  0  0
  7 26  1  0  0  0
  7 29  1  0  0  0
  8  9  1  0  0  0
  8 22  1  0  0  0
  9 10  1  0  0  0
  9 27  2  0  0  0
 10 11  2  0  0  0
 10 15  1  0  0  0
 11 12  1  0  0  0
 11 95  1  0  0  0
 12 13  2  0  0  0
 12 96  1  0  0  0
 13 14  1  0  0  0
 13 31  1  0  0  0
 14 15  2  0  0  0
 14 97  1  0  0  0
 15 98  1  0  0  0
 16 17  2  0  0  0
 16 21  1  0  0  0
 16 31  1  0  0  0
 17 18  1  0  0  0
 17 99  1  0  0  0
 18 19  2  0  0  0
 18100  1  0  0  0
 19 20  1  0  0  0
 19 24  1  0  0  0
 20 21  2  0  0  0
 20101  1  0  0  0
 21 23  1  0  0  0
 22 28  1  0  0  0
 22 32  2  0  0  0
 26 27  1  0  0  0
 28102  1  0  0  0
 28103  1  0  0  0
 29104  1  0  0  0
 29105  1  0  0  0
 33 34  1  0  0  0
 33 66  1  0  0  0
 33 70  2  0  0  0
 34 36  1  0  0  0
 34 59  1  0  0  0
 34106  1  0  0  0
 35 44  2  0  0  0
 35 45  1  0  0  0
 35 68  1  0  0  0
 36 56  1  0  0  0
 36107  1  0  0  0
 37 39  1  0  0  0
 37 47  1  0  0  0
 37 66  1  0  0  0
 37108  1  0  0  0
 38 43  2  0  0  0
 38 46  1  0  0  0
 38 47  1  0  0  0
 39 64  1  0  0  0
 39 67  2  0  0  0
 40 52  1  0  0  0
 40 53  2  0  0  0
 40 58  1  0  0  0
 41109  1  0  0  0
 41110  1  0  0  0
 41111  1  0  0  0
 41 48  1  0  0  0
 42 43  1  0  0  0
 42 66  1  0  0  0
 42112  1  0  0  0
 42113  1  0  0  0
 43 44  1  0  0  0
 44114  1  0  0  0
 45 46  2  0  0  0
 45115  1  0  0  0
 46116  1  0  0  0
 47117  1  0  0  0
 47118  1  0  0  0
 48 56  1  0  0  0
 48 65  1  0  0  0
 48119  1  0  0  0
 49 50  1  0  0  0
 49 53  1  0  0  0
 49 64  1  0  0  0
 49120  1  0  0  0
 50 51  1  0  0  0
 50121  1  0  0  0
 50122  1  0  0  0
 51 52  1  0  0  0
 51123  1  0  0  0
 51124  1  0  0  0
 52125  1  0  0  0
 52126  1  0  0  0
 53 54  1  0  0  0
 54 55  2  0  0  0
 54127  1  0  0  0
 55 57  1  0  0  0
 55128  1  0  0  0
 56 69  2  0  0  0
 57 58  2  0  0  0
 57129  1  0  0  0
 58130  1  0  0  0
 59 60  1  0  0  0
 59 61  1  0  0  0
 59 62  1  0  0  0
 60131  1  0  0  0
 60132  1  0  0  0
 60133  1  0  0  0
 61134  1  0  0  0
 61135  1  0  0  0
 61136  1  0  0  0
 62137  1  0  0  0
 62138  1  0  0  0
 62139  1  0  0  0
 63 65  1  0  0  0
 63140  1  0  0  0
 63141  1  0  0  0
 63142  1  0  0  0
 64143  1  0  0  0
 65144  1  0  0  0
 68 82  1  0  0  0
 71 72  2  0  0  0
 71 75  1  0  0  0
 71145  1  0  0  0
 72 73  1  0  0  0
 72 79  1  0  0  0
 73 74  2  0  0  0
 73 81  1  0  0  0
 74 80  1  0  0  0
 74 83  1  0  0  0
 75 83  2  0  0  0
 75 84  1  0  0  0
 76 77  1  0  0  0
 76 78  1  0  0  0
 76146  1  0  0  0
 76147  1  0  0  0
 77 78  1  0  0  0
 77 84  1  0  0  0
 77148  1  0  0  0
 78 85  1  0  0  0
 78149  1  0  0  0
 79150  1  0  0  0
 79151  1  0  0  0
 79152  1  0  0  0
 80153  1  0  0  0
 80154  1  0  0  0
 80155  1  0  0  0
 81 82  1  0  0  0
 81156  1  0  0  0
 81157  1  0  0  0
 82158  1  0  0  0
 82159  1  0  0  0
 84160  1  0  0  0
 85161  1  0  0  0
M  ISO  4   1 100  68 101  82 101  85 100
M  END
> <chiral flag>
0

> <version>
0

> <s_m_source_file>
/data/baiqing/PycharmProjects/Reinvent-master-3.2/result/LINK_invent/BTK/process_docking_weight1_custom_sum_contain_oxygen_bond_distance_aromatic_linkinvent_7_9_3/rearranged_h_0174.sdf

> <i_m_source_file_index>
9

> <r_mmod_Potential_Energy-OPLS-2005>
-196.867401123047

> <r_mmod_Stretch_Energy-OPLS-2005>
41.4405326843262

> <r_mmod_Bend_Energy-OPLS-2005>
134.055068969727

> <r_mmod_Torsional_Energy-OPLS-2005>
328.86572265625

> <r_mmod_Improper_Torsional_Energy-OPLS-2005>
10.6769180297852

> <r_mmod_Van_der_Waal_Energy-OPLS-2005>
146.750885009766

> <r_mmod_Electrostatic_Energy-OPLS-2005>
-650.189697265625

> <r_mmod_Solvation_Energy-OPLS-2005>
-224.37548828125

> <b_mmod_Minimization_Converged-OPLS-2005>
0

> <r_mmod_RMS_Derivative-OPLS-2005>
2.7054545879364

$$$$
10
                    3D
 Structure written by MMmdl.
156165  0  0  1  0            999 V2000
  -30.6179  -14.8858   20.4142 C   0  0  0  0  0  0
  -30.4323  -12.5406   19.5044 C   0  0  0  0  0  0
  -29.5231  -12.5349   18.2555 C   0  0  0  0  0  0
  -28.0484  -12.3435   18.6633 C   0  0  0  0  0  0
  -27.6365  -13.2560   19.8524 C   0  0  2  0  0  0
  -28.6869  -13.2532   20.9859 C   0  0  0  0  0  0
  -25.2459  -13.8254   20.5698 C   0  0  0  0  0  0
  -24.1790  -13.0454   20.9214 C   0  0  0  0  0  0
  -24.6425  -11.6947   20.8762 C   0  0  0  0  0  0
  -23.9118  -10.4311   21.0424 C   0  0  0  0  0  0
  -24.3667   -9.4225   21.9199 C   0  0  0  0  0  0
  -23.6334   -8.2257   22.0740 C   0  0  0  0  0  0
  -22.4309   -8.0317   21.3539 C   0  0  0  0  0  0
  -21.9961   -9.0272   20.4618 C   0  0  0  0  0  0
  -22.7288  -10.2153   20.3053 C   0  0  0  0  0  0
  -21.6865   -6.0796   22.5292 C   0  0  0  0  0  0
  -21.4019   -6.5666   23.8238 C   0  0  0  0  0  0
  -21.3635   -5.6790   24.9181 C   0  0  0  0  0  0
  -21.6040   -4.3054   24.7214 C   0  0  0  0  0  0
  -21.8802   -3.8191   23.4322 C   0  0  0  0  0  0
  -21.9186   -4.7023   22.3393 C   0  0  0  0  0  0
  -22.7781  -13.5199   21.1846 C   0  0  0  0  0  0
  -22.1623   -4.2235   21.0949 F   0  0  0  0  0  0
  -21.5666   -3.4507   25.7712 F   0  0  0  0  0  0
  -29.9725  -13.6493   20.3857 N   0  0  0  0  0  0
  -26.2923  -12.9494   20.3302 N   0  0  0  0  0  0
  -25.9368  -11.6617   20.5784 N   0  0  0  0  0  0
  -22.0432  -12.8178   22.0404 N   0  0  0  0  0  0
  -25.4076  -15.1990   20.4111 N   0  0  0  0  0  0
  -31.7994  -14.9102   20.0515 O   0  0  0  0  0  0
  -21.6624   -6.8938   21.4264 O   0  0  0  0  0  0
  -22.3447  -14.5487   20.6672 O   0  0  0  0  0  0
  -24.6446  -31.8471   23.1930 C   0  0  0  0  0  0
  -25.9242  -32.4692   23.8305 C   0  0  1  0  0  0
  -27.2165  -27.1593   20.1293 C   0  0  0  0  0  0
  -25.6004  -33.8499   24.2226 N   0  0  0  0  0  0
  -23.4445  -30.4719   21.5389 C   0  0  2  0  0  0
  -24.8936  -28.9099   20.1105 C   0  0  0  0  0  0
  -22.7562  -29.4589   22.4865 C   0  0  0  0  0  0
  -18.0307  -28.1395   22.8483 C   0  0  0  0  0  0
  -24.1494  -36.7220   23.2638 C   0  0  0  0  0  0
  -26.0040  -30.7242   21.3951 C   0  0  0  0  0  0
  -26.0735  -29.3427   20.7293 C   0  0  0  0  0  0
  -27.2372  -28.4843   20.7243 C   0  0  0  0  0  0
  -26.0074  -26.8387   19.4707 C   0  0  0  0  0  0
  -24.8715  -27.6687   19.4701 C   0  0  0  0  0  0
  -23.6718  -29.8078   20.1579 C   0  0  0  0  0  0
  -25.4121  -36.3007   24.0321 C   0  0  1  0  0  0
  -20.5916  -28.3727   23.1229 C   0  0  2  0  0  0
  -20.6795  -26.9434   22.5394 C   0  0  0  0  0  0
  -19.5765  -26.6383   21.5211 C   0  0  0  0  0  0
  -18.1941  -26.7938   22.1605 C   0  0  0  0  0  0
  -19.1559  -28.8887   23.2846 C   0  0  0  0  0  0
  -18.9472  -30.1482   23.8873 C   0  0  0  0  0  0
  -17.6468  -30.6588   24.0556 C   0  0  0  0  0  0
  -25.9072  -34.9397   23.5062 C   0  0  0  0  0  0
  -16.5362  -29.9071   23.6346 C   0  0  0  0  0  0
  -16.7303  -28.6493   23.0381 C   0  0  0  0  0  0
  -26.4571  -31.6542   25.0727 C   0  0  0  0  0  0
  -25.3787  -31.3708   26.1443 C   0  0  0  0  0  0
  -27.0477  -30.2948   24.6324 C   0  0  0  0  0  0
  -27.6086  -32.4323   25.7516 C   0  0  0  0  0  0
  -27.5566  -37.1759   24.8466 C   0  0  0  0  0  0
  -21.4256  -29.3066   22.3602 N   0  0  0  0  0  0
  -26.4272  -37.3728   23.9428 N   0  0  0  0  0  0
  -24.7160  -31.0358   22.0958 N   0  0  0  0  0  0
  -23.4206  -28.8141   23.3023 O   0  0  0  0  0  0
  -28.2531  -26.1530   20.1933 O   0  0  0  0  0  0
  -26.5611  -34.8887   22.4612 O   0  0  0  0  0  0
  -23.5573  -32.1359   23.7168 O   0  0  0  0  0  0
  -29.1290  -22.5044   19.0043 C   0  0  0  0  0  0
  -28.6030  -22.4263   21.2809 C   0  0  0  0  0  0
  -28.6492  -23.2593   20.1234 C   0  0  0  0  0  0
  -29.4513  -21.0855   19.0495 C   0  0  0  0  0  0
  -29.3051  -20.3180   20.2595 C   0  0  0  0  0  0
  -29.4351  -18.1526   21.8788 C   0  0  0  0  0  0
  -29.4027  -16.5874   21.8277 C   0  0  0  0  0  0
  -30.1258  -17.4639   19.7887 C   0  0  0  0  0  0
  -29.2499  -18.6711   20.4492 C   0  0  2  0  0  0
  -29.8702  -20.4332   17.7339 C   0  0  0  0  0  0
  -27.8335  -24.6774   19.9807 C   0  0  0  0  0  0
  -28.8977  -21.0689   21.3373 N   0  0  0  0  0  0
  -29.9106  -16.1159   20.5277 N   0  0  0  0  0  0
  -31.4770  -12.6499   19.2101 H   0  0  0  0  0  0
  -30.3779  -11.5848   20.0285 H   0  0  0  0  0  0
  -29.8249  -11.7517   17.5580 H   0  0  0  0  0  0
  -29.6357  -13.4801   17.7237 H   0  0  0  0  0  0
  -27.9102  -11.2958   18.9331 H   0  0  0  0  0  0
  -27.3942  -12.5173   17.8073 H   0  0  0  0  0  0
  -27.6047  -14.2674   19.4494 H   0  0  0  0  0  0
  -28.7534  -12.2632   21.4387 H   0  0  0  0  0  0
  -28.4008  -13.9333   21.7867 H   0  0  0  0  0  0
  -25.2825   -9.5699   22.4757 H   0  0  0  0  0  0
  -24.0069   -7.4637   22.7434 H   0  0  0  0  0  0
  -21.0912   -8.8775   19.8879 H   0  0  0  0  0  0
  -22.3780  -10.9683   19.6149 H   0  0  0  0  0  0
  -21.1990   -7.6165   23.9775 H   0  0  0  0  0  0
  -21.1470   -6.0507   25.9089 H   0  0  0  0  0  0
  -22.0608   -2.7664   23.2782 H   0  0  0  0  0  0
  -22.4076  -11.9873   22.4805 H   0  0  0  0  0  0
  -21.1037  -13.1163   22.2569 H   0  0  0  0  0  0
  -24.6383  -15.8503   20.5224 H   0  0  0  0  0  0
  -26.2560  -15.6353   20.0756 H   0  0  0  0  0  0
  -26.7306  -32.5306   23.1029 H   0  0  0  0  0  0
  -25.0277  -33.9619   25.0471 H   0  0  0  0  0  0
  -22.7456  -31.2971   21.3856 H   0  0  0  0  0  0
  -23.3755  -35.9542   23.3298 H   0  0  0  0  0  0
  -24.3567  -36.8854   22.2049 H   0  0  0  0  0  0
  -23.7267  -37.6415   23.6698 H   0  0  0  0  0  0
  -26.1757  -31.4846   20.6320 H   0  0  0  0  0  0
  -26.8651  -30.7586   22.0504 H   0  0  0  0  0  0
  -28.1300  -28.8157   21.2355 H   0  0  0  0  0  0
  -25.8739  -25.9027   18.9563 H   0  0  0  0  0  0
  -23.9721  -27.3270   18.9769 H   0  0  0  0  0  0
  -23.8121  -30.5867   19.4072 H   0  0  0  0  0  0
  -22.7882  -29.2497   19.8391 H   0  0  0  0  0  0
  -25.1330  -36.1801   25.0809 H   0  0  0  0  0  0
  -21.0010  -28.3330   24.1343 H   0  0  0  0  0  0
  -20.5715  -26.2349   23.3614 H   0  0  0  0  0  0
  -21.6659  -26.7456   22.1174 H   0  0  0  0  0  0
  -19.6922  -25.6293   21.1258 H   0  0  0  0  0  0
  -19.6708  -27.3186   20.6736 H   0  0  0  0  0  0
  -17.4223  -26.6723   21.3989 H   0  0  0  0  0  0
  -18.0309  -26.0075   22.8993 H   0  0  0  0  0  0
  -19.7955  -30.7315   24.2216 H   0  0  0  0  0  0
  -17.5021  -31.6272   24.5157 H   0  0  0  0  0  0
  -15.5358  -30.2956   23.7719 H   0  0  0  0  0  0
  -15.8699  -28.0800   22.7130 H   0  0  0  0  0  0
  -24.5981  -30.7033   25.7778 H   0  0  0  0  0  0
  -24.8966  -32.2878   26.4830 H   0  0  0  0  0  0
  -25.8105  -30.8922   27.0244 H   0  0  0  0  0  0
  -26.3133  -29.6612   24.1328 H   0  0  0  0  0  0
  -27.4111  -29.7287   25.4905 H   0  0  0  0  0  0
  -27.9033  -30.4183   23.9680 H   0  0  0  0  0  0
  -27.2677  -33.3658   26.2002 H   0  0  0  0  0  0
  -28.3952  -32.6806   25.0384 H   0  0  0  0  0  0
  -28.0703  -31.8508   26.5501 H   0  0  0  0  0  0
  -28.2551  -38.0081   24.7534 H   0  0  0  0  0  0
  -28.1103  -36.2608   24.6297 H   0  0  0  0  0  0
  -27.2280  -37.1423   25.8862 H   0  0  0  0  0  0
  -20.9473  -29.8749   21.6768 H   0  0  0  0  0  0
  -26.0117  -38.2784   24.1429 H   0  0  0  0  0  0
  -29.1605  -23.0023   18.0464 H   0  0  0  0  0  0
  -28.2186  -22.8337   22.2060 H   0  0  0  0  0  0
  -30.4125  -18.4871   22.2340 H   0  0  0  0  0  0
  -28.6934  -18.5553   22.5669 H   0  0  0  0  0  0
  -28.3804  -16.2360   21.9487 H   0  0  0  0  0  0
  -29.9917  -16.1714   22.6497 H   0  0  0  0  0  0
  -31.1885  -17.7070   19.8400 H   0  0  0  0  0  0
  -29.8872  -17.3444   18.7320 H   0  0  0  0  0  0
  -28.2194  -18.4524   20.1671 H   0  0  0  0  0  0
  -30.6204  -21.0383   17.2177 H   0  0  0  0  0  0
  -29.0205  -20.3358   17.0532 H   0  0  0  0  0  0
  -30.3113  -19.4485   17.8766 H   0  0  0  0  0  0
  -26.9511  -24.5308   20.6090 H   0  0  0  0  0  0
  -27.4767  -24.6123   18.9528 H   0  0  0  0  0  0
  1 25  1  0  0  0
  1 30  2  0  0  0
  1 83  1  0  0  0
  2  3  1  0  0  0
  2 25  1  0  0  0
  2 84  1  0  0  0
  2 85  1  0  0  0
  3  4  1  0  0  0
  3 86  1  0  0  0
  3 87  1  0  0  0
  4  5  1  0  0  0
  4 88  1  0  0  0
  4 89  1  0  0  0
  5  6  1  0  0  0
  5 26  1  0  0  0
  5 90  1  0  0  0
  6 25  1  0  0  0
  6 91  1  0  0  0
  6 92  1  0  0  0
  7  8  2  0  0  0
  7 26  1  0  0  0
  7 29  1  0  0  0
  8  9  1  0  0  0
  8 22  1  0  0  0
  9 10  1  0  0  0
  9 27  2  0  0  0
 10 11  2  0  0  0
 10 15  1  0  0  0
 11 12  1  0  0  0
 11 93  1  0  0  0
 12 13  2  0  0  0
 12 94  1  0  0  0
 13 14  1  0  0  0
 13 31  1  0  0  0
 14 15  2  0  0  0
 14 95  1  0  0  0
 15 96  1  0  0  0
 16 17  2  0  0  0
 16 21  1  0  0  0
 16 31  1  0  0  0
 17 18  1  0  0  0
 17 97  1  0  0  0
 18 19  2  0  0  0
 18 98  1  0  0  0
 19 20  1  0  0  0
 19 24  1  0  0  0
 20 21  2  0  0  0
 20 99  1  0  0  0
 21 23  1  0  0  0
 22 28  1  0  0  0
 22 32  2  0  0  0
 26 27  1  0  0  0
 28100  1  0  0  0
 28101  1  0  0  0
 29102  1  0  0  0
 29103  1  0  0  0
 33 34  1  0  0  0
 33 66  1  0  0  0
 33 70  2  0  0  0
 34 36  1  0  0  0
 34 59  1  0  0  0
 34104  1  0  0  0
 35 44  2  0  0  0
 35 45  1  0  0  0
 35 68  1  0  0  0
 36 56  1  0  0  0
 36105  1  0  0  0
 37 39  1  0  0  0
 37 47  1  0  0  0
 37 66  1  0  0  0
 37106  1  0  0  0
 38 43  2  0  0  0
 38 46  1  0  0  0
 38 47  1  0  0  0
 39 64  1  0  0  0
 39 67  2  0  0  0
 40 52  1  0  0  0
 40 53  2  0  0  0
 40 58  1  0  0  0
 41107  1  0  0  0
 41108  1  0  0  0
 41109  1  0  0  0
 41 48  1  0  0  0
 42 43  1  0  0  0
 42 66  1  0  0  0
 42110  1  0  0  0
 42111  1  0  0  0
 43 44  1  0  0  0
 44112  1  0  0  0
 45 46  2  0  0  0
 45113  1  0  0  0
 46114  1  0  0  0
 47115  1  0  0  0
 47116  1  0  0  0
 48 56  1  0  0  0
 48 65  1  0  0  0
 48117  1  0  0  0
 49 50  1  0  0  0
 49 53  1  0  0  0
 49 64  1  0  0  0
 49118  1  0  0  0
 50 51  1  0  0  0
 50119  1  0  0  0
 50120  1  0  0  0
 51 52  1  0  0  0
 51121  1  0  0  0
 51122  1  0  0  0
 52123  1  0  0  0
 52124  1  0  0  0
 53 54  1  0  0  0
 54 55  2  0  0  0
 54125  1  0  0  0
 55 57  1  0  0  0
 55126  1  0  0  0
 56 69  2  0  0  0
 57 58  2  0  0  0
 57127  1  0  0  0
 58128  1  0  0  0
 59 60  1  0  0  0
 59 61  1  0  0  0
 59 62  1  0  0  0
 60129  1  0  0  0
 60130  1  0  0  0
 60131  1  0  0  0
 61132  1  0  0  0
 61133  1  0  0  0
 61134  1  0  0  0
 62135  1  0  0  0
 62136  1  0  0  0
 62137  1  0  0  0
 63 65  1  0  0  0
 63138  1  0  0  0
 63139  1  0  0  0
 63140  1  0  0  0
 64141  1  0  0  0
 65142  1  0  0  0
 68 81  1  0  0  0
 71 73  2  0  0  0
 71 74  1  0  0  0
 71143  1  0  0  0
 72 73  1  0  0  0
 72 82  2  0  0  0
 72144  1  0  0  0
 73 81  1  0  0  0
 74 75  2  0  0  0
 74 80  1  0  0  0
 75 82  1  0  0  0
 75 79  1  0  0  0
 76 77  1  0  0  0
 76 79  1  0  0  0
 76145  1  0  0  0
 76146  1  0  0  0
 77 83  1  0  0  0
 77147  1  0  0  0
 77148  1  0  0  0
 78 79  1  0  0  0
 78 83  1  0  0  0
 78149  1  0  0  0
 78150  1  0  0  0
 79151  1  0  0  0
 80152  1  0  0  0
 80153  1  0  0  0
 80154  1  0  0  0
 81155  1  0  0  0
 81156  1  0  0  0
M  ISO  4   1 100  68 101  81 101  83 100
M  END
> <chiral flag>
0

> <version>
0

> <s_m_source_file>
/data/baiqing/PycharmProjects/Reinvent-master-3.2/result/LINK_invent/BTK/process_docking_weight1_custom_sum_contain_oxygen_bond_distance_aromatic_linkinvent_7_9_3/rearranged_h_0174.sdf

> <i_m_source_file_index>
10

> <r_mmod_Potential_Energy-OPLS-2005>
539.077453613281

> <r_mmod_Stretch_Energy-OPLS-2005>
206.765167236328

> <r_mmod_Bend_Energy-OPLS-2005>
302.005187988281

> <r_mmod_Torsional_Energy-OPLS-2005>
340.659332275391

> <r_mmod_Improper_Torsional_Energy-OPLS-2005>
17.4137592315674

> <r_mmod_Van_der_Waal_Energy-OPLS-2005>
138.290069580078

> <r_mmod_Electrostatic_Energy-OPLS-2005>
-413.109405517578

> <r_mmod_Solvation_Energy-OPLS-2005>
-214.261840820312

> <b_mmod_Minimization_Converged-OPLS-2005>
0

> <r_mmod_RMS_Derivative-OPLS-2005>
4.71504259109497

$$$$
11
                    3D
 Structure written by MMmdl.
182192  0  0  1  0            999 V2000
  -30.7247  -14.4459   20.6487 C   0  0  0  0  0  0
  -30.4204  -12.3216   19.4083 C   0  0  0  0  0  0
  -29.4851  -12.5218   18.2004 C   0  0  0  0  0  0
  -28.0119  -12.3570   18.6208 C   0  0  0  0  0  0
  -27.6596  -13.1936   19.8788 C   0  0  2  0  0  0
  -28.7026  -12.9608   20.9942 C   0  0  0  0  0  0
  -25.2580  -13.8124   20.5683 C   0  0  0  0  0  0
  -24.1823  -13.0418   20.9193 C   0  0  0  0  0  0
  -24.6377  -11.6887   20.8762 C   0  0  0  0  0  0
  -23.9046  -10.4275   21.0437 C   0  0  0  0  0  0
  -24.3603   -9.4189   21.9205 C   0  0  0  0  0  0
  -23.6280   -8.2222   22.0766 C   0  0  0  0  0  0
  -22.4261   -8.0274   21.3559 C   0  0  0  0  0  0
  -21.9899   -9.0248   20.4654 C   0  0  0  0  0  0
  -22.7224  -10.2125   20.3074 C   0  0  0  0  0  0
  -21.6839   -6.0735   22.5289 C   0  0  0  0  0  0
  -21.4006   -6.5638   23.8224 C   0  0  0  0  0  0
  -21.3660   -5.6789   24.9182 C   0  0  0  0  0  0
  -21.6043   -4.3053   24.7227 C   0  0  0  0  0  0
  -21.8816   -3.8147   23.4345 C   0  0  0  0  0  0
  -21.9181   -4.6964   22.3403 C   0  0  0  0  0  0
  -22.7845  -13.5237   21.1851 C   0  0  0  0  0  0
  -22.1645   -4.2154   21.0976 F   0  0  0  0  0  0
  -21.5637   -3.4531   25.7738 F   0  0  0  0  0  0
  -30.0315  -13.2878   20.4496 N   0  0  0  0  0  0
  -26.3010  -12.9276   20.3403 N   0  0  0  0  0  0
  -25.9303  -11.6448   20.5816 N   0  0  0  0  0  0
  -22.0461  -12.8243   22.0405 N   0  0  0  0  0  0
  -25.4297  -15.1847   20.4063 N   0  0  0  0  0  0
  -31.8099  -14.6700   20.0991 O   0  0  0  0  0  0
  -21.6627   -6.8875   21.4249 O   0  0  0  0  0  0
  -22.3535  -14.5542   20.6697 O   0  0  0  0  0  0
  -24.6148  -31.8704   23.2157 C   0  0  0  0  0  0
  -25.9033  -32.4832   23.8441 C   0  0  1  0  0  0
  -27.2196  -27.4359   20.0915 C   0  0  0  0  0  0
  -25.5909  -33.8639   24.2353 N   0  0  0  0  0  0
  -23.4032  -30.4958   21.5565 C   0  0  2  0  0  0
  -24.8474  -28.9736   20.1128 C   0  0  0  0  0  0
  -22.7410  -29.4673   22.5013 C   0  0  0  0  0  0
  -18.0277  -28.1403   22.8492 C   0  0  0  0  0  0
  -24.1488  -36.7313   23.2638 C   0  0  0  0  0  0
  -25.9342  -30.8299   21.3771 C   0  0  0  0  0  0
  -26.0055  -29.4664   20.7251 C   0  0  0  0  0  0
  -27.1953  -28.7000   20.7270 C   0  0  0  0  0  0
  -26.0597  -26.9956   19.4183 C   0  0  0  0  0  0
  -24.8666  -27.7337   19.4587 C   0  0  0  0  0  0
  -23.6100  -29.8391   20.1680 C   0  0  0  0  0  0
  -25.4095  -36.3116   24.0353 C   0  0  1  0  0  0
  -20.5866  -28.3676   23.1325 C   0  0  2  0  0  0
  -20.6773  -26.9405   22.5432 C   0  0  0  0  0  0
  -19.5751  -26.6384   21.5235 C   0  0  0  0  0  0
  -18.1918  -26.7949   22.1619 C   0  0  0  0  0  0
  -19.1526  -28.8853   23.2911 C   0  0  0  0  0  0
  -18.9453  -30.1467   23.8911 C   0  0  0  0  0  0
  -17.6451  -30.6600   24.0569 C   0  0  0  0  0  0
  -25.9029  -34.9487   23.5134 C   0  0  0  0  0  0
  -16.5339  -29.9101   23.6333 C   0  0  0  0  0  0
  -16.7261  -28.6533   23.0333 C   0  0  0  0  0  0
  -26.4471  -31.6609   25.0758 C   0  0  0  0  0  0
  -25.3749  -31.3720   26.1509 C   0  0  0  0  0  0
  -27.0310  -30.3071   24.6124 C   0  0  0  0  0  0
  -27.6068  -32.4344   25.7481 C   0  0  0  0  0  0
  -27.5590  -37.1768   24.8441 C   0  0  0  0  0  0
  -21.4147  -29.3042   22.3735 N   0  0  0  0  0  0
  -26.4273  -37.3804   23.9442 N   0  0  0  0  0  0
  -24.6680  -31.0804   22.1073 N   0  0  0  0  0  0
  -23.4181  -28.8191   23.3043 O   0  0  0  0  0  0
  -28.3610  -26.6594   20.0885 O   0  0  0  0  0  0
  -26.5591  -34.8936   22.4700 O   0  0  0  0  0  0
  -23.5342  -32.1464   23.7537 O   0  0  0  0  0  0
  -30.3676  -20.3872   22.5160 C   0  0  0  0  0  0
  -30.1893  -21.0082   25.2464 C   0  0  0  0  0  0
  -30.6351  -21.7072   22.9590 C   0  0  0  0  0  0
  -30.0272  -19.3587   23.4348 C   0  0  0  0  0  0
  -30.5886  -22.0066   24.3401 C   0  0  0  0  0  0
  -29.9040  -19.6978   24.8137 C   0  0  0  0  0  0
  -30.9697  -23.3818   24.8881 C   0  0  0  0  0  0
  -31.7062  -24.3294   23.9087 C   0  0  0  0  0  0
  -32.0867  -23.7009   22.5548 C   0  0  0  0  0  0
  -29.2791  -17.6817   21.5585 C   0  0  0  0  0  0
  -31.1851  -17.1344   23.0316 C   0  0  0  0  0  0
  -29.0526  -16.1732   21.2762 C   0  0  0  0  0  0
  -30.9906  -15.6256   22.7850 C   0  0  0  0  0  0
  -29.8569  -17.8991   22.9663 C   0  0  0  0  0  0
  -30.9566  -22.8294   21.9766 C   0  0  2  0  0  0
  -27.9508  -18.6831   26.0751 C   0  0  0  0  0  0
  -27.2892  -24.3943   20.3206 C   0  0  0  0  0  0
  -29.4743  -18.6949   25.8821 C   0  0  0  0  0  0
  -29.7144  -24.8075   20.9206 C   0  0  0  0  0  0
  -28.3012  -25.4360   20.8548 C   0  0  1  0  0  0
  -30.2193  -15.3081   21.5698 N   0  0  0  0  0  0
  -29.7015  -23.5826   21.7679 N   0  3  0  0  0  0
  -31.4626  -12.4290   19.1045 H   0  0  0  0  0  0
  -30.3349  -11.3033   19.7920 H   0  0  0  0  0  0
  -29.7334  -11.8104   17.4114 H   0  0  0  0  0  0
  -29.6376  -13.5154   17.7765 H   0  0  0  0  0  0
  -27.8426  -11.2991   18.8231 H   0  0  0  0  0  0
  -27.3500  -12.6198   17.7951 H   0  0  0  0  0  0
  -27.7010  -14.2378   19.5785 H   0  0  0  0  0  0
  -28.6897  -11.9174   21.3120 H   0  0  0  0  0  0
  -28.4555  -13.5249   21.8931 H   0  0  0  0  0  0
  -25.2746   -9.5653   22.4781 H   0  0  0  0  0  0
  -23.9989   -7.4603   22.7477 H   0  0  0  0  0  0
  -21.0833   -8.8757   19.8952 H   0  0  0  0  0  0
  -22.3693  -10.9666   19.6182 H   0  0  0  0  0  0
  -21.2001   -7.6149   23.9738 H   0  0  0  0  0  0
  -21.1483   -6.0513   25.9089 H   0  0  0  0  0  0
  -22.0597   -2.7611   23.2841 H   0  0  0  0  0  0
  -22.4045  -11.9892   22.4798 H   0  0  0  0  0  0
  -21.1092  -13.1306   22.2621 H   0  0  0  0  0  0
  -24.6654  -15.8401   20.5221 H   0  0  0  0  0  0
  -26.2854  -15.6241   20.0915 H   0  0  0  0  0  0
  -26.7077  -32.5528   23.1183 H   0  0  0  0  0  0
  -25.0077  -33.9830   25.0510 H   0  0  0  0  0  0
  -22.6934  -31.3139   21.4188 H   0  0  0  0  0  0
  -23.3793  -35.9600   23.3250 H   0  0  0  0  0  0
  -24.3605  -36.8989   22.2064 H   0  0  0  0  0  0
  -23.7187  -37.6485   23.6676 H   0  0  0  0  0  0
  -26.0584  -31.5947   20.6092 H   0  0  0  0  0  0
  -26.8198  -30.8756   21.9984 H   0  0  0  0  0  0
  -28.0840  -29.0709   21.2172 H   0  0  0  0  0  0
  -26.0621  -26.0812   18.8439 H   0  0  0  0  0  0
  -23.9815  -27.3618   18.9612 H   0  0  0  0  0  0
  -23.7198  -30.6183   19.4137 H   0  0  0  0  0  0
  -22.7339  -29.2621   19.8657 H   0  0  0  0  0  0
  -25.1261  -36.1962   25.0844 H   0  0  0  0  0  0
  -20.9937  -28.3228   24.1456 H   0  0  0  0  0  0
  -20.5721  -26.2273   23.3624 H   0  0  0  0  0  0
  -21.6631  -26.7473   22.1177 H   0  0  0  0  0  0
  -19.6927  -25.6309   21.1243 H   0  0  0  0  0  0
  -19.6710  -27.3218   20.6794 H   0  0  0  0  0  0
  -17.4195  -26.6725   21.4004 H   0  0  0  0  0  0
  -18.0290  -26.0101   22.9016 H   0  0  0  0  0  0
  -19.7940  -30.7280   24.2270 H   0  0  0  0  0  0
  -17.5012  -31.6275   24.5184 H   0  0  0  0  0  0
  -15.5350  -30.2994   23.7696 H   0  0  0  0  0  0
  -15.8658  -28.0864   22.7026 H   0  0  0  0  0  0
  -24.5922  -30.7054   25.7856 H   0  0  0  0  0  0
  -24.8936  -32.2877   26.4950 H   0  0  0  0  0  0
  -25.8107  -30.8892   27.0261 H   0  0  0  0  0  0
  -26.2838  -29.6828   24.1205 H   0  0  0  0  0  0
  -27.4138  -29.7302   25.4552 H   0  0  0  0  0  0
  -27.8650  -30.4441   23.9247 H   0  0  0  0  0  0
  -27.2696  -33.3650   26.2051 H   0  0  0  0  0  0
  -28.3834  -32.6891   25.0260 H   0  0  0  0  0  0
  -28.0761  -31.8476   26.5378 H   0  0  0  0  0  0
  -28.2519  -38.0154   24.7624 H   0  0  0  0  0  0
  -28.1182  -36.2701   24.6074 H   0  0  0  0  0  0
  -27.2345  -37.1166   25.8847 H   0  0  0  0  0  0
  -20.9305  -29.8766   21.6955 H   0  0  0  0  0  0
  -26.0175  -38.2876   24.1531 H   0  0  0  0  0  0
  -30.4430  -20.1631   21.4616 H   0  0  0  0  0  0
  -30.1144  -21.2515   26.2979 H   0  0  0  0  0  0
  -31.6024  -23.2254   25.7627 H   0  0  0  0  0  0
  -30.0687  -23.8701   25.2675 H   0  0  0  0  0  0
  -32.6058  -24.7224   24.3862 H   0  0  0  0  0  0
  -31.0823  -25.2063   23.7321 H   0  0  0  0  0  0
  -32.9689  -23.0751   22.6906 H   0  0  0  0  0  0
  -32.3918  -24.4711   21.8455 H   0  0  0  0  0  0
  -28.3334  -18.2152   21.4577 H   0  0  0  0  0  0
  -29.9467  -18.0891   20.8001 H   0  0  0  0  0  0
  -31.8817  -17.5459   22.3009 H   0  0  0  0  0  0
  -31.6513  -17.2781   24.0062 H   0  0  0  0  0  0
  -28.7530  -16.0685   20.2327 H   0  0  0  0  0  0
  -28.2113  -15.8207   21.8746 H   0  0  0  0  0  0
  -30.4611  -15.1898   23.6316 H   0  0  0  0  0  0
  -31.9689  -15.1413   22.7671 H   0  0  0  0  0  0
  -29.1455  -17.4187   23.6363 H   0  0  0  0  0  0
  -31.2822  -22.4026   21.0252 H   0  0  0  0  0  0
  -27.6585  -17.9590   26.8366 H   0  0  0  0  0  0
  -27.4315  -18.4247   25.1527 H   0  0  0  0  0  0
  -27.5882  -19.6602   26.3967 H   0  0  0  0  0  0
  -27.3738  -23.4267   20.8098 H   0  0  0  0  0  0
  -27.4130  -24.2332   19.2494 H   0  0  0  0  0  0
  -26.2620  -24.6962   20.5183 H   0  0  0  0  0  0
  -29.9458  -18.9570   26.8300 H   0  0  0  0  0  0
  -29.8426  -17.6942   25.6620 H   0  0  0  0  0  0
  -30.4076  -25.5455   21.3244 H   0  0  0  0  0  0
  -30.0639  -24.5561   19.9176 H   0  0  0  0  0  0
  -28.0034  -25.7039   21.8733 H   0  0  0  0  0  0
  -29.3427  -23.8131   22.6805 H   0  0  0  0  0  0
  -29.0472  -22.9289   21.3652 H   0  0  0  0  0  0
  1 25  1  0  0  0
  1 30  2  0  0  0
  1 91  1  0  0  0
  2  3  1  0  0  0
  2 25  1  0  0  0
  2 93  1  0  0  0
  2 94  1  0  0  0
  3  4  1  0  0  0
  3 95  1  0  0  0
  3 96  1  0  0  0
  4  5  1  0  0  0
  4 97  1  0  0  0
  4 98  1  0  0  0
  5  6  1  0  0  0
  5 26  1  0  0  0
  5 99  1  0  0  0
  6 25  1  0  0  0
  6100  1  0  0  0
  6101  1  0  0  0
  7  8  2  0  0  0
  7 26  1  0  0  0
  7 29  1  0  0  0
  8  9  1  0  0  0
  8 22  1  0  0  0
  9 10  1  0  0  0
  9 27  2  0  0  0
 10 11  2  0  0  0
 10 15  1  0  0  0
 11 12  1  0  0  0
 11102  1  0  0  0
 12 13  2  0  0  0
 12103  1  0  0  0
 13 14  1  0  0  0
 13 31  1  0  0  0
 14 15  2  0  0  0
 14104  1  0  0  0
 15105  1  0  0  0
 16 17  2  0  0  0
 16 21  1  0  0  0
 16 31  1  0  0  0
 17 18  1  0  0  0
 17106  1  0  0  0
 18 19  2  0  0  0
 18107  1  0  0  0
 19 20  1  0  0  0
 19 24  1  0  0  0
 20 21  2  0  0  0
 20108  1  0  0  0
 21 23  1  0  0  0
 22 28  1  0  0  0
 22 32  2  0  0  0
 26 27  1  0  0  0
 28109  1  0  0  0
 28110  1  0  0  0
 29111  1  0  0  0
 29112  1  0  0  0
 33 34  1  0  0  0
 33 66  1  0  0  0
 33 70  2  0  0  0
 34 36  1  0  0  0
 34 59  1  0  0  0
 34113  1  0  0  0
 35 44  2  0  0  0
 35 45  1  0  0  0
 35 68  1  0  0  0
 36 56  1  0  0  0
 36114  1  0  0  0
 37 39  1  0  0  0
 37 47  1  0  0  0
 37 66  1  0  0  0
 37115  1  0  0  0
 38 43  2  0  0  0
 38 46  1  0  0  0
 38 47  1  0  0  0
 39 64  1  0  0  0
 39 67  2  0  0  0
 40 52  1  0  0  0
 40 53  2  0  0  0
 40 58  1  0  0  0
 41116  1  0  0  0
 41117  1  0  0  0
 41118  1  0  0  0
 41 48  1  0  0  0
 42 43  1  0  0  0
 42 66  1  0  0  0
 42119  1  0  0  0
 42120  1  0  0  0
 43 44  1  0  0  0
 44121  1  0  0  0
 45 46  2  0  0  0
 45122  1  0  0  0
 46123  1  0  0  0
 47124  1  0  0  0
 47125  1  0  0  0
 48 56  1  0  0  0
 48 65  1  0  0  0
 48126  1  0  0  0
 49 50  1  0  0  0
 49 53  1  0  0  0
 49 64  1  0  0  0
 49127  1  0  0  0
 50 51  1  0  0  0
 50128  1  0  0  0
 50129  1  0  0  0
 51 52  1  0  0  0
 51130  1  0  0  0
 51131  1  0  0  0
 52132  1  0  0  0
 52133  1  0  0  0
 53 54  1  0  0  0
 54 55  2  0  0  0
 54134  1  0  0  0
 55 57  1  0  0  0
 55135  1  0  0  0
 56 69  2  0  0  0
 57 58  2  0  0  0
 57136  1  0  0  0
 58137  1  0  0  0
 59 60  1  0  0  0
 59 61  1  0  0  0
 59 62  1  0  0  0
 60138  1  0  0  0
 60139  1  0  0  0
 60140  1  0  0  0
 61141  1  0  0  0
 61142  1  0  0  0
 61143  1  0  0  0
 62144  1  0  0  0
 62145  1  0  0  0
 62146  1  0  0  0
 63 65  1  0  0  0
 63147  1  0  0  0
 63148  1  0  0  0
 63149  1  0  0  0
 64150  1  0  0  0
 65151  1  0  0  0
 68 90  1  0  0  0
 71 73  2  0  0  0
 71 74  1  0  0  0
 71152  1  0  0  0
 72 75  2  0  0  0
 72 76  1  0  0  0
 72153  1  0  0  0
 73 75  1  0  0  0
 73 85  1  0  0  0
 74 76  2  0  0  0
 74 84  1  0  0  0
 75 77  1  0  0  0
 76 88  1  0  0  0
 77 78  1  0  0  0
 77154  1  0  0  0
 77155  1  0  0  0
 78 79  1  0  0  0
 78156  1  0  0  0
 78157  1  0  0  0
 79 85  1  0  0  0
 79158  1  0  0  0
 79159  1  0  0  0
 80 82  1  0  0  0
 80 84  1  0  0  0
 80160  1  0  0  0
 80161  1  0  0  0
 81 83  1  0  0  0
 81 84  1  0  0  0
 81162  1  0  0  0
 81163  1  0  0  0
 82 91  1  0  0  0
 82164  1  0  0  0
 82165  1  0  0  0
 83 91  1  0  0  0
 83166  1  0  0  0
 83167  1  0  0  0
 84168  1  0  0  0
 85 92  1  0  0  0
 85169  1  0  0  0
 86 88  1  0  0  0
 86170  1  0  0  0
 86171  1  0  0  0
 86172  1  0  0  0
 87173  1  0  0  0
 87174  1  0  0  0
 87175  1  0  0  0
 87 90  1  0  0  0
 88176  1  0  0  0
 88177  1  0  0  0
 89 90  1  0  0  0
 89 92  1  0  0  0
 89178  1  0  0  0
 89179  1  0  0  0
 90180  1  0  0  0
 92181  1  0  0  0
 92182  1  0  0  0
M  CHG  1  92   1
M  ISO  4   1 100  68 101  90 101  91 100
M  END
> <chiral flag>
0

> <version>
0

> <s_m_source_file>
/data/baiqing/PycharmProjects/Reinvent-master-3.2/result/LINK_invent/BTK/process_docking_weight1_custom_sum_contain_oxygen_bond_distance_aromatic_linkinvent_7_9_3/rearranged_h_0174.sdf

> <i_m_source_file_index>
11

> <r_mmod_Potential_Energy-OPLS-2005>
48.5141181945801

> <r_mmod_Stretch_Energy-OPLS-2005>
43.3930015563965

> <r_mmod_Bend_Energy-OPLS-2005>
113.82950592041

> <r_mmod_Torsional_Energy-OPLS-2005>
375.24853515625

> <r_mmod_Improper_Torsional_Energy-OPLS-2005>
2.89697623252869

> <r_mmod_Van_der_Waal_Energy-OPLS-2005>
167.808410644531

> <r_mmod_Electrostatic_Energy-OPLS-2005>
-263.969787597656

> <r_mmod_Solvation_Energy-OPLS-2005>
-403.4736328125

> <b_mmod_Minimization_Converged-OPLS-2005>
0

> <r_mmod_RMS_Derivative-OPLS-2005>
3.10195016860962

$$$$
13
                    3D
 Structure written by MMmdl.
155164  0  0  1  0            999 V2000
  -30.6475  -14.9551   20.4083 C   0  0  0  0  0  0
  -30.4589  -12.6006   19.5021 C   0  0  0  0  0  0
  -29.5325  -12.5303   18.2686 C   0  0  0  0  0  0
  -28.0671  -12.3224   18.6910 C   0  0  0  0  0  0
  -27.6520  -13.2496   19.8620 C   0  0  2  0  0  0
  -28.7156  -13.2978   20.9857 C   0  0  0  0  0  0
  -25.2541  -13.8196   20.5680 C   0  0  0  0  0  0
  -24.1880  -13.0455   20.9253 C   0  0  0  0  0  0
  -24.6500  -11.6943   20.8825 C   0  0  0  0  0  0
  -23.9169  -10.4317   21.0426 C   0  0  0  0  0  0
  -24.3692   -9.4214   21.9189 C   0  0  0  0  0  0
  -23.6336   -8.2262   22.0756 C   0  0  0  0  0  0
  -22.4309   -8.0322   21.3547 C   0  0  0  0  0  0
  -21.9991   -9.0305   20.4637 C   0  0  0  0  0  0
  -22.7361  -10.2170   20.3058 C   0  0  0  0  0  0
  -21.6869   -6.0772   22.5272 C   0  0  0  0  0  0
  -21.4011   -6.5654   23.8220 C   0  0  0  0  0  0
  -21.3652   -5.6798   24.9160 C   0  0  0  0  0  0
  -21.6054   -4.3065   24.7214 C   0  0  0  0  0  0
  -21.8830   -3.8176   23.4325 C   0  0  0  0  0  0
  -21.9194   -4.6987   22.3392 C   0  0  0  0  0  0
  -22.7869  -13.5199   21.1819 C   0  0  0  0  0  0
  -22.1677   -4.2183   21.0963 F   0  0  0  0  0  0
  -21.5616   -3.4541   25.7719 F   0  0  0  0  0  0
  -29.9798  -13.7239   20.3581 N   0  0  0  0  0  0
  -26.3059  -12.9467   20.3462 N   0  0  0  0  0  0
  -25.9471  -11.6599   20.5959 N   0  0  0  0  0  0
  -22.0534  -12.8186   22.0352 N   0  0  0  0  0  0
  -25.4063  -15.1905   20.3776 N   0  0  0  0  0  0
  -31.8514  -14.9327   20.1352 O   0  0  0  0  0  0
  -21.6657   -6.8920   21.4246 O   0  0  0  0  0  0
  -22.3554  -14.5506   20.6654 O   0  0  0  0  0  0
  -24.6386  -31.8470   23.1920 C   0  0  0  0  0  0
  -25.9171  -32.4709   23.8280 C   0  0  1  0  0  0
  -27.2010  -27.1376   20.1539 C   0  0  0  0  0  0
  -25.5948  -33.8516   24.2186 N   0  0  0  0  0  0
  -23.4383  -30.4680   21.5427 C   0  0  2  0  0  0
  -24.8854  -28.8927   20.1210 C   0  0  0  0  0  0
  -22.7539  -29.4549   22.4931 C   0  0  0  0  0  0
  -18.0263  -28.1389   22.8484 C   0  0  0  0  0  0
  -24.1510  -36.7228   23.2644 C   0  0  0  0  0  0
  -26.0004  -30.7119   21.4021 C   0  0  0  0  0  0
  -26.0672  -29.3260   20.7402 C   0  0  0  0  0  0
  -27.2268  -28.4590   20.7480 C   0  0  0  0  0  0
  -25.9964  -26.7991   19.4994 C   0  0  0  0  0  0
  -24.8594  -27.6356   19.4974 C   0  0  0  0  0  0
  -23.6642  -29.8037   20.1607 C   0  0  0  0  0  0
  -25.4154  -36.3011   24.0298 C   0  0  1  0  0  0
  -20.5885  -28.3690   23.1279 C   0  0  2  0  0  0
  -20.6776  -26.9400   22.5424 C   0  0  0  0  0  0
  -19.5764  -26.6377   21.5232 C   0  0  0  0  0  0
  -18.1916  -26.7937   22.1609 C   0  0  0  0  0  0
  -19.1532  -28.8873   23.2858 C   0  0  0  0  0  0
  -18.9450  -30.1474   23.8864 C   0  0  0  0  0  0
  -17.6462  -30.6598   24.0567 C   0  0  0  0  0  0
  -25.9076  -34.9388   23.5059 C   0  0  0  0  0  0
  -16.5334  -29.9083   23.6375 C   0  0  0  0  0  0
  -16.7258  -28.6506   23.0369 C   0  0  0  0  0  0
  -26.4469  -31.6564   25.0709 C   0  0  0  0  0  0
  -25.3627  -31.3765   26.1388 C   0  0  0  0  0  0
  -27.0318  -30.2930   24.6328 C   0  0  0  0  0  0
  -27.6044  -32.4317   25.7429 C   0  0  0  0  0  0
  -27.5585  -37.1756   24.8464 C   0  0  0  0  0  0
  -21.4238  -29.3007   22.3663 N   0  0  0  0  0  0
  -26.4317  -37.3717   23.9386 N   0  0  0  0  0  0
  -24.7122  -31.0311   22.0990 N   0  0  0  0  0  0
  -23.4199  -28.8111   23.3093 O   0  0  0  0  0  0
  -28.2449  -26.1462   20.1517 O   0  0  0  0  0  0
  -26.5693  -34.8878   22.4645 O   0  0  0  0  0  0
  -23.5506  -32.1402   23.7142 O   0  0  0  0  0  0
  -28.2611  -20.9986   19.1112 C   0  0  0  0  0  0
  -27.8820  -22.3872   19.2424 C   0  0  0  0  0  0
  -29.2207  -20.3681   19.9598 C   0  0  0  0  0  0
  -28.5405  -23.2455   20.1891 C   0  0  0  0  0  0
  -28.4583  -18.0925   21.1251 C   0  0  0  0  0  0
  -28.7562  -16.5581   21.1581 C   0  0  0  0  0  0
  -30.4975  -17.6392   20.0087 C   0  0  0  0  0  0
  -29.2873  -18.7206   20.0223 C   0  0  2  0  0  0
  -26.6596  -22.8332   18.4522 C   0  0  0  0  0  0
  -27.9547  -24.7162   20.6848 C   0  0  0  0  0  0
  -29.8138  -21.2319   20.8600 N   0  0  0  0  0  0
  -29.5007  -22.5802   20.9475 N   0  0  0  0  0  0
  -29.9921  -16.2302   20.4293 N   0  0  0  0  0  0
  -31.4895  -12.7434   19.1733 H   0  0  0  0  0  0
  -30.4616  -11.6643   20.0618 H   0  0  0  0  0  0
  -29.8573  -11.7314   17.6022 H   0  0  0  0  0  0
  -29.6146  -13.4594   17.7037 H   0  0  0  0  0  0
  -27.9519  -11.2784   18.9851 H   0  0  0  0  0  0
  -27.4037  -12.4773   17.8420 H   0  0  0  0  0  0
  -27.6115  -14.2481   19.4304 H   0  0  0  0  0  0
  -28.8301  -12.3284   21.4724 H   0  0  0  0  0  0
  -28.4253  -13.9851   21.7785 H   0  0  0  0  0  0
  -25.2841   -9.5654   22.4773 H   0  0  0  0  0  0
  -24.0034   -7.4639   22.7487 H   0  0  0  0  0  0
  -21.0932   -8.8862   19.8919 H   0  0  0  0  0  0
  -22.3867  -10.9713   19.6161 H   0  0  0  0  0  0
  -21.2023   -7.6166   23.9725 H   0  0  0  0  0  0
  -21.1445   -6.0517   25.9063 H   0  0  0  0  0  0
  -22.0616   -2.7636   23.2815 H   0  0  0  0  0  0
  -22.4184  -11.9841   22.4710 H   0  0  0  0  0  0
  -21.1138  -13.1176   22.2546 H   0  0  0  0  0  0
  -24.6105  -15.8186   20.4115 H   0  0  0  0  0  0
  -26.2015  -15.5896   19.8960 H   0  0  0  0  0  0
  -26.7252  -32.5267   23.1006 H   0  0  0  0  0  0
  -25.0051  -33.9663   25.0297 H   0  0  0  0  0  0
  -22.7374  -31.2929   21.3953 H   0  0  0  0  0  0
  -23.3768  -35.9561   23.3325 H   0  0  0  0  0  0
  -24.3576  -36.8872   22.2053 H   0  0  0  0  0  0
  -23.7282  -37.6433   23.6698 H   0  0  0  0  0  0
  -26.1699  -31.4775   20.6479 H   0  0  0  0  0  0
  -26.8640  -30.7462   22.0556 H   0  0  0  0  0  0
  -28.1211  -28.7718   21.2696 H   0  0  0  0  0  0
  -25.9082  -25.8438   19.0027 H   0  0  0  0  0  0
  -23.9525  -27.2880   19.0177 H   0  0  0  0  0  0
  -23.8027  -30.5863   19.4137 H   0  0  0  0  0  0
  -22.7710  -29.2631   19.8448 H   0  0  0  0  0  0
  -25.1332  -36.1867   25.0793 H   0  0  0  0  0  0
  -20.9925  -28.3265   24.1440 H   0  0  0  0  0  0
  -20.5743  -26.2250   23.3600 H   0  0  0  0  0  0
  -21.6629  -26.7496   22.1190 H   0  0  0  0  0  0
  -19.6946  -25.6294   21.1264 H   0  0  0  0  0  0
  -19.6748  -27.3199   20.6777 H   0  0  0  0  0  0
  -17.4208  -26.6702   21.3968 H   0  0  0  0  0  0
  -18.0267  -26.0081   22.9006 H   0  0  0  0  0  0
  -19.7927  -30.7273   24.2209 H   0  0  0  0  0  0
  -17.5014  -31.6283   24.5138 H   0  0  0  0  0  0
  -15.5323  -30.2963   23.7763 H   0  0  0  0  0  0
  -15.8637  -28.0836   22.7102 H   0  0  0  0  0  0
  -24.5885  -30.7029   25.7680 H   0  0  0  0  0  0
  -24.8664  -32.2902   26.4657 H   0  0  0  0  0  0
  -25.7831  -30.9055   27.0276 H   0  0  0  0  0  0
  -26.2947  -29.6599   24.1376 H   0  0  0  0  0  0
  -27.3934  -29.7286   25.4926 H   0  0  0  0  0  0
  -27.8836  -30.4105   23.9644 H   0  0  0  0  0  0
  -27.2839  -33.3865   26.1635 H   0  0  0  0  0  0
  -28.3990  -32.6466   25.0262 H   0  0  0  0  0  0
  -28.0510  -31.8630   26.5613 H   0  0  0  0  0  0
  -28.2578  -38.0074   24.7513 H   0  0  0  0  0  0
  -28.1116  -36.2574   24.6326 H   0  0  0  0  0  0
  -27.2259  -37.1454   25.8860 H   0  0  0  0  0  0
  -20.9441  -29.8655   21.6802 H   0  0  0  0  0  0
  -26.0176  -38.2778   24.1398 H   0  0  0  0  0  0
  -27.7158  -20.3767   18.4164 H   0  0  0  0  0  0
  -28.7384  -18.5516   22.0721 H   0  0  0  0  0  0
  -27.4012  -18.3022   20.9588 H   0  0  0  0  0  0
  -27.9208  -16.0360   20.7076 H   0  0  0  0  0  0
  -28.8503  -16.2313   22.1944 H   0  0  0  0  0  0
  -31.2699  -17.9417   20.7130 H   0  0  0  0  0  0
  -30.9726  -17.6068   19.0266 H   0  0  0  0  0  0
  -28.7766  -18.4575   19.0930 H   0  0  0  0  0  0
  -26.5530  -22.2456   17.5400 H   0  0  0  0  0  0
  -26.6916  -23.8833   18.1627 H   0  0  0  0  0  0
  -25.7551  -22.6609   19.0393 H   0  0  0  0  0  0
  -28.2593  -24.7771   21.7327 H   0  0  0  0  0  0
  -26.8766  -24.5745   20.7608 H   0  0  0  0  0  0
  1 25  1  0  0  0
  1 30  2  0  0  0
  1 83  1  0  0  0
  2  3  1  0  0  0
  2 25  1  0  0  0
  2 84  1  0  0  0
  2 85  1  0  0  0
  3  4  1  0  0  0
  3 86  1  0  0  0
  3 87  1  0  0  0
  4  5  1  0  0  0
  4 88  1  0  0  0
  4 89  1  0  0  0
  5  6  1  0  0  0
  5 26  1  0  0  0
  5 90  1  0  0  0
  6 25  1  0  0  0
  6 91  1  0  0  0
  6 92  1  0  0  0
  7  8  2  0  0  0
  7 26  1  0  0  0
  7 29  1  0  0  0
  8  9  1  0  0  0
  8 22  1  0  0  0
  9 10  1  0  0  0
  9 27  2  0  0  0
 10 11  2  0  0  0
 10 15  1  0  0  0
 11 12  1  0  0  0
 11 93  1  0  0  0
 12 13  2  0  0  0
 12 94  1  0  0  0
 13 14  1  0  0  0
 13 31  1  0  0  0
 14 15  2  0  0  0
 14 95  1  0  0  0
 15 96  1  0  0  0
 16 17  2  0  0  0
 16 21  1  0  0  0
 16 31  1  0  0  0
 17 18  1  0  0  0
 17 97  1  0  0  0
 18 19  2  0  0  0
 18 98  1  0  0  0
 19 20  1  0  0  0
 19 24  1  0  0  0
 20 21  2  0  0  0
 20 99  1  0  0  0
 21 23  1  0  0  0
 22 28  1  0  0  0
 22 32  2  0  0  0
 26 27  1  0  0  0
 28100  1  0  0  0
 28101  1  0  0  0
 29102  1  0  0  0
 29103  1  0  0  0
 33 34  1  0  0  0
 33 66  1  0  0  0
 33 70  2  0  0  0
 34 36  1  0  0  0
 34 59  1  0  0  0
 34104  1  0  0  0
 35 44  2  0  0  0
 35 45  1  0  0  0
 35 68  1  0  0  0
 36 56  1  0  0  0
 36105  1  0  0  0
 37 39  1  0  0  0
 37 47  1  0  0  0
 37 66  1  0  0  0
 37106  1  0  0  0
 38 43  2  0  0  0
 38 46  1  0  0  0
 38 47  1  0  0  0
 39 64  1  0  0  0
 39 67  2  0  0  0
 40 52  1  0  0  0
 40 53  2  0  0  0
 40 58  1  0  0  0
 41107  1  0  0  0
 41108  1  0  0  0
 41109  1  0  0  0
 41 48  1  0  0  0
 42 43  1  0  0  0
 42 66  1  0  0  0
 42110  1  0  0  0
 42111  1  0  0  0
 43 44  1  0  0  0
 44112  1  0  0  0
 45 46  2  0  0  0
 45113  1  0  0  0
 46114  1  0  0  0
 47115  1  0  0  0
 47116  1  0  0  0
 48 56  1  0  0  0
 48 65  1  0  0  0
 48117  1  0  0  0
 49 50  1  0  0  0
 49 53  1  0  0  0
 49 64  1  0  0  0
 49118  1  0  0  0
 50 51  1  0  0  0
 50119  1  0  0  0
 50120  1  0  0  0
 51 52  1  0  0  0
 51121  1  0  0  0
 51122  1  0  0  0
 52123  1  0  0  0
 52124  1  0  0  0
 53 54  1  0  0  0
 54 55  2  0  0  0
 54125  1  0  0  0
 55 57  1  0  0  0
 55126  1  0  0  0
 56 69  2  0  0  0
 57 58  2  0  0  0
 57127  1  0  0  0
 58128  1  0  0  0
 59 60  1  0  0  0
 59 61  1  0  0  0
 59 62  1  0  0  0
 60129  1  0  0  0
 60130  1  0  0  0
 60131  1  0  0  0
 61132  1  0  0  0
 61133  1  0  0  0
 61134  1  0  0  0
 62135  1  0  0  0
 62136  1  0  0  0
 62137  1  0  0  0
 63 65  1  0  0  0
 63138  1  0  0  0
 63139  1  0  0  0
 63140  1  0  0  0
 64141  1  0  0  0
 65142  1  0  0  0
 68 80  1  0  0  0
 71 72  2  0  0  0
 71 73  1  0  0  0
 71143  1  0  0  0
 72 74  1  0  0  0
 72 79  1  0  0  0
 73 81  2  0  0  0
 73 78  1  0  0  0
 74 80  1  0  0  0
 74 82  2  0  0  0
 75 76  1  0  0  0
 75 78  1  0  0  0
 75144  1  0  0  0
 75145  1  0  0  0
 76 83  1  0  0  0
 76146  1  0  0  0
 76147  1  0  0  0
 77 78  1  0  0  0
 77 83  1  0  0  0
 77148  1  0  0  0
 77149  1  0  0  0
 78150  1  0  0  0
 79151  1  0  0  0
 79152  1  0  0  0
 79153  1  0  0  0
 80154  1  0  0  0
 80155  1  0  0  0
 81 82  1  0  0  0
M  ISO  4   1 100  68 101  80 101  83 100
M  END
> <chiral flag>
0

> <version>
0

> <s_m_source_file>
/data/baiqing/PycharmProjects/Reinvent-master-3.2/result/LINK_invent/BTK/process_docking_weight1_custom_sum_contain_oxygen_bond_distance_aromatic_linkinvent_7_9_3/rearranged_h_0174.sdf

> <i_m_source_file_index>
12

> <r_mmod_Potential_Energy-OPLS-2005>
754.879760742188

> <r_mmod_Stretch_Energy-OPLS-2005>
220.791839599609

> <r_mmod_Bend_Energy-OPLS-2005>
312.252105712891

> <r_mmod_Torsional_Energy-OPLS-2005>
331.426300048828

> <r_mmod_Improper_Torsional_Energy-OPLS-2005>
15.4110803604126

> <r_mmod_Van_der_Waal_Energy-OPLS-2005>
128.608505249023

> <r_mmod_Electrostatic_Energy-OPLS-2005>
-208.348403930664

> <r_mmod_Solvation_Energy-OPLS-2005>
-236.581985473633

> <b_mmod_Minimization_Converged-OPLS-2005>
0

> <r_mmod_RMS_Derivative-OPLS-2005>
6.91676902770996

$$$$
14
                    3D
 Structure written by MMmdl.
169178  0  0  1  0            999 V2000
  -30.7185  -14.5527   20.5564 C   0  0  0  0  0  0
  -30.4293  -12.3640   19.4312 C   0  0  0  0  0  0
  -29.5040  -12.5147   18.2079 C   0  0  0  0  0  0
  -28.0244  -12.3583   18.6152 C   0  0  0  0  0  0
  -27.6606  -13.1912   19.8721 C   0  0  2  0  0  0
  -28.7177  -13.0165   20.9912 C   0  0  0  0  0  0
  -25.2644  -13.8031   20.5797 C   0  0  0  0  0  0
  -24.1899  -13.0341   20.9277 C   0  0  0  0  0  0
  -24.6459  -11.6799   20.8836 C   0  0  0  0  0  0
  -23.9117  -10.4209   21.0472 C   0  0  0  0  0  0
  -24.3643   -9.4099   21.9240 C   0  0  0  0  0  0
  -23.6307   -8.2147   22.0766 C   0  0  0  0  0  0
  -22.4275   -8.0234   21.3551 C   0  0  0  0  0  0
  -21.9956   -9.0226   20.4643 C   0  0  0  0  0  0
  -22.7306  -10.2100   20.3100 C   0  0  0  0  0  0
  -21.6800   -6.0740   22.5318 C   0  0  0  0  0  0
  -21.3957   -6.5644   23.8256 C   0  0  0  0  0  0
  -21.3664   -5.6806   24.9219 C   0  0  0  0  0  0
  -21.6054   -4.3076   24.7274 C   0  0  0  0  0  0
  -21.8799   -3.8164   23.4384 C   0  0  0  0  0  0
  -21.9155   -4.6979   22.3445 C   0  0  0  0  0  0
  -22.7918  -13.5165   21.1845 C   0  0  0  0  0  0
  -22.1618   -4.2175   21.1019 F   0  0  0  0  0  0
  -21.5670   -3.4559   25.7776 F   0  0  0  0  0  0
  -30.0242  -13.3773   20.4279 N   0  0  0  0  0  0
  -26.3075  -12.9188   20.3424 N   0  0  0  0  0  0
  -25.9383  -11.6353   20.5844 N   0  0  0  0  0  0
  -22.0498  -12.8183   22.0360 N   0  0  0  0  0  0
  -25.4283  -15.1748   20.4194 N   0  0  0  0  0  0
  -31.8622  -14.6393   20.1000 O   0  0  0  0  0  0
  -21.6578   -6.8886   21.4277 O   0  0  0  0  0  0
  -22.3632  -14.5475   20.6648 O   0  0  0  0  0  0
  -24.6183  -31.8658   23.2095 C   0  0  0  0  0  0
  -25.9040  -32.4817   23.8388 C   0  0  1  0  0  0
  -27.2224  -27.3706   20.1125 C   0  0  0  0  0  0
  -25.5864  -33.8613   24.2324 N   0  0  0  0  0  0
  -23.4089  -30.4907   21.5512 C   0  0  2  0  0  0
  -24.8558  -28.9589   20.1099 C   0  0  0  0  0  0
  -22.7427  -29.4644   22.4969 C   0  0  0  0  0  0
  -18.0276  -28.1392   22.8492 C   0  0  0  0  0  0
  -24.1469  -36.7286   23.2643 C   0  0  0  0  0  0
  -25.9455  -30.8124   21.3748 C   0  0  0  0  0  0
  -26.0191  -29.4440   20.7172 C   0  0  0  0  0  0
  -27.2043  -28.6592   20.7142 C   0  0  0  0  0  0
  -26.0389  -26.9294   19.4753 C   0  0  0  0  0  0
  -24.8655  -27.7059   19.4797 C   0  0  0  0  0  0
  -23.6181  -29.8301   20.1645 C   0  0  0  0  0  0
  -25.4105  -36.3111   24.0339 C   0  0  1  0  0  0
  -20.5868  -28.3674   23.1304 C   0  0  2  0  0  0
  -20.6770  -26.9399   22.5434 C   0  0  0  0  0  0
  -19.5750  -26.6388   21.5226 C   0  0  0  0  0  0
  -18.1919  -26.7952   22.1614 C   0  0  0  0  0  0
  -19.1530  -28.8848   23.2901 C   0  0  0  0  0  0
  -18.9456  -30.1452   23.8909 C   0  0  0  0  0  0
  -17.6463  -30.6597   24.0569 C   0  0  0  0  0  0
  -25.9036  -34.9480   23.5145 C   0  0  0  0  0  0
  -16.5350  -29.9102   23.6338 C   0  0  0  0  0  0
  -16.7272  -28.6518   23.0360 C   0  0  0  0  0  0
  -26.4465  -31.6596   25.0715 C   0  0  0  0  0  0
  -25.3711  -31.3651   26.1429 C   0  0  0  0  0  0
  -27.0309  -30.3047   24.6099 C   0  0  0  0  0  0
  -27.6063  -32.4295   25.7461 C   0  0  0  0  0  0
  -27.5599  -37.1785   24.8456 C   0  0  0  0  0  0
  -21.4151  -29.3023   22.3692 N   0  0  0  0  0  0
  -26.4291  -37.3810   23.9436 N   0  0  0  0  0  0
  -24.6758  -31.0707   22.1022 N   0  0  0  0  0  0
  -23.4177  -28.8191   23.3026 O   0  0  0  0  0  0
  -28.3602  -26.5640   20.1803 O   0  0  0  0  0  0
  -26.5625  -34.8919   22.4730 O   0  0  0  0  0  0
  -23.5353  -32.1427   23.7450 O   0  0  0  0  0  0
  -27.8414  -20.5730   20.4133 C   0  0  0  0  0  0
  -31.0352  -16.7436   21.6566 C   0  0  0  0  0  0
  -28.8156  -16.1927   20.8302 C   0  0  0  0  0  0
  -28.2270  -21.9315   21.0746 C   0  0  0  0  0  0
  -30.8547  -18.0452   20.8121 C   0  0  0  0  0  0
  -28.5011  -17.6338   21.3453 C   0  0  0  0  0  0
  -30.3708  -21.9478   19.9707 C   0  0  0  0  0  0
  -30.0449  -20.6333   19.2039 C   0  0  2  0  0  0
  -29.0338  -19.6672   19.9366 C   0  0  1  0  0  0
  -31.2662  -20.0388   18.4748 C   0  0  0  0  0  0
  -29.3061  -24.1816   20.5557 C   0  0  0  0  0  0
  -28.1871  -25.1240   19.9875 C   0  0  0  0  0  0
  -30.1569  -15.6522   21.1689 N   0  0  0  0  0  0
  -29.5172  -18.6823   20.9975 N   0  3  0  0  0  0
  -29.1193  -22.7276   20.1862 N   0  3  2  0  0  0
  -31.4714  -12.4611   19.1219 H   0  0  0  0  0  0
  -30.3525  -11.3596   19.8525 H   0  0  0  0  0  0
  -29.7625  -11.7816   17.4425 H   0  0  0  0  0  0
  -29.6586  -13.4976   17.7559 H   0  0  0  0  0  0
  -27.8282  -11.3005   18.7915 H   0  0  0  0  0  0
  -27.3850  -12.6529   17.7835 H   0  0  0  0  0  0
  -27.6690  -14.2209   19.5255 H   0  0  0  0  0  0
  -28.7382  -11.9761   21.3205 H   0  0  0  0  0  0
  -28.4861  -13.5864   21.8901 H   0  0  0  0  0  0
  -25.2793   -9.5492   22.4847 H   0  0  0  0  0  0
  -23.9978   -7.4484   22.7463 H   0  0  0  0  0  0
  -21.0899   -8.8780   19.8929 H   0  0  0  0  0  0
  -22.3825  -10.9665   19.6215 H   0  0  0  0  0  0
  -21.1895   -7.6139   23.9759 H   0  0  0  0  0  0
  -21.1521   -6.0550   25.9128 H   0  0  0  0  0  0
  -22.0564   -2.7632   23.2912 H   0  0  0  0  0  0
  -22.4091  -11.9901   22.4861 H   0  0  0  0  0  0
  -21.1067  -13.1180   22.2380 H   0  0  0  0  0  0
  -24.6530  -15.8158   20.5520 H   0  0  0  0  0  0
  -26.2515  -15.6174   20.0390 H   0  0  0  0  0  0
  -26.7103  -32.5525   23.1129 H   0  0  0  0  0  0
  -24.9961  -33.9791   25.0430 H   0  0  0  0  0  0
  -22.6997  -31.3104   21.4152 H   0  0  0  0  0  0
  -23.3788  -35.9559   23.3250 H   0  0  0  0  0  0
  -24.3580  -36.8969   22.2075 H   0  0  0  0  0  0
  -23.7127  -37.6422   23.6705 H   0  0  0  0  0  0
  -26.0635  -31.5798   20.6093 H   0  0  0  0  0  0
  -26.8298  -30.8653   21.9968 H   0  0  0  0  0  0
  -28.0950  -29.0201   21.2077 H   0  0  0  0  0  0
  -25.9859  -25.9741   18.9738 H   0  0  0  0  0  0
  -23.9749  -27.3326   18.9933 H   0  0  0  0  0  0
  -23.7182  -30.6096   19.4074 H   0  0  0  0  0  0
  -22.7411  -29.2507   19.8690 H   0  0  0  0  0  0
  -25.1287  -36.1987   25.0832 H   0  0  0  0  0  0
  -20.9968  -28.3260   24.1416 H   0  0  0  0  0  0
  -20.5679  -26.2278   23.3623 H   0  0  0  0  0  0
  -21.6645  -26.7431   22.1227 H   0  0  0  0  0  0
  -19.6918  -25.6294   21.1266 H   0  0  0  0  0  0
  -19.6735  -27.3204   20.6761 H   0  0  0  0  0  0
  -17.4206  -26.6707   21.4001 H   0  0  0  0  0  0
  -18.0306  -26.0087   22.8991 H   0  0  0  0  0  0
  -19.7919  -30.7286   24.2286 H   0  0  0  0  0  0
  -17.5000  -31.6288   24.5159 H   0  0  0  0  0  0
  -15.5355  -30.3015   23.7656 H   0  0  0  0  0  0
  -15.8663  -28.0864   22.7071 H   0  0  0  0  0  0
  -24.5900  -30.7016   25.7684 H   0  0  0  0  0  0
  -24.8874  -32.2776   26.4925 H   0  0  0  0  0  0
  -25.8028  -30.8734   27.0154 H   0  0  0  0  0  0
  -26.2853  -29.6786   24.1173 H   0  0  0  0  0  0
  -27.4102  -29.7303   25.4560 H   0  0  0  0  0  0
  -27.8682  -30.4380   23.9240 H   0  0  0  0  0  0
  -27.2748  -33.3634   26.2005 H   0  0  0  0  0  0
  -28.3874  -32.6772   25.0261 H   0  0  0  0  0  0
  -28.0701  -31.8404   26.5376 H   0  0  0  0  0  0
  -28.2553  -38.0145   24.7625 H   0  0  0  0  0  0
  -28.1155  -36.2685   24.6149 H   0  0  0  0  0  0
  -27.2322  -37.1280   25.8849 H   0  0  0  0  0  0
  -20.9316  -29.8689   21.6866 H   0  0  0  0  0  0
  -26.0176  -38.2866   24.1528 H   0  0  0  0  0  0
  -27.2461  -20.8150   19.5316 H   0  0  0  0  0  0
  -27.1480  -20.0463   21.0652 H   0  0  0  0  0  0
  -30.8171  -16.9268   22.7095 H   0  0  0  0  0  0
  -32.0883  -16.4569   21.6553 H   0  0  0  0  0  0
  -28.7090  -16.1891   19.7439 H   0  0  0  0  0  0
  -28.0353  -15.5614   21.2422 H   0  0  0  0  0  0
  -28.7133  -21.7570   22.0374 H   0  0  0  0  0  0
  -27.3232  -22.4995   21.2991 H   0  0  0  0  0  0
  -30.9816  -17.7687   19.7663 H   0  0  0  0  0  0
  -31.6319  -18.7656   21.0613 H   0  0  0  0  0  0
  -28.4411  -17.6011   22.4351 H   0  0  0  0  0  0
  -27.4955  -17.9092   21.0268 H   0  0  0  0  0  0
  -31.0818  -22.5416   19.3937 H   0  0  0  0  0  0
  -30.8591  -21.7267   20.9226 H   0  0  0  0  0  0
  -29.4543  -20.9774   18.3497 H   0  0  0  0  0  0
  -28.6381  -19.0134   19.1552 H   0  0  0  0  0  0
  -32.1106  -19.8401   19.1330 H   0  0  0  0  0  0
  -31.6242  -20.7449   17.7225 H   0  0  0  0  0  0
  -31.0050  -19.1271   17.9363 H   0  0  0  0  0  0
  -29.3801  -24.2834   21.6394 H   0  0  0  0  0  0
  -30.2621  -24.5239   20.1568 H   0  0  0  0  0  0
  -27.2471  -24.8019   20.4386 H   0  0  0  0  0  0
  -28.0957  -24.9494   18.9153 H   0  0  0  0  0  0
  -29.6150  -19.2209   21.8465 H   0  0  0  0  0  0
  -28.6725  -22.7613   19.2811 H   0  0  0  0  0  0
  1 25  1  0  0  0
  1 30  2  0  0  0
  1 83  1  0  0  0
  2  3  1  0  0  0
  2 25  1  0  0  0
  2 86  1  0  0  0
  2 87  1  0  0  0
  3  4  1  0  0  0
  3 88  1  0  0  0
  3 89  1  0  0  0
  4  5  1  0  0  0
  4 90  1  0  0  0
  4 91  1  0  0  0
  5  6  1  0  0  0
  5 26  1  0  0  0
  5 92  1  0  0  0
  6 25  1  0  0  0
  6 93  1  0  0  0
  6 94  1  0  0  0
  7  8  2  0  0  0
  7 26  1  0  0  0
  7 29  1  0  0  0
  8  9  1  0  0  0
  8 22  1  0  0  0
  9 10  1  0  0  0
  9 27  2  0  0  0
 10 11  2  0  0  0
 10 15  1  0  0  0
 11 12  1  0  0  0
 11 95  1  0  0  0
 12 13  2  0  0  0
 12 96  1  0  0  0
 13 14  1  0  0  0
 13 31  1  0  0  0
 14 15  2  0  0  0
 14 97  1  0  0  0
 15 98  1  0  0  0
 16 17  2  0  0  0
 16 21  1  0  0  0
 16 31  1  0  0  0
 17 18  1  0  0  0
 17 99  1  0  0  0
 18 19  2  0  0  0
 18100  1  0  0  0
 19 20  1  0  0  0
 19 24  1  0  0  0
 20 21  2  0  0  0
 20101  1  0  0  0
 21 23  1  0  0  0
 22 28  1  0  0  0
 22 32  2  0  0  0
 26 27  1  0  0  0
 28102  1  0  0  0
 28103  1  0  0  0
 29104  1  0  0  0
 29105  1  0  0  0
 33 34  1  0  0  0
 33 66  1  0  0  0
 33 70  2  0  0  0
 34 36  1  0  0  0
 34 59  1  0  0  0
 34106  1  0  0  0
 35 44  2  0  0  0
 35 45  1  0  0  0
 35 68  1  0  0  0
 36 56  1  0  0  0
 36107  1  0  0  0
 37 39  1  0  0  0
 37 47  1  0  0  0
 37 66  1  0  0  0
 37108  1  0  0  0
 38 43  2  0  0  0
 38 46  1  0  0  0
 38 47  1  0  0  0
 39 64  1  0  0  0
 39 67  2  0  0  0
 40 52  1  0  0  0
 40 53  2  0  0  0
 40 58  1  0  0  0
 41109  1  0  0  0
 41110  1  0  0  0
 41111  1  0  0  0
 41 48  1  0  0  0
 42 43  1  0  0  0
 42 66  1  0  0  0
 42112  1  0  0  0
 42113  1  0  0  0
 43 44  1  0  0  0
 44114  1  0  0  0
 45 46  2  0  0  0
 45115  1  0  0  0
 46116  1  0  0  0
 47117  1  0  0  0
 47118  1  0  0  0
 48 56  1  0  0  0
 48 65  1  0  0  0
 48119  1  0  0  0
 49 50  1  0  0  0
 49 53  1  0  0  0
 49 64  1  0  0  0
 49120  1  0  0  0
 50 51  1  0  0  0
 50121  1  0  0  0
 50122  1  0  0  0
 51 52  1  0  0  0
 51123  1  0  0  0
 51124  1  0  0  0
 52125  1  0  0  0
 52126  1  0  0  0
 53 54  1  0  0  0
 54 55  2  0  0  0
 54127  1  0  0  0
 55 57  1  0  0  0
 55128  1  0  0  0
 56 69  2  0  0  0
 57 58  2  0  0  0
 57129  1  0  0  0
 58130  1  0  0  0
 59 60  1  0  0  0
 59 61  1  0  0  0
 59 62  1  0  0  0
 60131  1  0  0  0
 60132  1  0  0  0
 60133  1  0  0  0
 61134  1  0  0  0
 61135  1  0  0  0
 61136  1  0  0  0
 62137  1  0  0  0
 62138  1  0  0  0
 62139  1  0  0  0
 63 65  1  0  0  0
 63140  1  0  0  0
 63141  1  0  0  0
 63142  1  0  0  0
 64143  1  0  0  0
 65144  1  0  0  0
 68 82  1  0  0  0
 71 74  1  0  0  0
 71145  1  0  0  0
 71146  1  0  0  0
 71 79  1  0  0  0
 72 75  1  0  0  0
 72 83  1  0  0  0
 72147  1  0  0  0
 72148  1  0  0  0
 73 76  1  0  0  0
 73 83  1  0  0  0
 73149  1  0  0  0
 73150  1  0  0  0
 74 85  1  0  0  0
 74151  1  0  0  0
 74152  1  0  0  0
 75153  1  0  0  0
 75154  1  0  0  0
 75 84  1  0  0  0
 76 84  1  0  0  0
 76155  1  0  0  0
 76156  1  0  0  0
 77 78  1  0  0  0
 77 85  1  0  0  0
 77157  1  0  0  0
 77158  1  0  0  0
 78 79  1  0  0  0
 78 80  1  0  0  0
 78159  1  0  0  0
 79 84  1  0  0  0
 79160  1  0  0  0
 80161  1  0  0  0
 80162  1  0  0  0
 80163  1  0  0  0
 81 82  1  0  0  0
 81164  1  0  0  0
 81165  1  0  0  0
 81 85  1  0  0  0
 82166  1  0  0  0
 82167  1  0  0  0
 84168  1  0  0  0
 85169  1  0  0  0
M  CHG  2  84   1  85   1
M  ISO  4   1 100  68 101  82 101  83 100
M  END
> <chiral flag>
0

> <version>
0

> <s_m_source_file>
/data/baiqing/PycharmProjects/Reinvent-master-3.2/result/LINK_invent/BTK/process_docking_weight1_custom_sum_contain_oxygen_bond_distance_aromatic_linkinvent_7_9_3/rearranged_h_0174.sdf

> <i_m_source_file_index>
13

> <r_mmod_Potential_Energy-OPLS-2005>
131.239028930664

> <r_mmod_Stretch_Energy-OPLS-2005>
66.6950531005859

> <r_mmod_Bend_Energy-OPLS-2005>
169.954696655273

> <r_mmod_Torsional_Energy-OPLS-2005>
435.685668945312

> <r_mmod_Improper_Torsional_Energy-OPLS-2005>
4.10901880264282

> <r_mmod_Van_der_Waal_Energy-OPLS-2005>
166.035781860352

> <r_mmod_Electrostatic_Energy-OPLS-2005>
206.053359985352

> <r_mmod_Solvation_Energy-OPLS-2005>
-945.283996582031

> <b_mmod_Minimization_Converged-OPLS-2005>
0

> <r_mmod_RMS_Derivative-OPLS-2005>
4.36585855484009

$$$$
15
                    3D
 Structure written by MMmdl.
168178  0  0  1  0            999 V2000
  -30.6753  -14.5756   20.5030 C   0  0  0  0  0  0
  -30.4231  -12.3508   19.4496 C   0  0  0  0  0  0
  -29.5029  -12.5004   18.2194 C   0  0  0  0  0  0
  -28.0227  -12.3575   18.6269 C   0  0  0  0  0  0
  -27.6534  -13.2176   19.8657 C   0  0  2  0  0  0
  -28.6983  -13.0638   20.9933 C   0  0  0  0  0  0
  -25.2553  -13.8175   20.5686 C   0  0  0  0  0  0
  -24.1817  -13.0446   20.9182 C   0  0  0  0  0  0
  -24.6393  -11.6911   20.8744 C   0  0  0  0  0  0
  -23.9064  -10.4298   21.0405 C   0  0  0  0  0  0
  -24.3617   -9.4210   21.9181 C   0  0  0  0  0  0
  -23.6286   -8.2250   22.0755 C   0  0  0  0  0  0
  -22.4266   -8.0287   21.3548 C   0  0  0  0  0  0
  -21.9900   -9.0266   20.4654 C   0  0  0  0  0  0
  -22.7236  -10.2144   20.3058 C   0  0  0  0  0  0
  -21.6857   -6.0734   22.5278 C   0  0  0  0  0  0
  -21.4022   -6.5634   23.8213 C   0  0  0  0  0  0
  -21.3656   -5.6788   24.9173 C   0  0  0  0  0  0
  -21.6039   -4.3052   24.7222 C   0  0  0  0  0  0
  -21.8823   -3.8144   23.4345 C   0  0  0  0  0  0
  -21.9196   -4.6962   22.3403 C   0  0  0  0  0  0
  -22.7838  -13.5243   21.1833 C   0  0  0  0  0  0
  -22.1659   -4.2144   21.0984 F   0  0  0  0  0  0
  -21.5626   -3.4538   25.7736 F   0  0  0  0  0  0
  -30.0155  -13.3800   20.4238 N   0  0  0  0  0  0
  -26.2991  -12.9362   20.3346 N   0  0  0  0  0  0
  -25.9321  -11.6512   20.5766 N   0  0  0  0  0  0
  -22.0474  -12.8249   22.0404 N   0  0  0  0  0  0
  -25.4263  -15.1898   20.4092 N   0  0  0  0  0  0
  -31.8496  -14.6823   20.1360 O   0  0  0  0  0  0
  -21.6640   -6.8879   21.4241 O   0  0  0  0  0  0
  -22.3514  -14.5534   20.6669 O   0  0  0  0  0  0
  -24.6218  -31.8639   23.2075 C   0  0  0  0  0  0
  -25.9088  -32.4794   23.8389 C   0  0  1  0  0  0
  -27.2208  -27.3717   20.1154 C   0  0  0  0  0  0
  -25.5930  -33.8593   24.2319 N   0  0  0  0  0  0
  -23.4134  -30.4897   21.5467 C   0  0  2  0  0  0
  -24.8636  -28.9587   20.1034 C   0  0  0  0  0  0
  -22.7459  -29.4637   22.4924 C   0  0  0  0  0  0
  -18.0291  -28.1383   22.8474 C   0  0  0  0  0  0
  -24.1482  -36.7294   23.2628 C   0  0  0  0  0  0
  -25.9501  -30.8113   21.3730 C   0  0  0  0  0  0
  -26.0279  -29.4440   20.7149 C   0  0  0  0  0  0
  -27.2141  -28.6586   20.7195 C   0  0  0  0  0  0
  -26.0483  -26.9384   19.4599 C   0  0  0  0  0  0
  -24.8726  -27.7086   19.4658 C   0  0  0  0  0  0
  -23.6277  -29.8308   20.1583 C   0  0  0  0  0  0
  -25.4098  -36.3084   24.0331 C   0  0  1  0  0  0
  -20.5886  -28.3683   23.1279 C   0  0  2  0  0  0
  -20.6773  -26.9405   22.5408 C   0  0  0  0  0  0
  -19.5757  -26.6383   21.5197 C   0  0  0  0  0  0
  -18.1938  -26.7927   22.1610 C   0  0  0  0  0  0
  -19.1541  -28.8845   23.2877 C   0  0  0  0  0  0
  -18.9469  -30.1447   23.8902 C   0  0  0  0  0  0
  -17.6468  -30.6572   24.0567 C   0  0  0  0  0  0
  -25.9043  -34.9458   23.5120 C   0  0  0  0  0  0
  -16.5361  -29.9079   23.6321 C   0  0  0  0  0  0
  -16.7276  -28.6501   23.0333 C   0  0  0  0  0  0
  -26.4491  -31.6573   25.0725 C   0  0  0  0  0  0
  -25.3759  -31.3732   26.1485 C   0  0  0  0  0  0
  -27.0286  -30.2986   24.6135 C   0  0  0  0  0  0
  -27.6090  -32.4268   25.7473 C   0  0  0  0  0  0
  -27.5587  -37.1778   24.8445 C   0  0  0  0  0  0
  -21.4172  -29.3039   22.3671 N   0  0  0  0  0  0
  -26.4267  -37.3790   23.9439 N   0  0  0  0  0  0
  -24.6797  -31.0701   22.0999 N   0  0  0  0  0  0
  -23.4199  -28.8167   23.2981 O   0  0  0  0  0  0
  -28.2930  -26.4884   20.1953 O   0  0  0  0  0  0
  -26.5597  -34.8917   22.4674 O   0  0  0  0  0  0
  -23.5392  -32.1417   23.7432 O   0  0  0  0  0  0
  -30.4180  -22.4013   21.7310 C   0  0  0  0  0  0
  -29.8873  -23.7162   21.6978 C   0  0  0  0  0  0
  -28.7644  -23.9825   20.8719 C   0  0  0  0  0  0
  -28.2775  -22.8810   20.1064 C   0  0  0  0  0  0
  -29.8307  -21.3593   20.9872 C   0  0  0  0  0  0
  -31.0846  -26.0302   22.0393 C   0  0  0  0  0  0
  -31.9712  -24.9869   22.6787 C   0  0  0  0  0  0
  -29.8496  -17.7642   22.0050 C   0  0  0  0  0  0
  -30.3459  -18.0427   19.5970 C   0  0  0  0  0  0
  -29.3220  -16.3177   21.7351 C   0  0  0  0  0  0
  -29.8011  -16.6040   19.3520 C   0  0  0  0  0  0
  -30.4775  -24.7648   22.5982 C   0  0  0  0  0  0
  -29.7078  -18.7542   20.8131 C   0  0  0  0  0  0
  -27.0861  -23.0301   19.1789 C   0  0  0  0  0  0
  -27.9626  -25.3168   21.0096 C   0  0  0  0  0  0
  -28.7863  -21.6131   20.1715 N   0  0  0  0  0  0
  -29.8876  -15.6993   20.5215 N   0  0  0  0  0  0
  -30.3654  -20.0507   21.1079 N   0  0  0  0  0  0
  -31.4694  -12.4439   19.1539 H   0  0  0  0  0  0
  -30.3237  -11.3562   19.8873 H   0  0  0  0  0  0
  -29.7573  -11.7540   17.4662 H   0  0  0  0  0  0
  -29.6646  -13.4729   17.7513 H   0  0  0  0  0  0
  -27.8415  -11.3034   18.8397 H   0  0  0  0  0  0
  -27.3751  -12.6125   17.7867 H   0  0  0  0  0  0
  -27.6743  -14.2560   19.5355 H   0  0  0  0  0  0
  -28.6938  -12.0455   21.3832 H   0  0  0  0  0  0
  -28.4569  -13.7095   21.8367 H   0  0  0  0  0  0
  -25.2767   -9.5688   22.4744 H   0  0  0  0  0  0
  -24.0004   -7.4643   22.7469 H   0  0  0  0  0  0
  -21.0832   -8.8789   19.8955 H   0  0  0  0  0  0
  -22.3695  -10.9683   19.6164 H   0  0  0  0  0  0
  -21.2019   -7.6142   23.9710 H   0  0  0  0  0  0
  -21.1464   -6.0520   25.9074 H   0  0  0  0  0  0
  -22.0602   -2.7605   23.2855 H   0  0  0  0  0  0
  -22.4087  -11.9941   22.4840 H   0  0  0  0  0  0
  -21.1083  -13.1277   22.2570 H   0  0  0  0  0  0
  -24.6611  -15.8467   20.5140 H   0  0  0  0  0  0
  -26.2839  -15.6273   20.0982 H   0  0  0  0  0  0
  -26.7156  -32.5489   23.1147 H   0  0  0  0  0  0
  -25.0106  -33.9755   25.0479 H   0  0  0  0  0  0
  -22.7045  -31.3085   21.4066 H   0  0  0  0  0  0
  -23.3762  -35.9601   23.3230 H   0  0  0  0  0  0
  -24.3607  -36.8975   22.2057 H   0  0  0  0  0  0
  -23.7197  -37.6461   23.6689 H   0  0  0  0  0  0
  -26.0752  -31.5758   20.6051 H   0  0  0  0  0  0
  -26.8333  -30.8627   21.9973 H   0  0  0  0  0  0
  -28.1023  -29.0139   21.2238 H   0  0  0  0  0  0
  -26.0302  -25.9777   18.9671 H   0  0  0  0  0  0
  -23.9837  -27.3327   18.9781 H   0  0  0  0  0  0
  -23.7433  -30.6102   19.4039 H   0  0  0  0  0  0
  -22.7500  -29.2575   19.8548 H   0  0  0  0  0  0
  -25.1254  -36.1933   25.0818 H   0  0  0  0  0  0
  -20.9987  -28.3264   24.1395 H   0  0  0  0  0  0
  -20.5645  -26.2295   23.3606 H   0  0  0  0  0  0
  -21.6651  -26.7426   22.1223 H   0  0  0  0  0  0
  -19.6923  -25.6296   21.1221 H   0  0  0  0  0  0
  -19.6691  -27.3195   20.6727 H   0  0  0  0  0  0
  -17.4201  -26.6659   21.4021 H   0  0  0  0  0  0
  -18.0350  -26.0073   22.9012 H   0  0  0  0  0  0
  -19.7949  -30.7262   24.2273 H   0  0  0  0  0  0
  -17.5026  -31.6250   24.5179 H   0  0  0  0  0  0
  -15.5364  -30.2985   23.7645 H   0  0  0  0  0  0
  -15.8674  -28.0826   22.7038 H   0  0  0  0  0  0
  -24.5891  -30.7114   25.7845 H   0  0  0  0  0  0
  -24.9005  -32.2915   26.4945 H   0  0  0  0  0  0
  -25.8107  -30.8887   27.0236 H   0  0  0  0  0  0
  -26.2817  -29.6766   24.1184 H   0  0  0  0  0  0
  -27.4010  -29.7215   25.4610 H   0  0  0  0  0  0
  -27.8690  -30.4255   23.9307 H   0  0  0  0  0  0
  -27.2748  -33.3593   26.2034 H   0  0  0  0  0  0
  -28.3907  -32.6772   25.0288 H   0  0  0  0  0  0
  -28.0731  -31.8381   26.5396 H   0  0  0  0  0  0
  -28.2541  -38.0139   24.7592 H   0  0  0  0  0  0
  -28.1143  -36.2682   24.6116 H   0  0  0  0  0  0
  -27.2344  -37.1250   25.8853 H   0  0  0  0  0  0
  -20.9336  -29.8781   21.6906 H   0  0  0  0  0  0
  -26.0139  -38.2841   24.1528 H   0  0  0  0  0  0
  -31.2587  -22.1948   22.3790 H   0  0  0  0  0  0
  -31.1291  -26.1342   20.9575 H   0  0  0  0  0  0
  -30.9292  -26.9539   22.5937 H   0  0  0  0  0  0
  -32.3959  -25.2296   23.6512 H   0  0  0  0  0  0
  -32.6125  -24.4051   22.0201 H   0  0  0  0  0  0
  -30.9015  -17.6899   22.2870 H   0  0  0  0  0  0
  -29.3389  -18.1706   22.8785 H   0  0  0  0  0  0
  -30.1865  -18.6437   18.7003 H   0  0  0  0  0  0
  -31.4272  -17.9860   19.7311 H   0  0  0  0  0  0
  -28.2368  -16.3355   21.6288 H   0  0  0  0  0  0
  -29.5299  -15.6931   22.6058 H   0  0  0  0  0  0
  -30.3191  -16.1680   18.4954 H   0  0  0  0  0  0
  -28.7528  -16.6623   19.0568 H   0  0  0  0  0  0
  -29.9117  -24.8429   23.5251 H   0  0  0  0  0  0
  -28.6484  -18.9274   20.6160 H   0  0  0  0  0  0
  -27.1372  -23.9719   18.6333 H   0  0  0  0  0  0
  -26.1542  -23.0020   19.7437 H   0  0  0  0  0  0
  -27.0535  -22.2292   18.4396 H   0  0  0  0  0  0
  -28.0354  -25.6423   22.0475 H   0  0  0  0  0  0
  -26.9122  -25.0442   20.9177 H   0  0  0  0  0  0
  -31.1755  -19.9825   21.7140 H   0  0  0  0  0  0
  1 25  1  0  0  0
  1 30  2  0  0  0
  1 87  1  0  0  0
  2  3  1  0  0  0
  2 25  1  0  0  0
  2 89  1  0  0  0
  2 90  1  0  0  0
  3  4  1  0  0  0
  3 91  1  0  0  0
  3 92  1  0  0  0
  4  5  1  0  0  0
  4 93  1  0  0  0
  4 94  1  0  0  0
  5  6  1  0  0  0
  5 26  1  0  0  0
  5 95  1  0  0  0
  6 25  1  0  0  0
  6 96  1  0  0  0
  6 97  1  0  0  0
  7  8  2  0  0  0
  7 26  1  0  0  0
  7 29  1  0  0  0
  8  9  1  0  0  0
  8 22  1  0  0  0
  9 10  1  0  0  0
  9 27  2  0  0  0
 10 11  2  0  0  0
 10 15  1  0  0  0
 11 12  1  0  0  0
 11 98  1  0  0  0
 12 13  2  0  0  0
 12 99  1  0  0  0
 13 14  1  0  0  0
 13 31  1  0  0  0
 14 15  2  0  0  0
 14100  1  0  0  0
 15101  1  0  0  0
 16 17  2  0  0  0
 16 21  1  0  0  0
 16 31  1  0  0  0
 17 18  1  0  0  0
 17102  1  0  0  0
 18 19  2  0  0  0
 18103  1  0  0  0
 19 20  1  0  0  0
 19 24  1  0  0  0
 20 21  2  0  0  0
 20104  1  0  0  0
 21 23  1  0  0  0
 22 28  1  0  0  0
 22 32  2  0  0  0
 26 27  1  0  0  0
 28105  1  0  0  0
 28106  1  0  0  0
 29107  1  0  0  0
 29108  1  0  0  0
 33 34  1  0  0  0
 33 66  1  0  0  0
 33 70  2  0  0  0
 34 36  1  0  0  0
 34 59  1  0  0  0
 34109  1  0  0  0
 35 44  2  0  0  0
 35 45  1  0  0  0
 35 68  1  0  0  0
 36 56  1  0  0  0
 36110  1  0  0  0
 37 39  1  0  0  0
 37 47  1  0  0  0
 37 66  1  0  0  0
 37111  1  0  0  0
 38 43  2  0  0  0
 38 46  1  0  0  0
 38 47  1  0  0  0
 39 64  1  0  0  0
 39 67  2  0  0  0
 40 52  1  0  0  0
 40 53  2  0  0  0
 40 58  1  0  0  0
 41112  1  0  0  0
 41113  1  0  0  0
 41114  1  0  0  0
 41 48  1  0  0  0
 42 43  1  0  0  0
 42 66  1  0  0  0
 42115  1  0  0  0
 42116  1  0  0  0
 43 44  1  0  0  0
 44117  1  0  0  0
 45 46  2  0  0  0
 45118  1  0  0  0
 46119  1  0  0  0
 47120  1  0  0  0
 47121  1  0  0  0
 48 56  1  0  0  0
 48 65  1  0  0  0
 48122  1  0  0  0
 49 50  1  0  0  0
 49 53  1  0  0  0
 49 64  1  0  0  0
 49123  1  0  0  0
 50 51  1  0  0  0
 50124  1  0  0  0
 50125  1  0  0  0
 51 52  1  0  0  0
 51126  1  0  0  0
 51127  1  0  0  0
 52128  1  0  0  0
 52129  1  0  0  0
 53 54  1  0  0  0
 54 55  2  0  0  0
 54130  1  0  0  0
 55 57  1  0  0  0
 55131  1  0  0  0
 56 69  2  0  0  0
 57 58  2  0  0  0
 57132  1  0  0  0
 58133  1  0  0  0
 59 60  1  0  0  0
 59 61  1  0  0  0
 59 62  1  0  0  0
 60134  1  0  0  0
 60135  1  0  0  0
 60136  1  0  0  0
 61137  1  0  0  0
 61138  1  0  0  0
 61139  1  0  0  0
 62140  1  0  0  0
 62141  1  0  0  0
 62142  1  0  0  0
 63 65  1  0  0  0
 63143  1  0  0  0
 63144  1  0  0  0
 63145  1  0  0  0
 64146  1  0  0  0
 65147  1  0  0  0
 68 85  1  0  0  0
 71 72  2  0  0  0
 71 75  1  0  0  0
 71148  1  0  0  0
 72 73  1  0  0  0
 72 82  1  0  0  0
 73 74  2  0  0  0
 73 85  1  0  0  0
 74 84  1  0  0  0
 74 86  1  0  0  0
 75 86  2  0  0  0
 75 88  1  0  0  0
 76 77  1  0  0  0
 76 82  1  0  0  0
 76149  1  0  0  0
 76150  1  0  0  0
 77 82  1  0  0  0
 77151  1  0  0  0
 77152  1  0  0  0
 78 80  1  0  0  0
 78 83  1  0  0  0
 78153  1  0  0  0
 78154  1  0  0  0
 79 81  1  0  0  0
 79 83  1  0  0  0
 79155  1  0  0  0
 79156  1  0  0  0
 80 87  1  0  0  0
 80157  1  0  0  0
 80158  1  0  0  0
 81 87  1  0  0  0
 81159  1  0  0  0
 81160  1  0  0  0
 82161  1  0  0  0
 83 88  1  0  0  0
 83162  1  0  0  0
 84163  1  0  0  0
 84164  1  0  0  0
 84165  1  0  0  0
 85166  1  0  0  0
 85167  1  0  0  0
 88168  1  0  0  0
M  ISO  4   1 100  68 101  85 101  87 100
M  END
> <chiral flag>
0

> <version>
0

> <s_m_source_file>
/data/baiqing/PycharmProjects/Reinvent-master-3.2/result/LINK_invent/BTK/process_docking_weight1_custom_sum_contain_oxygen_bond_distance_aromatic_linkinvent_7_9_3/rearranged_h_0174.sdf

> <i_m_source_file_index>
14

> <r_mmod_Potential_Energy-OPLS-2005>
62.073356628418

> <r_mmod_Stretch_Energy-OPLS-2005>
57.8554916381836

> <r_mmod_Bend_Energy-OPLS-2005>
135.459655761719

> <r_mmod_Torsional_Energy-OPLS-2005>
387.821716308594

> <r_mmod_Improper_Torsional_Energy-OPLS-2005>
18.1521263122559

> <r_mmod_Van_der_Waal_Energy-OPLS-2005>
141.269912719727

> <r_mmod_Electrostatic_Energy-OPLS-2005>
-495.403747558594

> <r_mmod_Solvation_Energy-OPLS-2005>
-220.282669067383

> <b_mmod_Minimization_Converged-OPLS-2005>
0

> <r_mmod_RMS_Derivative-OPLS-2005>
1.41032683849335

$$$$
16
                    3D
 Structure written by MMmdl.
165174  0  0  1  0            999 V2000
  -30.7061  -14.6074   20.5588 C   0  0  0  0  0  0
  -30.4160  -12.3948   19.4556 C   0  0  0  0  0  0
  -29.4961  -12.4878   18.2211 C   0  0  0  0  0  0
  -28.0279  -12.2926   18.6397 C   0  0  0  0  0  0
  -27.6420  -13.1883   19.8413 C   0  0  2  0  0  0
  -28.6852  -13.0879   20.9849 C   0  0  0  0  0  0
  -25.2558  -13.8093   20.5659 C   0  0  0  0  0  0
  -24.1816  -13.0397   20.9197 C   0  0  0  0  0  0
  -24.6353  -11.6858   20.8740 C   0  0  0  0  0  0
  -23.9019  -10.4270   21.0416 C   0  0  0  0  0  0
  -24.3592   -9.4192   21.9189 C   0  0  0  0  0  0
  -23.6281   -8.2221   22.0749 C   0  0  0  0  0  0
  -22.4260   -8.0265   21.3543 C   0  0  0  0  0  0
  -21.9883   -9.0233   20.4646 C   0  0  0  0  0  0
  -22.7196  -10.2118   20.3062 C   0  0  0  0  0  0
  -21.6852   -6.0729   22.5278 C   0  0  0  0  0  0
  -21.4006   -6.5633   23.8211 C   0  0  0  0  0  0
  -21.3654   -5.6788   24.9175 C   0  0  0  0  0  0
  -21.6049   -4.3051   24.7227 C   0  0  0  0  0  0
  -21.8820   -3.8138   23.4349 C   0  0  0  0  0  0
  -21.9192   -4.6956   22.3404 C   0  0  0  0  0  0
  -22.7858  -13.5226   21.1858 C   0  0  0  0  0  0
  -22.1669   -4.2142   21.0984 F   0  0  0  0  0  0
  -21.5630   -3.4536   25.7742 F   0  0  0  0  0  0
  -29.9962  -13.4372   20.4237 N   0  0  0  0  0  0
  -26.2925  -12.9211   20.3206 N   0  0  0  0  0  0
  -25.9258  -11.6404   20.5717 N   0  0  0  0  0  0
  -22.0494  -12.8235   22.0416 N   0  0  0  0  0  0
  -25.4274  -15.1807   20.4081 N   0  0  0  0  0  0
  -31.8492  -14.6702   20.0940 O   0  0  0  0  0  0
  -21.6628   -6.8862   21.4240 O   0  0  0  0  0  0
  -22.3560  -14.5551   20.6713 O   0  0  0  0  0  0
  -24.6167  -31.8673   23.2078 C   0  0  0  0  0  0
  -25.9065  -32.4805   23.8372 C   0  0  1  0  0  0
  -27.2272  -27.3886   20.0994 C   0  0  0  0  0  0
  -25.5904  -33.8609   24.2294 N   0  0  0  0  0  0
  -23.4071  -30.4887   21.5509 C   0  0  2  0  0  0
  -24.8512  -28.9464   20.1154 C   0  0  0  0  0  0
  -22.7418  -29.4682   22.5016 C   0  0  0  0  0  0
  -18.0269  -28.1418   22.8517 C   0  0  0  0  0  0
  -24.1471  -36.7297   23.2639 C   0  0  0  0  0  0
  -25.9409  -30.8122   21.3721 C   0  0  0  0  0  0
  -26.0133  -29.4423   20.7187 C   0  0  0  0  0  0
  -27.2034  -28.6700   20.7098 C   0  0  0  0  0  0
  -26.0502  -26.9184   19.4826 C   0  0  0  0  0  0
  -24.8673  -27.6831   19.4937 C   0  0  0  0  0  0
  -23.6157  -29.8180   20.1672 C   0  0  0  0  0  0
  -25.4101  -36.3109   24.0331 C   0  0  1  0  0  0
  -20.5859  -28.3708   23.1330 C   0  0  2  0  0  0
  -20.6737  -26.9444   22.5433 C   0  0  0  0  0  0
  -19.5712  -26.6456   21.5220 C   0  0  0  0  0  0
  -18.1899  -26.7978   22.1641 C   0  0  0  0  0  0
  -19.1522  -28.8885   23.2919 C   0  0  0  0  0  0
  -18.9451  -30.1474   23.8940 C   0  0  0  0  0  0
  -17.6449  -30.6609   24.0605 C   0  0  0  0  0  0
  -25.9050  -34.9477   23.5117 C   0  0  0  0  0  0
  -16.5344  -29.9114   23.6344 C   0  0  0  0  0  0
  -16.7257  -28.6538   23.0375 C   0  0  0  0  0  0
  -26.4470  -31.6598   25.0723 C   0  0  0  0  0  0
  -25.3720  -31.3755   26.1475 C   0  0  0  0  0  0
  -27.0254  -30.2996   24.6179 C   0  0  0  0  0  0
  -27.6070  -32.4309   25.7440 C   0  0  0  0  0  0
  -27.5581  -37.1794   24.8462 C   0  0  0  0  0  0
  -21.4147  -29.3054   22.3726 N   0  0  0  0  0  0
  -26.4282  -37.3800   23.9420 N   0  0  0  0  0  0
  -24.6729  -31.0735   22.0998 N   0  0  0  0  0  0
  -23.4173  -28.8246   23.3095 O   0  0  0  0  0  0
  -28.3851  -26.6226   20.0859 O   0  0  0  0  0  0
  -26.5632  -34.8927   22.4692 O   0  0  0  0  0  0
  -23.5348  -32.1467   23.7427 O   0  0  0  0  0  0
  -28.8715  -22.9845   19.3486 C   0  0  0  0  0  0
  -28.8606  -24.3966   19.1809 C   0  0  0  0  0  0
  -28.3465  -25.2297   20.2080 C   0  0  0  0  0  0
  -28.3838  -22.4165   20.5467 C   0  0  0  0  0  0
  -27.8847  -24.5658   21.3741 C   0  0  0  0  0  0
  -31.0333  -18.1269   21.2875 C   0  0  0  0  0  0
  -28.6586  -17.7079   20.6998 C   0  0  0  0  0  0
  -31.1142  -16.6868   21.8765 C   0  0  0  0  0  0
  -28.8213  -16.2615   21.2802 C   0  0  0  0  0  0
  -29.6130  -18.7444   21.3498 C   0  0  0  0  0  0
  -29.4003  -25.0146   17.9043 C   0  0  0  0  0  0
  -27.3304  -25.3422   22.5518 C   0  0  0  0  0  0
  -28.2787  -20.8827   20.7730 C   0  0  0  0  0  0
  -27.9064  -23.2142   21.5340 N   0  0  0  0  0  0
  -30.2016  -15.7142   21.2257 N   0  0  0  0  0  0
  -29.5720  -20.1389   20.7669 N   0  3  0  0  0  0
  -31.4590  -12.4875   19.1472 H   0  0  0  0  0  0
  -30.3404  -11.4074   19.9135 H   0  0  0  0  0  0
  -29.7766  -11.7324   17.4858 H   0  0  0  0  0  0
  -29.6214  -13.4547   17.7309 H   0  0  0  0  0  0
  -27.8964  -11.2429   18.9057 H   0  0  0  0  0  0
  -27.3638  -12.4784   17.7948 H   0  0  0  0  0  0
  -27.6387  -14.1881   19.4170 H   0  0  0  0  0  0
  -28.7119  -12.0735   21.3852 H   0  0  0  0  0  0
  -28.4210  -13.7160   21.8346 H   0  0  0  0  0  0
  -25.2742   -9.5679   22.4755 H   0  0  0  0  0  0
  -24.0002   -7.4613   22.7458 H   0  0  0  0  0  0
  -21.0816   -8.8749   19.8958 H   0  0  0  0  0  0
  -22.3654  -10.9661   19.6178 H   0  0  0  0  0  0
  -21.1989   -7.6141   23.9711 H   0  0  0  0  0  0
  -21.1481   -6.0518   25.9079 H   0  0  0  0  0  0
  -22.0604   -2.7600   23.2852 H   0  0  0  0  0  0
  -22.4104  -11.9893   22.4809 H   0  0  0  0  0  0
  -21.1112  -13.1270   22.2607 H   0  0  0  0  0  0
  -24.6627  -15.8345   20.5333 H   0  0  0  0  0  0
  -26.2751  -15.6216   20.0779 H   0  0  0  0  0  0
  -26.7136  -32.5510   23.1120 H   0  0  0  0  0  0
  -24.9972  -33.9760   25.0386 H   0  0  0  0  0  0
  -22.6946  -31.3039   21.4091 H   0  0  0  0  0  0
  -23.3740  -35.9629   23.3309 H   0  0  0  0  0  0
  -24.3544  -36.8912   22.2054 H   0  0  0  0  0  0
  -23.7209  -37.6491   23.6654 H   0  0  0  0  0  0
  -26.0686  -31.5751   20.6028 H   0  0  0  0  0  0
  -26.8227  -30.8592   21.9997 H   0  0  0  0  0  0
  -28.1004  -29.0499   21.1782 H   0  0  0  0  0  0
  -26.0440  -25.9555   18.9917 H   0  0  0  0  0  0
  -23.9789  -27.2942   19.0169 H   0  0  0  0  0  0
  -23.7213  -30.5916   19.4049 H   0  0  0  0  0  0
  -22.7372  -29.2392   19.8759 H   0  0  0  0  0  0
  -25.1270  -36.1962   25.0821 H   0  0  0  0  0  0
  -20.9965  -28.3288   24.1450 H   0  0  0  0  0  0
  -20.5637  -26.2322   23.3622 H   0  0  0  0  0  0
  -21.6603  -26.7480   22.1231 H   0  0  0  0  0  0
  -19.6853  -25.6395   21.1186 H   0  0  0  0  0  0
  -19.6624  -27.3312   20.6784 H   0  0  0  0  0  0
  -17.4165  -26.6769   21.4045 H   0  0  0  0  0  0
  -18.0273  -26.0103   22.9011 H   0  0  0  0  0  0
  -19.7923  -30.7291   24.2331 H   0  0  0  0  0  0
  -17.5003  -31.6284   24.5215 H   0  0  0  0  0  0
  -15.5344  -30.3028   23.7660 H   0  0  0  0  0  0
  -15.8656  -28.0858   22.7095 H   0  0  0  0  0  0
  -24.5931  -30.7025   25.7857 H   0  0  0  0  0  0
  -24.8859  -32.2917   26.4847 H   0  0  0  0  0  0
  -25.8084  -30.9020   27.0281 H   0  0  0  0  0  0
  -26.2804  -29.6778   24.1203 H   0  0  0  0  0  0
  -27.3884  -29.7229   25.4698 H   0  0  0  0  0  0
  -27.8712  -30.4197   23.9403 H   0  0  0  0  0  0
  -27.2740  -33.3628   26.2011 H   0  0  0  0  0  0
  -28.3863  -32.6850   25.0239 H   0  0  0  0  0  0
  -28.0759  -31.8439   26.5345 H   0  0  0  0  0  0
  -28.2635  -38.0065   24.7527 H   0  0  0  0  0  0
  -28.1041  -36.2610   24.6255 H   0  0  0  0  0  0
  -27.2309  -37.1421   25.8869 H   0  0  0  0  0  0
  -20.9321  -29.8763   21.6925 H   0  0  0  0  0  0
  -26.0166  -38.2869   24.1448 H   0  0  0  0  0  0
  -29.2296  -22.3451   18.5532 H   0  0  0  0  0  0
  -31.3802  -18.1028   20.2532 H   0  0  0  0  0  0
  -31.7328  -18.7684   21.8267 H   0  0  0  0  0  0
  -27.6259  -18.0255   20.8564 H   0  0  0  0  0  0
  -28.8082  -17.6850   19.6197 H   0  0  0  0  0  0
  -30.8741  -16.7131   22.9404 H   0  0  0  0  0  0
  -32.1537  -16.3567   21.8377 H   0  0  0  0  0  0
  -28.1108  -15.6400   20.7646 H   0  0  0  0  0  0
  -28.5038  -16.2543   22.3240 H   0  0  0  0  0  0
  -29.3363  -18.8379   22.4018 H   0  0  0  0  0  0
  -29.8973  -24.2774   17.2738 H   0  0  0  0  0  0
  -30.1255  -25.7933   18.1396 H   0  0  0  0  0  0
  -28.5904  -25.4668   17.3314 H   0  0  0  0  0  0
  -27.9210  -26.2396   22.7322 H   0  0  0  0  0  0
  -27.3401  -24.7465   23.4643 H   0  0  0  0  0  0
  -26.3008  -25.6416   22.3502 H   0  0  0  0  0  0
  -27.6186  -20.4624   20.0138 H   0  0  0  0  0  0
  -27.7868  -20.7152   21.7323 H   0  0  0  0  0  0
  -29.9204  -20.1388   19.8236 H   0  0  0  0  0  0
  -30.1954  -20.7147   21.3092 H   0  0  0  0  0  0
  1 25  1  0  0  0
  1 30  2  0  0  0
  1 85  1  0  0  0
  2  3  1  0  0  0
  2 25  1  0  0  0
  2 87  1  0  0  0
  2 88  1  0  0  0
  3  4  1  0  0  0
  3 89  1  0  0  0
  3 90  1  0  0  0
  4  5  1  0  0  0
  4 91  1  0  0  0
  4 92  1  0  0  0
  5  6  1  0  0  0
  5 26  1  0  0  0
  5 93  1  0  0  0
  6 25  1  0  0  0
  6 94  1  0  0  0
  6 95  1  0  0  0
  7  8  2  0  0  0
  7 26  1  0  0  0
  7 29  1  0  0  0
  8  9  1  0  0  0
  8 22  1  0  0  0
  9 10  1  0  0  0
  9 27  2  0  0  0
 10 11  2  0  0  0
 10 15  1  0  0  0
 11 12  1  0  0  0
 11 96  1  0  0  0
 12 13  2  0  0  0
 12 97  1  0  0  0
 13 14  1  0  0  0
 13 31  1  0  0  0
 14 15  2  0  0  0
 14 98  1  0  0  0
 15 99  1  0  0  0
 16 17  2  0  0  0
 16 21  1  0  0  0
 16 31  1  0  0  0
 17 18  1  0  0  0
 17100  1  0  0  0
 18 19  2  0  0  0
 18101  1  0  0  0
 19 20  1  0  0  0
 19 24  1  0  0  0
 20 21  2  0  0  0
 20102  1  0  0  0
 21 23  1  0  0  0
 22 28  1  0  0  0
 22 32  2  0  0  0
 26 27  1  0  0  0
 28103  1  0  0  0
 28104  1  0  0  0
 29105  1  0  0  0
 29106  1  0  0  0
 33 34  1  0  0  0
 33 66  1  0  0  0
 33 70  2  0  0  0
 34 36  1  0  0  0
 34 59  1  0  0  0
 34107  1  0  0  0
 35 44  2  0  0  0
 35 45  1  0  0  0
 35 68  1  0  0  0
 36 56  1  0  0  0
 36108  1  0  0  0
 37 39  1  0  0  0
 37 47  1  0  0  0
 37 66  1  0  0  0
 37109  1  0  0  0
 38 43  2  0  0  0
 38 46  1  0  0  0
 38 47  1  0  0  0
 39 64  1  0  0  0
 39 67  2  0  0  0
 40 52  1  0  0  0
 40 53  2  0  0  0
 40 58  1  0  0  0
 41110  1  0  0  0
 41111  1  0  0  0
 41112  1  0  0  0
 41 48  1  0  0  0
 42 43  1  0  0  0
 42 66  1  0  0  0
 42113  1  0  0  0
 42114  1  0  0  0
 43 44  1  0  0  0
 44115  1  0  0  0
 45 46  2  0  0  0
 45116  1  0  0  0
 46117  1  0  0  0
 47118  1  0  0  0
 47119  1  0  0  0
 48 56  1  0  0  0
 48 65  1  0  0  0
 48120  1  0  0  0
 49 50  1  0  0  0
 49 53  1  0  0  0
 49 64  1  0  0  0
 49121  1  0  0  0
 50 51  1  0  0  0
 50122  1  0  0  0
 50123  1  0  0  0
 51 52  1  0  0  0
 51124  1  0  0  0
 51125  1  0  0  0
 52126  1  0  0  0
 52127  1  0  0  0
 53 54  1  0  0  0
 54 55  2  0  0  0
 54128  1  0  0  0
 55 57  1  0  0  0
 55129  1  0  0  0
 56 69  2  0  0  0
 57 58  2  0  0  0
 57130  1  0  0  0
 58131  1  0  0  0
 59 60  1  0  0  0
 59 61  1  0  0  0
 59 62  1  0  0  0
 60132  1  0  0  0
 60133  1  0  0  0
 60134  1  0  0  0
 61135  1  0  0  0
 61136  1  0  0  0
 61137  1  0  0  0
 62138  1  0  0  0
 62139  1  0  0  0
 62140  1  0  0  0
 63 65  1  0  0  0
 63141  1  0  0  0
 63142  1  0  0  0
 63143  1  0  0  0
 64144  1  0  0  0
 65145  1  0  0  0
 68 73  1  0  0  0
 71 72  2  0  0  0
 71 74  1  0  0  0
 71146  1  0  0  0
 72 73  1  0  0  0
 72 81  1  0  0  0
 73 75  2  0  0  0
 74 83  1  0  0  0
 74 84  2  0  0  0
 75 82  1  0  0  0
 75 84  1  0  0  0
 76 78  1  0  0  0
 76 80  1  0  0  0
 76147  1  0  0  0
 76148  1  0  0  0
 77 79  1  0  0  0
 77 80  1  0  0  0
 77149  1  0  0  0
 77150  1  0  0  0
 78 85  1  0  0  0
 78151  1  0  0  0
 78152  1  0  0  0
 79 85  1  0  0  0
 79153  1  0  0  0
 79154  1  0  0  0
 80 86  1  0  0  0
 80155  1  0  0  0
 81156  1  0  0  0
 81157  1  0  0  0
 81158  1  0  0  0
 82159  1  0  0  0
 82160  1  0  0  0
 82161  1  0  0  0
 83 86  1  0  0  0
 83162  1  0  0  0
 83163  1  0  0  0
 86164  1  0  0  0
 86165  1  0  0  0
M  CHG  1  86   1
M  ISO  4   1 100  68 101  73 101  85 100
M  END
> <chiral flag>
0

> <version>
0

> <s_m_source_file>
/data/baiqing/PycharmProjects/Reinvent-master-3.2/result/LINK_invent/BTK/process_docking_weight1_custom_sum_contain_oxygen_bond_distance_aromatic_linkinvent_7_9_3/rearranged_h_0174.sdf

> <i_m_source_file_index>
15

> <r_mmod_Potential_Energy-OPLS-2005>
-188.134780883789

> <r_mmod_Stretch_Energy-OPLS-2005>
59.1811447143555

> <r_mmod_Bend_Energy-OPLS-2005>
139.662963867188

> <r_mmod_Torsional_Energy-OPLS-2005>
295.482025146484

> <r_mmod_Improper_Torsional_Energy-OPLS-2005>
2.13360404968262

> <r_mmod_Van_der_Waal_Energy-OPLS-2005>
152.552581787109

> <r_mmod_Electrostatic_Energy-OPLS-2005>
-402.673522949219

> <r_mmod_Solvation_Energy-OPLS-2005>
-466.437591552734

> <b_mmod_Minimization_Converged-OPLS-2005>
0

> <r_mmod_RMS_Derivative-OPLS-2005>
2.74023795127869

$$$$
17
                    3D
 Structure written by MMmdl.
167177  0  0  1  0            999 V2000
  -30.7200  -14.4698   20.4646 C   0  0  0  0  0  0
  -30.4137  -12.2833   19.4286 C   0  0  0  0  0  0
  -29.4908  -12.4683   18.2055 C   0  0  0  0  0  0
  -28.0107  -12.3370   18.6189 C   0  0  0  0  0  0
  -27.6523  -13.1990   19.8599 C   0  0  2  0  0  0
  -28.7026  -13.0172   20.9807 C   0  0  0  0  0  0
  -25.2550  -13.8112   20.5640 C   0  0  0  0  0  0
  -24.1809  -13.0411   20.9176 C   0  0  0  0  0  0
  -24.6368  -11.6884   20.8746 C   0  0  0  0  0  0
  -23.9032  -10.4281   21.0407 C   0  0  0  0  0  0
  -24.3591   -9.4204   21.9179 C   0  0  0  0  0  0
  -23.6278   -8.2236   22.0744 C   0  0  0  0  0  0
  -22.4265   -8.0270   21.3532 C   0  0  0  0  0  0
  -21.9892   -9.0242   20.4633 C   0  0  0  0  0  0
  -22.7207  -10.2129   20.3051 C   0  0  0  0  0  0
  -21.6859   -6.0719   22.5266 C   0  0  0  0  0  0
  -21.4015   -6.5622   23.8198 C   0  0  0  0  0  0
  -21.3664   -5.6775   24.9161 C   0  0  0  0  0  0
  -21.6044   -4.3039   24.7215 C   0  0  0  0  0  0
  -21.8822   -3.8131   23.4340 C   0  0  0  0  0  0
  -21.9205   -4.6947   22.3396 C   0  0  0  0  0  0
  -22.7834  -13.5228   21.1855 C   0  0  0  0  0  0
  -22.1679   -4.2135   21.0974 F   0  0  0  0  0  0
  -21.5625   -3.4523   25.7729 F   0  0  0  0  0  0
  -30.0232  -13.3037   20.4092 N   0  0  0  0  0  0
  -26.2980  -12.9280   20.3326 N   0  0  0  0  0  0
  -25.9290  -11.6450   20.5780 N   0  0  0  0  0  0
  -22.0473  -12.8228   22.0418 N   0  0  0  0  0  0
  -25.4214  -15.1801   20.3963 N   0  0  0  0  0  0
  -31.9292  -14.5390   20.2495 O   0  0  0  0  0  0
  -21.6639   -6.8866   21.4235 O   0  0  0  0  0  0
  -22.3530  -14.5554   20.6740 O   0  0  0  0  0  0
  -24.6126  -31.8720   23.2138 C   0  0  0  0  0  0
  -25.9034  -32.4845   23.8433 C   0  0  1  0  0  0
  -27.2347  -27.4640   20.0764 C   0  0  0  0  0  0
  -25.5912  -33.8644   24.2364 N   0  0  0  0  0  0
  -23.3985  -30.4951   21.5556 C   0  0  2  0  0  0
  -24.8396  -28.9642   20.1201 C   0  0  0  0  0  0
  -22.7423  -29.4674   22.5044 C   0  0  0  0  0  0
  -18.0296  -28.1372   22.8494 C   0  0  0  0  0  0
  -24.1500  -36.7319   23.2640 C   0  0  0  0  0  0
  -25.9253  -30.8424   21.3638 C   0  0  0  0  0  0
  -25.9992  -29.4804   20.7101 C   0  0  0  0  0  0
  -27.1978  -28.7368   20.6858 C   0  0  0  0  0  0
  -26.0509  -26.9566   19.4860 C   0  0  0  0  0  0
  -24.8591  -27.7009   19.5084 C   0  0  0  0  0  0
  -23.6025  -29.8269   20.1706 C   0  0  0  0  0  0
  -25.4119  -36.3129   24.0345 C   0  0  1  0  0  0
  -20.5869  -28.3691   23.1388 C   0  0  2  0  0  0
  -20.6792  -26.9410   22.5567 C   0  0  0  0  0  0
  -19.5844  -26.6351   21.5303 C   0  0  0  0  0  0
  -18.1978  -26.7925   22.1613 C   0  0  0  0  0  0
  -19.1526  -28.8855   23.2914 C   0  0  0  0  0  0
  -18.9433  -30.1463   23.8913 C   0  0  0  0  0  0
  -17.6434  -30.6594   24.0557 C   0  0  0  0  0  0
  -25.9029  -34.9488   23.5141 C   0  0  0  0  0  0
  -16.5342  -29.9070   23.6327 C   0  0  0  0  0  0
  -16.7279  -28.6491   23.0340 C   0  0  0  0  0  0
  -26.4476  -31.6617   25.0753 C   0  0  0  0  0  0
  -25.3762  -31.3694   26.1511 C   0  0  0  0  0  0
  -27.0291  -30.3068   24.6096 C   0  0  0  0  0  0
  -27.6075  -32.4323   25.7498 C   0  0  0  0  0  0
  -27.5583  -37.1816   24.8462 C   0  0  0  0  0  0
  -21.4156  -29.3040   22.3779 N   0  0  0  0  0  0
  -26.4306  -37.3805   23.9398 N   0  0  0  0  0  0
  -24.6636  -31.0842   22.1027 N   0  0  0  0  0  0
  -23.4230  -28.8227   23.3065 O   0  0  0  0  0  0
  -28.4344  -26.7845   20.0714 O   0  0  0  0  0  0
  -26.5586  -34.8922   22.4698 O   0  0  0  0  0  0
  -23.5317  -32.1467   23.7531 O   0  0  0  0  0  0
  -28.6174  -16.1884   22.1873 C   0  0  0  0  0  0
  -27.5690  -17.0662   22.2745 C   0  0  0  0  0  0
  -28.9782  -16.2539   20.8124 C   0  0  0  0  0  0
  -27.3187  -21.0724   22.2611 C   0  0  0  0  0  0
  -25.4509  -21.8941   20.8260 C   0  0  0  0  0  0
  -26.8603  -19.8995   19.9638 C   0  0  0  0  0  0
  -25.5028  -19.3712   21.4932 C   0  0  0  0  0  0
  -27.5049  -22.5953   22.4402 C   0  0  0  0  0  0
  -26.3212  -23.0611   20.3127 C   0  0  0  0  0  0
  -26.4063  -18.5654   20.5568 C   0  0  2  0  0  0
  -26.2896  -20.6615   21.1803 C   0  0  1  0  0  0
  -27.9060  -24.7273   21.2664 C   0  0  0  0  0  0
  -28.4188  -25.3611   19.9541 C   0  0  0  0  0  0
  -28.2590  -17.1191   20.1249 N   0  0  0  0  0  0
  -27.3936  -17.6298   21.0224 N   0  0  0  0  0  0
  -30.0323  -15.5811   20.1717 N   0  0  0  0  0  0
  -27.5505  -23.2899   21.1303 N   0  3  1  0  0  0
  -31.4600  -12.3651   19.1285 H   0  0  0  0  0  0
  -30.3017  -11.2847   19.8551 H   0  0  0  0  0  0
  -29.7319  -11.7324   17.4375 H   0  0  0  0  0  0
  -29.6587  -13.4474   17.7551 H   0  0  0  0  0  0
  -27.8233  -11.2840   18.8351 H   0  0  0  0  0  0
  -27.3611  -12.5903   17.7803 H   0  0  0  0  0  0
  -27.6759  -14.2349   19.5266 H   0  0  0  0  0  0
  -28.6779  -11.9947   21.3587 H   0  0  0  0  0  0
  -28.4846  -13.6446   21.8398 H   0  0  0  0  0  0
  -25.2737   -9.5699   22.4743 H   0  0  0  0  0  0
  -23.9990   -7.4643   22.7466 H   0  0  0  0  0  0
  -21.0820   -8.8752   19.8944 H   0  0  0  0  0  0
  -22.3654  -10.9664   19.6159 H   0  0  0  0  0  0
  -21.2000   -7.6129   23.9701 H   0  0  0  0  0  0
  -21.1489   -6.0500   25.9066 H   0  0  0  0  0  0
  -22.0608   -2.7590   23.2837 H   0  0  0  0  0  0
  -22.4066  -11.9886   22.4811 H   0  0  0  0  0  0
  -21.1092  -13.1262   22.2613 H   0  0  0  0  0  0
  -24.6556  -15.8331   20.5145 H   0  0  0  0  0  0
  -26.2994  -15.6278   20.1545 H   0  0  0  0  0  0
  -26.7115  -32.5572   23.1202 H   0  0  0  0  0  0
  -25.0092  -33.9830   25.0523 H   0  0  0  0  0  0
  -22.6869  -31.3110   21.4162 H   0  0  0  0  0  0
  -23.3753  -35.9658   23.3312 H   0  0  0  0  0  0
  -24.3591  -36.8919   22.2053 H   0  0  0  0  0  0
  -23.7260  -37.6533   23.6630 H   0  0  0  0  0  0
  -26.0398  -31.6075   20.5949 H   0  0  0  0  0  0
  -26.8124  -30.8940   21.9827 H   0  0  0  0  0  0
  -28.0963  -29.1342   21.1371 H   0  0  0  0  0  0
  -26.0151  -26.0027   18.9844 H   0  0  0  0  0  0
  -23.9681  -27.3039   19.0429 H   0  0  0  0  0  0
  -23.7096  -30.5988   19.4077 H   0  0  0  0  0  0
  -22.7267  -29.2443   19.8783 H   0  0  0  0  0  0
  -25.1294  -36.2004   25.0840 H   0  0  0  0  0  0
  -20.9936  -28.3326   24.1526 H   0  0  0  0  0  0
  -21.6696  -26.7446   22.1468 H   0  0  0  0  0  0
  -20.5640  -26.2335   23.3785 H   0  0  0  0  0  0
  -19.7070  -25.6245   21.1383 H   0  0  0  0  0  0
  -19.6866  -27.3137   20.6823 H   0  0  0  0  0  0
  -17.4305  -26.6680   21.3947 H   0  0  0  0  0  0
  -18.0297  -26.0074   22.8996 H   0  0  0  0  0  0
  -19.7886  -30.7300   24.2278 H   0  0  0  0  0  0
  -17.4978  -31.6282   24.5135 H   0  0  0  0  0  0
  -15.5331  -30.2947   23.7657 H   0  0  0  0  0  0
  -15.8681  -28.0815   22.7052 H   0  0  0  0  0  0
  -24.5921  -30.7062   25.7831 H   0  0  0  0  0  0
  -24.8967  -32.2840   26.5019 H   0  0  0  0  0  0
  -25.8138  -30.8814   27.0232 H   0  0  0  0  0  0
  -26.2811  -29.6842   24.1169 H   0  0  0  0  0  0
  -27.4100  -29.7293   25.4528 H   0  0  0  0  0  0
  -27.8636  -30.4401   23.9207 H   0  0  0  0  0  0
  -27.2718  -33.3597   26.2146 H   0  0  0  0  0  0
  -28.3839  -32.6934   25.0294 H   0  0  0  0  0  0
  -28.0799  -31.8416   26.5356 H   0  0  0  0  0  0
  -28.2614  -38.0104   24.7500 H   0  0  0  0  0  0
  -28.1074  -36.2632   24.6293 H   0  0  0  0  0  0
  -27.2295  -37.1473   25.8868 H   0  0  0  0  0  0
  -20.9315  -29.8778   21.7018 H   0  0  0  0  0  0
  -26.0196  -38.2888   24.1372 H   0  0  0  0  0  0
  -29.0395  -15.5949   22.9850 H   0  0  0  0  0  0
  -26.9481  -17.3338   23.1163 H   0  0  0  0  0  0
  -27.0432  -20.6579   23.2318 H   0  0  0  0  0  0
  -28.2899  -20.6282   22.0394 H   0  0  0  0  0  0
  -24.7078  -21.6528   20.0645 H   0  0  0  0  0  0
  -24.8690  -22.2175   21.6914 H   0  0  0  0  0  0
  -26.3412  -20.1251   19.0312 H   0  0  0  0  0  0
  -27.9388  -19.9876   19.8272 H   0  0  0  0  0  0
  -25.5202  -19.0603   22.5371 H   0  0  0  0  0  0
  -24.4739  -19.4088   21.1301 H   0  0  0  0  0  0
  -28.4206  -22.7780   23.0034 H   0  0  0  0  0  0
  -26.6934  -23.0113   23.0402 H   0  0  0  0  0  0
  -25.6965  -23.9553   20.2841 H   0  0  0  0  0  0
  -26.6289  -22.8712   19.2832 H   0  0  0  0  0  0
  -25.8020  -18.0178   19.8321 H   0  0  0  0  0  0
  -27.0382  -25.2632   21.6517 H   0  0  0  0  0  0
  -28.6897  -24.8515   22.0155 H   0  0  0  0  0  0
  -29.4427  -25.0338   19.7717 H   0  0  0  0  0  0
  -27.8652  -25.0340   19.0751 H   0  0  0  0  0  0
  -30.5645  -16.1907   19.5712 H   0  0  0  0  0  0
  -28.3098  -22.8461   20.6327 H   0  0  0  0  0  0
  1 25  1  0  0  0
  1 30  2  0  0  0
  1 86  1  0  0  0
  2  3  1  0  0  0
  2 25  1  0  0  0
  2 88  1  0  0  0
  2 89  1  0  0  0
  3  4  1  0  0  0
  3 90  1  0  0  0
  3 91  1  0  0  0
  4  5  1  0  0  0
  4 92  1  0  0  0
  4 93  1  0  0  0
  5  6  1  0  0  0
  5 26  1  0  0  0
  5 94  1  0  0  0
  6 25  1  0  0  0
  6 95  1  0  0  0
  6 96  1  0  0  0
  7  8  2  0  0  0
  7 26  1  0  0  0
  7 29  1  0  0  0
  8  9  1  0  0  0
  8 22  1  0  0  0
  9 10  1  0  0  0
  9 27  2  0  0  0
 10 11  2  0  0  0
 10 15  1  0  0  0
 11 12  1  0  0  0
 11 97  1  0  0  0
 12 13  2  0  0  0
 12 98  1  0  0  0
 13 14  1  0  0  0
 13 31  1  0  0  0
 14 15  2  0  0  0
 14 99  1  0  0  0
 15100  1  0  0  0
 16 17  2  0  0  0
 16 21  1  0  0  0
 16 31  1  0  0  0
 17 18  1  0  0  0
 17101  1  0  0  0
 18 19  2  0  0  0
 18102  1  0  0  0
 19 20  1  0  0  0
 19 24  1  0  0  0
 20 21  2  0  0  0
 20103  1  0  0  0
 21 23  1  0  0  0
 22 28  1  0  0  0
 22 32  2  0  0  0
 26 27  1  0  0  0
 28104  1  0  0  0
 28105  1  0  0  0
 29106  1  0  0  0
 29107  1  0  0  0
 33 34  1  0  0  0
 33 66  1  0  0  0
 33 70  2  0  0  0
 34 36  1  0  0  0
 34 59  1  0  0  0
 34108  1  0  0  0
 35 44  2  0  0  0
 35 45  1  0  0  0
 35 68  1  0  0  0
 36 56  1  0  0  0
 36109  1  0  0  0
 37 39  1  0  0  0
 37 47  1  0  0  0
 37 66  1  0  0  0
 37110  1  0  0  0
 38 43  2  0  0  0
 38 46  1  0  0  0
 38 47  1  0  0  0
 39 64  1  0  0  0
 39 67  2  0  0  0
 40 52  1  0  0  0
 40 53  2  0  0  0
 40 58  1  0  0  0
 41111  1  0  0  0
 41112  1  0  0  0
 41113  1  0  0  0
 41 48  1  0  0  0
 42 43  1  0  0  0
 42 66  1  0  0  0
 42114  1  0  0  0
 42115  1  0  0  0
 43 44  1  0  0  0
 44116  1  0  0  0
 45 46  2  0  0  0
 45117  1  0  0  0
 46118  1  0  0  0
 47119  1  0  0  0
 47120  1  0  0  0
 48 56  1  0  0  0
 48 65  1  0  0  0
 48121  1  0  0  0
 49 50  1  0  0  0
 49 53  1  0  0  0
 49 64  1  0  0  0
 49122  1  0  0  0
 50 51  1  0  0  0
 50123  1  0  0  0
 50124  1  0  0  0
 51 52  1  0  0  0
 51125  1  0  0  0
 51126  1  0  0  0
 52127  1  0  0  0
 52128  1  0  0  0
 53 54  1  0  0  0
 54 55  2  0  0  0
 54129  1  0  0  0
 55 57  1  0  0  0
 55130  1  0  0  0
 56 69  2  0  0  0
 57 58  2  0  0  0
 57131  1  0  0  0
 58132  1  0  0  0
 59 60  1  0  0  0
 59 61  1  0  0  0
 59 62  1  0  0  0
 60133  1  0  0  0
 60134  1  0  0  0
 60135  1  0  0  0
 61136  1  0  0  0
 61137  1  0  0  0
 61138  1  0  0  0
 62139  1  0  0  0
 62140  1  0  0  0
 62141  1  0  0  0
 63 65  1  0  0  0
 63142  1  0  0  0
 63143  1  0  0  0
 63144  1  0  0  0
 64145  1  0  0  0
 65146  1  0  0  0
 68 83  1  0  0  0
 71 72  2  0  0  0
 71 73  1  0  0  0
 71147  1  0  0  0
 72 85  1  0  0  0
 72148  1  0  0  0
 73 84  2  0  0  0
 73 86  1  0  0  0
 74 78  1  0  0  0
 74149  1  0  0  0
 74150  1  0  0  0
 74 81  1  0  0  0
 75 79  1  0  0  0
 75 81  1  0  0  0
 75151  1  0  0  0
 75152  1  0  0  0
 76 80  1  0  0  0
 76 81  1  0  0  0
 76153  1  0  0  0
 76154  1  0  0  0
 77 80  1  0  0  0
 77 81  1  0  0  0
 77155  1  0  0  0
 77156  1  0  0  0
 78 87  1  0  0  0
 78157  1  0  0  0
 78158  1  0  0  0
 79 87  1  0  0  0
 79159  1  0  0  0
 79160  1  0  0  0
 80 85  1  0  0  0
 80161  1  0  0  0
 82 83  1  0  0  0
 82162  1  0  0  0
 82163  1  0  0  0
 82 87  1  0  0  0
 83164  1  0  0  0
 83165  1  0  0  0
 84 85  1  0  0  0
 86166  1  0  0  0
 87167  1  0  0  0
M  CHG  1  87   1
M  ISO  4   1 100  68 101  83 101  86 100
M  END
> <chiral flag>
0

> <version>
0

> <s_m_source_file>
/data/baiqing/PycharmProjects/Reinvent-master-3.2/result/LINK_invent/BTK/process_docking_weight1_custom_sum_contain_oxygen_bond_distance_aromatic_linkinvent_7_9_3/rearranged_h_0174.sdf

> <i_m_source_file_index>
16

> <r_mmod_Potential_Energy-OPLS-2005>
19.3059616088867

> <r_mmod_Stretch_Energy-OPLS-2005>
32.9155921936035

> <r_mmod_Bend_Energy-OPLS-2005>
143.874420166016

> <r_mmod_Torsional_Energy-OPLS-2005>
372.186859130859

> <r_mmod_Improper_Torsional_Energy-OPLS-2005>
21.0142555236816

> <r_mmod_Van_der_Waal_Energy-OPLS-2005>
130.394653320312

> <r_mmod_Electrostatic_Energy-OPLS-2005>
-280.901885986328

> <r_mmod_Solvation_Energy-OPLS-2005>
-423.579315185547

> <b_mmod_Minimization_Converged-OPLS-2005>
0

> <r_mmod_RMS_Derivative-OPLS-2005>
2.20867419242859

$$$$
18
                    3D
 Structure written by MMmdl.
160170  0  0  1  0            999 V2000
  -30.6507  -14.5829   20.5069 C   0  0  0  0  0  0
  -30.4312  -12.3556   19.4502 C   0  0  0  0  0  0
  -29.5072  -12.4944   18.2208 C   0  0  0  0  0  0
  -28.0290  -12.3409   18.6319 C   0  0  0  0  0  0
  -27.6551  -13.2093   19.8626 C   0  0  2  0  0  0
  -28.6967  -13.0605   20.9949 C   0  0  0  0  0  0
  -25.2586  -13.8166   20.5675 C   0  0  0  0  0  0
  -24.1846  -13.0443   20.9201 C   0  0  0  0  0  0
  -24.6395  -11.6910   20.8741 C   0  0  0  0  0  0
  -23.9058  -10.4298   21.0403 C   0  0  0  0  0  0
  -24.3615   -9.4216   21.9184 C   0  0  0  0  0  0
  -23.6298   -8.2245   22.0746 C   0  0  0  0  0  0
  -22.4279   -8.0283   21.3541 C   0  0  0  0  0  0
  -21.9913   -9.0250   20.4636 C   0  0  0  0  0  0
  -22.7232  -10.2134   20.3048 C   0  0  0  0  0  0
  -21.6850   -6.0737   22.5279 C   0  0  0  0  0  0
  -21.4016   -6.5644   23.8211 C   0  0  0  0  0  0
  -21.3659   -5.6797   24.9177 C   0  0  0  0  0  0
  -21.6038   -4.3056   24.7226 C   0  0  0  0  0  0
  -21.8823   -3.8151   23.4346 C   0  0  0  0  0  0
  -21.9201   -4.6967   22.3406 C   0  0  0  0  0  0
  -22.7871  -13.5240   21.1869 C   0  0  0  0  0  0
  -22.1670   -4.2152   21.0984 F   0  0  0  0  0  0
  -21.5624   -3.4546   25.7738 F   0  0  0  0  0  0
  -30.0168  -13.3761   20.4303 N   0  0  0  0  0  0
  -26.2991  -12.9316   20.3302 N   0  0  0  0  0  0
  -25.9320  -11.6474   20.5741 N   0  0  0  0  0  0
  -22.0520  -12.8213   22.0407 N   0  0  0  0  0  0
  -25.4338  -15.1876   20.4054 N   0  0  0  0  0  0
  -31.8216  -14.7295   20.1480 O   0  0  0  0  0  0
  -21.6643   -6.8881   21.4236 O   0  0  0  0  0  0
  -22.3570  -14.5560   20.6725 O   0  0  0  0  0  0
  -24.6238  -31.8616   23.2003 C   0  0  0  0  0  0
  -25.9093  -32.4789   23.8346 C   0  0  1  0  0  0
  -27.2247  -27.3397   20.1223 C   0  0  0  0  0  0
  -25.5932  -33.8585   24.2278 N   0  0  0  0  0  0
  -23.4160  -30.4823   21.5444 C   0  0  2  0  0  0
  -24.8608  -28.9393   20.1051 C   0  0  0  0  0  0
  -22.7456  -29.4627   22.4938 C   0  0  0  0  0  0
  -18.0278  -28.1391   22.8491 C   0  0  0  0  0  0
  -24.1488  -36.7290   23.2631 C   0  0  0  0  0  0
  -25.9517  -30.8014   21.3625 C   0  0  0  0  0  0
  -26.0263  -29.4294   20.7073 C   0  0  0  0  0  0
  -27.2134  -28.6426   20.7010 C   0  0  0  0  0  0
  -26.0368  -26.8948   19.4974 C   0  0  0  0  0  0
  -24.8663  -27.6795   19.4874 C   0  0  0  0  0  0
  -23.6265  -29.8163   20.1575 C   0  0  0  0  0  0
  -25.4111  -36.3081   24.0332 C   0  0  1  0  0  0
  -20.5884  -28.3681   23.1297 C   0  0  2  0  0  0
  -20.6771  -26.9412   22.5411 C   0  0  0  0  0  0
  -19.5753  -26.6393   21.5207 C   0  0  0  0  0  0
  -18.1931  -26.7940   22.1619 C   0  0  0  0  0  0
  -19.1531  -28.8853   23.2885 C   0  0  0  0  0  0
  -18.9450  -30.1458   23.8894 C   0  0  0  0  0  0
  -17.6456  -30.6586   24.0579 C   0  0  0  0  0  0
  -25.9070  -34.9467   23.5112 C   0  0  0  0  0  0
  -16.5341  -29.9102   23.6337 C   0  0  0  0  0  0
  -16.7268  -28.6522   23.0348 C   0  0  0  0  0  0
  -26.4488  -31.6583   25.0700 C   0  0  0  0  0  0
  -25.3750  -31.3691   26.1432 C   0  0  0  0  0  0
  -27.0262  -30.3007   24.6071 C   0  0  0  0  0  0
  -27.6051  -32.4288   25.7485 C   0  0  0  0  0  0
  -27.5584  -37.1795   24.8472 C   0  0  0  0  0  0
  -21.4171  -29.3034   22.3686 N   0  0  0  0  0  0
  -26.4284  -37.3788   23.9427 N   0  0  0  0  0  0
  -24.6831  -31.0644   22.0940 N   0  0  0  0  0  0
  -23.4202  -28.8174   23.3005 O   0  0  0  0  0  0
  -28.3546  -26.5157   20.1848 O   0  0  0  0  0  0
  -26.5613  -34.8931   22.4662 O   0  0  0  0  0  0
  -23.5400  -32.1385   23.7355 O   0  0  0  0  0  0
  -29.2311  -21.8193   21.7282 C   0  0  0  0  0  0
  -29.2529  -20.3984   21.6708 C   0  0  0  0  0  0
  -29.2605  -22.5937   20.5395 C   0  0  0  0  0  0
  -29.2794  -19.7410   20.4229 C   0  0  0  0  0  0
  -29.3142  -21.8483   19.3338 C   0  0  0  0  0  0
  -30.3978  -21.9462   16.9410 C   0  0  0  0  0  0
  -30.7220  -23.2423   17.6296 C   0  0  0  0  0  0
  -30.1141  -17.6067   19.1847 C   0  0  0  0  0  0
  -29.1887  -18.2059   20.2231 C   0  0  1  0  0  0
  -29.4477  -22.4999   17.9873 C   0  0  0  0  0  0
  -30.2183  -17.0788   20.5896 C   0  0  1  0  0  0
  -29.3720  -24.1611   20.5908 C   0  0  0  0  0  0
  -28.1489  -25.0557   20.1530 C   0  0  0  0  0  0
  -29.2799  -20.4865   19.2891 N   0  0  0  0  0  0
  -29.8593  -15.6631   20.7557 N   0  0  0  0  0  0
  -31.4763  -12.4641   19.1541 H   0  0  0  0  0  0
  -30.3469  -11.3589   19.8871 H   0  0  0  0  0  0
  -29.7666  -11.7457   17.4718 H   0  0  0  0  0  0
  -29.6606  -13.4662   17.7478 H   0  0  0  0  0  0
  -27.8631  -11.2876   18.8614 H   0  0  0  0  0  0
  -27.3748  -12.5751   17.7917 H   0  0  0  0  0  0
  -27.6789  -14.2446   19.5234 H   0  0  0  0  0  0
  -28.6935  -12.0437   21.3915 H   0  0  0  0  0  0
  -28.4507  -13.7112   21.8343 H   0  0  0  0  0  0
  -25.2763   -9.5703   22.4750 H   0  0  0  0  0  0
  -24.0018   -7.4643   22.7462 H   0  0  0  0  0  0
  -21.0847   -8.8763   19.8941 H   0  0  0  0  0  0
  -22.3692  -10.9670   19.6151 H   0  0  0  0  0  0
  -21.2003   -7.6153   23.9719 H   0  0  0  0  0  0
  -21.1472   -6.0526   25.9080 H   0  0  0  0  0  0
  -22.0599   -2.7613   23.2848 H   0  0  0  0  0  0
  -22.4131  -11.9849   22.4744 H   0  0  0  0  0  0
  -21.1133  -13.1218   22.2626 H   0  0  0  0  0  0
  -24.6639  -15.8427   20.4954 H   0  0  0  0  0  0
  -26.2730  -15.6140   20.0354 H   0  0  0  0  0  0
  -26.7163  -32.5455   23.1102 H   0  0  0  0  0  0
  -25.0168  -33.9759   25.0479 H   0  0  0  0  0  0
  -22.7080  -31.3015   21.4051 H   0  0  0  0  0  0
  -23.3751  -35.9623   23.3288 H   0  0  0  0  0  0
  -24.3591  -36.8885   22.2042 H   0  0  0  0  0  0
  -23.7239  -37.6495   23.6638 H   0  0  0  0  0  0
  -26.0718  -31.5629   20.5901 H   0  0  0  0  0  0
  -26.8380  -30.8585   21.9846 H   0  0  0  0  0  0
  -28.1096  -29.0152   21.1772 H   0  0  0  0  0  0
  -25.9857  -25.9274   19.0208 H   0  0  0  0  0  0
  -23.9751  -27.2995   19.0054 H   0  0  0  0  0  0
  -23.7399  -30.5927   19.4013 H   0  0  0  0  0  0
  -22.7493  -29.2381   19.8607 H   0  0  0  0  0  0
  -25.1299  -36.1931   25.0827 H   0  0  0  0  0  0
  -20.9986  -28.3222   24.1407 H   0  0  0  0  0  0
  -20.5678  -26.2298   23.3601 H   0  0  0  0  0  0
  -21.6652  -26.7471   22.1188 H   0  0  0  0  0  0
  -19.6951  -25.6312   21.1208 H   0  0  0  0  0  0
  -19.6679  -27.3216   20.6741 H   0  0  0  0  0  0
  -17.4209  -26.6672   21.4001 H   0  0  0  0  0  0
  -18.0328  -26.0075   22.9009 H   0  0  0  0  0  0
  -19.7932  -30.7264   24.2250 H   0  0  0  0  0  0
  -17.5021  -31.6262   24.5188 H   0  0  0  0  0  0
  -15.5350  -30.3016   23.7661 H   0  0  0  0  0  0
  -15.8662  -28.0851   22.7076 H   0  0  0  0  0  0
  -24.5984  -30.6971   25.7773 H   0  0  0  0  0  0
  -24.8886  -32.2835   26.4837 H   0  0  0  0  0  0
  -25.8127  -30.8922   27.0218 H   0  0  0  0  0  0
  -26.2781  -29.6825   24.1090 H   0  0  0  0  0  0
  -27.3969  -29.7182   25.4517 H   0  0  0  0  0  0
  -27.8678  -30.4297   23.9253 H   0  0  0  0  0  0
  -27.2690  -33.3606   26.2054 H   0  0  0  0  0  0
  -28.3888  -32.6810   25.0330 H   0  0  0  0  0  0
  -28.0701  -31.8412   26.5411 H   0  0  0  0  0  0
  -28.2596  -38.0097   24.7522 H   0  0  0  0  0  0
  -28.1082  -36.2634   24.6288 H   0  0  0  0  0  0
  -27.2311  -37.1417   25.8875 H   0  0  0  0  0  0
  -20.9333  -29.8783   21.6923 H   0  0  0  0  0  0
  -26.0150  -38.2860   24.1415 H   0  0  0  0  0  0
  -29.2164  -22.3061   22.6914 H   0  0  0  0  0  0
  -29.2331  -19.8174   22.5841 H   0  0  0  0  0  0
  -30.9910  -21.0704   17.2032 H   0  0  0  0  0  0
  -30.0859  -22.0044   15.9008 H   0  0  0  0  0  0
  -30.6323  -24.1542   17.0422 H   0  0  0  0  0  0
  -31.5373  -23.2266   18.3514 H   0  0  0  0  0  0
  -30.9482  -18.2112   18.8346 H   0  0  0  0  0  0
  -29.6605  -16.9699   18.4276 H   0  0  0  0  0  0
  -28.1401  -17.9176   20.1603 H   0  0  0  0  0  0
  -28.4977  -22.9017   17.6409 H   0  0  0  0  0  0
  -31.0746  -17.4147   21.1715 H   0  0  0  0  0  0
  -30.2337  -24.4498   19.9919 H   0  0  0  0  0  0
  -29.6401  -24.4382   21.6115 H   0  0  0  0  0  0
  -27.3099  -24.8066   20.8052 H   0  0  0  0  0  0
  -27.8614  -24.7686   19.1422 H   0  0  0  0  0  0
  -28.9082  -15.4577   21.0225 H   0  0  0  0  0  0
  1 25  1  0  0  0
  1 30  2  0  0  0
  1 85  1  0  0  0
  2  3  1  0  0  0
  2 25  1  0  0  0
  2 86  1  0  0  0
  2 87  1  0  0  0
  3  4  1  0  0  0
  3 88  1  0  0  0
  3 89  1  0  0  0
  4  5  1  0  0  0
  4 90  1  0  0  0
  4 91  1  0  0  0
  5  6  1  0  0  0
  5 26  1  0  0  0
  5 92  1  0  0  0
  6 25  1  0  0  0
  6 93  1  0  0  0
  6 94  1  0  0  0
  7  8  2  0  0  0
  7 26  1  0  0  0
  7 29  1  0  0  0
  8  9  1  0  0  0
  8 22  1  0  0  0
  9 10  1  0  0  0
  9 27  2  0  0  0
 10 11  2  0  0  0
 10 15  1  0  0  0
 11 12  1  0  0  0
 11 95  1  0  0  0
 12 13  2  0  0  0
 12 96  1  0  0  0
 13 14  1  0  0  0
 13 31  1  0  0  0
 14 15  2  0  0  0
 14 97  1  0  0  0
 15 98  1  0  0  0
 16 17  2  0  0  0
 16 21  1  0  0  0
 16 31  1  0  0  0
 17 18  1  0  0  0
 17 99  1  0  0  0
 18 19  2  0  0  0
 18100  1  0  0  0
 19 20  1  0  0  0
 19 24  1  0  0  0
 20 21  2  0  0  0
 20101  1  0  0  0
 21 23  1  0  0  0
 22 28  1  0  0  0
 22 32  2  0  0  0
 26 27  1  0  0  0
 28102  1  0  0  0
 28103  1  0  0  0
 29104  1  0  0  0
 29105  1  0  0  0
 33 34  1  0  0  0
 33 66  1  0  0  0
 33 70  2  0  0  0
 34 36  1  0  0  0
 34 59  1  0  0  0
 34106  1  0  0  0
 35 44  2  0  0  0
 35 45  1  0  0  0
 35 68  1  0  0  0
 36 56  1  0  0  0
 36107  1  0  0  0
 37 39  1  0  0  0
 37 47  1  0  0  0
 37 66  1  0  0  0
 37108  1  0  0  0
 38 43  2  0  0  0
 38 46  1  0  0  0
 38 47  1  0  0  0
 39 64  1  0  0  0
 39 67  2  0  0  0
 40 52  1  0  0  0
 40 53  2  0  0  0
 40 58  1  0  0  0
 41109  1  0  0  0
 41110  1  0  0  0
 41111  1  0  0  0
 41 48  1  0  0  0
 42 43  1  0  0  0
 42 66  1  0  0  0
 42112  1  0  0  0
 42113  1  0  0  0
 43 44  1  0  0  0
 44114  1  0  0  0
 45 46  2  0  0  0
 45115  1  0  0  0
 46116  1  0  0  0
 47117  1  0  0  0
 47118  1  0  0  0
 48 56  1  0  0  0
 48 65  1  0  0  0
 48119  1  0  0  0
 49 50  1  0  0  0
 49 53  1  0  0  0
 49 64  1  0  0  0
 49120  1  0  0  0
 50 51  1  0  0  0
 50121  1  0  0  0
 50122  1  0  0  0
 51 52  1  0  0  0
 51123  1  0  0  0
 51124  1  0  0  0
 52125  1  0  0  0
 52126  1  0  0  0
 53 54  1  0  0  0
 54 55  2  0  0  0
 54127  1  0  0  0
 55 57  1  0  0  0
 55128  1  0  0  0
 56 69  2  0  0  0
 57 58  2  0  0  0
 57129  1  0  0  0
 58130  1  0  0  0
 59 60  1  0  0  0
 59 61  1  0  0  0
 59 62  1  0  0  0
 60131  1  0  0  0
 60132  1  0  0  0
 60133  1  0  0  0
 61134  1  0  0  0
 61135  1  0  0  0
 61136  1  0  0  0
 62137  1  0  0  0
 62138  1  0  0  0
 62139  1  0  0  0
 63 65  1  0  0  0
 63140  1  0  0  0
 63141  1  0  0  0
 63142  1  0  0  0
 64143  1  0  0  0
 65144  1  0  0  0
 68 83  1  0  0  0
 71 72  2  0  0  0
 71 73  1  0  0  0
 71145  1  0  0  0
 72 74  1  0  0  0
 72146  1  0  0  0
 73 75  2  0  0  0
 73 82  1  0  0  0
 74 84  2  0  0  0
 74 79  1  0  0  0
 75 84  1  0  0  0
 75 80  1  0  0  0
 76 77  1  0  0  0
 76 80  1  0  0  0
 76147  1  0  0  0
 76148  1  0  0  0
 77 80  1  0  0  0
 77149  1  0  0  0
 77150  1  0  0  0
 78 79  1  0  0  0
 78 81  1  0  0  0
 78151  1  0  0  0
 78152  1  0  0  0
 79 81  1  0  0  0
 79153  1  0  0  0
 80154  1  0  0  0
 81 85  1  0  0  0
 81155  1  0  0  0
 82 83  1  0  0  0
 82156  1  0  0  0
 82157  1  0  0  0
 83158  1  0  0  0
 83159  1  0  0  0
 85160  1  0  0  0
M  ISO  4   1 100  68 101  83 101  85 100
M  END
> <chiral flag>
0

> <version>
0

> <s_m_source_file>
/data/baiqing/PycharmProjects/Reinvent-master-3.2/result/LINK_invent/BTK/process_docking_weight1_custom_sum_contain_oxygen_bond_distance_aromatic_linkinvent_7_9_3/rearranged_h_0174.sdf

> <i_m_source_file_index>
17

> <r_mmod_Potential_Energy-OPLS-2005>
-75.9573059082031

> <r_mmod_Stretch_Energy-OPLS-2005>
66.5231094360352

> <r_mmod_Bend_Energy-OPLS-2005>
118.609245300293

> <r_mmod_Torsional_Energy-OPLS-2005>
288.843566894531

> <r_mmod_Improper_Torsional_Energy-OPLS-2005>
6.65781402587891

> <r_mmod_Van_der_Waal_Energy-OPLS-2005>
140.101440429688

> <r_mmod_Electrostatic_Energy-OPLS-2005>
-510.657379150391

> <r_mmod_Solvation_Energy-OPLS-2005>
-223.57746887207

> <b_mmod_Minimization_Converged-OPLS-2005>
0

> <r_mmod_RMS_Derivative-OPLS-2005>
3.05051755905151

$$$$
19
                    3D
 Structure written by MMmdl.
188198  0  0  1  0            999 V2000
  -30.7615  -14.5064   20.6055 C   0  0  0  0  0  0
  -30.4276  -12.3461   19.4392 C   0  0  0  0  0  0
  -29.5019  -12.4863   18.2147 C   0  0  0  0  0  0
  -28.0307  -12.3032   18.6328 C   0  0  0  0  0  0
  -27.6542  -13.1850   19.8484 C   0  0  2  0  0  0
  -28.7006  -13.0528   20.9849 C   0  0  0  0  0  0
  -25.2616  -13.8098   20.5644 C   0  0  0  0  0  0
  -24.1848  -13.0425   20.9187 C   0  0  0  0  0  0
  -24.6374  -11.6876   20.8751 C   0  0  0  0  0  0
  -23.9039  -10.4286   21.0425 C   0  0  0  0  0  0
  -24.3604   -9.4203   21.9198 C   0  0  0  0  0  0
  -23.6285   -8.2240   22.0771 C   0  0  0  0  0  0
  -22.4263   -8.0289   21.3564 C   0  0  0  0  0  0
  -21.9887   -9.0258   20.4677 C   0  0  0  0  0  0
  -22.7204  -10.2139   20.3073 C   0  0  0  0  0  0
  -21.6844   -6.0737   22.5280 C   0  0  0  0  0  0
  -21.4004   -6.5641   23.8217 C   0  0  0  0  0  0
  -21.3652   -5.6792   24.9182 C   0  0  0  0  0  0
  -21.6030   -4.3057   24.7223 C   0  0  0  0  0  0
  -21.8821   -3.8157   23.4342 C   0  0  0  0  0  0
  -21.9195   -4.6973   22.3399 C   0  0  0  0  0  0
  -22.7882  -13.5268   21.1837 C   0  0  0  0  0  0
  -22.1674   -4.2170   21.0971 F   0  0  0  0  0  0
  -21.5621   -3.4532   25.7729 F   0  0  0  0  0  0
  -30.0319  -13.3584   20.4379 N   0  0  0  0  0  0
  -26.3001  -12.9204   20.3248 N   0  0  0  0  0  0
  -25.9293  -11.6408   20.5741 N   0  0  0  0  0  0
  -22.0482  -12.8318   22.0402 N   0  0  0  0  0  0
  -25.4361  -15.1803   20.4001 N   0  0  0  0  0  0
  -31.8611  -14.6497   20.0659 O   0  0  0  0  0  0
  -21.6629   -6.8883   21.4246 O   0  0  0  0  0  0
  -22.3593  -14.5580   20.6686 O   0  0  0  0  0  0
  -24.6167  -31.8681   23.2108 C   0  0  0  0  0  0
  -25.9060  -32.4822   23.8404 C   0  0  1  0  0  0
  -27.2411  -27.4268   20.0732 C   0  0  0  0  0  0
  -25.5906  -33.8615   24.2336 N   0  0  0  0  0  0
  -23.4046  -30.4942   21.5509 C   0  0  2  0  0  0
  -24.8497  -28.9615   20.1150 C   0  0  0  0  0  0
  -22.7422  -29.4665   22.4977 C   0  0  0  0  0  0
  -18.0273  -28.1387   22.8480 C   0  0  0  0  0  0
  -24.1480  -36.7309   23.2632 C   0  0  0  0  0  0
  -25.9364  -30.8275   21.3677 C   0  0  0  0  0  0
  -26.0120  -29.4619   20.7127 C   0  0  0  0  0  0
  -27.2037  -28.6980   20.6977 C   0  0  0  0  0  0
  -26.0444  -26.9369   19.4938 C   0  0  0  0  0  0
  -24.8610  -27.6961   19.5097 C   0  0  0  0  0  0
  -23.6142  -29.8316   20.1645 C   0  0  0  0  0  0
  -25.4097  -36.3112   24.0342 C   0  0  1  0  0  0
  -20.5863  -28.3673   23.1308 C   0  0  2  0  0  0
  -20.6762  -26.9407   22.5420 C   0  0  0  0  0  0
  -19.5749  -26.6392   21.5208 C   0  0  0  0  0  0
  -18.1922  -26.7938   22.1610 C   0  0  0  0  0  0
  -19.1524  -28.8847   23.2895 C   0  0  0  0  0  0
  -18.9457  -30.1446   23.8917 C   0  0  0  0  0  0
  -17.6459  -30.6587   24.0572 C   0  0  0  0  0  0
  -25.9032  -34.9479   23.5136 C   0  0  0  0  0  0
  -16.5352  -29.9091   23.6322 C   0  0  0  0  0  0
  -16.7263  -28.6515   23.0336 C   0  0  0  0  0  0
  -26.4479  -31.6604   25.0733 C   0  0  0  0  0  0
  -25.3753  -31.3730   26.1496 C   0  0  0  0  0  0
  -27.0301  -30.3038   24.6122 C   0  0  0  0  0  0
  -27.6064  -32.4320   25.7488 C   0  0  0  0  0  0
  -27.5589  -37.1794   24.8448 C   0  0  0  0  0  0
  -21.4152  -29.3042   22.3717 N   0  0  0  0  0  0
  -26.4277  -37.3806   23.9429 N   0  0  0  0  0  0
  -24.6710  -31.0777   22.1010 N   0  0  0  0  0  0
  -23.4194  -28.8191   23.3008 O   0  0  0  0  0  0
  -28.4251  -26.7033   20.0999 O   0  0  0  0  0  0
  -26.5594  -34.8930   22.4695 O   0  0  0  0  0  0
  -23.5361  -32.1436   23.7492 O   0  0  0  0  0  0
  -32.4529  -22.6736   23.0020 C   0  0  0  0  0  0
  -30.6292  -22.0409   21.4726 C   0  0  0  0  0  0
  -31.1908  -22.9513   22.4134 C   0  0  0  0  0  0
  -33.1602  -21.5502   22.5268 C   0  0  0  0  0  0
  -31.3872  -20.8598   21.1780 C   0  0  0  0  0  0
  -33.4392  -22.9168   25.4397 C   0  0  0  0  0  0
  -32.2390  -23.8203   25.3689 C   0  0  0  0  0  0
  -31.2605  -16.2802   22.2233 C   0  0  0  0  0  0
  -31.6989  -17.6007   21.5232 C   0  0  0  0  0  0
  -29.5440  -17.6237   20.3410 C   0  0  0  0  0  0
  -33.0304  -23.5205   24.1103 C   0  0  0  0  0  0
  -29.1298  -16.3243   21.0797 C   0  0  2  0  0  0
  -34.5786  -21.2285   22.9649 C   0  0  0  0  0  0
  -28.1930  -16.5793   22.2792 C   0  0  0  0  0  0
  -28.1503  -21.5473   21.6535 C   0  0  0  0  0  0
  -31.1239  -25.3263   22.6301 C   0  0  0  0  0  0
  -30.9186  -19.6760   20.3082 C   0  0  0  0  0  0
  -29.5444  -24.5257   19.6426 C   0  0  0  0  0  0
  -28.6928  -25.7019   19.0992 C   0  0  0  0  0  0
  -29.2281  -22.2956   20.8508 C   0  0  1  0  0  0
  -32.6297  -20.6688   21.6644 N   0  0  0  0  0  0
  -30.2936  -15.4862   21.4364 N   0  0  0  0  0  0
  -30.5467  -18.4398   21.0763 N   0  3  2  0  0  0
  -28.8166  -23.7221   20.6632 N   0  3  0  0  0  0
  -30.4648  -24.0667   22.7735 O   0  0  0  0  0  0
  -31.4693  -12.4397   19.1273 H   0  0  0  0  0  0
  -30.3423  -11.3503   19.8753 H   0  0  0  0  0  0
  -29.7685  -11.7485   17.4569 H   0  0  0  0  0  0
  -29.6458  -13.4638   17.7515 H   0  0  0  0  0  0
  -27.8850  -11.2511   18.8796 H   0  0  0  0  0  0
  -27.3714  -12.5116   17.7884 H   0  0  0  0  0  0
  -27.6538  -14.1945   19.4529 H   0  0  0  0  0  0
  -28.6980  -12.0372   21.3812 H   0  0  0  0  0  0
  -28.4422  -13.6907   21.8277 H   0  0  0  0  0  0
  -25.2766   -9.5676   22.4760 H   0  0  0  0  0  0
  -24.0006   -7.4628   22.7491 H   0  0  0  0  0  0
  -21.0817   -8.8770   19.9000 H   0  0  0  0  0  0
  -22.3664  -10.9680   19.6180 H   0  0  0  0  0  0
  -21.1993   -7.6140   23.9712 H   0  0  0  0  0  0
  -21.1469   -6.0531   25.9084 H   0  0  0  0  0  0
  -22.0607   -2.7622   23.2837 H   0  0  0  0  0  0
  -22.4043  -11.9988   22.4849 H   0  0  0  0  0  0
  -21.1126  -13.1431   22.2597 H   0  0  0  0  0  0
  -24.6687  -15.8340   20.5078 H   0  0  0  0  0  0
  -26.2817  -15.6155   20.0580 H   0  0  0  0  0  0
  -26.7125  -32.5531   23.1163 H   0  0  0  0  0  0
  -25.0087  -33.9780   25.0503 H   0  0  0  0  0  0
  -22.6941  -31.3119   21.4141 H   0  0  0  0  0  0
  -23.3752  -35.9630   23.3283 H   0  0  0  0  0  0
  -24.3592  -36.8931   22.2050 H   0  0  0  0  0  0
  -23.7217  -37.6503   23.6651 H   0  0  0  0  0  0
  -26.0557  -31.5948   20.6011 H   0  0  0  0  0  0
  -26.8218  -30.8780   21.9903 H   0  0  0  0  0  0
  -28.0996  -29.0838   21.1645 H   0  0  0  0  0  0
  -25.9676  -25.9609   19.0430 H   0  0  0  0  0  0
  -23.9617  -27.2957   19.0606 H   0  0  0  0  0  0
  -23.7313  -30.6084   19.4085 H   0  0  0  0  0  0
  -22.7355  -29.2584   19.8623 H   0  0  0  0  0  0
  -25.1261  -36.1977   25.0835 H   0  0  0  0  0  0
  -20.9966  -28.3255   24.1428 H   0  0  0  0  0  0
  -20.5652  -26.2287   23.3611 H   0  0  0  0  0  0
  -21.6643  -26.7445   22.1231 H   0  0  0  0  0  0
  -19.6911  -25.6312   21.1219 H   0  0  0  0  0  0
  -19.6685  -27.3217   20.6748 H   0  0  0  0  0  0
  -17.4196  -26.6689   21.4005 H   0  0  0  0  0  0
  -18.0309  -26.0074   22.9003 H   0  0  0  0  0  0
  -19.7939  -30.7247   24.2307 H   0  0  0  0  0  0
  -17.5021  -31.6266   24.5177 H   0  0  0  0  0  0
  -15.5349  -30.3002   23.7639 H   0  0  0  0  0  0
  -15.8661  -28.0838   22.7037 H   0  0  0  0  0  0
  -24.5924  -30.7059   25.7870 H   0  0  0  0  0  0
  -24.8940  -32.2890   26.4934 H   0  0  0  0  0  0
  -25.8121  -30.8934   27.0267 H   0  0  0  0  0  0
  -26.2847  -29.6809   24.1163 H   0  0  0  0  0  0
  -27.4047  -29.7268   25.4589 H   0  0  0  0  0  0
  -27.8699  -30.4344   23.9293 H   0  0  0  0  0  0
  -27.2693  -33.3613   26.2098 H   0  0  0  0  0  0
  -28.3853  -32.6893   25.0298 H   0  0  0  0  0  0
  -28.0758  -31.8428   26.5379 H   0  0  0  0  0  0
  -28.2569  -38.0129   24.7567 H   0  0  0  0  0  0
  -28.1120  -36.2670   24.6165 H   0  0  0  0  0  0
  -27.2336  -37.1331   25.8855 H   0  0  0  0  0  0
  -20.9306  -29.8785   21.6959 H   0  0  0  0  0  0
  -26.0165  -38.2872   24.1476 H   0  0  0  0  0  0
  -33.2475  -21.8584   25.6107 H   0  0  0  0  0  0
  -34.3225  -23.3160   25.9344 H   0  0  0  0  0  0
  -32.3436  -24.8072   25.8150 H   0  0  0  0  0  0
  -31.2596  -23.3589   25.4861 H   0  0  0  0  0  0
  -30.8222  -16.5023   23.1964 H   0  0  0  0  0  0
  -32.1474  -15.6860   22.4542 H   0  0  0  0  0  0
  -32.3357  -17.3687   20.6677 H   0  0  0  0  0  0
  -32.3237  -18.1595   22.2191 H   0  0  0  0  0  0
  -28.6556  -18.2224   20.1309 H   0  0  0  0  0  0
  -29.9638  -17.3569   19.3677 H   0  0  0  0  0  0
  -33.6609  -24.3112   23.7071 H   0  0  0  0  0  0
  -28.5292  -15.7927   20.3553 H   0  0  0  0  0  0
  -35.1442  -22.1267   23.2133 H   0  0  0  0  0  0
  -35.1206  -20.7219   22.1668 H   0  0  0  0  0  0
  -34.5700  -20.5735   23.8348 H   0  0  0  0  0  0
  -28.6498  -17.2127   23.0374 H   0  0  0  0  0  0
  -27.8913  -15.6531   22.7688 H   0  0  0  0  0  0
  -27.2786  -17.0787   21.9559 H   0  0  0  0  0  0
  -28.3653  -20.4823   21.7248 H   0  0  0  0  0  0
  -27.1691  -21.6391   21.1882 H   0  0  0  0  0  0
  -28.0725  -21.9302   22.6722 H   0  0  0  0  0  0
  -30.4139  -26.0669   22.2619 H   0  0  0  0  0  0
  -31.9542  -25.2881   21.9224 H   0  0  0  0  0  0
  -31.4955  -25.6967   23.5835 H   0  0  0  0  0  0
  -31.7080  -19.4310   19.5952 H   0  0  0  0  0  0
  -30.0868  -19.9793   19.6800 H   0  0  0  0  0  0
  -30.4920  -24.8900   20.0355 H   0  0  0  0  0  0
  -29.8017  -23.8864   18.7974 H   0  0  0  0  0  0
  -27.8173  -25.2789   18.6173 H   0  0  0  0  0  0
  -29.2437  -26.1970   18.2990 H   0  0  0  0  0  0
  -29.2212  -21.8897   19.8402 H   0  0  0  0  0  0
  -30.0988  -18.7774   21.9149 H   0  0  0  0  0  0
  -27.8443  -23.7121   20.3945 H   0  0  0  0  0  0
  -28.8633  -24.1989   21.5531 H   0  0  0  0  0  0
  1 25  1  0  0  0
  1 30  2  0  0  0
  1 92  1  0  0  0
  2  3  1  0  0  0
  2 25  1  0  0  0
  2 96  1  0  0  0
  2 97  1  0  0  0
  3  4  1  0  0  0
  3 98  1  0  0  0
  3 99  1  0  0  0
  4  5  1  0  0  0
  4100  1  0  0  0
  4101  1  0  0  0
  5  6  1  0  0  0
  5 26  1  0  0  0
  5102  1  0  0  0
  6 25  1  0  0  0
  6103  1  0  0  0
  6104  1  0  0  0
  7  8  2  0  0  0
  7 26  1  0  0  0
  7 29  1  0  0  0
  8  9  1  0  0  0
  8 22  1  0  0  0
  9 10  1  0  0  0
  9 27  2  0  0  0
 10 11  2  0  0  0
 10 15  1  0  0  0
 11 12  1  0  0  0
 11105  1  0  0  0
 12 13  2  0  0  0
 12106  1  0  0  0
 13 14  1  0  0  0
 13 31  1  0  0  0
 14 15  2  0  0  0
 14107  1  0  0  0
 15108  1  0  0  0
 16 17  2  0  0  0
 16 21  1  0  0  0
 16 31  1  0  0  0
 17 18  1  0  0  0
 17109  1  0  0  0
 18 19  2  0  0  0
 18110  1  0  0  0
 19 20  1  0  0  0
 19 24  1  0  0  0
 20 21  2  0  0  0
 20111  1  0  0  0
 21 23  1  0  0  0
 22 28  1  0  0  0
 22 32  2  0  0  0
 26 27  1  0  0  0
 28112  1  0  0  0
 28113  1  0  0  0
 29114  1  0  0  0
 29115  1  0  0  0
 33 34  1  0  0  0
 33 66  1  0  0  0
 33 70  2  0  0  0
 34 36  1  0  0  0
 34 59  1  0  0  0
 34116  1  0  0  0
 35 44  2  0  0  0
 35 45  1  0  0  0
 35 68  1  0  0  0
 36 56  1  0  0  0
 36117  1  0  0  0
 37 39  1  0  0  0
 37 47  1  0  0  0
 37 66  1  0  0  0
 37118  1  0  0  0
 38 43  2  0  0  0
 38 46  1  0  0  0
 38 47  1  0  0  0
 39 64  1  0  0  0
 39 67  2  0  0  0
 40 52  1  0  0  0
 40 53  2  0  0  0
 40 58  1  0  0  0
 41119  1  0  0  0
 41120  1  0  0  0
 41121  1  0  0  0
 41 48  1  0  0  0
 42 43  1  0  0  0
 42 66  1  0  0  0
 42122  1  0  0  0
 42123  1  0  0  0
 43 44  1  0  0  0
 44124  1  0  0  0
 45 46  2  0  0  0
 45125  1  0  0  0
 46126  1  0  0  0
 47127  1  0  0  0
 47128  1  0  0  0
 48 56  1  0  0  0
 48 65  1  0  0  0
 48129  1  0  0  0
 49 50  1  0  0  0
 49 53  1  0  0  0
 49 64  1  0  0  0
 49130  1  0  0  0
 50 51  1  0  0  0
 50131  1  0  0  0
 50132  1  0  0  0
 51 52  1  0  0  0
 51133  1  0  0  0
 51134  1  0  0  0
 52135  1  0  0  0
 52136  1  0  0  0
 53 54  1  0  0  0
 54 55  2  0  0  0
 54137  1  0  0  0
 55 57  1  0  0  0
 55138  1  0  0  0
 56 69  2  0  0  0
 57 58  2  0  0  0
 57139  1  0  0  0
 58140  1  0  0  0
 59 60  1  0  0  0
 59 61  1  0  0  0
 59 62  1  0  0  0
 60141  1  0  0  0
 60142  1  0  0  0
 60143  1  0  0  0
 61144  1  0  0  0
 61145  1  0  0  0
 61146  1  0  0  0
 62147  1  0  0  0
 62148  1  0  0  0
 62149  1  0  0  0
 63 65  1  0  0  0
 63150  1  0  0  0
 63151  1  0  0  0
 63152  1  0  0  0
 64153  1  0  0  0
 65154  1  0  0  0
 68 89  1  0  0  0
 71 73  2  0  0  0
 71 74  1  0  0  0
 71 81  1  0  0  0
 72 73  1  0  0  0
 72 75  2  0  0  0
 72 90  1  0  0  0
 73 95  1  0  0  0
 74 83  1  0  0  0
 74 91  2  0  0  0
 75 87  1  0  0  0
 75 91  1  0  0  0
 76 77  1  0  0  0
 76 81  1  0  0  0
 76155  1  0  0  0
 76156  1  0  0  0
 77 81  1  0  0  0
 77157  1  0  0  0
 77158  1  0  0  0
 78 79  1  0  0  0
 78 92  1  0  0  0
 78159  1  0  0  0
 78160  1  0  0  0
 79 93  1  0  0  0
 79161  1  0  0  0
 79162  1  0  0  0
 80 82  1  0  0  0
 80 93  1  0  0  0
 80163  1  0  0  0
 80164  1  0  0  0
 81165  1  0  0  0
 82 84  1  0  0  0
 82 92  1  0  0  0
 82166  1  0  0  0
 83167  1  0  0  0
 83168  1  0  0  0
 83169  1  0  0  0
 84170  1  0  0  0
 84171  1  0  0  0
 84172  1  0  0  0
 85173  1  0  0  0
 85174  1  0  0  0
 85175  1  0  0  0
 85 90  1  0  0  0
 86 95  1  0  0  0
 86176  1  0  0  0
 86177  1  0  0  0
 86178  1  0  0  0
 87179  1  0  0  0
 87180  1  0  0  0
 87 93  1  0  0  0
 88 89  1  0  0  0
 88 94  1  0  0  0
 88181  1  0  0  0
 88182  1  0  0  0
 89183  1  0  0  0
 89184  1  0  0  0
 90 94  1  0  0  0
 90185  1  0  0  0
 93186  1  0  0  0
 94187  1  0  0  0
 94188  1  0  0  0
M  CHG  2  93   1  94   1
M  ISO  4   1 100  68 101  89 101  92 100
M  END
> <chiral flag>
0

> <version>
0

> <s_m_source_file>
/data/baiqing/PycharmProjects/Reinvent-master-3.2/result/LINK_invent/BTK/process_docking_weight1_custom_sum_contain_oxygen_bond_distance_aromatic_linkinvent_7_9_3/rearranged_h_0174.sdf

> <i_m_source_file_index>
18

> <r_mmod_Potential_Energy-OPLS-2005>
-177.880340576172

> <r_mmod_Stretch_Energy-OPLS-2005>
54.5468139648438

> <r_mmod_Bend_Energy-OPLS-2005>
141.522644042969

> <r_mmod_Torsional_Energy-OPLS-2005>
441.799835205078

> <r_mmod_Improper_Torsional_Energy-OPLS-2005>
5.09449338912964

> <r_mmod_Van_der_Waal_Energy-OPLS-2005>
164.684127807617

> <r_mmod_Electrostatic_Energy-OPLS-2005>
-154.776870727539

> <r_mmod_Solvation_Energy-OPLS-2005>
-849.143676757812

> <b_mmod_Minimization_Converged-OPLS-2005>
0

> <r_mmod_RMS_Derivative-OPLS-2005>
2.32624506950378

$$$$
20
                    3D
 Structure written by MMmdl.
162171  0  0  1  0            999 V2000
  -30.4327  -15.3814   20.3622 C   0  0  0  0  0  0
  -30.4308  -12.9014   19.5161 C   0  0  0  0  0  0
  -29.5341  -12.6030   18.2894 C   0  0  0  0  0  0
  -28.0972  -12.2977   18.7381 C   0  0  0  0  0  0
  -27.6044  -13.2883   19.8183 C   0  0  2  0  0  0
  -28.6401  -13.5340   20.9365 C   0  0  0  0  0  0
  -25.2363  -13.8219   20.5847 C   0  0  0  0  0  0
  -24.1726  -13.0363   20.9259 C   0  0  0  0  0  0
  -24.6407  -11.6887   20.8730 C   0  0  0  0  0  0
  -23.9093  -10.4261   21.0386 C   0  0  0  0  0  0
  -24.3642   -9.4183   21.9166 C   0  0  0  0  0  0
  -23.6299   -8.2233   22.0729 C   0  0  0  0  0  0
  -22.4280   -8.0270   21.3521 C   0  0  0  0  0  0
  -21.9914   -9.0256   20.4651 C   0  0  0  0  0  0
  -22.7245  -10.2128   20.3054 C   0  0  0  0  0  0
  -21.6893   -6.0715   22.5247 C   0  0  0  0  0  0
  -21.4048   -6.5618   23.8178 C   0  0  0  0  0  0
  -21.3677   -5.6769   24.9144 C   0  0  0  0  0  0
  -21.6054   -4.3028   24.7210 C   0  0  0  0  0  0
  -21.8811   -3.8121   23.4324 C   0  0  0  0  0  0
  -21.9196   -4.6941   22.3377 C   0  0  0  0  0  0
  -22.7754  -13.5152   21.1851 C   0  0  0  0  0  0
  -22.1656   -4.2126   21.0957 F   0  0  0  0  0  0
  -21.5617   -3.4510   25.7723 F   0  0  0  0  0  0
  -29.8431  -14.0754   20.2743 N   0  0  0  0  0  0
  -26.2807  -12.9539   20.3259 N   0  0  0  0  0  0
  -25.9339  -11.6618   20.5663 N   0  0  0  0  0  0
  -22.0391  -12.8213   22.0447 N   0  0  0  0  0  0
  -25.3865  -15.1975   20.4487 N   0  0  0  0  0  0
  -31.6686  -15.2951   20.2689 O   0  0  0  0  0  0
  -21.6647   -6.8859   21.4209 O   0  0  0  0  0  0
  -22.3471  -14.5435   20.6635 O   0  0  0  0  0  0
  -24.6711  -31.8164   23.1643 C   0  0  0  0  0  0
  -25.9349  -32.4553   23.8135 C   0  0  1  0  0  0
  -27.2188  -26.8464   20.2098 C   0  0  0  0  0  0
  -25.5993  -33.8374   24.2050 N   0  0  0  0  0  0
  -23.4904  -30.4236   21.5141 C   0  0  2  0  0  0
  -24.9443  -28.7896   20.1259 C   0  0  0  0  0  0
  -22.7699  -29.4394   22.4755 C   0  0  0  0  0  0
  -18.0327  -28.1409   22.8444 C   0  0  0  0  0  0
  -24.1501  -36.7202   23.2648 C   0  0  0  0  0  0
  -26.0628  -30.5991   21.4058 C   0  0  0  0  0  0
  -26.1312  -29.1755   20.7623 C   0  0  0  0  0  0
  -27.2647  -28.2304   20.7694 C   0  0  0  0  0  0
  -25.9989  -26.6301   19.5307 C   0  0  0  0  0  0
  -24.9065  -27.5381   19.4906 C   0  0  0  0  0  0
  -23.7410  -29.7342   20.1443 C   0  0  0  0  0  0
  -25.4142  -36.2953   24.0292 C   0  0  1  0  0  0
  -20.5951  -28.3770   23.1164 C   0  0  2  0  0  0
  -20.6798  -26.9438   22.5404 C   0  0  0  0  0  0
  -19.5779  -26.6366   21.5219 C   0  0  0  0  0  0
  -18.1961  -26.7929   22.1617 C   0  0  0  0  0  0
  -19.1585  -28.8910   23.2796 C   0  0  0  0  0  0
  -18.9486  -30.1482   23.8846 C   0  0  0  0  0  0
  -17.6481  -30.6586   24.0548 C   0  0  0  0  0  0
  -25.9099  -34.9332   23.4987 C   0  0  0  0  0  0
  -16.5379  -29.9069   23.6332 C   0  0  0  0  0  0
  -16.7309  -28.6499   23.0346 C   0  0  0  0  0  0
  -26.4588  -31.6507   25.0682 C   0  0  0  0  0  0
  -25.3695  -31.3767   26.1322 C   0  0  0  0  0  0
  -27.0501  -30.2857   24.6450 C   0  0  0  0  0  0
  -27.6081  -32.4305   25.7506 C   0  0  0  0  0  0
  -27.5578  -37.1769   24.8453 C   0  0  0  0  0  0
  -21.4359  -29.3049   22.3512 N   0  0  0  0  0  0
  -26.4284  -37.3689   23.9397 N   0  0  0  0  0  0
  -24.7632  -30.9759   22.0817 N   0  0  0  0  0  0
  -23.4223  -28.7968   23.3026 O   0  0  0  0  0  0
  -28.2302  -25.7246   20.1701 O   0  0  0  0  0  0
  -26.5713  -34.8874   22.4591 O   0  0  0  0  0  0
  -23.5758  -32.1165   23.6684 O   0  0  0  0  0  0
  -30.6628  -21.7089   18.3154 C   0  0  0  0  0  0
  -29.3832  -21.2379   20.2981 C   0  0  0  0  0  0
  -30.6477  -21.3786   19.6887 C   0  0  0  0  0  0
  -29.4619  -22.0999   17.6791 C   0  0  0  0  0  0
  -28.5595  -22.5357   19.8929 C   0  0  0  0  0  0
  -28.3948  -22.5686   18.4901 C   0  0  0  0  0  0
  -30.1132  -18.0993   20.7309 C   0  0  0  0  0  0
  -28.3696  -18.6494   19.3535 C   0  0  0  0  0  0
  -28.4702  -17.0732   19.6740 C   0  0  0  0  0  0
  -29.0865  -19.4690   20.4642 C   0  0  2  0  0  0
  -31.9233  -21.0207   20.4217 C   0  0  0  0  0  0
  -29.3809  -22.1230   16.1611 C   0  0  0  0  0  0
  -27.1878  -23.2644   17.8790 C   0  0  0  0  0  0
  -28.1265  -24.1027   20.6273 C   0  0  0  0  0  0
  -29.7367  -16.7321   20.3662 N   0  0  0  0  0  0
  -31.1844  -18.2902   21.3098 O   0  0  0  0  0  0
  -31.4475  -13.1102   19.1807 H   0  0  0  0  0  0
  -30.5111  -12.0186   20.1513 H   0  0  0  0  0  0
  -29.9314  -11.7623   17.7194 H   0  0  0  0  0  0
  -29.5349  -13.4616   17.6187 H   0  0  0  0  0  0
  -28.0950  -11.2883   19.1520 H   0  0  0  0  0  0
  -27.4258  -12.2825   17.8788 H   0  0  0  0  0  0
  -27.4914  -14.2353   19.2879 H   0  0  0  0  0  0
  -28.8548  -12.6282   21.5063 H   0  0  0  0  0  0
  -28.2604  -14.2647   21.6512 H   0  0  0  0  0  0
  -25.2776   -9.5668   22.4756 H   0  0  0  0  0  0
  -23.9980   -7.4656   22.7494 H   0  0  0  0  0  0
  -21.0802   -8.8793   19.9019 H   0  0  0  0  0  0
  -22.3676  -10.9666   19.6178 H   0  0  0  0  0  0
  -21.2063   -7.6125   23.9691 H   0  0  0  0  0  0
  -21.1517   -6.0491   25.9054 H   0  0  0  0  0  0
  -22.0590   -2.7584   23.2812 H   0  0  0  0  0  0
  -22.4029  -11.9942   22.4934 H   0  0  0  0  0  0
  -21.0999  -13.1253   22.2577 H   0  0  0  0  0  0
  -24.6070  -15.8195   20.6319 H   0  0  0  0  0  0
  -26.2238  -15.6799   20.1533 H   0  0  0  0  0  0
  -26.7427  -32.5088   23.0862 H   0  0  0  0  0  0
  -25.0132  -33.9443   25.0193 H   0  0  0  0  0  0
  -22.8087  -31.2568   21.3337 H   0  0  0  0  0  0
  -23.3775  -35.9519   23.3265 H   0  0  0  0  0  0
  -24.3578  -36.8902   22.2072 H   0  0  0  0  0  0
  -23.7259  -37.6373   23.6742 H   0  0  0  0  0  0
  -26.2438  -31.3306   20.6173 H   0  0  0  0  0  0
  -26.9216  -30.6679   22.0602 H   0  0  0  0  0  0
  -28.1720  -28.5341   21.2698 H   0  0  0  0  0  0
  -25.8646  -25.6787   19.0362 H   0  0  0  0  0  0
  -24.0053  -27.2339   18.9730 H   0  0  0  0  0  0
  -23.9239  -30.4991   19.3890 H   0  0  0  0  0  0
  -22.8477  -29.2017   19.8139 H   0  0  0  0  0  0
  -25.1357  -36.1736   25.0785 H   0  0  0  0  0  0
  -21.0045  -28.3376   24.1288 H   0  0  0  0  0  0
  -20.5656  -26.2397   23.3658 H   0  0  0  0  0  0
  -21.6662  -26.7390   22.1233 H   0  0  0  0  0  0
  -19.6935  -25.6260   21.1294 H   0  0  0  0  0  0
  -19.6720  -27.3123   20.6713 H   0  0  0  0  0  0
  -17.4238  -26.6676   21.4013 H   0  0  0  0  0  0
  -18.0338  -26.0084   22.9028 H   0  0  0  0  0  0
  -19.7968  -30.7299   24.2215 H   0  0  0  0  0  0
  -17.5035  -31.6254   24.5159 H   0  0  0  0  0  0
  -15.5364  -30.2963   23.7668 H   0  0  0  0  0  0
  -15.8721  -28.0801   22.7085 H   0  0  0  0  0  0
  -24.5893  -30.7101   25.7615 H   0  0  0  0  0  0
  -24.8861  -32.2969   26.4600 H   0  0  0  0  0  0
  -25.7895  -30.9022   27.0192 H   0  0  0  0  0  0
  -26.3169  -29.6496   24.1467 H   0  0  0  0  0  0
  -27.4037  -29.7259   25.5121 H   0  0  0  0  0  0
  -27.9115  -30.4032   23.9873 H   0  0  0  0  0  0
  -27.2658  -33.3656   26.1947 H   0  0  0  0  0  0
  -28.3978  -32.6765   25.0396 H   0  0  0  0  0  0
  -28.0643  -31.8503   26.5536 H   0  0  0  0  0  0
  -28.2553  -38.0102   24.7512 H   0  0  0  0  0  0
  -28.1120  -36.2633   24.6267 H   0  0  0  0  0  0
  -27.2293  -37.1385   25.8850 H   0  0  0  0  0  0
  -20.9617  -29.8792   21.6679 H   0  0  0  0  0  0
  -26.0128  -38.2743   24.1390 H   0  0  0  0  0  0
  -31.5771  -21.6054   17.7466 H   0  0  0  0  0  0
  -27.3327  -18.9628   19.2332 H   0  0  0  0  0  0
  -28.8655  -18.8435   18.3989 H   0  0  0  0  0  0
  -28.3573  -16.4780   18.7669 H   0  0  0  0  0  0
  -27.6562  -16.7933   20.3451 H   0  0  0  0  0  0
  -28.4271  -19.4447   21.3319 H   0  0  0  0  0  0
  -32.3637  -20.1025   20.0349 H   0  0  0  0  0  0
  -31.7225  -20.9008   21.4894 H   0  0  0  0  0  0
  -32.6654  -21.8139   20.3227 H   0  0  0  0  0  0
  -30.3225  -21.8145   15.7056 H   0  0  0  0  0  0
  -29.1280  -23.1126   15.7775 H   0  0  0  0  0  0
  -28.6193  -21.4179   15.8227 H   0  0  0  0  0  0
  -26.8598  -22.7598   16.9693 H   0  0  0  0  0  0
  -27.4109  -24.3030   17.6359 H   0  0  0  0  0  0
  -26.3439  -23.2419   18.5678 H   0  0  0  0  0  0
  -27.1051  -23.9716   20.9842 H   0  0  0  0  0  0
  -28.7217  -24.0938   21.5417 H   0  0  0  0  0  0
  1 25  1  0  0  0
  1 30  2  0  0  0
  1 85  1  0  0  0
  2  3  1  0  0  0
  2 25  1  0  0  0
  2 87  1  0  0  0
  2 88  1  0  0  0
  3  4  1  0  0  0
  3 89  1  0  0  0
  3 90  1  0  0  0
  4  5  1  0  0  0
  4 91  1  0  0  0
  4 92  1  0  0  0
  5  6  1  0  0  0
  5 26  1  0  0  0
  5 93  1  0  0  0
  6 25  1  0  0  0
  6 94  1  0  0  0
  6 95  1  0  0  0
  7  8  2  0  0  0
  7 26  1  0  0  0
  7 29  1  0  0  0
  8  9  1  0  0  0
  8 22  1  0  0  0
  9 10  1  0  0  0
  9 27  2  0  0  0
 10 11  2  0  0  0
 10 15  1  0  0  0
 11 12  1  0  0  0
 11 96  1  0  0  0
 12 13  2  0  0  0
 12 97  1  0  0  0
 13 14  1  0  0  0
 13 31  1  0  0  0
 14 15  2  0  0  0
 14 98  1  0  0  0
 15 99  1  0  0  0
 16 17  2  0  0  0
 16 21  1  0  0  0
 16 31  1  0  0  0
 17 18  1  0  0  0
 17100  1  0  0  0
 18 19  2  0  0  0
 18101  1  0  0  0
 19 20  1  0  0  0
 19 24  1  0  0  0
 20 21  2  0  0  0
 20102  1  0  0  0
 21 23  1  0  0  0
 22 28  1  0  0  0
 22 32  2  0  0  0
 26 27  1  0  0  0
 28103  1  0  0  0
 28104  1  0  0  0
 29105  1  0  0  0
 29106  1  0  0  0
 33 34  1  0  0  0
 33 66  1  0  0  0
 33 70  2  0  0  0
 34 36  1  0  0  0
 34 59  1  0  0  0
 34107  1  0  0  0
 35 44  2  0  0  0
 35 45  1  0  0  0
 35 68  1  0  0  0
 36 56  1  0  0  0
 36108  1  0  0  0
 37 39  1  0  0  0
 37 47  1  0  0  0
 37 66  1  0  0  0
 37109  1  0  0  0
 38 43  2  0  0  0
 38 46  1  0  0  0
 38 47  1  0  0  0
 39 64  1  0  0  0
 39 67  2  0  0  0
 40 52  1  0  0  0
 40 53  2  0  0  0
 40 58  1  0  0  0
 41110  1  0  0  0
 41111  1  0  0  0
 41112  1  0  0  0
 41 48  1  0  0  0
 42 43  1  0  0  0
 42 66  1  0  0  0
 42113  1  0  0  0
 42114  1  0  0  0
 43 44  1  0  0  0
 44115  1  0  0  0
 45 46  2  0  0  0
 45116  1  0  0  0
 46117  1  0  0  0
 47118  1  0  0  0
 47119  1  0  0  0
 48 56  1  0  0  0
 48 65  1  0  0  0
 48120  1  0  0  0
 49 50  1  0  0  0
 49 53  1  0  0  0
 49 64  1  0  0  0
 49121  1  0  0  0
 50 51  1  0  0  0
 50122  1  0  0  0
 50123  1  0  0  0
 51 52  1  0  0  0
 51124  1  0  0  0
 51125  1  0  0  0
 52126  1  0  0  0
 52127  1  0  0  0
 53 54  1  0  0  0
 54 55  2  0  0  0
 54128  1  0  0  0
 55 57  1  0  0  0
 55129  1  0  0  0
 56 69  2  0  0  0
 57 58  2  0  0  0
 57130  1  0  0  0
 58131  1  0  0  0
 59 60  1  0  0  0
 59 61  1  0  0  0
 59 62  1  0  0  0
 60132  1  0  0  0
 60133  1  0  0  0
 60134  1  0  0  0
 61135  1  0  0  0
 61136  1  0  0  0
 61137  1  0  0  0
 62138  1  0  0  0
 62139  1  0  0  0
 62140  1  0  0  0
 63 65  1  0  0  0
 63141  1  0  0  0
 63142  1  0  0  0
 63143  1  0  0  0
 64144  1  0  0  0
 65145  1  0  0  0
 68 84  1  0  0  0
 71 73  2  0  0  0
 71 74  1  0  0  0
 71146  1  0  0  0
 72 73  1  0  0  0
 72 75  2  0  0  0
 72 80  1  0  0  0
 73 81  1  0  0  0
 74 76  2  0  0  0
 74 82  1  0  0  0
 75 76  1  0  0  0
 75 84  1  0  0  0
 76 83  1  0  0  0
 77 80  1  0  0  0
 77 85  1  0  0  0
 77 86  2  0  0  0
 78 79  1  0  0  0
 78 80  1  0  0  0
 78147  1  0  0  0
 78148  1  0  0  0
 79 85  1  0  0  0
 79149  1  0  0  0
 79150  1  0  0  0
 80151  1  0  0  0
 81152  1  0  0  0
 81153  1  0  0  0
 81154  1  0  0  0
 82155  1  0  0  0
 82156  1  0  0  0
 82157  1  0  0  0
 83158  1  0  0  0
 83159  1  0  0  0
 83160  1  0  0  0
 84161  1  0  0  0
 84162  1  0  0  0
M  ISO  4   1 100  68 101  84 101  85 100
M  END
> <chiral flag>
0

> <version>
0

> <s_m_source_file>
/data/baiqing/PycharmProjects/Reinvent-master-3.2/result/LINK_invent/BTK/process_docking_weight1_custom_sum_contain_oxygen_bond_distance_aromatic_linkinvent_7_9_3/rearranged_h_0174.sdf

> <i_m_source_file_index>
19

> <r_mmod_Potential_Energy-OPLS-2005>
2046.21032714844

> <r_mmod_Stretch_Energy-OPLS-2005>
696.655395507812

> <r_mmod_Bend_Energy-OPLS-2005>
570.247619628906

> <r_mmod_Torsional_Energy-OPLS-2005>
561.526306152344

> <r_mmod_Improper_Torsional_Energy-OPLS-2005>
24.1700191497803

> <r_mmod_Van_der_Waal_Energy-OPLS-2005>
119.405410766602

> <r_mmod_Electrostatic_Energy-OPLS-2005>
-299.677276611328

> <r_mmod_Solvation_Energy-OPLS-2005>
-203.970932006836

> <b_mmod_Minimization_Converged-OPLS-2005>
0

> <r_mmod_RMS_Derivative-OPLS-2005>
4.91182470321655

$$$$
21
                    3D
 Structure written by MMmdl.
159168  0  0  1  0            999 V2000
  -30.6450  -14.7521   20.4503 C   0  0  0  0  0  0
  -30.4208  -12.4617   19.4765 C   0  0  0  0  0  0
  -29.5044  -12.4999   18.2362 C   0  0  0  0  0  0
  -28.0322  -12.3275   18.6535 C   0  0  0  0  0  0
  -27.6357  -13.2395   19.8458 C   0  0  2  0  0  0
  -28.6818  -13.2098   20.9802 C   0  0  0  0  0  0
  -25.2490  -13.8219   20.5724 C   0  0  0  0  0  0
  -24.1786  -13.0449   20.9212 C   0  0  0  0  0  0
  -24.6389  -11.6930   20.8753 C   0  0  0  0  0  0
  -23.9073  -10.4299   21.0408 C   0  0  0  0  0  0
  -24.3623   -9.4211   21.9182 C   0  0  0  0  0  0
  -23.6298   -8.2247   22.0751 C   0  0  0  0  0  0
  -22.4280   -8.0284   21.3542 C   0  0  0  0  0  0
  -21.9917   -9.0260   20.4646 C   0  0  0  0  0  0
  -22.7245  -10.2140   20.3058 C   0  0  0  0  0  0
  -21.6857   -6.0740   22.5279 C   0  0  0  0  0  0
  -21.4019   -6.5642   23.8213 C   0  0  0  0  0  0
  -21.3659   -5.6794   24.9174 C   0  0  0  0  0  0
  -21.6041   -4.3057   24.7224 C   0  0  0  0  0  0
  -21.8819   -3.8150   23.4347 C   0  0  0  0  0  0
  -21.9193   -4.6966   22.3403 C   0  0  0  0  0  0
  -22.7806  -13.5222   21.1870 C   0  0  0  0  0  0
  -22.1660   -4.2152   21.0981 F   0  0  0  0  0  0
  -21.5625   -3.4539   25.7736 F   0  0  0  0  0  0
  -29.9774  -13.5474   20.3830 N   0  0  0  0  0  0
  -26.2916  -12.9438   20.3298 N   0  0  0  0  0  0
  -25.9324  -11.6573   20.5768 N   0  0  0  0  0  0
  -22.0459  -12.8211   22.0431 N   0  0  0  0  0  0
  -25.4193  -15.1946   20.4181 N   0  0  0  0  0  0
  -31.8479  -14.7811   20.1692 O   0  0  0  0  0  0
  -21.6643   -6.8883   21.4241 O   0  0  0  0  0  0
  -22.3486  -14.5525   20.6716 O   0  0  0  0  0  0
  -24.6323  -31.8545   23.1979 C   0  0  0  0  0  0
  -25.9142  -32.4753   23.8329 C   0  0  1  0  0  0
  -27.2138  -27.2543   20.1368 C   0  0  0  0  0  0
  -25.5933  -33.8555   24.2249 N   0  0  0  0  0  0
  -23.4304  -30.4767   21.5413 C   0  0  2  0  0  0
  -24.8797  -28.9249   20.1083 C   0  0  0  0  0  0
  -22.7513  -29.4594   22.4905 C   0  0  0  0  0  0
  -18.0295  -28.1386   22.8483 C   0  0  0  0  0  0
  -24.1490  -36.7285   23.2637 C   0  0  0  0  0  0
  -25.9774  -30.7658   21.3795 C   0  0  0  0  0  0
  -26.0524  -29.3877   20.7216 C   0  0  0  0  0  0
  -27.2274  -28.5652   20.7247 C   0  0  0  0  0  0
  -26.0265  -26.8677   19.4817 C   0  0  0  0  0  0
  -24.8723  -27.6732   19.4749 C   0  0  0  0  0  0
  -23.6501  -29.8120   20.1571 C   0  0  0  0  0  0
  -25.4117  -36.3070   24.0323 C   0  0  1  0  0  0
  -20.5901  -28.3701   23.1265 C   0  0  2  0  0  0
  -20.6783  -26.9416   22.5408 C   0  0  0  0  0  0
  -19.5759  -26.6381   21.5212 C   0  0  0  0  0  0
  -18.1939  -26.7926   22.1625 C   0  0  0  0  0  0
  -19.1549  -28.8861   23.2868 C   0  0  0  0  0  0
  -18.9468  -30.1460   23.8888 C   0  0  0  0  0  0
  -17.6467  -30.6587   24.0561 C   0  0  0  0  0  0
  -25.9060  -34.9440   23.5090 C   0  0  0  0  0  0
  -16.5358  -29.9084   23.6330 C   0  0  0  0  0  0
  -16.7281  -28.6501   23.0353 C   0  0  0  0  0  0
  -26.4504  -31.6580   25.0721 C   0  0  0  0  0  0
  -25.3719  -31.3740   26.1437 C   0  0  0  0  0  0
  -27.0347  -30.2992   24.6214 C   0  0  0  0  0  0
  -27.6053  -32.4322   25.7497 C   0  0  0  0  0  0
  -27.5582  -37.1795   24.8460 C   0  0  0  0  0  0
  -21.4218  -29.3045   22.3651 N   0  0  0  0  0  0
  -26.4289  -37.3772   23.9411 N   0  0  0  0  0  0
  -24.6992  -31.0501   22.0961 N   0  0  0  0  0  0
  -23.4208  -28.8133   23.3008 O   0  0  0  0  0  0
  -28.2581  -26.3004   20.1846 O   0  0  0  0  0  0
  -26.5636  -34.8918   22.4662 O   0  0  0  0  0  0
  -23.5468  -32.1369   23.7265 O   0  0  0  0  0  0
  -29.7383  -23.1946   20.1457 C   0  0  0  0  0  0
  -28.4264  -23.5380   20.5689 C   0  0  0  0  0  0
  -30.1772  -21.8281   20.0523 C   0  0  0  0  0  0
  -29.3072  -20.7381   20.3891 C   0  0  0  0  0  0
  -27.6293  -22.3779   20.8642 C   0  0  0  0  0  0
  -29.8108  -18.3941   21.7031 C   0  0  0  0  0  0
  -28.9898  -18.1826   19.4479 C   0  0  0  0  0  0
  -30.4605  -16.9435   21.6132 C   0  0  0  0  0  0
  -29.6309  -16.7273   19.3434 C   0  0  0  0  0  0
  -29.7525  -19.1833   20.3636 C   0  0  0  0  0  0
  -26.2023  -22.5206   21.3625 C   0  0  0  0  0  0
  -27.9234  -25.0295   20.9184 C   0  0  0  0  0  0
  -28.0426  -21.0651   20.7757 N   0  0  0  0  0  0
  -29.9500  -15.9633   20.5966 N   0  0  0  0  0  0
  -31.8073  -21.5432   19.5495 Cl  0  0  0  0  0  0
  -31.4634  -12.5673   19.1724 H   0  0  0  0  0  0
  -30.3541  -11.4953   19.9789 H   0  0  0  0  0  0
  -29.7875  -11.7160   17.5325 H   0  0  0  0  0  0
  -29.6317  -13.4471   17.7096 H   0  0  0  0  0  0
  -27.8925  -11.2812   18.9277 H   0  0  0  0  0  0
  -27.3736  -12.5075   17.8029 H   0  0  0  0  0  0
  -27.6181  -14.2550   19.4508 H   0  0  0  0  0  0
  -28.7201  -12.2290   21.4564 H   0  0  0  0  0  0
  -28.4201  -13.9268   21.7603 H   0  0  0  0  0  0
  -25.2768   -9.5685   22.4759 H   0  0  0  0  0  0
  -24.0004   -7.4637   22.7471 H   0  0  0  0  0  0
  -21.0846   -8.8785   19.8955 H   0  0  0  0  0  0
  -22.3702  -10.9682   19.6171 H   0  0  0  0  0  0
  -21.2017   -7.6151   23.9720 H   0  0  0  0  0  0
  -21.1479   -6.0523   25.9077 H   0  0  0  0  0  0
  -22.0598   -2.7612   23.2847 H   0  0  0  0  0  0
  -22.4086  -11.9879   22.4823 H   0  0  0  0  0  0
  -21.1075  -13.1229   22.2638 H   0  0  0  0  0  0
  -24.6589  -15.8531   20.5471 H   0  0  0  0  0  0
  -26.2857  -15.6385   20.1403 H   0  0  0  0  0  0
  -26.7209  -32.5404   23.1072 H   0  0  0  0  0  0
  -25.0066  -33.9690   25.0384 H   0  0  0  0  0  0
  -22.7272  -31.2992   21.3950 H   0  0  0  0  0  0
  -23.3755  -35.9615   23.3290 H   0  0  0  0  0  0
  -24.3581  -36.8919   22.2053 H   0  0  0  0  0  0
  -23.7240  -37.6481   23.6669 H   0  0  0  0  0  0
  -26.1160  -31.5259   20.6093 H   0  0  0  0  0  0
  -26.8545  -30.8160   22.0128 H   0  0  0  0  0  0
  -28.1225  -28.9096   21.2237 H   0  0  0  0  0  0
  -25.9787  -25.9020   18.9980 H   0  0  0  0  0  0
  -23.9770  -27.3146   18.9856 H   0  0  0  0  0  0
  -23.7752  -30.5892   19.4024 H   0  0  0  0  0  0
  -22.7684  -29.2460   19.8510 H   0  0  0  0  0  0
  -25.1298  -36.1914   25.0815 H   0  0  0  0  0  0
  -20.9992  -28.3280   24.1387 H   0  0  0  0  0  0
  -20.5681  -26.2312   23.3615 H   0  0  0  0  0  0
  -21.6651  -26.7438   22.1204 H   0  0  0  0  0  0
  -19.6923  -25.6290   21.1247 H   0  0  0  0  0  0
  -19.6697  -27.3188   20.6739 H   0  0  0  0  0  0
  -17.4208  -26.6669   21.4029 H   0  0  0  0  0  0
  -18.0346  -26.0070   22.9026 H   0  0  0  0  0  0
  -19.7942  -30.7277   24.2258 H   0  0  0  0  0  0
  -17.5020  -31.6266   24.5165 H   0  0  0  0  0  0
  -15.5358  -30.2985   23.7656 H   0  0  0  0  0  0
  -15.8682  -28.0818   22.7073 H   0  0  0  0  0  0
  -24.5896  -30.7088   25.7764 H   0  0  0  0  0  0
  -24.8909  -32.2915   26.4839 H   0  0  0  0  0  0
  -25.8027  -30.8932   27.0227 H   0  0  0  0  0  0
  -26.2934  -29.6742   24.1220 H   0  0  0  0  0  0
  -27.4001  -29.7254   25.4740 H   0  0  0  0  0  0
  -27.8826  -30.4259   23.9479 H   0  0  0  0  0  0
  -27.2658  -33.3626   26.2061 H   0  0  0  0  0  0
  -28.3874  -32.6873   25.0332 H   0  0  0  0  0  0
  -28.0711  -31.8453   26.5424 H   0  0  0  0  0  0
  -28.2586  -38.0106   24.7523 H   0  0  0  0  0  0
  -28.1092  -36.2637   24.6265 H   0  0  0  0  0  0
  -27.2303  -37.1417   25.8863 H   0  0  0  0  0  0
  -20.9406  -29.8771   21.6856 H   0  0  0  0  0  0
  -26.0166  -38.2843   24.1422 H   0  0  0  0  0  0
  -30.4392  -23.9866   19.9260 H   0  0  0  0  0  0
  -30.3775  -18.9814   22.4266 H   0  0  0  0  0  0
  -28.8039  -18.3164   22.1152 H   0  0  0  0  0  0
  -27.9579  -18.1012   19.7921 H   0  0  0  0  0  0
  -28.9298  -18.6072   18.4453 H   0  0  0  0  0  0
  -30.3836  -16.4720   22.5942 H   0  0  0  0  0  0
  -31.5305  -17.0767   21.4414 H   0  0  0  0  0  0
  -30.5562  -16.8174   18.7704 H   0  0  0  0  0  0
  -28.9761  -16.1079   18.7292 H   0  0  0  0  0  0
  -30.7736  -19.1862   19.9879 H   0  0  0  0  0  0
  -26.1773  -23.0628   22.3077 H   0  0  0  0  0  0
  -25.7329  -21.5502   21.5277 H   0  0  0  0  0  0
  -25.5942  -23.0582   20.6348 H   0  0  0  0  0  0
  -28.2802  -25.2037   21.9340 H   0  0  0  0  0  0
  -26.8436  -24.9820   21.0395 H   0  0  0  0  0  0
  1 25  1  0  0  0
  1 30  2  0  0  0
  1 84  1  0  0  0
  2  3  1  0  0  0
  2 25  1  0  0  0
  2 86  1  0  0  0
  2 87  1  0  0  0
  3  4  1  0  0  0
  3 88  1  0  0  0
  3 89  1  0  0  0
  4  5  1  0  0  0
  4 90  1  0  0  0
  4 91  1  0  0  0
  5  6  1  0  0  0
  5 26  1  0  0  0
  5 92  1  0  0  0
  6 25  1  0  0  0
  6 93  1  0  0  0
  6 94  1  0  0  0
  7  8  2  0  0  0
  7 26  1  0  0  0
  7 29  1  0  0  0
  8  9  1  0  0  0
  8 22  1  0  0  0
  9 10  1  0  0  0
  9 27  2  0  0  0
 10 11  2  0  0  0
 10 15  1  0  0  0
 11 12  1  0  0  0
 11 95  1  0  0  0
 12 13  2  0  0  0
 12 96  1  0  0  0
 13 14  1  0  0  0
 13 31  1  0  0  0
 14 15  2  0  0  0
 14 97  1  0  0  0
 15 98  1  0  0  0
 16 17  2  0  0  0
 16 21  1  0  0  0
 16 31  1  0  0  0
 17 18  1  0  0  0
 17 99  1  0  0  0
 18 19  2  0  0  0
 18100  1  0  0  0
 19 20  1  0  0  0
 19 24  1  0  0  0
 20 21  2  0  0  0
 20101  1  0  0  0
 21 23  1  0  0  0
 22 28  1  0  0  0
 22 32  2  0  0  0
 26 27  1  0  0  0
 28102  1  0  0  0
 28103  1  0  0  0
 29104  1  0  0  0
 29105  1  0  0  0
 33 34  1  0  0  0
 33 66  1  0  0  0
 33 70  2  0  0  0
 34 36  1  0  0  0
 34 59  1  0  0  0
 34106  1  0  0  0
 35 44  2  0  0  0
 35 45  1  0  0  0
 35 68  1  0  0  0
 36 56  1  0  0  0
 36107  1  0  0  0
 37 39  1  0  0  0
 37 47  1  0  0  0
 37 66  1  0  0  0
 37108  1  0  0  0
 38 43  2  0  0  0
 38 46  1  0  0  0
 38 47  1  0  0  0
 39 64  1  0  0  0
 39 67  2  0  0  0
 40 52  1  0  0  0
 40 53  2  0  0  0
 40 58  1  0  0  0
 41109  1  0  0  0
 41110  1  0  0  0
 41111  1  0  0  0
 41 48  1  0  0  0
 42 43  1  0  0  0
 42 66  1  0  0  0
 42112  1  0  0  0
 42113  1  0  0  0
 43 44  1  0  0  0
 44114  1  0  0  0
 45 46  2  0  0  0
 45115  1  0  0  0
 46116  1  0  0  0
 47117  1  0  0  0
 47118  1  0  0  0
 48 56  1  0  0  0
 48 65  1  0  0  0
 48119  1  0  0  0
 49 50  1  0  0  0
 49 53  1  0  0  0
 49 64  1  0  0  0
 49120  1  0  0  0
 50 51  1  0  0  0
 50121  1  0  0  0
 50122  1  0  0  0
 51 52  1  0  0  0
 51123  1  0  0  0
 51124  1  0  0  0
 52125  1  0  0  0
 52126  1  0  0  0
 53 54  1  0  0  0
 54 55  2  0  0  0
 54127  1  0  0  0
 55 57  1  0  0  0
 55128  1  0  0  0
 56 69  2  0  0  0
 57 58  2  0  0  0
 57129  1  0  0  0
 58130  1  0  0  0
 59 60  1  0  0  0
 59 61  1  0  0  0
 59 62  1  0  0  0
 60131  1  0  0  0
 60132  1  0  0  0
 60133  1  0  0  0
 61134  1  0  0  0
 61135  1  0  0  0
 61136  1  0  0  0
 62137  1  0  0  0
 62138  1  0  0  0
 62139  1  0  0  0
 63 65  1  0  0  0
 63140  1  0  0  0
 63141  1  0  0  0
 63142  1  0  0  0
 64143  1  0  0  0
 65144  1  0  0  0
 68 82  1  0  0  0
 71 72  2  0  0  0
 71 73  1  0  0  0
 71145  1  0  0  0
 72 75  1  0  0  0
 72 82  1  0  0  0
 73 74  2  0  0  0
 73 85  1  0  0  0
 74 83  1  0  0  0
 74 80  1  0  0  0
 75 81  1  0  0  0
 75 83  2  0  0  0
 76 78  1  0  0  0
 76 80  1  0  0  0
 76146  1  0  0  0
 76147  1  0  0  0
 77 79  1  0  0  0
 77 80  1  0  0  0
 77148  1  0  0  0
 77149  1  0  0  0
 78 84  1  0  0  0
 78150  1  0  0  0
 78151  1  0  0  0
 79 84  1  0  0  0
 79152  1  0  0  0
 79153  1  0  0  0
 80154  1  0  0  0
 81155  1  0  0  0
 81156  1  0  0  0
 81157  1  0  0  0
 82158  1  0  0  0
 82159  1  0  0  0
M  ISO  4   1 100  68 101  82 101  84 100
M  END
> <chiral flag>
0

> <version>
0

> <s_m_source_file>
/data/baiqing/PycharmProjects/Reinvent-master-3.2/result/LINK_invent/BTK/process_docking_weight1_custom_sum_contain_oxygen_bond_distance_aromatic_linkinvent_7_9_3/rearranged_h_0174.sdf

> <i_m_source_file_index>
20

> <r_mmod_Potential_Energy-OPLS-2005>
347.217498779297

> <r_mmod_Stretch_Energy-OPLS-2005>
126.467430114746

> <r_mmod_Bend_Energy-OPLS-2005>
199.103302001953

> <r_mmod_Torsional_Energy-OPLS-2005>
344.882843017578

> <r_mmod_Improper_Torsional_Energy-OPLS-2005>
10.7285690307617

> <r_mmod_Van_der_Waal_Energy-OPLS-2005>
141.894760131836

> <r_mmod_Electrostatic_Energy-OPLS-2005>
-374.802551269531

> <r_mmod_Solvation_Energy-OPLS-2005>
-198.390502929688

> <b_mmod_Minimization_Converged-OPLS-2005>
0

> <r_mmod_RMS_Derivative-OPLS-2005>
0.390800535678864

$$$$
22
                    3D
 Structure written by MMmdl.
160169  0  0  1  0            999 V2000
  -30.6221  -14.7415   20.4578 C   0  0  0  0  0  0
  -30.4333  -12.4582   19.4622 C   0  0  0  0  0  0
  -29.5059  -12.5001   18.2290 C   0  0  0  0  0  0
  -28.0344  -12.3223   18.6501 C   0  0  0  0  0  0
  -27.6401  -13.2305   19.8456 C   0  0  2  0  0  0
  -28.6873  -13.1734   20.9778 C   0  0  0  0  0  0
  -25.2519  -13.8195   20.5701 C   0  0  0  0  0  0
  -24.1807  -13.0442   20.9214 C   0  0  0  0  0  0
  -24.6397  -11.6920   20.8757 C   0  0  0  0  0  0
  -23.9074  -10.4295   21.0413 C   0  0  0  0  0  0
  -24.3628   -9.4211   21.9193 C   0  0  0  0  0  0
  -23.6299   -8.2245   22.0759 C   0  0  0  0  0  0
  -22.4279   -8.0288   21.3548 C   0  0  0  0  0  0
  -21.9920   -9.0261   20.4648 C   0  0  0  0  0  0
  -22.7248  -10.2139   20.3059 C   0  0  0  0  0  0
  -21.6857   -6.0740   22.5280 C   0  0  0  0  0  0
  -21.4010   -6.5642   23.8211 C   0  0  0  0  0  0
  -21.3654   -5.6797   24.9176 C   0  0  0  0  0  0
  -21.6042   -4.3057   24.7225 C   0  0  0  0  0  0
  -21.8823   -3.8151   23.4344 C   0  0  0  0  0  0
  -21.9195   -4.6969   22.3403 C   0  0  0  0  0  0
  -22.7827  -13.5225   21.1869 C   0  0  0  0  0  0
  -22.1666   -4.2155   21.0979 F   0  0  0  0  0  0
  -21.5626   -3.4543   25.7735 F   0  0  0  0  0  0
  -29.9829  -13.5248   20.3855 N   0  0  0  0  0  0
  -26.2938  -12.9399   20.3272 N   0  0  0  0  0  0
  -25.9326  -11.6544   20.5758 N   0  0  0  0  0  0
  -22.0468  -12.8213   22.0418 N   0  0  0  0  0  0
  -25.4220  -15.1918   20.4107 N   0  0  0  0  0  0
  -31.8283  -14.8027   20.2074 O   0  0  0  0  0  0
  -21.6644   -6.8886   21.4239 O   0  0  0  0  0  0
  -22.3512  -14.5531   20.6719 O   0  0  0  0  0  0
  -24.6302  -31.8555   23.1974 C   0  0  0  0  0  0
  -25.9125  -32.4764   23.8321 C   0  0  1  0  0  0
  -27.2241  -27.2746   20.1409 C   0  0  0  0  0  0
  -25.5928  -33.8563   24.2255 N   0  0  0  0  0  0
  -23.4265  -30.4762   21.5394 C   0  0  2  0  0  0
  -24.8751  -28.9154   20.1172 C   0  0  0  0  0  0
  -22.7493  -29.4610   22.4911 C   0  0  0  0  0  0
  -18.0291  -28.1396   22.8482 C   0  0  0  0  0  0
  -24.1480  -36.7274   23.2644 C   0  0  0  0  0  0
  -25.9699  -30.7735   21.3726 C   0  0  0  0  0  0
  -26.0454  -29.3935   20.7222 C   0  0  0  0  0  0
  -27.2265  -28.5866   20.7187 C   0  0  0  0  0  0
  -26.0340  -26.8517   19.5167 C   0  0  0  0  0  0
  -24.8731  -27.6508   19.5039 C   0  0  0  0  0  0
  -23.6448  -29.8016   20.1589 C   0  0  0  0  0  0
  -25.4109  -36.3076   24.0335 C   0  0  1  0  0  0
  -20.5892  -28.3703   23.1271 C   0  0  2  0  0  0
  -20.6781  -26.9421   22.5408 C   0  0  0  0  0  0
  -19.5757  -26.6383   21.5215 C   0  0  0  0  0  0
  -18.1934  -26.7940   22.1617 C   0  0  0  0  0  0
  -19.1545  -28.8866   23.2874 C   0  0  0  0  0  0
  -18.9472  -30.1466   23.8895 C   0  0  0  0  0  0
  -17.6471  -30.6597   24.0565 C   0  0  0  0  0  0
  -25.9050  -34.9448   23.5096 C   0  0  0  0  0  0
  -16.5362  -29.9095   23.6342 C   0  0  0  0  0  0
  -16.7280  -28.6511   23.0361 C   0  0  0  0  0  0
  -26.4497  -31.6598   25.0714 C   0  0  0  0  0  0
  -25.3718  -31.3745   26.1436 C   0  0  0  0  0  0
  -27.0360  -30.3029   24.6188 C   0  0  0  0  0  0
  -27.6053  -32.4340   25.7486 C   0  0  0  0  0  0
  -27.5575  -37.1792   24.8471 C   0  0  0  0  0  0
  -21.4199  -29.3053   22.3661 N   0  0  0  0  0  0
  -26.4284  -37.3777   23.9421 N   0  0  0  0  0  0
  -24.6946  -31.0532   22.0930 N   0  0  0  0  0  0
  -23.4201  -28.8151   23.3006 O   0  0  0  0  0  0
  -28.3224  -26.3957   20.1288 O   0  0  0  0  0  0
  -26.5614  -34.8927   22.4660 O   0  0  0  0  0  0
  -23.5453  -32.1357   23.7283 O   0  0  0  0  0  0
  -28.8549  -22.4552   20.8887 C   0  0  0  0  0  0
  -28.5024  -23.6794   20.1895 C   0  0  0  0  0  0
  -29.0083  -21.2234   20.1510 C   0  0  0  0  0  0
  -28.4552  -22.4247   18.2618 C   0  0  0  0  0  0
  -30.0865  -18.3790   18.7907 C   0  0  0  0  0  0
  -31.2625  -17.7805   19.5647 C   0  0  0  0  0  0
  -29.3281  -18.5543   20.1177 C   0  0  1  0  0  0
  -30.2886  -17.3707   20.6884 C   0  0  1  0  0  0
  -29.0450  -22.4669   22.3989 C   0  0  0  0  0  0
  -28.2398  -22.3907   16.7651 C   0  0  0  0  0  0
  -28.2069  -25.0960   20.8675 C   0  0  0  0  0  0
  -28.3171  -23.6089   18.8578 N   0  0  0  0  0  0
  -28.7705  -21.2616   18.8327 N   0  0  0  0  0  0
  -29.4334  -19.9539   20.7098 N   0  0  0  0  0  0
  -29.8612  -15.8974   20.5996 N   0  0  0  0  0  0
  -31.4705  -12.5914   19.1492 H   0  0  0  0  0  0
  -30.3908  -11.4834   19.9510 H   0  0  0  0  0  0
  -29.7872  -11.7228   17.5177 H   0  0  0  0  0  0
  -29.6273  -13.4505   17.7072 H   0  0  0  0  0  0
  -27.8985  -11.2756   18.9244 H   0  0  0  0  0  0
  -27.3724  -12.5021   17.8024 H   0  0  0  0  0  0
  -27.6317  -14.2491   19.4571 H   0  0  0  0  0  0
  -28.7276  -12.1778   21.4224 H   0  0  0  0  0  0
  -28.4259  -13.8605   21.7845 H   0  0  0  0  0  0
  -25.2775   -9.5685   22.4774 H   0  0  0  0  0  0
  -24.0010   -7.4636   22.7478 H   0  0  0  0  0  0
  -21.0857   -8.8779   19.8953 H   0  0  0  0  0  0
  -22.3713  -10.9682   19.6169 H   0  0  0  0  0  0
  -21.1999   -7.6152   23.9715 H   0  0  0  0  0  0
  -21.1466   -6.0526   25.9077 H   0  0  0  0  0  0
  -22.0604   -2.7615   23.2845 H   0  0  0  0  0  0
  -22.4084  -11.9878   22.4814 H   0  0  0  0  0  0
  -21.1081  -13.1233   22.2607 H   0  0  0  0  0  0
  -24.6549  -15.8455   20.5226 H   0  0  0  0  0  0
  -26.2629  -15.6292   20.0574 H   0  0  0  0  0  0
  -26.7189  -32.5424   23.1064 H   0  0  0  0  0  0
  -25.0126  -33.9695   25.0438 H   0  0  0  0  0  0
  -22.7241  -31.2989   21.3895 H   0  0  0  0  0  0
  -23.3759  -35.9593   23.3308 H   0  0  0  0  0  0
  -24.3569  -36.8886   22.2057 H   0  0  0  0  0  0
  -23.7212  -37.6469   23.6661 H   0  0  0  0  0  0
  -26.1023  -31.5291   20.5970 H   0  0  0  0  0  0
  -26.8506  -30.8290   22.0011 H   0  0  0  0  0  0
  -28.1272  -28.9515   21.1927 H   0  0  0  0  0  0
  -26.0006  -25.8788   19.0457 H   0  0  0  0  0  0
  -23.9764  -27.2776   19.0288 H   0  0  0  0  0  0
  -23.7674  -30.5725   19.3977 H   0  0  0  0  0  0
  -22.7646  -29.2309   19.8568 H   0  0  0  0  0  0
  -25.1288  -36.1927   25.0830 H   0  0  0  0  0  0
  -20.9992  -28.3282   24.1387 H   0  0  0  0  0  0
  -20.5694  -26.2309   23.3609 H   0  0  0  0  0  0
  -21.6645  -26.7449   22.1195 H   0  0  0  0  0  0
  -19.6918  -25.6292   21.1250 H   0  0  0  0  0  0
  -19.6707  -27.3192   20.6747 H   0  0  0  0  0  0
  -17.4208  -26.6706   21.4011 H   0  0  0  0  0  0
  -18.0320  -26.0082   22.9010 H   0  0  0  0  0  0
  -19.7952  -30.7280   24.2261 H   0  0  0  0  0  0
  -17.5031  -31.6281   24.5159 H   0  0  0  0  0  0
  -15.5366  -30.2997   23.7671 H   0  0  0  0  0  0
  -15.8676  -28.0829   22.7088 H   0  0  0  0  0  0
  -24.5915  -30.7067   25.7766 H   0  0  0  0  0  0
  -24.8883  -32.2909   26.4828 H   0  0  0  0  0  0
  -25.8028  -30.8956   27.0236 H   0  0  0  0  0  0
  -26.2953  -29.6764   24.1206 H   0  0  0  0  0  0
  -27.4060  -29.7306   25.4705 H   0  0  0  0  0  0
  -27.8808  -30.4332   23.9422 H   0  0  0  0  0  0
  -27.2682  -33.3671   26.2014 H   0  0  0  0  0  0
  -28.3884  -32.6849   25.0320 H   0  0  0  0  0  0
  -28.0692  -31.8493   26.5437 H   0  0  0  0  0  0
  -28.2598  -38.0086   24.7525 H   0  0  0  0  0  0
  -28.1063  -36.2619   24.6288 H   0  0  0  0  0  0
  -27.2294  -37.1426   25.8875 H   0  0  0  0  0  0
  -20.9387  -29.8773   21.6861 H   0  0  0  0  0  0
  -26.0165  -38.2854   24.1429 H   0  0  0  0  0  0
  -29.6119  -17.6458   18.1361 H   0  0  0  0  0  0
  -30.3395  -19.2839   18.2397 H   0  0  0  0  0  0
  -31.9713  -18.5446   19.8895 H   0  0  0  0  0  0
  -31.7759  -16.9875   19.0235 H   0  0  0  0  0  0
  -28.2823  -18.2545   20.0345 H   0  0  0  0  0  0
  -30.6930  -17.6118   21.6725 H   0  0  0  0  0  0
  -28.3548  -23.1589   22.8821 H   0  0  0  0  0  0
  -30.0628  -22.7647   22.6526 H   0  0  0  0  0  0
  -28.8590  -21.4847   22.8345 H   0  0  0  0  0  0
  -27.9661  -23.3714   16.3749 H   0  0  0  0  0  0
  -27.4426  -21.6915   16.5121 H   0  0  0  0  0  0
  -29.1515  -22.0706   16.2611 H   0  0  0  0  0  0
  -28.9006  -25.1909   21.7028 H   0  0  0  0  0  0
  -27.2214  -25.0276   21.3299 H   0  0  0  0  0  0
  -29.6533  -19.9875   21.6976 H   0  0  0  0  0  0
  -28.8761  -15.7334   20.7421 H   0  0  0  0  0  0
  1 25  1  0  0  0
  1 30  2  0  0  0
  1 85  1  0  0  0
  2  3  1  0  0  0
  2 25  1  0  0  0
  2 86  1  0  0  0
  2 87  1  0  0  0
  3  4  1  0  0  0
  3 88  1  0  0  0
  3 89  1  0  0  0
  4  5  1  0  0  0
  4 90  1  0  0  0
  4 91  1  0  0  0
  5  6  1  0  0  0
  5 26  1  0  0  0
  5 92  1  0  0  0
  6 25  1  0  0  0
  6 93  1  0  0  0
  6 94  1  0  0  0
  7  8  2  0  0  0
  7 26  1  0  0  0
  7 29  1  0  0  0
  8  9  1  0  0  0
  8 22  1  0  0  0
  9 10  1  0  0  0
  9 27  2  0  0  0
 10 11  2  0  0  0
 10 15  1  0  0  0
 11 12  1  0  0  0
 11 95  1  0  0  0
 12 13  2  0  0  0
 12 96  1  0  0  0
 13 14  1  0  0  0
 13 31  1  0  0  0
 14 15  2  0  0  0
 14 97  1  0  0  0
 15 98  1  0  0  0
 16 17  2  0  0  0
 16 21  1  0  0  0
 16 31  1  0  0  0
 17 18  1  0  0  0
 17 99  1  0  0  0
 18 19  2  0  0  0
 18100  1  0  0  0
 19 20  1  0  0  0
 19 24  1  0  0  0
 20 21  2  0  0  0
 20101  1  0  0  0
 21 23  1  0  0  0
 22 28  1  0  0  0
 22 32  2  0  0  0
 26 27  1  0  0  0
 28102  1  0  0  0
 28103  1  0  0  0
 29104  1  0  0  0
 29105  1  0  0  0
 33 34  1  0  0  0
 33 66  1  0  0  0
 33 70  2  0  0  0
 34 36  1  0  0  0
 34 59  1  0  0  0
 34106  1  0  0  0
 35 44  2  0  0  0
 35 45  1  0  0  0
 35 68  1  0  0  0
 36 56  1  0  0  0
 36107  1  0  0  0
 37 39  1  0  0  0
 37 47  1  0  0  0
 37 66  1  0  0  0
 37108  1  0  0  0
 38 43  2  0  0  0
 38 46  1  0  0  0
 38 47  1  0  0  0
 39 64  1  0  0  0
 39 67  2  0  0  0
 40 52  1  0  0  0
 40 53  2  0  0  0
 40 58  1  0  0  0
 41109  1  0  0  0
 41110  1  0  0  0
 41111  1  0  0  0
 41 48  1  0  0  0
 42 43  1  0  0  0
 42 66  1  0  0  0
 42112  1  0  0  0
 42113  1  0  0  0
 43 44  1  0  0  0
 44114  1  0  0  0
 45 46  2  0  0  0
 45115  1  0  0  0
 46116  1  0  0  0
 47117  1  0  0  0
 47118  1  0  0  0
 48 56  1  0  0  0
 48 65  1  0  0  0
 48119  1  0  0  0
 49 50  1  0  0  0
 49 53  1  0  0  0
 49 64  1  0  0  0
 49120  1  0  0  0
 50 51  1  0  0  0
 50121  1  0  0  0
 50122  1  0  0  0
 51 52  1  0  0  0
 51123  1  0  0  0
 51124  1  0  0  0
 52125  1  0  0  0
 52126  1  0  0  0
 53 54  1  0  0  0
 54 55  2  0  0  0
 54127  1  0  0  0
 55 57  1  0  0  0
 55128  1  0  0  0
 56 69  2  0  0  0
 57 58  2  0  0  0
 57129  1  0  0  0
 58130  1  0  0  0
 59 60  1  0  0  0
 59 61  1  0  0  0
 59 62  1  0  0  0
 60131  1  0  0  0
 60132  1  0  0  0
 60133  1  0  0  0
 61134  1  0  0  0
 61135  1  0  0  0
 61136  1  0  0  0
 62137  1  0  0  0
 62138  1  0  0  0
 62139  1  0  0  0
 63 65  1  0  0  0
 63140  1  0  0  0
 63141  1  0  0  0
 63142  1  0  0  0
 64143  1  0  0  0
 65144  1  0  0  0
 68 81  1  0  0  0
 71 72  2  0  0  0
 71 73  1  0  0  0
 71 79  1  0  0  0
 72 81  1  0  0  0
 72 82  1  0  0  0
 73 83  2  0  0  0
 73 84  1  0  0  0
 74 80  1  0  0  0
 74 82  2  0  0  0
 74 83  1  0  0  0
 75 76  1  0  0  0
 75 77  1  0  0  0
 75145  1  0  0  0
 75146  1  0  0  0
 76 78  1  0  0  0
 76147  1  0  0  0
 76148  1  0  0  0
 77 78  1  0  0  0
 77 84  1  0  0  0
 77149  1  0  0  0
 78 85  1  0  0  0
 78150  1  0  0  0
 79151  1  0  0  0
 79152  1  0  0  0
 79153  1  0  0  0
 80154  1  0  0  0
 80155  1  0  0  0
 80156  1  0  0  0
 81157  1  0  0  0
 81158  1  0  0  0
 84159  1  0  0  0
 85160  1  0  0  0
M  ISO  4   1 100  68 101  81 101  85 100
M  END
> <chiral flag>
0

> <version>
0

> <s_m_source_file>
/data/baiqing/PycharmProjects/Reinvent-master-3.2/result/LINK_invent/BTK/process_docking_weight1_custom_sum_contain_oxygen_bond_distance_aromatic_linkinvent_7_9_3/rearranged_h_0174.sdf

> <i_m_source_file_index>
21

> <r_mmod_Potential_Energy-OPLS-2005>
-337.145568847656

> <r_mmod_Stretch_Energy-OPLS-2005>
115.556999206543

> <r_mmod_Bend_Energy-OPLS-2005>
187.867050170898

> <r_mmod_Torsional_Energy-OPLS-2005>
265.366668701172

> <r_mmod_Improper_Torsional_Energy-OPLS-2005>
5.27521705627441

> <r_mmod_Van_der_Waal_Energy-OPLS-2005>
145.905258178711

> <r_mmod_Electrostatic_Energy-OPLS-2005>
-897.367797851562

> <r_mmod_Solvation_Energy-OPLS-2005>
-241.225799560547

> <b_mmod_Minimization_Converged-OPLS-2005>
0

> <r_mmod_RMS_Derivative-OPLS-2005>
1.14571833610535

$$$$
23
                    3D
 Structure written by MMmdl.
176186  0  0  1  0            999 V2000
  -30.6274  -14.8861   20.4318 C   0  0  0  0  0  0
  -30.4197  -12.5625   19.4747 C   0  0  0  0  0  0
  -29.5018  -12.5227   18.2356 C   0  0  0  0  0  0
  -28.0341  -12.3272   18.6582 C   0  0  0  0  0  0
  -27.6250  -13.2484   19.8399 C   0  0  2  0  0  0
  -28.6797  -13.2528   20.9678 C   0  0  0  0  0  0
  -25.2423  -13.8216   20.5711 C   0  0  0  0  0  0
  -24.1752  -13.0432   20.9240 C   0  0  0  0  0  0
  -24.6384  -11.6922   20.8774 C   0  0  0  0  0  0
  -23.9078  -10.4293   21.0414 C   0  0  0  0  0  0
  -24.3632   -9.4206   21.9188 C   0  0  0  0  0  0
  -23.6312   -8.2235   22.0747 C   0  0  0  0  0  0
  -22.4293   -8.0278   21.3540 C   0  0  0  0  0  0
  -21.9929   -9.0250   20.4641 C   0  0  0  0  0  0
  -22.7255  -10.2131   20.3055 C   0  0  0  0  0  0
  -21.6851   -6.0747   22.5285 C   0  0  0  0  0  0
  -21.4013   -6.5647   23.8222 C   0  0  0  0  0  0
  -21.3659   -5.6794   24.9182 C   0  0  0  0  0  0
  -21.6044   -4.3059   24.7223 C   0  0  0  0  0  0
  -21.8817   -3.8157   23.4344 C   0  0  0  0  0  0
  -21.9189   -4.6975   22.3404 C   0  0  0  0  0  0
  -22.7773  -13.5193   21.1886 C   0  0  0  0  0  0
  -22.1657   -4.2166   21.0978 F   0  0  0  0  0  0
  -21.5630   -3.4538   25.7733 F   0  0  0  0  0  0
  -29.9412  -13.6750   20.3473 N   0  0  0  0  0  0
  -26.2865  -12.9459   20.3296 N   0  0  0  0  0  0
  -25.9318  -11.6586   20.5779 N   0  0  0  0  0  0
  -22.0419  -12.8191   22.0451 N   0  0  0  0  0  0
  -25.4033  -15.1940   20.4076 N   0  0  0  0  0  0
  -31.8428  -14.8263   20.2136 O   0  0  0  0  0  0
  -21.6639   -6.8891   21.4251 O   0  0  0  0  0  0
  -22.3458  -14.5495   20.6724 O   0  0  0  0  0  0
  -24.6391  -31.8475   23.1919 C   0  0  0  0  0  0
  -25.9183  -32.4708   23.8294 C   0  0  1  0  0  0
  -27.2143  -27.1742   20.1350 C   0  0  0  0  0  0
  -25.5944  -33.8514   24.2222 N   0  0  0  0  0  0
  -23.4402  -30.4689   21.5374 C   0  0  2  0  0  0
  -24.8868  -28.9032   20.1080 C   0  0  0  0  0  0
  -22.7547  -29.4564   22.4878 C   0  0  0  0  0  0
  -18.0296  -28.1407   22.8466 C   0  0  0  0  0  0
  -24.1486  -36.7261   23.2643 C   0  0  0  0  0  0
  -25.9935  -30.7301   21.3874 C   0  0  0  0  0  0
  -26.0612  -29.3458   20.7282 C   0  0  0  0  0  0
  -27.2226  -28.4942   20.7310 C   0  0  0  0  0  0
  -26.0143  -26.8261   19.4737 C   0  0  0  0  0  0
  -24.8741  -27.6549   19.4698 C   0  0  0  0  0  0
  -23.6640  -29.8021   20.1536 C   0  0  0  0  0  0
  -25.4121  -36.3041   24.0322 C   0  0  1  0  0  0
  -20.5906  -28.3723   23.1248 C   0  0  2  0  0  0
  -20.6794  -26.9430   22.5412 C   0  0  0  0  0  0
  -19.5770  -26.6383   21.5217 C   0  0  0  0  0  0
  -18.1943  -26.7945   22.1612 C   0  0  0  0  0  0
  -19.1551  -28.8884   23.2849 C   0  0  0  0  0  0
  -18.9474  -30.1481   23.8871 C   0  0  0  0  0  0
  -17.6473  -30.6602   24.0564 C   0  0  0  0  0  0
  -25.9064  -34.9413   23.5078 C   0  0  0  0  0  0
  -16.5364  -29.9099   23.6334 C   0  0  0  0  0  0
  -16.7282  -28.6521   23.0345 C   0  0  0  0  0  0
  -26.4511  -31.6561   25.0721 C   0  0  0  0  0  0
  -25.3699  -31.3759   26.1418 C   0  0  0  0  0  0
  -27.0370  -30.2954   24.6293 C   0  0  0  0  0  0
  -27.6044  -32.4313   25.7506 C   0  0  0  0  0  0
  -27.5577  -37.1797   24.8463 C   0  0  0  0  0  0
  -21.4240  -29.3046   22.3619 N   0  0  0  0  0  0
  -26.4288  -37.3751   23.9405 N   0  0  0  0  0  0
  -24.7107  -31.0365   22.0939 N   0  0  0  0  0  0
  -23.4207  -28.8110   23.3010 O   0  0  0  0  0  0
  -28.2940  -26.2332   20.2355 O   0  0  0  0  0  0
  -26.5639  -34.8907   22.4651 O   0  0  0  0  0  0
  -23.5520  -32.1327   23.7162 O   0  0  0  0  0  0
  -28.7997  -22.0890   20.4938 C   0  0  0  0  0  0
  -28.8725  -20.9239   21.3926 C   0  0  0  0  0  0
  -28.0738  -23.6327   22.2517 C   0  0  0  0  0  0
  -28.2276  -22.5774   23.2128 C   0  0  0  0  0  0
  -28.4046  -23.4614   20.8824 C   0  0  0  0  0  0
  -28.5590  -21.2416   22.7637 C   0  0  0  0  0  0
  -27.5154  -24.9991   22.6587 C   0  0  0  0  0  0
  -26.8712  -25.0671   24.0250 C   0  0  0  0  0  0
  -27.8206  -24.4268   25.0105 C   0  0  0  0  0  0
  -28.4202  -18.1034   21.3945 C   0  0  0  0  0  0
  -30.1442  -18.8557   19.8291 C   0  0  0  0  0  0
  -28.6379  -16.6699   20.6920 C   0  0  0  0  0  0
  -30.8457  -17.4129   20.0499 C   0  0  0  0  0  0
  -29.3510  -19.3584   21.0687 C   0  0  0  0  0  0
  -28.0364  -22.9151   24.7392 C   0  0  0  0  0  0
  -28.5308  -20.0729   23.7583 C   0  0  0  0  0  0
  -26.7629  -22.2363   25.3321 C   0  0  0  0  0  0
  -29.3308  -22.6341   25.5622 C   0  0  0  0  0  0
  -28.2369  -24.7301   19.8562 C   0  0  0  0  0  0
  -30.0305  -16.1905   20.4351 N   0  0  0  0  0  0
  -31.4546  -12.6901   19.1534 H   0  0  0  0  0  0
  -30.3950  -11.6100   20.0060 H   0  0  0  0  0  0
  -29.8090  -11.7215   17.5625 H   0  0  0  0  0  0
  -29.6040  -13.4529   17.6733 H   0  0  0  0  0  0
  -27.9150  -11.2824   18.9469 H   0  0  0  0  0  0
  -27.3698  -12.4829   17.8066 H   0  0  0  0  0  0
  -27.5900  -14.2554   19.4248 H   0  0  0  0  0  0
  -28.7748  -12.2599   21.4089 H   0  0  0  0  0  0
  -28.3978  -13.9075   21.7905 H   0  0  0  0  0  0
  -25.2771   -9.5685   22.4774 H   0  0  0  0  0  0
  -24.0020   -7.4622   22.7461 H   0  0  0  0  0  0
  -21.0860   -8.8762   19.8950 H   0  0  0  0  0  0
  -22.3705  -10.9668   19.6167 H   0  0  0  0  0  0
  -21.2003   -7.6153   23.9736 H   0  0  0  0  0  0
  -21.1484   -6.0518   25.9087 H   0  0  0  0  0  0
  -22.0597   -2.7618   23.2829 H   0  0  0  0  0  0
  -22.4045  -11.9866   22.4860 H   0  0  0  0  0  0
  -21.1024  -13.1199   22.2624 H   0  0  0  0  0  0
  -24.6290  -15.8403   20.5146 H   0  0  0  0  0  0
  -26.2456  -15.6397   20.0703 H   0  0  0  0  0  0
  -26.7241  -32.5314   23.1018 H   0  0  0  0  0  0
  -25.0081  -33.9641   25.0362 H   0  0  0  0  0  0
  -22.7405  -31.2935   21.3868 H   0  0  0  0  0  0
  -23.3754  -35.9585   23.3290 H   0  0  0  0  0  0
  -24.3571  -36.8898   22.2058 H   0  0  0  0  0  0
  -23.7233  -37.6458   23.6676 H   0  0  0  0  0  0
  -26.1478  -31.4852   20.6156 H   0  0  0  0  0  0
  -26.8656  -30.7760   22.0281 H   0  0  0  0  0  0
  -28.1154  -28.8266   21.2424 H   0  0  0  0  0  0
  -25.9044  -25.8848   18.9623 H   0  0  0  0  0  0
  -23.9750  -27.3137   18.9748 H   0  0  0  0  0  0
  -23.8009  -30.5783   19.3995 H   0  0  0  0  0  0
  -22.7794  -29.2443   19.8401 H   0  0  0  0  0  0
  -25.1313  -36.1878   25.0815 H   0  0  0  0  0  0
  -20.9990  -28.3307   24.1373 H   0  0  0  0  0  0
  -20.5699  -26.2336   23.3630 H   0  0  0  0  0  0
  -21.6668  -26.7453   22.1212 H   0  0  0  0  0  0
  -19.6933  -25.6286   21.1261 H   0  0  0  0  0  0
  -19.6720  -27.3185   20.6740 H   0  0  0  0  0  0
  -17.4226  -26.6676   21.4004 H   0  0  0  0  0  0
  -18.0340  -26.0114   22.9030 H   0  0  0  0  0  0
  -19.7955  -30.7302   24.2234 H   0  0  0  0  0  0
  -17.5032  -31.6279   24.5175 H   0  0  0  0  0  0
  -15.5368  -30.3000   23.7692 H   0  0  0  0  0  0
  -15.8672  -28.0845   22.7073 H   0  0  0  0  0  0
  -24.5896  -30.7076   25.7756 H   0  0  0  0  0  0
  -24.8866  -32.2944   26.4755 H   0  0  0  0  0  0
  -25.7987  -30.9004   27.0246 H   0  0  0  0  0  0
  -26.2991  -29.6682   24.1278 H   0  0  0  0  0  0
  -27.3959  -29.7241   25.4866 H   0  0  0  0  0  0
  -27.8900  -30.4194   23.9621 H   0  0  0  0  0  0
  -27.2646  -33.3634   26.2033 H   0  0  0  0  0  0
  -28.3890  -32.6833   25.0360 H   0  0  0  0  0  0
  -28.0667  -31.8462   26.5468 H   0  0  0  0  0  0
  -28.2597  -38.0092   24.7516 H   0  0  0  0  0  0
  -28.1072  -36.2627   24.6287 H   0  0  0  0  0  0
  -27.2294  -37.1448   25.8865 H   0  0  0  0  0  0
  -20.9453  -29.8769   21.6805 H   0  0  0  0  0  0
  -26.0152  -38.2815   24.1411 H   0  0  0  0  0  0
  -29.0439  -21.9256   19.4535 H   0  0  0  0  0  0
  -26.7476  -25.3037   21.9501 H   0  0  0  0  0  0
  -28.3258  -25.7282   22.6223 H   0  0  0  0  0  0
  -25.9044  -24.5666   24.0129 H   0  0  0  0  0  0
  -26.6746  -26.1047   24.2973 H   0  0  0  0  0  0
  -27.4723  -24.6005   26.0299 H   0  0  0  0  0  0
  -28.7648  -24.9709   24.9387 H   0  0  0  0  0  0
  -28.4876  -17.8739   22.4536 H   0  0  0  0  0  0
  -27.3846  -18.3975   21.2214 H   0  0  0  0  0  0
  -29.4906  -18.8284   18.9568 H   0  0  0  0  0  0
  -30.9237  -19.5823   19.5945 H   0  0  0  0  0  0
  -28.1479  -16.6944   19.7187 H   0  0  0  0  0  0
  -28.0883  -15.9360   21.2732 H   0  0  0  0  0  0
  -31.6192  -17.5265   20.8114 H   0  0  0  0  0  0
  -31.3834  -17.1712   19.1314 H   0  0  0  0  0  0
  -30.1681  -19.2821   21.7837 H   0  0  0  0  0  0
  -27.6412  -19.4751   23.5670 H   0  0  0  0  0  0
  -28.4628  -20.2955   24.8064 H   0  0  0  0  0  0
  -29.4217  -19.4524   23.7134 H   0  0  0  0  0  0
  -25.8690  -22.5345   24.7866 H   0  0  0  0  0  0
  -26.6093  -22.5264   26.3721 H   0  0  0  0  0  0
  -26.7332  -21.1536   25.3285 H   0  0  0  0  0  0
  -30.1606  -23.2334   25.1850 H   0  0  0  0  0  0
  -29.7160  -21.6216   25.5701 H   0  0  0  0  0  0
  -29.1941  -22.9098   26.6088 H   0  0  0  0  0  0
  -27.3486  -24.5035   19.2762 H   0  0  0  0  0  0
  -29.0441  -24.6114   19.1340 H   0  0  0  0  0  0
  1 25  1  0  0  0
  1 30  2  0  0  0
  1 90  1  0  0  0
  2  3  1  0  0  0
  2 25  1  0  0  0
  2 91  1  0  0  0
  2 92  1  0  0  0
  3  4  1  0  0  0
  3 93  1  0  0  0
  3 94  1  0  0  0
  4  5  1  0  0  0
  4 95  1  0  0  0
  4 96  1  0  0  0
  5  6  1  0  0  0
  5 26  1  0  0  0
  5 97  1  0  0  0
  6 25  1  0  0  0
  6 98  1  0  0  0
  6 99  1  0  0  0
  7  8  2  0  0  0
  7 26  1  0  0  0
  7 29  1  0  0  0
  8  9  1  0  0  0
  8 22  1  0  0  0
  9 10  1  0  0  0
  9 27  2  0  0  0
 10 11  2  0  0  0
 10 15  1  0  0  0
 11 12  1  0  0  0
 11100  1  0  0  0
 12 13  2  0  0  0
 12101  1  0  0  0
 13 14  1  0  0  0
 13 31  1  0  0  0
 14 15  2  0  0  0
 14102  1  0  0  0
 15103  1  0  0  0
 16 17  2  0  0  0
 16 21  1  0  0  0
 16 31  1  0  0  0
 17 18  1  0  0  0
 17104  1  0  0  0
 18 19  2  0  0  0
 18105  1  0  0  0
 19 20  1  0  0  0
 19 24  1  0  0  0
 20 21  2  0  0  0
 20106  1  0  0  0
 21 23  1  0  0  0
 22 28  1  0  0  0
 22 32  2  0  0  0
 26 27  1  0  0  0
 28107  1  0  0  0
 28108  1  0  0  0
 29109  1  0  0  0
 29110  1  0  0  0
 33 34  1  0  0  0
 33 66  1  0  0  0
 33 70  2  0  0  0
 34 36  1  0  0  0
 34 59  1  0  0  0
 34111  1  0  0  0
 35 44  2  0  0  0
 35 45  1  0  0  0
 35 68  1  0  0  0
 36 56  1  0  0  0
 36112  1  0  0  0
 37 39  1  0  0  0
 37 47  1  0  0  0
 37 66  1  0  0  0
 37113  1  0  0  0
 38 43  2  0  0  0
 38 46  1  0  0  0
 38 47  1  0  0  0
 39 64  1  0  0  0
 39 67  2  0  0  0
 40 52  1  0  0  0
 40 53  2  0  0  0
 40 58  1  0  0  0
 41114  1  0  0  0
 41115  1  0  0  0
 41116  1  0  0  0
 41 48  1  0  0  0
 42 43  1  0  0  0
 42 66  1  0  0  0
 42117  1  0  0  0
 42118  1  0  0  0
 43 44  1  0  0  0
 44119  1  0  0  0
 45 46  2  0  0  0
 45120  1  0  0  0
 46121  1  0  0  0
 47122  1  0  0  0
 47123  1  0  0  0
 48 56  1  0  0  0
 48 65  1  0  0  0
 48124  1  0  0  0
 49 50  1  0  0  0
 49 53  1  0  0  0
 49 64  1  0  0  0
 49125  1  0  0  0
 50 51  1  0  0  0
 50126  1  0  0  0
 50127  1  0  0  0
 51 52  1  0  0  0
 51128  1  0  0  0
 51129  1  0  0  0
 52130  1  0  0  0
 52131  1  0  0  0
 53 54  1  0  0  0
 54 55  2  0  0  0
 54132  1  0  0  0
 55 57  1  0  0  0
 55133  1  0  0  0
 56 69  2  0  0  0
 57 58  2  0  0  0
 57134  1  0  0  0
 58135  1  0  0  0
 59 60  1  0  0  0
 59 61  1  0  0  0
 59 62  1  0  0  0
 60136  1  0  0  0
 60137  1  0  0  0
 60138  1  0  0  0
 61139  1  0  0  0
 61140  1  0  0  0
 61141  1  0  0  0
 62142  1  0  0  0
 62143  1  0  0  0
 62144  1  0  0  0
 63 65  1  0  0  0
 63145  1  0  0  0
 63146  1  0  0  0
 63147  1  0  0  0
 64148  1  0  0  0
 65149  1  0  0  0
 68 89  1  0  0  0
 71 72  2  0  0  0
 71 75  1  0  0  0
 71150  1  0  0  0
 72 76  1  0  0  0
 72 84  1  0  0  0
 73 74  1  0  0  0
 73 75  2  0  0  0
 73 77  1  0  0  0
 74 76  2  0  0  0
 74 85  1  0  0  0
 75 89  1  0  0  0
 76 86  1  0  0  0
 77 78  1  0  0  0
 77151  1  0  0  0
 77152  1  0  0  0
 78 79  1  0  0  0
 78153  1  0  0  0
 78154  1  0  0  0
 79 85  1  0  0  0
 79155  1  0  0  0
 79156  1  0  0  0
 80 82  1  0  0  0
 80 84  1  0  0  0
 80157  1  0  0  0
 80158  1  0  0  0
 81 83  1  0  0  0
 81 84  1  0  0  0
 81159  1  0  0  0
 81160  1  0  0  0
 82 90  1  0  0  0
 82161  1  0  0  0
 82162  1  0  0  0
 83 90  1  0  0  0
 83163  1  0  0  0
 83164  1  0  0  0
 84165  1  0  0  0
 85 87  1  0  0  0
 85 88  1  0  0  0
 86166  1  0  0  0
 86167  1  0  0  0
 86168  1  0  0  0
 87169  1  0  0  0
 87170  1  0  0  0
 87171  1  0  0  0
 88172  1  0  0  0
 88173  1  0  0  0
 88174  1  0  0  0
 89175  1  0  0  0
 89176  1  0  0  0
M  ISO  4   1 100  68 101  89 101  90 100
M  END
> <chiral flag>
0

> <version>
0

> <s_m_source_file>
/data/baiqing/PycharmProjects/Reinvent-master-3.2/result/LINK_invent/BTK/process_docking_weight1_custom_sum_contain_oxygen_bond_distance_aromatic_linkinvent_7_9_3/rearranged_h_0174.sdf

> <i_m_source_file_index>
22

> <r_mmod_Potential_Energy-OPLS-2005>
742.279052734375

> <r_mmod_Stretch_Energy-OPLS-2005>
237.355255126953

> <r_mmod_Bend_Energy-OPLS-2005>
329.706848144531

> <r_mmod_Torsional_Energy-OPLS-2005>
332.046630859375

> <r_mmod_Improper_Torsional_Energy-OPLS-2005>
8.22637176513672

> <r_mmod_Van_der_Waal_Energy-OPLS-2005>
191.795486450195

> <r_mmod_Electrostatic_Energy-OPLS-2005>
-318.597320556641

> <r_mmod_Solvation_Energy-OPLS-2005>
-191.86491394043

> <b_mmod_Minimization_Converged-OPLS-2005>
0

> <r_mmod_RMS_Derivative-OPLS-2005>
1.46371757984161

$$$$
24
                    3D
 Structure written by MMmdl.
172182  0  0  1  0            999 V2000
  -30.6019  -14.8414   20.4389 C   0  0  0  0  0  0
  -30.4273  -12.5178   19.4869 C   0  0  0  0  0  0
  -29.5116  -12.5103   18.2439 C   0  0  0  0  0  0
  -28.0405  -12.3235   18.6590 C   0  0  0  0  0  0
  -27.6317  -13.2447   19.8398 C   0  0  2  0  0  0
  -28.6757  -13.2434   20.9756 C   0  0  0  0  0  0
  -25.2484  -13.8229   20.5716 C   0  0  0  0  0  0
  -24.1780  -13.0452   20.9206 C   0  0  0  0  0  0
  -24.6389  -11.6938   20.8745 C   0  0  0  0  0  0
  -23.9071  -10.4307   21.0401 C   0  0  0  0  0  0
  -24.3626   -9.4223   21.9178 C   0  0  0  0  0  0
  -23.6302   -8.2256   22.0756 C   0  0  0  0  0  0
  -22.4283   -8.0292   21.3552 C   0  0  0  0  0  0
  -21.9918   -9.0260   20.4648 C   0  0  0  0  0  0
  -22.7243  -10.2142   20.3050 C   0  0  0  0  0  0
  -21.6863   -6.0740   22.5279 C   0  0  0  0  0  0
  -21.4023   -6.5640   23.8212 C   0  0  0  0  0  0
  -21.3661   -5.6790   24.9172 C   0  0  0  0  0  0
  -21.6042   -4.3052   24.7227 C   0  0  0  0  0  0
  -21.8817   -3.8149   23.4348 C   0  0  0  0  0  0
  -21.9197   -4.6966   22.3404 C   0  0  0  0  0  0
  -22.7800  -13.5227   21.1867 C   0  0  0  0  0  0
  -22.1661   -4.2148   21.0982 F   0  0  0  0  0  0
  -21.5625   -3.4534   25.7742 F   0  0  0  0  0  0
  -29.9611  -13.6141   20.3762 N   0  0  0  0  0  0
  -26.2901  -12.9448   20.3259 N   0  0  0  0  0  0
  -25.9323  -11.6580   20.5740 N   0  0  0  0  0  0
  -22.0455  -12.8218   22.0432 N   0  0  0  0  0  0
  -25.4192  -15.1955   20.4186 N   0  0  0  0  0  0
  -31.8070  -14.8765   20.1662 O   0  0  0  0  0  0
  -21.6652   -6.8886   21.4242 O   0  0  0  0  0  0
  -22.3474  -14.5517   20.6699 O   0  0  0  0  0  0
  -24.6369  -31.8504   23.1948 C   0  0  0  0  0  0
  -25.9174  -32.4725   23.8305 C   0  0  1  0  0  0
  -27.2064  -27.1892   20.1563 C   0  0  0  0  0  0
  -25.5952  -33.8529   24.2227 N   0  0  0  0  0  0
  -23.4377  -30.4726   21.5383 C   0  0  2  0  0  0
  -24.8874  -28.9116   20.1091 C   0  0  0  0  0  0
  -22.7528  -29.4590   22.4880 C   0  0  0  0  0  0
  -18.0300  -28.1391   22.8488 C   0  0  0  0  0  0
  -24.1484  -36.7259   23.2641 C   0  0  0  0  0  0
  -25.9900  -30.7389   21.3904 C   0  0  0  0  0  0
  -26.0605  -29.3549   20.7351 C   0  0  0  0  0  0
  -27.2238  -28.5065   20.7500 C   0  0  0  0  0  0
  -26.0303  -26.8573   19.4524 C   0  0  0  0  0  0
  -24.8815  -27.6726   19.4524 C   0  0  0  0  0  0
  -23.6611  -29.8066   20.1553 C   0  0  0  0  0  0
  -25.4118  -36.3046   24.0320 C   0  0  1  0  0  0
  -20.5910  -28.3713   23.1243 C   0  0  2  0  0  0
  -20.6780  -26.9420   22.5403 C   0  0  0  0  0  0
  -19.5754  -26.6386   21.5206 C   0  0  0  0  0  0
  -18.1938  -26.7936   22.1622 C   0  0  0  0  0  0
  -19.1557  -28.8869   23.2861 C   0  0  0  0  0  0
  -18.9480  -30.1470   23.8879 C   0  0  0  0  0  0
  -17.6478  -30.6591   24.0567 C   0  0  0  0  0  0
  -25.9069  -34.9421   23.5078 C   0  0  0  0  0  0
  -16.5368  -29.9088   23.6340 C   0  0  0  0  0  0
  -16.7287  -28.6507   23.0361 C   0  0  0  0  0  0
  -26.4525  -31.6570   25.0719 C   0  0  0  0  0  0
  -25.3732  -31.3749   26.1430 C   0  0  0  0  0  0
  -27.0383  -30.2969   24.6270 C   0  0  0  0  0  0
  -27.6055  -32.4333   25.7507 C   0  0  0  0  0  0
  -27.5570  -37.1789   24.8471 C   0  0  0  0  0  0
  -21.4229  -29.3048   22.3614 N   0  0  0  0  0  0
  -26.4284  -37.3753   23.9409 N   0  0  0  0  0  0
  -24.7071  -31.0408   22.0962 N   0  0  0  0  0  0
  -23.4195  -28.8146   23.3018 O   0  0  0  0  0  0
  -28.2528  -26.2145   20.1873 O   0  0  0  0  0  0
  -26.5646  -34.8909   22.4649 O   0  0  0  0  0  0
  -23.5506  -32.1361   23.7202 O   0  0  0  0  0  0
  -28.5980  -22.0708   20.6919 C   0  0  0  0  0  0
  -29.9003  -23.5458   19.3474 C   0  0  0  0  0  0
  -28.8330  -23.4657   20.2636 C   0  0  0  0  0  0
  -29.3631  -20.9086   20.2119 C   0  0  0  0  0  0
  -30.6031  -22.4109   18.9376 C   0  0  0  0  0  0
  -30.4480  -24.7893   18.6974 C   0  0  0  0  0  0
  -31.7201  -24.3060   17.9674 C   0  0  0  0  0  0
  -28.7584  -18.2896   19.5231 C   0  0  0  0  0  0
  -30.3891  -18.5980   21.3246 C   0  0  0  0  0  0
  -29.5370  -16.8820   19.3666 C   0  0  0  0  0  0
  -30.1928  -17.0390   21.6740 C   0  0  0  0  0  0
  -29.1931  -19.3370   20.6259 C   0  0  0  0  0  0
  -31.7236  -22.7492   17.9731 C   0  0  0  0  0  0
  -31.4107  -22.2032   16.5692 C   0  0  0  0  0  0
  -33.0775  -22.2156   18.4805 C   0  0  0  0  0  0
  -26.6002  -24.4457   21.1478 C   0  0  0  0  0  0
  -28.0600  -24.8029   20.7945 C   0  0  1  0  0  0
  -30.3554  -21.1354   19.3210 N   0  0  0  0  0  0
  -29.8805  -16.0551   20.5761 N   0  0  0  0  0  0
  -31.4672  -12.6439   19.1818 H   0  0  0  0  0  0
  -30.3841  -11.5600   20.0072 H   0  0  0  0  0  0
  -29.8100  -11.7154   17.5590 H   0  0  0  0  0  0
  -29.6253  -13.4467   17.6959 H   0  0  0  0  0  0
  -27.9117  -11.2788   18.9443 H   0  0  0  0  0  0
  -27.3820  -12.4863   17.8046 H   0  0  0  0  0  0
  -27.6055  -14.2542   19.4287 H   0  0  0  0  0  0
  -28.7359  -12.2646   21.4545 H   0  0  0  0  0  0
  -28.3962  -13.9577   21.7518 H   0  0  0  0  0  0
  -25.2772   -9.5700   22.4750 H   0  0  0  0  0  0
  -24.0012   -7.4651   22.7478 H   0  0  0  0  0  0
  -21.0849   -8.8779   19.8959 H   0  0  0  0  0  0
  -22.3696  -10.9678   19.6160 H   0  0  0  0  0  0
  -21.2013   -7.6147   23.9711 H   0  0  0  0  0  0
  -21.1483   -6.0525   25.9073 H   0  0  0  0  0  0
  -22.0592   -2.7611   23.2852 H   0  0  0  0  0  0
  -22.4083  -11.9894   22.4834 H   0  0  0  0  0  0
  -21.1071  -13.1239   22.2627 H   0  0  0  0  0  0
  -24.6576  -15.8546   20.5351 H   0  0  0  0  0  0
  -26.2854  -15.6371   20.1368 H   0  0  0  0  0  0
  -26.7239  -32.5353   23.1038 H   0  0  0  0  0  0
  -25.0081  -33.9657   25.0363 H   0  0  0  0  0  0
  -22.7374  -31.2971   21.3884 H   0  0  0  0  0  0
  -23.3747  -35.9590   23.3312 H   0  0  0  0  0  0
  -24.3567  -36.8876   22.2054 H   0  0  0  0  0  0
  -23.7237  -37.6458   23.6669 H   0  0  0  0  0  0
  -26.1426  -31.4947   20.6187 H   0  0  0  0  0  0
  -26.8620  -30.7867   22.0310 H   0  0  0  0  0  0
  -28.1158  -28.8371   21.2643 H   0  0  0  0  0  0
  -25.9825  -25.9183   18.9210 H   0  0  0  0  0  0
  -23.9938  -27.3348   18.9356 H   0  0  0  0  0  0
  -23.7925  -30.5829   19.4009 H   0  0  0  0  0  0
  -22.7776  -29.2455   19.8457 H   0  0  0  0  0  0
  -25.1303  -36.1882   25.0811 H   0  0  0  0  0  0
  -21.0014  -28.3303   24.1358 H   0  0  0  0  0  0
  -20.5657  -26.2328   23.3620 H   0  0  0  0  0  0
  -21.6649  -26.7420   22.1208 H   0  0  0  0  0  0
  -19.6911  -25.6294   21.1238 H   0  0  0  0  0  0
  -19.6685  -27.3195   20.6733 H   0  0  0  0  0  0
  -17.4202  -26.6687   21.4029 H   0  0  0  0  0  0
  -18.0342  -26.0078   22.9018 H   0  0  0  0  0  0
  -19.7958  -30.7292   24.2232 H   0  0  0  0  0  0
  -17.5035  -31.6268   24.5173 H   0  0  0  0  0  0
  -15.5369  -30.2985   23.7674 H   0  0  0  0  0  0
  -15.8689  -28.0817   22.7086 H   0  0  0  0  0  0
  -24.5917  -30.7083   25.7768 H   0  0  0  0  0  0
  -24.8916  -32.2927   26.4809 H   0  0  0  0  0  0
  -25.8040  -30.8965   27.0233 H   0  0  0  0  0  0
  -26.2989  -29.6700   24.1274 H   0  0  0  0  0  0
  -27.4002  -29.7254   25.4827 H   0  0  0  0  0  0
  -27.8895  -30.4204   23.9574 H   0  0  0  0  0  0
  -27.2641  -33.3644   26.2043 H   0  0  0  0  0  0
  -28.3896  -32.6880   25.0365 H   0  0  0  0  0  0
  -28.0692  -31.8488   26.5464 H   0  0  0  0  0  0
  -28.2601  -38.0074   24.7504 H   0  0  0  0  0  0
  -28.1052  -36.2603   24.6317 H   0  0  0  0  0  0
  -27.2285  -37.1462   25.8875 H   0  0  0  0  0  0
  -20.9426  -29.8749   21.6794 H   0  0  0  0  0  0
  -26.0153  -38.2820   24.1413 H   0  0  0  0  0  0
  -27.8214  -21.8782   21.4177 H   0  0  0  0  0  0
  -30.6752  -25.5622   19.4324 H   0  0  0  0  0  0
  -29.7155  -25.1855   17.9931 H   0  0  0  0  0  0
  -32.5787  -24.6752   18.5298 H   0  0  0  0  0  0
  -31.8125  -24.7335   16.9683 H   0  0  0  0  0  0
  -27.6969  -18.0843   19.6647 H   0  0  0  0  0  0
  -28.8073  -18.7927   18.5565 H   0  0  0  0  0  0
  -31.2716  -18.7023   20.6929 H   0  0  0  0  0  0
  -30.6307  -19.1356   22.2419 H   0  0  0  0  0  0
  -30.4769  -17.0823   18.8498 H   0  0  0  0  0  0
  -28.9709  -16.2521   18.6793 H   0  0  0  0  0  0
  -29.3877  -16.9520   22.4042 H   0  0  0  0  0  0
  -31.0896  -16.7023   22.1988 H   0  0  0  0  0  0
  -28.3884  -19.3494   21.3624 H   0  0  0  0  0  0
  -30.4692  -22.6048   16.1924 H   0  0  0  0  0  0
  -31.3228  -21.1165   16.5810 H   0  0  0  0  0  0
  -32.1947  -22.4651   15.8587 H   0  0  0  0  0  0
  -33.3049  -22.5999   19.4754 H   0  0  0  0  0  0
  -33.8915  -22.5057   17.8163 H   0  0  0  0  0  0
  -33.0744  -21.1273   18.5442 H   0  0  0  0  0  0
  -26.5589  -23.6244   21.8611 H   0  0  0  0  0  0
  -26.0415  -24.1315   20.2673 H   0  0  0  0  0  0
  -26.0722  -25.2706   21.6243 H   0  0  0  0  0  0
  -28.5323  -24.9472   21.7663 H   0  0  0  0  0  0
  1 25  1  0  0  0
  1 30  2  0  0  0
  1 89  1  0  0  0
  2  3  1  0  0  0
  2 25  1  0  0  0
  2 90  1  0  0  0
  2 91  1  0  0  0
  3  4  1  0  0  0
  3 92  1  0  0  0
  3 93  1  0  0  0
  4  5  1  0  0  0
  4 94  1  0  0  0
  4 95  1  0  0  0
  5  6  1  0  0  0
  5 26  1  0  0  0
  5 96  1  0  0  0
  6 25  1  0  0  0
  6 97  1  0  0  0
  6 98  1  0  0  0
  7  8  2  0  0  0
  7 26  1  0  0  0
  7 29  1  0  0  0
  8  9  1  0  0  0
  8 22  1  0  0  0
  9 10  1  0  0  0
  9 27  2  0  0  0
 10 11  2  0  0  0
 10 15  1  0  0  0
 11 12  1  0  0  0
 11 99  1  0  0  0
 12 13  2  0  0  0
 12100  1  0  0  0
 13 14  1  0  0  0
 13 31  1  0  0  0
 14 15  2  0  0  0
 14101  1  0  0  0
 15102  1  0  0  0
 16 17  2  0  0  0
 16 21  1  0  0  0
 16 31  1  0  0  0
 17 18  1  0  0  0
 17103  1  0  0  0
 18 19  2  0  0  0
 18104  1  0  0  0
 19 20  1  0  0  0
 19 24  1  0  0  0
 20 21  2  0  0  0
 20105  1  0  0  0
 21 23  1  0  0  0
 22 28  1  0  0  0
 22 32  2  0  0  0
 26 27  1  0  0  0
 28106  1  0  0  0
 28107  1  0  0  0
 29108  1  0  0  0
 29109  1  0  0  0
 33 34  1  0  0  0
 33 66  1  0  0  0
 33 70  2  0  0  0
 34 36  1  0  0  0
 34 59  1  0  0  0
 34110  1  0  0  0
 35 44  2  0  0  0
 35 45  1  0  0  0
 35 68  1  0  0  0
 36 56  1  0  0  0
 36111  1  0  0  0
 37 39  1  0  0  0
 37 47  1  0  0  0
 37 66  1  0  0  0
 37112  1  0  0  0
 38 43  2  0  0  0
 38 46  1  0  0  0
 38 47  1  0  0  0
 39 64  1  0  0  0
 39 67  2  0  0  0
 40 52  1  0  0  0
 40 53  2  0  0  0
 40 58  1  0  0  0
 41113  1  0  0  0
 41114  1  0  0  0
 41115  1  0  0  0
 41 48  1  0  0  0
 42 43  1  0  0  0
 42 66  1  0  0  0
 42116  1  0  0  0
 42117  1  0  0  0
 43 44  1  0  0  0
 44118  1  0  0  0
 45 46  2  0  0  0
 45119  1  0  0  0
 46120  1  0  0  0
 47121  1  0  0  0
 47122  1  0  0  0
 48 56  1  0  0  0
 48 65  1  0  0  0
 48123  1  0  0  0
 49 50  1  0  0  0
 49 53  1  0  0  0
 49 64  1  0  0  0
 49124  1  0  0  0
 50 51  1  0  0  0
 50125  1  0  0  0
 50126  1  0  0  0
 51 52  1  0  0  0
 51127  1  0  0  0
 51128  1  0  0  0
 52129  1  0  0  0
 52130  1  0  0  0
 53 54  1  0  0  0
 54 55  2  0  0  0
 54131  1  0  0  0
 55 57  1  0  0  0
 55132  1  0  0  0
 56 69  2  0  0  0
 57 58  2  0  0  0
 57133  1  0  0  0
 58134  1  0  0  0
 59 60  1  0  0  0
 59 61  1  0  0  0
 59 62  1  0  0  0
 60135  1  0  0  0
 60136  1  0  0  0
 60137  1  0  0  0
 61138  1  0  0  0
 61139  1  0  0  0
 61140  1  0  0  0
 62141  1  0  0  0
 62142  1  0  0  0
 62143  1  0  0  0
 63 65  1  0  0  0
 63144  1  0  0  0
 63145  1  0  0  0
 63146  1  0  0  0
 64147  1  0  0  0
 65148  1  0  0  0
 68 87  1  0  0  0
 71 73  2  0  0  0
 71 74  1  0  0  0
 71149  1  0  0  0
 72 73  1  0  0  0
 72 75  2  0  0  0
 72 76  1  0  0  0
 73 87  1  0  0  0
 74 88  2  0  0  0
 74 82  1  0  0  0
 75 83  1  0  0  0
 75 88  1  0  0  0
 76 77  1  0  0  0
 76150  1  0  0  0
 76151  1  0  0  0
 77 83  1  0  0  0
 77152  1  0  0  0
 77153  1  0  0  0
 78 80  1  0  0  0
 78 82  1  0  0  0
 78154  1  0  0  0
 78155  1  0  0  0
 79 81  1  0  0  0
 79 82  1  0  0  0
 79156  1  0  0  0
 79157  1  0  0  0
 80 89  1  0  0  0
 80158  1  0  0  0
 80159  1  0  0  0
 81 89  1  0  0  0
 81160  1  0  0  0
 81161  1  0  0  0
 82162  1  0  0  0
 83 84  1  0  0  0
 83 85  1  0  0  0
 84163  1  0  0  0
 84164  1  0  0  0
 84165  1  0  0  0
 85166  1  0  0  0
 85167  1  0  0  0
 85168  1  0  0  0
 86169  1  0  0  0
 86170  1  0  0  0
 86171  1  0  0  0
 86 87  1  0  0  0
 87172  1  0  0  0
M  ISO  4   1 100  68 101  87 101  89 100
M  END
> <chiral flag>
0

> <version>
0

> <s_m_source_file>
/data/baiqing/PycharmProjects/Reinvent-master-3.2/result/LINK_invent/BTK/process_docking_weight1_custom_sum_contain_oxygen_bond_distance_aromatic_linkinvent_7_9_3/rearranged_h_0174.sdf

> <i_m_source_file_index>
23

> <r_mmod_Potential_Energy-OPLS-2005>
422.591003417969

> <r_mmod_Stretch_Energy-OPLS-2005>
186.722640991211

> <r_mmod_Bend_Energy-OPLS-2005>
266.027435302734

> <r_mmod_Torsional_Energy-OPLS-2005>
368.922729492188

> <r_mmod_Improper_Torsional_Energy-OPLS-2005>
8.61905097961426

> <r_mmod_Van_der_Waal_Energy-OPLS-2005>
140.819107055664

> <r_mmod_Electrostatic_Energy-OPLS-2005>
-490.326568603516

> <r_mmod_Solvation_Energy-OPLS-2005>
-196.617797851562

> <b_mmod_Minimization_Converged-OPLS-2005>
0

> <r_mmod_RMS_Derivative-OPLS-2005>
1.09880387783051

$$$$
25
                    3D
 Structure written by MMmdl.
151160  0  0  1  0            999 V2000
  -30.2989  -15.8508   20.3829 C   0  0  0  0  0  0
  -30.3958  -13.2526   19.5641 C   0  0  0  0  0  0
  -29.5465  -12.7164   18.3679 C   0  0  0  0  0  0
  -28.1567  -12.2925   18.8486 C   0  0  0  0  0  0
  -27.5892  -13.3357   19.8316 C   0  0  2  0  0  0
  -28.5857  -13.7952   20.9339 C   0  0  0  0  0  0
  -25.2275  -13.8345   20.5925 C   0  0  0  0  0  0
  -24.1666  -13.0439   20.9324 C   0  0  0  0  0  0
  -24.6433  -11.6971   20.8822 C   0  0  0  0  0  0
  -23.9160  -10.4288   21.0422 C   0  0  0  0  0  0
  -24.3689   -9.4185   21.9192 C   0  0  0  0  0  0
  -23.6326   -8.2231   22.0754 C   0  0  0  0  0  0
  -22.4310   -8.0296   21.3543 C   0  0  0  0  0  0
  -21.9962   -9.0285   20.4659 C   0  0  0  0  0  0
  -22.7325  -10.2152   20.3080 C   0  0  0  0  0  0
  -21.6869   -6.0763   22.5297 C   0  0  0  0  0  0
  -21.4009   -6.5666   23.8235 C   0  0  0  0  0  0
  -21.3644   -5.6807   24.9178 C   0  0  0  0  0  0
  -21.6025   -4.3082   24.7233 C   0  0  0  0  0  0
  -21.8802   -3.8167   23.4341 C   0  0  0  0  0  0
  -21.9184   -4.7002   22.3410 C   0  0  0  0  0  0
  -22.7672  -13.5160   21.1933 C   0  0  0  0  0  0
  -22.1665   -4.2180   21.0987 F   0  0  0  0  0  0
  -21.5617   -3.4556   25.7731 F   0  0  0  0  0  0
  -29.7305  -14.4767   20.2631 N   0  0  0  0  0  0
  -26.2769  -12.9724   20.3426 N   0  0  0  0  0  0
  -25.9411  -11.6762   20.5815 N   0  0  0  0  0  0
  -22.0362  -12.8105   22.0496 N   0  0  0  0  0  0
  -25.3817  -15.2103   20.4433 N   0  0  0  0  0  0
  -31.5299  -15.6614   20.2181 O   0  0  0  0  0  0
  -21.6646   -6.8921   21.4266 O   0  0  0  0  0  0
  -22.3315  -14.5455   20.6755 O   0  0  0  0  0  0
  -24.6952  -31.7823   23.1392 C   0  0  0  0  0  0
  -25.9455  -32.4379   23.7999 C   0  0  1  0  0  0
  -27.2362  -26.5334   20.2883 C   0  0  0  0  0  0
  -25.5971  -33.8211   24.1849 N   0  0  0  0  0  0
  -23.5340  -30.3733   21.4939 C   0  0  2  0  0  0
  -24.9989  -28.6775   20.1297 C   0  0  0  0  0  0
  -22.7831  -29.4197   22.4656 C   0  0  0  0  0  0
  -18.0348  -28.1413   22.8459 C   0  0  0  0  0  0
  -24.1487  -36.7114   23.2657 C   0  0  0  0  0  0
  -26.1193  -30.4618   21.4321 C   0  0  0  0  0  0
  -26.1855  -29.0065   20.7967 C   0  0  0  0  0  0
  -27.2816  -27.9665   20.8333 C   0  0  0  0  0  0
  -26.0205  -26.4557   19.5479 C   0  0  0  0  0  0
  -24.9658  -27.4318   19.4781 C   0  0  0  0  0  0
  -23.8028  -29.6526   20.1377 C   0  0  0  0  0  0
  -25.4135  -36.2822   24.0277 C   0  0  1  0  0  0
  -20.5989  -28.3766   23.1100 C   0  0  2  0  0  0
  -20.6797  -26.9409   22.5389 C   0  0  0  0  0  0
  -19.5769  -26.6339   21.5211 C   0  0  0  0  0  0
  -18.1957  -26.7922   22.1625 C   0  0  0  0  0  0
  -19.1606  -28.8908   23.2751 C   0  0  0  0  0  0
  -18.9534  -30.1501   23.8804 C   0  0  0  0  0  0
  -17.6513  -30.6594   24.0535 C   0  0  0  0  0  0
  -25.9126  -34.9235   23.4919 C   0  0  0  0  0  0
  -16.5403  -29.9074   23.6355 C   0  0  0  0  0  0
  -16.7324  -28.6489   23.0383 C   0  0  0  0  0  0
  -26.4585  -31.6497   25.0699 C   0  0  0  0  0  0
  -25.3614  -31.3857   26.1291 C   0  0  0  0  0  0
  -27.0571  -30.2826   24.6742 C   0  0  0  0  0  0
  -27.5986  -32.4422   25.7514 C   0  0  0  0  0  0
  -27.5564  -37.1665   24.8444 C   0  0  0  0  0  0
  -21.4456  -29.2995   22.3395 N   0  0  0  0  0  0
  -26.4216  -37.3632   23.9451 N   0  0  0  0  0  0
  -24.8071  -30.9107   22.0730 N   0  0  0  0  0  0
  -23.4189  -28.7822   23.3086 O   0  0  0  0  0  0
  -28.1869  -25.2455   20.4010 O   0  0  0  0  0  0
  -26.5812  -34.8848   22.4547 O   0  0  0  0  0  0
  -23.5935  -32.0961   23.6231 O   0  0  0  0  0  0
  -27.4729  -23.0745   21.7267 C   0  0  0  0  0  0
  -28.5777  -22.0336   22.0805 C   0  0  0  0  0  0
  -28.0042  -19.9466   20.3754 C   0  0  0  0  0  0
  -30.1696  -20.5389   20.3881 C   0  0  0  0  0  0
  -28.4851  -18.2862   20.8619 C   0  0  0  0  0  0
  -30.4890  -18.7847   20.0571 C   0  0  0  0  0  0
  -28.0581  -23.4039   20.3347 C   0  0  2  0  0  0
  -28.7373  -21.5020   20.6335 C   0  0  0  0  0  0
  -29.7409  -17.3795   20.3988 N   0  0  0  0  0  0
  -31.3796  -13.5130   19.1736 H   0  0  0  0  0  0
  -30.5902  -12.4522   20.2811 H   0  0  0  0  0  0
  -30.0436  -11.8767   17.8770 H   0  0  0  0  0  0
  -29.4528  -13.5015   17.6158 H   0  0  0  0  0  0
  -28.2639  -11.3402   19.3708 H   0  0  0  0  0  0
  -27.4752  -12.1143   18.0157 H   0  0  0  0  0  0
  -27.4155  -14.2115   19.2064 H   0  0  0  0  0  0
  -28.8953  -12.9740   21.5808 H   0  0  0  0  0  0
  -28.1056  -14.5303   21.5848 H   0  0  0  0  0  0
  -25.2824   -9.5637   22.4777 H   0  0  0  0  0  0
  -24.0018   -7.4624   22.7479 H   0  0  0  0  0  0
  -21.0866   -8.8821   19.9017 H   0  0  0  0  0  0
  -22.3755  -10.9687   19.6208 H   0  0  0  0  0  0
  -21.2020   -7.6173   23.9735 H   0  0  0  0  0  0
  -21.1480   -6.0549   25.9078 H   0  0  0  0  0  0
  -22.0594   -2.7646   23.2848 H   0  0  0  0  0  0
  -22.4031  -11.9758   22.4831 H   0  0  0  0  0  0
  -21.0984  -13.1107   22.2753 H   0  0  0  0  0  0
  -24.6083  -15.8548   20.5729 H   0  0  0  0  0  0
  -26.2318  -15.6688   20.1435 H   0  0  0  0  0  0
  -26.7546  -32.4823   23.0725 H   0  0  0  0  0  0
  -24.9972  -33.9235   24.9903 H   0  0  0  0  0  0
  -22.8682  -31.2132   21.2850 H   0  0  0  0  0  0
  -23.3814  -35.9368   23.3109 H   0  0  0  0  0  0
  -24.3599  -36.9000   22.2120 H   0  0  0  0  0  0
  -23.7160  -37.6183   23.6888 H   0  0  0  0  0  0
  -26.3364  -31.1727   20.6332 H   0  0  0  0  0  0
  -26.9621  -30.5425   22.1052 H   0  0  0  0  0  0
  -28.1669  -28.2327   21.3939 H   0  0  0  0  0  0
  -25.8323  -25.5214   19.0406 H   0  0  0  0  0  0
  -24.0779  -27.1651   18.9225 H   0  0  0  0  0  0
  -23.9953  -30.4027   19.3696 H   0  0  0  0  0  0
  -22.9064  -29.1256   19.8088 H   0  0  0  0  0  0
  -25.1331  -36.1535   25.0764 H   0  0  0  0  0  0
  -21.0071  -28.3396   24.1221 H   0  0  0  0  0  0
  -20.5623  -26.2398   23.3671 H   0  0  0  0  0  0
  -21.6661  -26.7306   22.1229 H   0  0  0  0  0  0
  -19.6918  -25.6223   21.1308 H   0  0  0  0  0  0
  -19.6711  -27.3091   20.6696 H   0  0  0  0  0  0
  -17.4215  -26.6645   21.4042 H   0  0  0  0  0  0
  -18.0357  -26.0090   22.9044 H   0  0  0  0  0  0
  -19.8001  -30.7336   24.2125 H   0  0  0  0  0  0
  -17.5070  -31.6270   24.5129 H   0  0  0  0  0  0
  -15.5400  -30.2953   23.7732 H   0  0  0  0  0  0
  -15.8719  -28.0780   22.7169 H   0  0  0  0  0  0
  -24.5784  -30.7239   25.7559 H   0  0  0  0  0  0
  -24.8837  -32.3109   26.4537 H   0  0  0  0  0  0
  -25.7757  -30.9103   27.0190 H   0  0  0  0  0  0
  -26.3327  -29.6352   24.1789 H   0  0  0  0  0  0
  -27.3972  -29.7393   25.5562 H   0  0  0  0  0  0
  -27.9306  -30.3912   24.0312 H   0  0  0  0  0  0
  -27.2462  -33.3781   26.1871 H   0  0  0  0  0  0
  -28.3893  -32.6913   25.0419 H   0  0  0  0  0  0
  -28.0552  -31.8733   26.5624 H   0  0  0  0  0  0
  -28.2427  -38.0104   24.7655 H   0  0  0  0  0  0
  -28.1207  -36.2645   24.6037 H   0  0  0  0  0  0
  -27.2326  -37.1000   25.8845 H   0  0  0  0  0  0
  -20.9778  -29.8643   21.6444 H   0  0  0  0  0  0
  -26.0022  -38.2627   24.1606 H   0  0  0  0  0  0
  -27.4614  -23.9116   22.4268 H   0  0  0  0  0  0
  -26.4762  -22.6292   21.6844 H   0  0  0  0  0  0
  -28.2503  -21.2904   22.8125 H   0  0  0  0  0  0
  -29.4875  -22.5126   22.4552 H   0  0  0  0  0  0
  -26.9911  -20.0412   20.7792 H   0  0  0  0  0  0
  -27.8114  -19.8722   19.3009 H   0  0  0  0  0  0
  -30.7651  -21.0617   19.6359 H   0  0  0  0  0  0
  -30.7784  -20.7176   21.2800 H   0  0  0  0  0  0
  -27.6135  -17.6684   20.6293 H   0  0  0  0  0  0
  -28.5085  -18.2751   21.9567 H   0  0  0  0  0  0
  -31.5116  -18.6269   20.4197 H   0  0  0  0  0  0
  -30.6315  -18.7236   18.9756 H   0  0  0  0  0  0
  -27.2892  -23.2728   19.5724 H   0  0  0  0  0  0
  1 25  1  0  0  0
  1 30  2  0  0  0
  1 79  1  0  0  0
  2  3  1  0  0  0
  2 25  1  0  0  0
  2 80  1  0  0  0
  2 81  1  0  0  0
  3  4  1  0  0  0
  3 82  1  0  0  0
  3 83  1  0  0  0
  4  5  1  0  0  0
  4 84  1  0  0  0
  4 85  1  0  0  0
  5  6  1  0  0  0
  5 26  1  0  0  0
  5 86  1  0  0  0
  6 25  1  0  0  0
  6 87  1  0  0  0
  6 88  1  0  0  0
  7  8  2  0  0  0
  7 26  1  0  0  0
  7 29  1  0  0  0
  8  9  1  0  0  0
  8 22  1  0  0  0
  9 10  1  0  0  0
  9 27  2  0  0  0
 10 11  2  0  0  0
 10 15  1  0  0  0
 11 12  1  0  0  0
 11 89  1  0  0  0
 12 13  2  0  0  0
 12 90  1  0  0  0
 13 14  1  0  0  0
 13 31  1  0  0  0
 14 15  2  0  0  0
 14 91  1  0  0  0
 15 92  1  0  0  0
 16 17  2  0  0  0
 16 21  1  0  0  0
 16 31  1  0  0  0
 17 18  1  0  0  0
 17 93  1  0  0  0
 18 19  2  0  0  0
 18 94  1  0  0  0
 19 20  1  0  0  0
 19 24  1  0  0  0
 20 21  2  0  0  0
 20 95  1  0  0  0
 21 23  1  0  0  0
 22 28  1  0  0  0
 22 32  2  0  0  0
 26 27  1  0  0  0
 28 96  1  0  0  0
 28 97  1  0  0  0
 29 98  1  0  0  0
 29 99  1  0  0  0
 33 34  1  0  0  0
 33 66  1  0  0  0
 33 70  2  0  0  0
 34 36  1  0  0  0
 34 59  1  0  0  0
 34100  1  0  0  0
 35 44  2  0  0  0
 35 45  1  0  0  0
 35 68  1  0  0  0
 36 56  1  0  0  0
 36101  1  0  0  0
 37 39  1  0  0  0
 37 47  1  0  0  0
 37 66  1  0  0  0
 37102  1  0  0  0
 38 43  2  0  0  0
 38 46  1  0  0  0
 38 47  1  0  0  0
 39 64  1  0  0  0
 39 67  2  0  0  0
 40 52  1  0  0  0
 40 53  2  0  0  0
 40 58  1  0  0  0
 41103  1  0  0  0
 41104  1  0  0  0
 41105  1  0  0  0
 41 48  1  0  0  0
 42 43  1  0  0  0
 42 66  1  0  0  0
 42106  1  0  0  0
 42107  1  0  0  0
 43 44  1  0  0  0
 44108  1  0  0  0
 45 46  2  0  0  0
 45109  1  0  0  0
 46110  1  0  0  0
 47111  1  0  0  0
 47112  1  0  0  0
 48 56  1  0  0  0
 48 65  1  0  0  0
 48113  1  0  0  0
 49 50  1  0  0  0
 49 53  1  0  0  0
 49 64  1  0  0  0
 49114  1  0  0  0
 50 51  1  0  0  0
 50115  1  0  0  0
 50116  1  0  0  0
 51 52  1  0  0  0
 51117  1  0  0  0
 51118  1  0  0  0
 52119  1  0  0  0
 52120  1  0  0  0
 53 54  1  0  0  0
 54 55  2  0  0  0
 54121  1  0  0  0
 55 57  1  0  0  0
 55122  1  0  0  0
 56 69  2  0  0  0
 57 58  2  0  0  0
 57123  1  0  0  0
 58124  1  0  0  0
 59 60  1  0  0  0
 59 61  1  0  0  0
 59 62  1  0  0  0
 60125  1  0  0  0
 60126  1  0  0  0
 60127  1  0  0  0
 61128  1  0  0  0
 61129  1  0  0  0
 61130  1  0  0  0
 62131  1  0  0  0
 62132  1  0  0  0
 62133  1  0  0  0
 63 65  1  0  0  0
 63134  1  0  0  0
 63135  1  0  0  0
 63136  1  0  0  0
 64137  1  0  0  0
 65138  1  0  0  0
 68 77  1  0  0  0
 71 72  1  0  0  0
 71 77  1  0  0  0
 71139  1  0  0  0
 71140  1  0  0  0
 72141  1  0  0  0
 72142  1  0  0  0
 72 78  1  0  0  0
 73 75  1  0  0  0
 73 78  1  0  0  0
 73143  1  0  0  0
 73144  1  0  0  0
 74 76  1  0  0  0
 74 78  1  0  0  0
 74145  1  0  0  0
 74146  1  0  0  0
 75 79  1  0  0  0
 75147  1  0  0  0
 75148  1  0  0  0
 76 79  1  0  0  0
 76149  1  0  0  0
 76150  1  0  0  0
 77 78  1  0  0  0
 77151  1  0  0  0
M  ISO  4   1 100  68 101  77 101  79 100
M  END
> <chiral flag>
0

> <version>
0

> <s_m_source_file>
/data/baiqing/PycharmProjects/Reinvent-master-3.2/result/LINK_invent/BTK/process_docking_weight1_custom_sum_contain_oxygen_bond_distance_aromatic_linkinvent_7_9_3/rearranged_h_0174.sdf

> <i_m_source_file_index>
24

> <r_mmod_Potential_Energy-OPLS-2005>
3596.96264648438

> <r_mmod_Stretch_Energy-OPLS-2005>
1383.98901367188

> <r_mmod_Bend_Energy-OPLS-2005>
976.590942382812

> <r_mmod_Torsional_Energy-OPLS-2005>
348.309539794922

> <r_mmod_Improper_Torsional_Energy-OPLS-2005>
7.54969120025635

> <r_mmod_Van_der_Waal_Energy-OPLS-2005>
116.160530090332

> <r_mmod_Electrostatic_Energy-OPLS-2005>
-285.790283203125

> <r_mmod_Solvation_Energy-OPLS-2005>
-211.600540161133

> <b_mmod_Minimization_Converged-OPLS-2005>
0

> <r_mmod_RMS_Derivative-OPLS-2005>
7.20905065536499

$$$$
26
                    3D
 Structure written by MMmdl.
151160  0  0  1  0            999 V2000
  -30.4601  -15.2167   20.4223 C   0  0  0  0  0  0
  -30.4492  -12.7716   19.5560 C   0  0  0  0  0  0
  -29.5592  -12.5969   18.3030 C   0  0  0  0  0  0
  -28.0902  -12.3518   18.6879 C   0  0  0  0  0  0
  -27.6257  -13.2838   19.8424 C   0  0  2  0  0  0
  -28.6559  -13.3997   20.9854 C   0  0  0  0  0  0
  -25.2434  -13.8279   20.5758 C   0  0  0  0  0  0
  -24.1770  -13.0462   20.9238 C   0  0  0  0  0  0
  -24.6442  -11.6950   20.8747 C   0  0  0  0  0  0
  -23.9107  -10.4323   21.0414 C   0  0  0  0  0  0
  -24.3644   -9.4216   21.9187 C   0  0  0  0  0  0
  -23.6327   -8.2245   22.0728 C   0  0  0  0  0  0
  -22.4320   -8.0302   21.3498 C   0  0  0  0  0  0
  -21.9964   -9.0289   20.4617 C   0  0  0  0  0  0
  -22.7275  -10.2168   20.3039 C   0  0  0  0  0  0
  -21.6861   -6.0752   22.5270 C   0  0  0  0  0  0
  -21.4031   -6.5646   23.8210 C   0  0  0  0  0  0
  -21.3669   -5.6792   24.9165 C   0  0  0  0  0  0
  -21.6049   -4.3038   24.7215 C   0  0  0  0  0  0
  -21.8824   -3.8154   23.4338 C   0  0  0  0  0  0
  -21.9188   -4.6986   22.3398 C   0  0  0  0  0  0
  -22.7761  -13.5224   21.1818 C   0  0  0  0  0  0
  -22.1656   -4.2175   21.0971 F   0  0  0  0  0  0
  -21.5610   -3.4519   25.7717 F   0  0  0  0  0  0
  -29.8858  -13.9139   20.3690 N   0  0  0  0  0  0
  -26.2881  -12.9578   20.3245 N   0  0  0  0  0  0
  -25.9393  -11.6652   20.5714 N   0  0  0  0  0  0
  -22.0352  -12.8275   22.0395 N   0  0  0  0  0  0
  -25.4081  -15.2025   20.4245 N   0  0  0  0  0  0
  -31.6688  -15.2062   20.1471 O   0  0  0  0  0  0
  -21.6644   -6.8910   21.4235 O   0  0  0  0  0  0
  -22.3467  -14.5486   20.6573 O   0  0  0  0  0  0
  -24.6602  -31.8266   23.1726 C   0  0  0  0  0  0
  -25.9300  -32.4612   23.8166 C   0  0  1  0  0  0
  -27.2262  -26.9314   20.2095 C   0  0  0  0  0  0
  -25.5970  -33.8414   24.2092 N   0  0  0  0  0  0
  -23.4776  -30.4336   21.5197 C   0  0  2  0  0  0
  -24.9265  -28.8055   20.1321 C   0  0  0  0  0  0
  -22.7666  -29.4450   22.4807 C   0  0  0  0  0  0
  -18.0301  -28.1400   22.8460 C   0  0  0  0  0  0
  -24.1487  -36.7215   23.2655 C   0  0  0  0  0  0
  -26.0428  -30.6312   21.3999 C   0  0  0  0  0  0
  -26.1085  -29.2116   20.7648 C   0  0  0  0  0  0
  -27.2521  -28.2979   20.7757 C   0  0  0  0  0  0
  -26.0145  -26.6685   19.5332 C   0  0  0  0  0  0
  -24.9011  -27.5502   19.5005 C   0  0  0  0  0  0
  -23.7182  -29.7359   20.1515 C   0  0  0  0  0  0
  -25.4128  -36.2986   24.0305 C   0  0  1  0  0  0
  -20.5939  -28.3747   23.1185 C   0  0  2  0  0  0
  -20.6770  -26.9429   22.5397 C   0  0  0  0  0  0
  -19.5737  -26.6373   21.5214 C   0  0  0  0  0  0
  -18.1934  -26.7943   22.1629 C   0  0  0  0  0  0
  -19.1575  -28.8883   23.2808 C   0  0  0  0  0  0
  -18.9481  -30.1478   23.8829 C   0  0  0  0  0  0
  -17.6498  -30.6598   24.0537 C   0  0  0  0  0  0
  -25.9087  -34.9370   23.5025 C   0  0  0  0  0  0
  -16.5381  -29.9089   23.6336 C   0  0  0  0  0  0
  -16.7295  -28.6508   23.0366 C   0  0  0  0  0  0
  -26.4538  -31.6529   25.0693 C   0  0  0  0  0  0
  -25.3686  -31.3773   26.1372 C   0  0  0  0  0  0
  -27.0459  -30.2903   24.6441 C   0  0  0  0  0  0
  -27.6063  -32.4293   25.7510 C   0  0  0  0  0  0
  -27.5565  -37.1768   24.8460 C   0  0  0  0  0  0
  -21.4340  -29.3061   22.3581 N   0  0  0  0  0  0
  -26.4286  -37.3708   23.9403 N   0  0  0  0  0  0
  -24.7470  -30.9943   22.0833 N   0  0  0  0  0  0
  -23.4222  -28.8038   23.3062 O   0  0  0  0  0  0
  -28.3124  -25.9218   20.1084 O   0  0  0  0  0  0
  -26.5696  -34.8901   22.4620 O   0  0  0  0  0  0
  -23.5668  -32.1250   23.6823 O   0  0  0  0  0  0
  -28.2260  -23.0428   20.1318 C   0  0  0  0  0  0
  -28.9887  -21.7790   20.5316 C   0  0  0  0  0  0
  -28.6025  -24.4702   20.5183 C   0  0  0  0  0  0
  -30.4112  -23.3258   21.5266 C   0  0  0  0  0  0
  -29.1211  -17.5485   21.3433 C   0  0  0  0  0  0
  -29.8814  -17.7345   19.4360 C   0  0  0  0  0  0
  -29.6384  -18.8857   20.5570 C   0  0  0  0  0  0
  -31.7427  -23.5270   22.2213 C   0  0  0  0  0  0
  -30.0945  -22.0547   21.2400 N   0  0  0  0  0  0
  -29.7506  -24.4556   21.2306 N   0  0  0  0  0  0
  -29.7147  -16.5027   20.3589 N   0  0  0  0  0  0
  -28.7934  -20.2683   20.2881 N   0  0  0  0  0  0
  -31.4811  -12.9511   19.2495 H   0  0  0  0  0  0
  -30.4918  -11.8449   20.1374 H   0  0  0  0  0  0
  -29.9379  -11.7905   17.6702 H   0  0  0  0  0  0
  -29.6227  -13.5071   17.7063 H   0  0  0  0  0  0
  -28.0014  -11.3127   19.0019 H   0  0  0  0  0  0
  -27.4497  -12.4761   17.8130 H   0  0  0  0  0  0
  -27.5615  -14.2758   19.3908 H   0  0  0  0  0  0
  -28.8044  -12.4369   21.4813 H   0  0  0  0  0  0
  -28.3050  -14.0928   21.7526 H   0  0  0  0  0  0
  -25.2801   -9.5699   22.4749 H   0  0  0  0  0  0
  -24.0007   -7.4680   22.7495 H   0  0  0  0  0  0
  -21.0857   -8.8844   19.9009 H   0  0  0  0  0  0
  -22.3730  -10.9703   19.6150 H   0  0  0  0  0  0
  -21.2046   -7.6156   23.9729 H   0  0  0  0  0  0
  -21.1465   -6.0498   25.9052 H   0  0  0  0  0  0
  -22.0594   -2.7634   23.2804 H   0  0  0  0  0  0
  -22.3915  -12.0020   22.4982 H   0  0  0  0  0  0
  -21.0937  -13.1304   22.2400 H   0  0  0  0  0  0
  -24.6489  -15.8597   20.5593 H   0  0  0  0  0  0
  -26.2686  -15.6457   20.1289 H   0  0  0  0  0  0
  -26.7423  -32.5147   23.0916 H   0  0  0  0  0  0
  -25.0009  -33.9468   25.0178 H   0  0  0  0  0  0
  -22.7903  -31.2631   21.3366 H   0  0  0  0  0  0
  -23.3764  -35.9532   23.3301 H   0  0  0  0  0  0
  -24.3579  -36.8870   22.2078 H   0  0  0  0  0  0
  -23.7237  -37.6404   23.6699 H   0  0  0  0  0  0
  -26.2169  -31.3615   20.6087 H   0  0  0  0  0  0
  -26.9094  -30.7044   22.0458 H   0  0  0  0  0  0
  -28.1603  -28.6201   21.2603 H   0  0  0  0  0  0
  -25.9157  -25.7186   19.0339 H   0  0  0  0  0  0
  -24.0075  -27.2353   18.9811 H   0  0  0  0  0  0
  -23.8802  -30.4902   19.3801 H   0  0  0  0  0  0
  -22.8318  -29.1837   19.8360 H   0  0  0  0  0  0
  -25.1327  -36.1799   25.0798 H   0  0  0  0  0  0
  -20.9998  -28.3360   24.1318 H   0  0  0  0  0  0
  -20.5634  -26.2398   23.3663 H   0  0  0  0  0  0
  -21.6646  -26.7408   22.1231 H   0  0  0  0  0  0
  -19.6919  -25.6266   21.1288 H   0  0  0  0  0  0
  -19.6676  -27.3151   20.6719 H   0  0  0  0  0  0
  -17.4218  -26.6666   21.4029 H   0  0  0  0  0  0
  -18.0317  -26.0092   22.9016 H   0  0  0  0  0  0
  -19.7960  -30.7272   24.2223 H   0  0  0  0  0  0
  -17.5046  -31.6289   24.5147 H   0  0  0  0  0  0
  -15.5369  -30.2978   23.7681 H   0  0  0  0  0  0
  -15.8689  -28.0792   22.7138 H   0  0  0  0  0  0
  -24.5863  -30.7132   25.7667 H   0  0  0  0  0  0
  -24.8878  -32.2971   26.4695 H   0  0  0  0  0  0
  -25.7912  -30.8987   27.0222 H   0  0  0  0  0  0
  -26.3146  -29.6567   24.1421 H   0  0  0  0  0  0
  -27.3977  -29.7255   25.5084 H   0  0  0  0  0  0
  -27.9070  -30.4076   23.9879 H   0  0  0  0  0  0
  -27.2676  -33.3625   26.1998 H   0  0  0  0  0  0
  -28.3936  -32.6797   25.0397 H   0  0  0  0  0  0
  -28.0673  -31.8486   26.5506 H   0  0  0  0  0  0
  -28.2577  -38.0069   24.7513 H   0  0  0  0  0  0
  -28.1068  -36.2603   24.6276 H   0  0  0  0  0  0
  -27.2284  -37.1405   25.8863 H   0  0  0  0  0  0
  -20.9642  -29.8777   21.6707 H   0  0  0  0  0  0
  -26.0143  -38.2781   24.1378 H   0  0  0  0  0  0
  -27.3589  -22.9178   19.5008 H   0  0  0  0  0  0
  -28.0295  -17.5011   21.4092 H   0  0  0  0  0  0
  -29.5322  -17.4713   22.3553 H   0  0  0  0  0  0
  -30.8687  -17.8181   18.9654 H   0  0  0  0  0  0
  -29.1302  -17.7711   18.6414 H   0  0  0  0  0  0
  -30.6117  -19.1562   20.9799 H   0  0  0  0  0  0
  -32.2332  -22.5791   22.4390 H   0  0  0  0  0  0
  -31.6132  -24.0679   23.1588 H   0  0  0  0  0  0
  -32.4129  -24.0976   21.5783 H   0  0  0  0  0  0
  -27.9254  -20.0832   19.7948 H   0  0  0  0  0  0
  1 25  1  0  0  0
  1 30  2  0  0  0
  1 81  1  0  0  0
  2  3  1  0  0  0
  2 25  1  0  0  0
  2 83  1  0  0  0
  2 84  1  0  0  0
  3  4  1  0  0  0
  3 85  1  0  0  0
  3 86  1  0  0  0
  4  5  1  0  0  0
  4 87  1  0  0  0
  4 88  1  0  0  0
  5  6  1  0  0  0
  5 26  1  0  0  0
  5 89  1  0  0  0
  6 25  1  0  0  0
  6 90  1  0  0  0
  6 91  1  0  0  0
  7  8  2  0  0  0
  7 26  1  0  0  0
  7 29  1  0  0  0
  8  9  1  0  0  0
  8 22  1  0  0  0
  9 10  1  0  0  0
  9 27  2  0  0  0
 10 11  2  0  0  0
 10 15  1  0  0  0
 11 12  1  0  0  0
 11 92  1  0  0  0
 12 13  2  0  0  0
 12 93  1  0  0  0
 13 14  1  0  0  0
 13 31  1  0  0  0
 14 15  2  0  0  0
 14 94  1  0  0  0
 15 95  1  0  0  0
 16 17  2  0  0  0
 16 21  1  0  0  0
 16 31  1  0  0  0
 17 18  1  0  0  0
 17 96  1  0  0  0
 18 19  2  0  0  0
 18 97  1  0  0  0
 19 20  1  0  0  0
 19 24  1  0  0  0
 20 21  2  0  0  0
 20 98  1  0  0  0
 21 23  1  0  0  0
 22 28  1  0  0  0
 22 32  2  0  0  0
 26 27  1  0  0  0
 28 99  1  0  0  0
 28100  1  0  0  0
 29101  1  0  0  0
 29102  1  0  0  0
 33 34  1  0  0  0
 33 66  1  0  0  0
 33 70  2  0  0  0
 34 36  1  0  0  0
 34 59  1  0  0  0
 34103  1  0  0  0
 35 44  2  0  0  0
 35 45  1  0  0  0
 35 68  1  0  0  0
 36 56  1  0  0  0
 36104  1  0  0  0
 37 39  1  0  0  0
 37 47  1  0  0  0
 37 66  1  0  0  0
 37105  1  0  0  0
 38 43  2  0  0  0
 38 46  1  0  0  0
 38 47  1  0  0  0
 39 64  1  0  0  0
 39 67  2  0  0  0
 40 52  1  0  0  0
 40 53  2  0  0  0
 40 58  1  0  0  0
 41106  1  0  0  0
 41107  1  0  0  0
 41108  1  0  0  0
 41 48  1  0  0  0
 42 43  1  0  0  0
 42 66  1  0  0  0
 42109  1  0  0  0
 42110  1  0  0  0
 43 44  1  0  0  0
 44111  1  0  0  0
 45 46  2  0  0  0
 45112  1  0  0  0
 46113  1  0  0  0
 47114  1  0  0  0
 47115  1  0  0  0
 48 56  1  0  0  0
 48 65  1  0  0  0
 48116  1  0  0  0
 49 50  1  0  0  0
 49 53  1  0  0  0
 49 64  1  0  0  0
 49117  1  0  0  0
 50 51  1  0  0  0
 50118  1  0  0  0
 50119  1  0  0  0
 51 52  1  0  0  0
 51120  1  0  0  0
 51121  1  0  0  0
 52122  1  0  0  0
 52123  1  0  0  0
 53 54  1  0  0  0
 54 55  2  0  0  0
 54124  1  0  0  0
 55 57  1  0  0  0
 55125  1  0  0  0
 56 69  2  0  0  0
 57 58  2  0  0  0
 57126  1  0  0  0
 58127  1  0  0  0
 59 60  1  0  0  0
 59 61  1  0  0  0
 59 62  1  0  0  0
 60128  1  0  0  0
 60129  1  0  0  0
 60130  1  0  0  0
 61131  1  0  0  0
 61132  1  0  0  0
 61133  1  0  0  0
 62134  1  0  0  0
 62135  1  0  0  0
 62136  1  0  0  0
 63 65  1  0  0  0
 63137  1  0  0  0
 63138  1  0  0  0
 63139  1  0  0  0
 64140  1  0  0  0
 65141  1  0  0  0
 68 73  1  0  0  0
 71 72  2  0  0  0
 71 73  1  0  0  0
 71142  1  0  0  0
 72 79  1  0  0  0
 72 82  1  0  0  0
 73 80  2  0  0  0
 74 78  1  0  0  0
 74 79  2  0  0  0
 74 80  1  0  0  0
 75 77  1  0  0  0
 75 81  1  0  0  0
 75143  1  0  0  0
 75144  1  0  0  0
 76 77  1  0  0  0
 76 81  1  0  0  0
 76145  1  0  0  0
 76146  1  0  0  0
 77 82  1  0  0  0
 77147  1  0  0  0
 78148  1  0  0  0
 78149  1  0  0  0
 78150  1  0  0  0
 82151  1  0  0  0
M  ISO  4   1 100  68 101  73 101  81 100
M  END
> <chiral flag>
0

> <version>
0

> <s_m_source_file>
/data/baiqing/PycharmProjects/Reinvent-master-3.2/result/LINK_invent/BTK/process_docking_weight1_custom_sum_contain_oxygen_bond_distance_aromatic_linkinvent_7_9_3/rearranged_h_0174.sdf

> <i_m_source_file_index>
25

> <r_mmod_Potential_Energy-OPLS-2005>
652.275146484375

> <r_mmod_Stretch_Energy-OPLS-2005>
434.646362304688

> <r_mmod_Bend_Energy-OPLS-2005>
474.813568115234

> <r_mmod_Torsional_Energy-OPLS-2005>
281.586791992188

> <r_mmod_Improper_Torsional_Energy-OPLS-2005>
18.361795425415

> <r_mmod_Van_der_Waal_Energy-OPLS-2005>
127.911880493164

> <r_mmod_Electrostatic_Energy-OPLS-2005>
-841.510192871094

> <r_mmod_Solvation_Energy-OPLS-2005>
-242.111724853516

> <b_mmod_Minimization_Converged-OPLS-2005>
0

> <r_mmod_RMS_Derivative-OPLS-2005>
7.50855445861816

$$$$
27
                    3D
 Structure written by MMmdl.
159168  0  0  1  0            999 V2000
  -30.5881  -14.7569   20.4575 C   0  0  0  0  0  0
  -30.4404  -12.4635   19.4655 C   0  0  0  0  0  0
  -29.5116  -12.5072   18.2314 C   0  0  0  0  0  0
  -28.0377  -12.3272   18.6475 C   0  0  0  0  0  0
  -27.6420  -13.2273   19.8483 C   0  0  2  0  0  0
  -28.6884  -13.1556   20.9813 C   0  0  0  0  0  0
  -25.2520  -13.8185   20.5687 C   0  0  0  0  0  0
  -24.1811  -13.0437   20.9216 C   0  0  0  0  0  0
  -24.6392  -11.6914   20.8751 C   0  0  0  0  0  0
  -23.9065  -10.4292   21.0411 C   0  0  0  0  0  0
  -24.3616   -9.4205   21.9186 C   0  0  0  0  0  0
  -23.6290   -8.2243   22.0756 C   0  0  0  0  0  0
  -22.4275   -8.0281   21.3545 C   0  0  0  0  0  0
  -21.9909   -9.0254   20.4648 C   0  0  0  0  0  0
  -22.7238  -10.2133   20.3058 C   0  0  0  0  0  0
  -21.6854   -6.0733   22.5277 C   0  0  0  0  0  0
  -21.4014   -6.5637   23.8210 C   0  0  0  0  0  0
  -21.3659   -5.6792   24.9174 C   0  0  0  0  0  0
  -21.6045   -4.3054   24.7226 C   0  0  0  0  0  0
  -21.8819   -3.8144   23.4347 C   0  0  0  0  0  0
  -21.9191   -4.6959   22.3401 C   0  0  0  0  0  0
  -22.7830  -13.5225   21.1867 C   0  0  0  0  0  0
  -22.1662   -4.2143   21.0980 F   0  0  0  0  0  0
  -21.5627   -3.4539   25.7739 F   0  0  0  0  0  0
  -29.9858  -13.5199   20.3971 N   0  0  0  0  0  0
  -26.2940  -12.9380   20.3267 N   0  0  0  0  0  0
  -25.9319  -11.6528   20.5746 N   0  0  0  0  0  0
  -22.0474  -12.8218   22.0421 N   0  0  0  0  0  0
  -25.4195  -15.1907   20.4068 N   0  0  0  0  0  0
  -31.7807  -14.8788   20.1668 O   0  0  0  0  0  0
  -21.6641   -6.8878   21.4241 O   0  0  0  0  0  0
  -22.3514  -14.5528   20.6708 O   0  0  0  0  0  0
  -24.6310  -31.8538   23.1955 C   0  0  0  0  0  0
  -25.9130  -32.4746   23.8309 C   0  0  1  0  0  0
  -27.2258  -27.2570   20.1379 C   0  0  0  0  0  0
  -25.5921  -33.8550   24.2234 N   0  0  0  0  0  0
  -23.4286  -30.4746   21.5392 C   0  0  2  0  0  0
  -24.8776  -28.9143   20.1152 C   0  0  0  0  0  0
  -22.7499  -29.4600   22.4909 C   0  0  0  0  0  0
  -18.0294  -28.1393   22.8490 C   0  0  0  0  0  0
  -24.1488  -36.7283   23.2642 C   0  0  0  0  0  0
  -25.9746  -30.7664   21.3748 C   0  0  0  0  0  0
  -26.0497  -29.3867   20.7208 C   0  0  0  0  0  0
  -27.2287  -28.5728   20.7151 C   0  0  0  0  0  0
  -26.0329  -26.8528   19.5020 C   0  0  0  0  0  0
  -24.8744  -27.6551   19.4948 C   0  0  0  0  0  0
  -23.6486  -29.8022   20.1580 C   0  0  0  0  0  0
  -25.4118  -36.3066   24.0323 C   0  0  1  0  0  0
  -20.5896  -28.3700   23.1269 C   0  0  2  0  0  0
  -20.6781  -26.9416   22.5407 C   0  0  0  0  0  0
  -19.5755  -26.6388   21.5211 C   0  0  0  0  0  0
  -18.1938  -26.7935   22.1626 C   0  0  0  0  0  0
  -19.1549  -28.8866   23.2877 C   0  0  0  0  0  0
  -18.9471  -30.1471   23.8891 C   0  0  0  0  0  0
  -17.6470  -30.6598   24.0568 C   0  0  0  0  0  0
  -25.9057  -34.9439   23.5085 C   0  0  0  0  0  0
  -16.5362  -29.9095   23.6335 C   0  0  0  0  0  0
  -16.7281  -28.6513   23.0354 C   0  0  0  0  0  0
  -26.4499  -31.6577   25.0703 C   0  0  0  0  0  0
  -25.3722  -31.3736   26.1423 C   0  0  0  0  0  0
  -27.0345  -30.2993   24.6194 C   0  0  0  0  0  0
  -27.6041  -32.4323   25.7485 C   0  0  0  0  0  0
  -27.5576  -37.1801   24.8471 C   0  0  0  0  0  0
  -21.4205  -29.3046   22.3654 N   0  0  0  0  0  0
  -26.4292  -37.3766   23.9407 N   0  0  0  0  0  0
  -24.6971  -31.0501   22.0929 N   0  0  0  0  0  0
  -23.4196  -28.8147   23.3017 O   0  0  0  0  0  0
  -28.3285  -26.3718   20.1492 O   0  0  0  0  0  0
  -26.5640  -34.8920   22.4660 O   0  0  0  0  0  0
  -23.5460  -32.1356   23.7254 O   0  0  0  0  0  0
  -29.3809  -21.0814   19.5861 C   0  0  0  0  0  0
  -28.7633  -21.8916   21.7675 C   0  0  0  0  0  0
  -29.4773  -19.7614   20.1581 C   0  0  0  0  0  0
  -29.0190  -22.2164   20.4090 C   0  0  0  0  0  0
  -29.2300  -19.6046   21.5064 C   0  0  0  0  0  0
  -29.8077  -18.3697   19.5425 C   0  0  0  0  0  0
  -30.0630  -17.3701   20.7616 C   0  0  1  0  0  0
  -29.3457  -18.1269   21.9599 C   0  0  0  0  0  0
  -27.9289  -17.5680   22.1966 C   0  0  0  0  0  0
  -30.1889  -17.9937   23.2403 C   0  0  0  0  0  0
  -29.0016  -23.7322   19.8736 C   0  0  0  0  0  0
  -28.1368  -24.9284   20.5509 C   0  0  0  0  0  0
  -28.8523  -20.6360   22.3039 N   0  0  0  0  0  0
  -29.7736  -15.8633   20.6467 N   0  0  0  0  0  0
  -31.4788  -12.6049   19.1602 H   0  0  0  0  0  0
  -30.3996  -11.4860   19.9486 H   0  0  0  0  0  0
  -29.7956  -11.7332   17.5171 H   0  0  0  0  0  0
  -29.6320  -13.4603   17.7138 H   0  0  0  0  0  0
  -27.8981  -11.2785   18.9126 H   0  0  0  0  0  0
  -27.3788  -12.5156   17.7993 H   0  0  0  0  0  0
  -27.6360  -14.2488   19.4678 H   0  0  0  0  0  0
  -28.7304  -12.1531   21.4097 H   0  0  0  0  0  0
  -28.4228  -13.8260   21.8007 H   0  0  0  0  0  0
  -25.2762   -9.5681   22.4760 H   0  0  0  0  0  0
  -23.9996   -7.4636   22.7477 H   0  0  0  0  0  0
  -21.0838   -8.8775   19.8956 H   0  0  0  0  0  0
  -22.3698  -10.9672   19.6167 H   0  0  0  0  0  0
  -21.2010   -7.6147   23.9711 H   0  0  0  0  0  0
  -21.1480   -6.0523   25.9075 H   0  0  0  0  0  0
  -22.0599   -2.7606   23.2850 H   0  0  0  0  0  0
  -22.4088  -11.9885   22.4822 H   0  0  0  0  0  0
  -21.1086  -13.1238   22.2620 H   0  0  0  0  0  0
  -24.6451  -15.8369   20.5127 H   0  0  0  0  0  0
  -26.2471  -15.6274   20.0241 H   0  0  0  0  0  0
  -26.7191  -32.5396   23.1043 H   0  0  0  0  0  0
  -25.0052  -33.9683   25.0368 H   0  0  0  0  0  0
  -22.7257  -31.2963   21.3885 H   0  0  0  0  0  0
  -23.3751  -35.9614   23.3309 H   0  0  0  0  0  0
  -24.3576  -36.8904   22.2055 H   0  0  0  0  0  0
  -23.7246  -37.6485   23.6668 H   0  0  0  0  0  0
  -26.1126  -31.5248   20.6024 H   0  0  0  0  0  0
  -26.8522  -30.8175   22.0081 H   0  0  0  0  0  0
  -28.1297  -28.9358   21.1897 H   0  0  0  0  0  0
  -25.9860  -25.8924   19.0089 H   0  0  0  0  0  0
  -23.9784  -27.2886   19.0129 H   0  0  0  0  0  0
  -23.7742  -30.5741   19.3984 H   0  0  0  0  0  0
  -22.7666  -29.2349   19.8548 H   0  0  0  0  0  0
  -25.1304  -36.1905   25.0816 H   0  0  0  0  0  0
  -20.9998  -28.3280   24.1385 H   0  0  0  0  0  0
  -20.5670  -26.2314   23.3614 H   0  0  0  0  0  0
  -21.6653  -26.7437   22.1205 H   0  0  0  0  0  0
  -19.6916  -25.6293   21.1249 H   0  0  0  0  0  0
  -19.6695  -27.3194   20.6736 H   0  0  0  0  0  0
  -17.4202  -26.6682   21.4033 H   0  0  0  0  0  0
  -18.0348  -26.0080   22.9027 H   0  0  0  0  0  0
  -19.7948  -30.7298   24.2245 H   0  0  0  0  0  0
  -17.5024  -31.6272   24.5176 H   0  0  0  0  0  0
  -15.5362  -30.2997   23.7666 H   0  0  0  0  0  0
  -15.8681  -28.0836   22.7065 H   0  0  0  0  0  0
  -24.5889  -30.7092   25.7759 H   0  0  0  0  0  0
  -24.8925  -32.2908   26.4842 H   0  0  0  0  0  0
  -25.8037  -30.8917   27.0207 H   0  0  0  0  0  0
  -26.2930  -29.6735   24.1208 H   0  0  0  0  0  0
  -27.4017  -29.7256   25.4716 H   0  0  0  0  0  0
  -27.8810  -30.4273   23.9444 H   0  0  0  0  0  0
  -27.2633  -33.3621   26.2057 H   0  0  0  0  0  0
  -28.3859  -32.6890   25.0322 H   0  0  0  0  0  0
  -28.0699  -31.8451   26.5409 H   0  0  0  0  0  0
  -28.2607  -38.0086   24.7495 H   0  0  0  0  0  0
  -28.1055  -36.2614   24.6321 H   0  0  0  0  0  0
  -27.2289  -37.1481   25.8873 H   0  0  0  0  0  0
  -20.9389  -29.8755   21.6849 H   0  0  0  0  0  0
  -26.0165  -38.2840   24.1393 H   0  0  0  0  0  0
  -29.5968  -21.2244   18.5368 H   0  0  0  0  0  0
  -28.4992  -22.6712   22.4663 H   0  0  0  0  0  0
  -30.6720  -18.4274   18.8798 H   0  0  0  0  0  0
  -28.9535  -18.0419   18.9491 H   0  0  0  0  0  0
  -31.1358  -17.4482   20.9465 H   0  0  0  0  0  0
  -27.3322  -17.6143   21.2853 H   0  0  0  0  0  0
  -27.4040  -18.1494   22.9550 H   0  0  0  0  0  0
  -27.9459  -16.5327   22.5363 H   0  0  0  0  0  0
  -31.1830  -18.4211   23.1073 H   0  0  0  0  0  0
  -30.3077  -16.9483   23.5248 H   0  0  0  0  0  0
  -29.7200  -18.5146   24.0756 H   0  0  0  0  0  0
  -28.7291  -23.6932   18.8185 H   0  0  0  0  0  0
  -30.0431  -24.0532   19.8814 H   0  0  0  0  0  0
  -28.3564  -24.9162   21.6185 H   0  0  0  0  0  0
  -27.0862  -24.6488   20.4884 H   0  0  0  0  0  0
  -28.8074  -15.6228   20.7996 H   0  0  0  0  0  0
  1 25  1  0  0  0
  1 30  2  0  0  0
  1 84  1  0  0  0
  2  3  1  0  0  0
  2 25  1  0  0  0
  2 85  1  0  0  0
  2 86  1  0  0  0
  3  4  1  0  0  0
  3 87  1  0  0  0
  3 88  1  0  0  0
  4  5  1  0  0  0
  4 89  1  0  0  0
  4 90  1  0  0  0
  5  6  1  0  0  0
  5 26  1  0  0  0
  5 91  1  0  0  0
  6 25  1  0  0  0
  6 92  1  0  0  0
  6 93  1  0  0  0
  7  8  2  0  0  0
  7 26  1  0  0  0
  7 29  1  0  0  0
  8  9  1  0  0  0
  8 22  1  0  0  0
  9 10  1  0  0  0
  9 27  2  0  0  0
 10 11  2  0  0  0
 10 15  1  0  0  0
 11 12  1  0  0  0
 11 94  1  0  0  0
 12 13  2  0  0  0
 12 95  1  0  0  0
 13 14  1  0  0  0
 13 31  1  0  0  0
 14 15  2  0  0  0
 14 96  1  0  0  0
 15 97  1  0  0  0
 16 17  2  0  0  0
 16 21  1  0  0  0
 16 31  1  0  0  0
 17 18  1  0  0  0
 17 98  1  0  0  0
 18 19  2  0  0  0
 18 99  1  0  0  0
 19 20  1  0  0  0
 19 24  1  0  0  0
 20 21  2  0  0  0
 20100  1  0  0  0
 21 23  1  0  0  0
 22 28  1  0  0  0
 22 32  2  0  0  0
 26 27  1  0  0  0
 28101  1  0  0  0
 28102  1  0  0  0
 29103  1  0  0  0
 29104  1  0  0  0
 33 34  1  0  0  0
 33 66  1  0  0  0
 33 70  2  0  0  0
 34 36  1  0  0  0
 34 59  1  0  0  0
 34105  1  0  0  0
 35 44  2  0  0  0
 35 45  1  0  0  0
 35 68  1  0  0  0
 36 56  1  0  0  0
 36106  1  0  0  0
 37 39  1  0  0  0
 37 47  1  0  0  0
 37 66  1  0  0  0
 37107  1  0  0  0
 38 43  2  0  0  0
 38 46  1  0  0  0
 38 47  1  0  0  0
 39 64  1  0  0  0
 39 67  2  0  0  0
 40 52  1  0  0  0
 40 53  2  0  0  0
 40 58  1  0  0  0
 41108  1  0  0  0
 41109  1  0  0  0
 41110  1  0  0  0
 41 48  1  0  0  0
 42 43  1  0  0  0
 42 66  1  0  0  0
 42111  1  0  0  0
 42112  1  0  0  0
 43 44  1  0  0  0
 44113  1  0  0  0
 45 46  2  0  0  0
 45114  1  0  0  0
 46115  1  0  0  0
 47116  1  0  0  0
 47117  1  0  0  0
 48 56  1  0  0  0
 48 65  1  0  0  0
 48118  1  0  0  0
 49 50  1  0  0  0
 49 53  1  0  0  0
 49 64  1  0  0  0
 49119  1  0  0  0
 50 51  1  0  0  0
 50120  1  0  0  0
 50121  1  0  0  0
 51 52  1  0  0  0
 51122  1  0  0  0
 51123  1  0  0  0
 52124  1  0  0  0
 52125  1  0  0  0
 53 54  1  0  0  0
 54 55  2  0  0  0
 54126  1  0  0  0
 55 57  1  0  0  0
 55127  1  0  0  0
 56 69  2  0  0  0
 57 58  2  0  0  0
 57128  1  0  0  0
 58129  1  0  0  0
 59 60  1  0  0  0
 59 61  1  0  0  0
 59 62  1  0  0  0
 60130  1  0  0  0
 60131  1  0  0  0
 60132  1  0  0  0
 61133  1  0  0  0
 61134  1  0  0  0
 61135  1  0  0  0
 62136  1  0  0  0
 62137  1  0  0  0
 62138  1  0  0  0
 63 65  1  0  0  0
 63139  1  0  0  0
 63140  1  0  0  0
 63141  1  0  0  0
 64142  1  0  0  0
 65143  1  0  0  0
 68 82  1  0  0  0
 71 73  2  0  0  0
 71 74  1  0  0  0
 71144  1  0  0  0
 72 74  2  0  0  0
 72 83  1  0  0  0
 72145  1  0  0  0
 73 75  1  0  0  0
 73 76  1  0  0  0
 74 81  1  0  0  0
 75 78  1  0  0  0
 75 83  2  0  0  0
 76 77  1  0  0  0
 76146  1  0  0  0
 76147  1  0  0  0
 77 78  1  0  0  0
 77 84  1  0  0  0
 77148  1  0  0  0
 78 79  1  0  0  0
 78 80  1  0  0  0
 79149  1  0  0  0
 79150  1  0  0  0
 79151  1  0  0  0
 80152  1  0  0  0
 80153  1  0  0  0
 80154  1  0  0  0
 81 82  1  0  0  0
 81155  1  0  0  0
 81156  1  0  0  0
 82157  1  0  0  0
 82158  1  0  0  0
 84159  1  0  0  0
M  ISO  4   1 100  68 101  82 101  84 100
M  END
> <chiral flag>
0

> <version>
0

> <s_m_source_file>
/data/baiqing/PycharmProjects/Reinvent-master-3.2/result/LINK_invent/BTK/process_docking_weight1_custom_sum_contain_oxygen_bond_distance_aromatic_linkinvent_7_9_3/rearranged_h_0174.sdf

> <i_m_source_file_index>
26

> <r_mmod_Potential_Energy-OPLS-2005>
-33.1444053649902

> <r_mmod_Stretch_Energy-OPLS-2005>
122.314674377441

> <r_mmod_Bend_Energy-OPLS-2005>
209.752227783203

> <r_mmod_Torsional_Energy-OPLS-2005>
224.13801574707

> <r_mmod_Improper_Torsional_Energy-OPLS-2005>
5.00330829620361

> <r_mmod_Van_der_Waal_Energy-OPLS-2005>
128.520309448242

> <r_mmod_Electrostatic_Energy-OPLS-2005>
-594.050231933594

> <r_mmod_Solvation_Energy-OPLS-2005>
-216.946380615234

> <b_mmod_Minimization_Converged-OPLS-2005>
0

> <r_mmod_RMS_Derivative-OPLS-2005>
0.903375685214996

$$$$
28
                    3D
 Structure written by MMmdl.
168177  0  0  1  0            999 V2000
  -30.6248  -14.7092   20.4344 C   0  0  0  0  0  0
  -30.4254  -12.4265   19.4736 C   0  0  0  0  0  0
  -29.5074  -12.4927   18.2341 C   0  0  0  0  0  0
  -28.0314  -12.3292   18.6449 C   0  0  0  0  0  0
  -27.6395  -13.2300   19.8472 C   0  0  2  0  0  0
  -28.6831  -13.1637   20.9836 C   0  0  0  0  0  0
  -25.2491  -13.8197   20.5683 C   0  0  0  0  0  0
  -24.1790  -13.0446   20.9204 C   0  0  0  0  0  0
  -24.6384  -11.6922   20.8749 C   0  0  0  0  0  0
  -23.9065  -10.4295   21.0408 C   0  0  0  0  0  0
  -24.3614   -9.4208   21.9190 C   0  0  0  0  0  0
  -23.6289   -8.2245   22.0759 C   0  0  0  0  0  0
  -22.4271   -8.0284   21.3550 C   0  0  0  0  0  0
  -21.9907   -9.0256   20.4648 C   0  0  0  0  0  0
  -22.7236  -10.2135   20.3057 C   0  0  0  0  0  0
  -21.6859   -6.0730   22.5280 C   0  0  0  0  0  0
  -21.4015   -6.5636   23.8211 C   0  0  0  0  0  0
  -21.3658   -5.6791   24.9177 C   0  0  0  0  0  0
  -21.6045   -4.3052   24.7230 C   0  0  0  0  0  0
  -21.8819   -3.8143   23.4351 C   0  0  0  0  0  0
  -21.9190   -4.6957   22.3406 C   0  0  0  0  0  0
  -22.7810  -13.5218   21.1871 C   0  0  0  0  0  0
  -22.1661   -4.2144   21.0983 F   0  0  0  0  0  0
  -21.5628   -3.4539   25.7741 F   0  0  0  0  0  0
  -29.9869  -13.4940   20.3984 N   0  0  0  0  0  0
  -26.2919  -12.9408   20.3255 N   0  0  0  0  0  0
  -25.9313  -11.6553   20.5744 N   0  0  0  0  0  0
  -22.0458  -12.8211   22.0422 N   0  0  0  0  0  0
  -25.4162  -15.1930   20.4104 N   0  0  0  0  0  0
  -31.8276  -14.7796   20.1730 O   0  0  0  0  0  0
  -21.6643   -6.8880   21.4241 O   0  0  0  0  0  0
  -22.3498  -14.5530   20.6720 O   0  0  0  0  0  0
  -24.6282  -31.8578   23.1992 C   0  0  0  0  0  0
  -25.9117  -32.4769   23.8339 C   0  0  1  0  0  0
  -27.2214  -27.2748   20.1237 C   0  0  0  0  0  0
  -25.5911  -33.8571   24.2264 N   0  0  0  0  0  0
  -23.4261  -30.4768   21.5440 C   0  0  2  0  0  0
  -24.8738  -28.9269   20.1094 C   0  0  0  0  0  0
  -22.7502  -29.4589   22.4945 C   0  0  0  0  0  0
  -18.0286  -28.1370   22.8474 C   0  0  0  0  0  0
  -24.1490  -36.7285   23.2640 C   0  0  0  0  0  0
  -25.9712  -30.7730   21.3803 C   0  0  0  0  0  0
  -26.0439  -29.3972   20.7183 C   0  0  0  0  0  0
  -27.2198  -28.5827   20.7140 C   0  0  0  0  0  0
  -26.0302  -26.8718   19.4799 C   0  0  0  0  0  0
  -24.8712  -27.6724   19.4790 C   0  0  0  0  0  0
  -23.6443  -29.8128   20.1596 C   0  0  0  0  0  0
  -25.4115  -36.3071   24.0328 C   0  0  1  0  0  0
  -20.5889  -28.3682   23.1274 C   0  0  2  0  0  0
  -20.6775  -26.9411   22.5396 C   0  0  0  0  0  0
  -19.5758  -26.6377   21.5193 C   0  0  0  0  0  0
  -18.1936  -26.7912   22.1609 C   0  0  0  0  0  0
  -19.1539  -28.8849   23.2859 C   0  0  0  0  0  0
  -18.9463  -30.1452   23.8872 C   0  0  0  0  0  0
  -17.6466  -30.6575   24.0554 C   0  0  0  0  0  0
  -25.9051  -34.9446   23.5101 C   0  0  0  0  0  0
  -16.5357  -29.9076   23.6324 C   0  0  0  0  0  0
  -16.7273  -28.6492   23.0347 C   0  0  0  0  0  0
  -26.4489  -31.6600   25.0731 C   0  0  0  0  0  0
  -25.3695  -31.3747   26.1445 C   0  0  0  0  0  0
  -27.0364  -30.3019   24.6228 C   0  0  0  0  0  0
  -27.6055  -32.4361   25.7487 C   0  0  0  0  0  0
  -27.5584  -37.1794   24.8463 C   0  0  0  0  0  0
  -21.4215  -29.3027   22.3682 N   0  0  0  0  0  0
  -26.4297  -37.3770   23.9404 N   0  0  0  0  0  0
  -24.6940  -31.0544   22.0971 N   0  0  0  0  0  0
  -23.4211  -28.8136   23.3047 O   0  0  0  0  0  0
  -28.3258  -26.3965   20.1900 O   0  0  0  0  0  0
  -26.5634  -34.8912   22.4682 O   0  0  0  0  0  0
  -23.5430  -32.1422   23.7272 O   0  0  0  0  0  0
  -32.6115  -23.2561   21.9886 C   0  0  0  0  0  0
  -32.9629  -22.3727   23.0339 C   0  0  0  0  0  0
  -30.6997  -21.4302   23.0455 C   0  0  0  0  0  0
  -31.3040  -23.1991   21.4757 C   0  0  0  0  0  0
  -30.3756  -22.2825   21.9716 C   0  0  0  0  0  0
  -32.0115  -21.4707   23.5693 C   0  0  0  0  0  0
  -29.3233  -18.5324   20.3643 C   0  0  0  0  0  0
  -30.6831  -24.1424   20.4696 C   0  0  0  0  0  0
  -29.0402  -22.3829   21.2555 C   0  0  1  0  0  0
  -29.1784  -23.9368   20.7487 C   0  0  1  0  0  0
  -32.4003  -20.5507   24.7096 C   0  0  0  0  0  0
  -30.6091  -17.2499   18.5466 C   0  0  0  0  0  0
  -29.8849  -20.0195   20.2418 C   0  0  0  0  0  0
  -28.1366  -24.9144   20.0170 C   0  0  0  0  0  0
  -30.2904  -17.2688   20.0607 C   0  0  2  0  0  0
  -29.8585  -15.8608   20.4760 N   0  0  0  0  0  0
  -28.8661  -21.1741   20.3150 N   0  3  0  0  0  0
  -28.1380  -18.3727   20.6699 O   0  0  0  0  0  0
  -31.4695  -12.5361   19.1754 H   0  0  0  0  0  0
  -30.3532  -11.4513   19.9593 H   0  0  0  0  0  0
  -29.7849  -11.7167   17.5191 H   0  0  0  0  0  0
  -29.6456  -13.4457   17.7209 H   0  0  0  0  0  0
  -27.8797  -11.2807   18.9039 H   0  0  0  0  0  0
  -27.3778  -12.5285   17.7950 H   0  0  0  0  0  0
  -27.6340  -14.2506   19.4653 H   0  0  0  0  0  0
  -28.7065  -12.1698   21.4340 H   0  0  0  0  0  0
  -28.4265  -13.8593   21.7845 H   0  0  0  0  0  0
  -25.2759   -9.5689   22.4766 H   0  0  0  0  0  0
  -23.9998   -7.4640   22.7478 H   0  0  0  0  0  0
  -21.0844   -8.8772   19.8955 H   0  0  0  0  0  0
  -22.3693  -10.9673   19.6165 H   0  0  0  0  0  0
  -21.2013   -7.6148   23.9716 H   0  0  0  0  0  0
  -21.1478   -6.0523   25.9079 H   0  0  0  0  0  0
  -22.0598   -2.7606   23.2858 H   0  0  0  0  0  0
  -22.4076  -11.9863   22.4799 H   0  0  0  0  0  0
  -21.1078  -13.1233   22.2635 H   0  0  0  0  0  0
  -24.6456  -15.8418   20.5268 H   0  0  0  0  0  0
  -26.2602  -15.6419   20.0803 H   0  0  0  0  0  0
  -26.7200  -32.5431   23.1090 H   0  0  0  0  0  0
  -25.0032  -33.9710   25.0390 H   0  0  0  0  0  0
  -22.7183  -31.2961   21.3992 H   0  0  0  0  0  0
  -23.3764  -35.9609   23.3312 H   0  0  0  0  0  0
  -24.3571  -36.8906   22.2053 H   0  0  0  0  0  0
  -23.7239  -37.6476   23.6675 H   0  0  0  0  0  0
  -26.1149  -31.5397   20.6176 H   0  0  0  0  0  0
  -26.8455  -30.8180   22.0174 H   0  0  0  0  0  0
  -28.1160  -28.9371   21.2045 H   0  0  0  0  0  0
  -25.9718  -25.9164   18.9791 H   0  0  0  0  0  0
  -23.9795  -27.3096   18.9879 H   0  0  0  0  0  0
  -23.7674  -30.5930   19.4076 H   0  0  0  0  0  0
  -22.7626  -29.2463   19.8524 H   0  0  0  0  0  0
  -25.1299  -36.1913   25.0819 H   0  0  0  0  0  0
  -20.9954  -28.3261   24.1407 H   0  0  0  0  0  0
  -20.5656  -26.2310   23.3602 H   0  0  0  0  0  0
  -21.6650  -26.7432   22.1202 H   0  0  0  0  0  0
  -19.6925  -25.6280   21.1244 H   0  0  0  0  0  0
  -19.6691  -27.3171   20.6704 H   0  0  0  0  0  0
  -17.4206  -26.6640   21.4017 H   0  0  0  0  0  0
  -18.0335  -26.0050   22.8997 H   0  0  0  0  0  0
  -19.7950  -30.7259   24.2235 H   0  0  0  0  0  0
  -17.5027  -31.6247   24.5165 H   0  0  0  0  0  0
  -15.5361  -30.2968   23.7655 H   0  0  0  0  0  0
  -15.8669  -28.0807   22.7071 H   0  0  0  0  0  0
  -24.5874  -30.7087   25.7772 H   0  0  0  0  0  0
  -24.8864  -32.2907   26.4846 H   0  0  0  0  0  0
  -25.7987  -30.8936   27.0238 H   0  0  0  0  0  0
  -26.2957  -29.6739   24.1260 H   0  0  0  0  0  0
  -27.4057  -29.7290   25.4743 H   0  0  0  0  0  0
  -27.8828  -30.4311   23.9488 H   0  0  0  0  0  0
  -27.2684  -33.3685   26.2019 H   0  0  0  0  0  0
  -28.3869  -32.6890   25.0314 H   0  0  0  0  0  0
  -28.0721  -31.8518   26.5417 H   0  0  0  0  0  0
  -28.2597  -38.0097   24.7522 H   0  0  0  0  0  0
  -28.1088  -36.2627   24.6293 H   0  0  0  0  0  0
  -27.2297  -37.1446   25.8863 H   0  0  0  0  0  0
  -20.9414  -29.8750   21.6877 H   0  0  0  0  0  0
  -26.0175  -38.2838   24.1412 H   0  0  0  0  0  0
  -33.3241  -23.9760   21.6097 H   0  0  0  0  0  0
  -33.9623  -22.4068   23.4461 H   0  0  0  0  0  0
  -29.9625  -20.7475   23.4468 H   0  0  0  0  0  0
  -30.9496  -23.8480   19.4536 H   0  0  0  0  0  0
  -31.0015  -25.1733   20.6337 H   0  0  0  0  0  0
  -28.2430  -22.3249   21.9978 H   0  0  0  0  0  0
  -29.0858  -24.4196   21.7250 H   0  0  0  0  0  0
  -32.9103  -19.6673   24.3243 H   0  0  0  0  0  0
  -31.5239  -20.2172   25.2668 H   0  0  0  0  0  0
  -33.0702  -21.0574   25.4058 H   0  0  0  0  0  0
  -30.9413  -18.2220   18.1832 H   0  0  0  0  0  0
  -29.7350  -16.9607   17.9608 H   0  0  0  0  0  0
  -31.4116  -16.5523   18.3066 H   0  0  0  0  0  0
  -30.4009  -20.1078   19.2868 H   0  0  0  0  0  0
  -30.6712  -20.0952   20.9843 H   0  0  0  0  0  0
  -27.1523  -24.6413   20.3985 H   0  0  0  0  0  0
  -28.1269  -24.6923   18.9493 H   0  0  0  0  0  0
  -31.2229  -17.4675   20.5903 H   0  0  0  0  0  0
  -28.8784  -15.7469   20.6906 H   0  0  0  0  0  0
  -28.7047  -21.5083   19.3810 H   0  0  0  0  0  0
  -28.0087  -20.7219   20.5933 H   0  0  0  0  0  0
  1 25  1  0  0  0
  1 30  2  0  0  0
  1 86  1  0  0  0
  2  3  1  0  0  0
  2 25  1  0  0  0
  2 89  1  0  0  0
  2 90  1  0  0  0
  3  4  1  0  0  0
  3 91  1  0  0  0
  3 92  1  0  0  0
  4  5  1  0  0  0
  4 93  1  0  0  0
  4 94  1  0  0  0
  5  6  1  0  0  0
  5 26  1  0  0  0
  5 95  1  0  0  0
  6 25  1  0  0  0
  6 96  1  0  0  0
  6 97  1  0  0  0
  7  8  2  0  0  0
  7 26  1  0  0  0
  7 29  1  0  0  0
  8  9  1  0  0  0
  8 22  1  0  0  0
  9 10  1  0  0  0
  9 27  2  0  0  0
 10 11  2  0  0  0
 10 15  1  0  0  0
 11 12  1  0  0  0
 11 98  1  0  0  0
 12 13  2  0  0  0
 12 99  1  0  0  0
 13 14  1  0  0  0
 13 31  1  0  0  0
 14 15  2  0  0  0
 14100  1  0  0  0
 15101  1  0  0  0
 16 17  2  0  0  0
 16 21  1  0  0  0
 16 31  1  0  0  0
 17 18  1  0  0  0
 17102  1  0  0  0
 18 19  2  0  0  0
 18103  1  0  0  0
 19 20  1  0  0  0
 19 24  1  0  0  0
 20 21  2  0  0  0
 20104  1  0  0  0
 21 23  1  0  0  0
 22 28  1  0  0  0
 22 32  2  0  0  0
 26 27  1  0  0  0
 28105  1  0  0  0
 28106  1  0  0  0
 29107  1  0  0  0
 29108  1  0  0  0
 33 34  1  0  0  0
 33 66  1  0  0  0
 33 70  2  0  0  0
 34 36  1  0  0  0
 34 59  1  0  0  0
 34109  1  0  0  0
 35 44  2  0  0  0
 35 45  1  0  0  0
 35 68  1  0  0  0
 36 56  1  0  0  0
 36110  1  0  0  0
 37 39  1  0  0  0
 37 47  1  0  0  0
 37 66  1  0  0  0
 37111  1  0  0  0
 38 43  2  0  0  0
 38 46  1  0  0  0
 38 47  1  0  0  0
 39 64  1  0  0  0
 39 67  2  0  0  0
 40 52  1  0  0  0
 40 53  2  0  0  0
 40 58  1  0  0  0
 41112  1  0  0  0
 41113  1  0  0  0
 41114  1  0  0  0
 41 48  1  0  0  0
 42 43  1  0  0  0
 42 66  1  0  0  0
 42115  1  0  0  0
 42116  1  0  0  0
 43 44  1  0  0  0
 44117  1  0  0  0
 45 46  2  0  0  0
 45118  1  0  0  0
 46119  1  0  0  0
 47120  1  0  0  0
 47121  1  0  0  0
 48 56  1  0  0  0
 48 65  1  0  0  0
 48122  1  0  0  0
 49 50  1  0  0  0
 49 53  1  0  0  0
 49 64  1  0  0  0
 49123  1  0  0  0
 50 51  1  0  0  0
 50124  1  0  0  0
 50125  1  0  0  0
 51 52  1  0  0  0
 51126  1  0  0  0
 51127  1  0  0  0
 52128  1  0  0  0
 52129  1  0  0  0
 53 54  1  0  0  0
 54 55  2  0  0  0
 54130  1  0  0  0
 55 57  1  0  0  0
 55131  1  0  0  0
 56 69  2  0  0  0
 57 58  2  0  0  0
 57132  1  0  0  0
 58133  1  0  0  0
 59 60  1  0  0  0
 59 61  1  0  0  0
 59 62  1  0  0  0
 60134  1  0  0  0
 60135  1  0  0  0
 60136  1  0  0  0
 61137  1  0  0  0
 61138  1  0  0  0
 61139  1  0  0  0
 62140  1  0  0  0
 62141  1  0  0  0
 62142  1  0  0  0
 63 65  1  0  0  0
 63143  1  0  0  0
 63144  1  0  0  0
 63145  1  0  0  0
 64146  1  0  0  0
 65147  1  0  0  0
 68 84  1  0  0  0
 71 72  2  0  0  0
 71 74  1  0  0  0
 71148  1  0  0  0
 72 76  1  0  0  0
 72149  1  0  0  0
 73 75  1  0  0  0
 73 76  2  0  0  0
 73150  1  0  0  0
 74 75  2  0  0  0
 74 78  1  0  0  0
 75 79  1  0  0  0
 76 81  1  0  0  0
 77 83  1  0  0  0
 77 85  1  0  0  0
 77 88  2  0  0  0
 78 80  1  0  0  0
 78151  1  0  0  0
 78152  1  0  0  0
 79 80  1  0  0  0
 79 87  1  0  0  0
 79153  1  0  0  0
 80 84  1  0  0  0
 80154  1  0  0  0
 81155  1  0  0  0
 81156  1  0  0  0
 81157  1  0  0  0
 82158  1  0  0  0
 82159  1  0  0  0
 82160  1  0  0  0
 82 85  1  0  0  0
 83 87  1  0  0  0
 83161  1  0  0  0
 83162  1  0  0  0
 84163  1  0  0  0
 84164  1  0  0  0
 85 86  1  0  0  0
 85165  1  0  0  0
 86166  1  0  0  0
 87167  1  0  0  0
 87168  1  0  0  0
M  CHG  1  87   1
M  ISO  4   1 100  68 101  84 101  86 100
M  END
> <chiral flag>
0

> <version>
0

> <s_m_source_file>
/data/baiqing/PycharmProjects/Reinvent-master-3.2/result/LINK_invent/BTK/process_docking_weight1_custom_sum_contain_oxygen_bond_distance_aromatic_linkinvent_7_9_3/rearranged_h_0174.sdf

> <i_m_source_file_index>
27

> <r_mmod_Potential_Energy-OPLS-2005>
-82.7218475341797

> <r_mmod_Stretch_Energy-OPLS-2005>
122.10578918457

> <r_mmod_Bend_Energy-OPLS-2005>
268.302429199219

> <r_mmod_Torsional_Energy-OPLS-2005>
244.850112915039

> <r_mmod_Improper_Torsional_Energy-OPLS-2005>
7.48887586593628

> <r_mmod_Van_der_Waal_Energy-OPLS-2005>
141.97477722168

> <r_mmod_Electrostatic_Energy-OPLS-2005>
-465.80322265625

> <r_mmod_Solvation_Energy-OPLS-2005>
-478.069458007812

> <b_mmod_Minimization_Converged-OPLS-2005>
0

> <r_mmod_RMS_Derivative-OPLS-2005>
1.74437892436981

$$$$
29
                    3D
 Structure written by MMmdl.
165174  0  0  1  0            999 V2000
  -30.5353  -14.9827   20.4094 C   0  0  0  0  0  0
  -30.4336  -12.6074   19.5135 C   0  0  0  0  0  0
  -29.5209  -12.5269   18.2673 C   0  0  0  0  0  0
  -28.0559  -12.3049   18.6833 C   0  0  0  0  0  0
  -27.6237  -13.2502   19.8339 C   0  0  2  0  0  0
  -28.6608  -13.3051   20.9764 C   0  0  0  0  0  0
  -25.2431  -13.8200   20.5733 C   0  0  0  0  0  0
  -24.1745  -13.0427   20.9233 C   0  0  0  0  0  0
  -24.6354  -11.6916   20.8729 C   0  0  0  0  0  0
  -23.9041  -10.4288   21.0394 C   0  0  0  0  0  0
  -24.3594   -9.4206   21.9176 C   0  0  0  0  0  0
  -23.6284   -8.2231   22.0738 C   0  0  0  0  0  0
  -22.4268   -8.0252   21.3530 C   0  0  0  0  0  0
  -21.9899   -9.0220   20.4636 C   0  0  0  0  0  0
  -22.7212  -10.2115   20.3046 C   0  0  0  0  0  0
  -21.6855   -6.0716   22.5280 C   0  0  0  0  0  0
  -21.4016   -6.5624   23.8215 C   0  0  0  0  0  0
  -21.3662   -5.6776   24.9175 C   0  0  0  0  0  0
  -21.6051   -4.3042   24.7232 C   0  0  0  0  0  0
  -21.8816   -3.8129   23.4353 C   0  0  0  0  0  0
  -21.9201   -4.6939   22.3408 C   0  0  0  0  0  0
  -22.7764  -13.5208   21.1882 C   0  0  0  0  0  0
  -22.1668   -4.2130   21.0981 F   0  0  0  0  0  0
  -21.5630   -3.4518   25.7745 F   0  0  0  0  0  0
  -29.9364  -13.7192   20.3793 N   0  0  0  0  0  0
  -26.2842  -12.9441   20.3210 N   0  0  0  0  0  0
  -25.9289  -11.6568   20.5700 N   0  0  0  0  0  0
  -22.0417  -12.8199   22.0433 N   0  0  0  0  0  0
  -25.4098  -15.1920   20.4202 N   0  0  0  0  0  0
  -31.7367  -15.0275   20.1251 O   0  0  0  0  0  0
  -21.6635   -6.8844   21.4240 O   0  0  0  0  0  0
  -22.3457  -14.5512   20.6720 O   0  0  0  0  0  0
  -24.6494  -31.8403   23.1832 C   0  0  0  0  0  0
  -25.9248  -32.4673   23.8237 C   0  0  1  0  0  0
  -27.2030  -27.0912   20.1462 C   0  0  0  0  0  0
  -25.5984  -33.8475   24.2160 N   0  0  0  0  0  0
  -23.4527  -30.4607   21.5320 C   0  0  2  0  0  0
  -24.8975  -28.8836   20.1079 C   0  0  0  0  0  0
  -22.7605  -29.4528   22.4849 C   0  0  0  0  0  0
  -18.0321  -28.1395   22.8481 C   0  0  0  0  0  0
  -24.1496  -36.7236   23.2636 C   0  0  0  0  0  0
  -26.0137  -30.6995   21.3888 C   0  0  0  0  0  0
  -26.0801  -29.3078   20.7281 C   0  0  0  0  0  0
  -27.2338  -28.4287   20.7281 C   0  0  0  0  0  0
  -25.9907  -26.7829   19.4873 C   0  0  0  0  0  0
  -24.8697  -27.6369   19.4702 C   0  0  0  0  0  0
  -23.6783  -29.7917   20.1514 C   0  0  0  0  0  0
  -25.4125  -36.3005   24.0309 C   0  0  1  0  0  0
  -20.5942  -28.3713   23.1236 C   0  0  2  0  0  0
  -20.6802  -26.9413   22.5405 C   0  0  0  0  0  0
  -19.5763  -26.6380   21.5220 C   0  0  0  0  0  0
  -18.1948  -26.7934   22.1634 C   0  0  0  0  0  0
  -19.1580  -28.8874   23.2848 C   0  0  0  0  0  0
  -18.9490  -30.1483   23.8852 C   0  0  0  0  0  0
  -17.6480  -30.6581   24.0561 C   0  0  0  0  0  0
  -25.9088  -34.9390   23.5039 C   0  0  0  0  0  0
  -16.5370  -29.9070   23.6347 C   0  0  0  0  0  0
  -16.7306  -28.6503   23.0348 C   0  0  0  0  0  0
  -26.4530  -31.6554   25.0700 C   0  0  0  0  0  0
  -25.3703  -31.3788   26.1394 C   0  0  0  0  0  0
  -27.0393  -30.2935   24.6318 C   0  0  0  0  0  0
  -27.6047  -32.4333   25.7491 C   0  0  0  0  0  0
  -27.5580  -37.1764   24.8452 C   0  0  0  0  0  0
  -21.4292  -29.3034   22.3609 N   0  0  0  0  0  0
  -26.4269  -37.3738   23.9421 N   0  0  0  0  0  0
  -24.7259  -31.0227   22.0887 N   0  0  0  0  0  0
  -23.4234  -28.8085   23.3016 O   0  0  0  0  0  0
  -28.2356  -26.0689   20.2095 O   0  0  0  0  0  0
  -26.5665  -34.8898   22.4615 O   0  0  0  0  0  0
  -23.5607  -32.1305   23.7035 O   0  0  0  0  0  0
  -28.1136  -21.9900   17.9639 C   0  0  0  0  0  0
  -28.5334  -21.6964   19.3092 C   0  0  0  0  0  0
  -28.5764  -20.1856   19.6005 C   0  0  0  0  0  0
  -27.3517  -21.0532   17.2385 C   0  0  0  0  0  0
  -27.6978  -19.4019   18.7939 C   0  0  0  0  0  0
  -29.3385  -23.1895   15.9781 C   0  0  0  0  0  0
  -29.8565  -23.8689   17.2137 C   0  0  0  0  0  0
  -28.4661  -23.2618   17.2180 C   0  0  0  0  0  0
  -26.7294  -21.3583   15.8821 C   0  0  0  0  0  0
  -27.3044  -17.9619   19.1018 C   0  0  0  0  0  0
  -28.8605  -23.0978   20.1527 C   0  0  0  0  0  0
  -29.3919  -19.1880   20.6281 C   0  0  0  0  0  0
  -30.1370  -17.7051   20.1717 C   0  0  0  0  0  0
  -27.9083  -24.5329   20.0507 C   0  0  0  0  0  0
  -27.0843  -19.8327   17.6899 N   0  0  0  0  0  0
  -29.7796  -16.1922   20.5367 N   0  0  0  0  0  0
  -31.4668  -12.7625   19.2000 H   0  0  0  0  0  0
  -30.4259  -11.6630   20.0620 H   0  0  0  0  0  0
  -29.8522  -11.7247   17.6069 H   0  0  0  0  0  0
  -29.6019  -13.4511   17.6921 H   0  0  0  0  0  0
  -27.9602  -11.2671   19.0067 H   0  0  0  0  0  0
  -27.3923  -12.4178   17.8243 H   0  0  0  0  0  0
  -27.5810  -14.2454   19.3899 H   0  0  0  0  0  0
  -28.7485  -12.3398   21.4762 H   0  0  0  0  0  0
  -28.3463  -14.0202   21.7383 H   0  0  0  0  0  0
  -25.2733   -9.5700   22.4753 H   0  0  0  0  0  0
  -24.0005   -7.4627   22.7454 H   0  0  0  0  0  0
  -21.0834   -8.8719   19.8945 H   0  0  0  0  0  0
  -22.3647  -10.9633   19.6146 H   0  0  0  0  0  0
  -21.1997   -7.6135   23.9709 H   0  0  0  0  0  0
  -21.1494   -6.0508   25.9082 H   0  0  0  0  0  0
  -22.0597   -2.7590   23.2855 H   0  0  0  0  0  0
  -22.4051  -11.9888   22.4853 H   0  0  0  0  0  0
  -21.1014  -13.1191   22.2601 H   0  0  0  0  0  0
  -24.6385  -15.8394   20.5371 H   0  0  0  0  0  0
  -26.2517  -15.6302   20.0743 H   0  0  0  0  0  0
  -26.7321  -32.5255   23.0963 H   0  0  0  0  0  0
  -25.0127  -33.9581   25.0307 H   0  0  0  0  0  0
  -22.7575  -31.2886   21.3793 H   0  0  0  0  0  0
  -23.3769  -35.9555   23.3248 H   0  0  0  0  0  0
  -24.3600  -36.8927   22.2065 H   0  0  0  0  0  0
  -23.7235  -37.6408   23.6711 H   0  0  0  0  0  0
  -26.1816  -31.4537   20.6186 H   0  0  0  0  0  0
  -26.8793  -30.7443   22.0378 H   0  0  0  0  0  0
  -28.1340  -28.7482   21.2338 H   0  0  0  0  0  0
  -25.8591  -25.8363   18.9885 H   0  0  0  0  0  0
  -23.9670  -27.3085   18.9719 H   0  0  0  0  0  0
  -23.8196  -30.5658   19.3964 H   0  0  0  0  0  0
  -22.7911  -29.2377   19.8405 H   0  0  0  0  0  0
  -25.1323  -36.1798   25.0800 H   0  0  0  0  0  0
  -21.0046  -28.3285   24.1352 H   0  0  0  0  0  0
  -20.5700  -26.2316   23.3621 H   0  0  0  0  0  0
  -21.6666  -26.7414   22.1193 H   0  0  0  0  0  0
  -19.6909  -25.6288   21.1254 H   0  0  0  0  0  0
  -19.6696  -27.3188   20.6745 H   0  0  0  0  0  0
  -17.4226  -26.6697   21.4022 H   0  0  0  0  0  0
  -18.0331  -26.0079   22.9033 H   0  0  0  0  0  0
  -19.7960  -30.7335   24.2165 H   0  0  0  0  0  0
  -17.5022  -31.6247   24.5187 H   0  0  0  0  0  0
  -15.5366  -30.2945   23.7686 H   0  0  0  0  0  0
  -15.8719  -28.0811   22.7049 H   0  0  0  0  0  0
  -24.5854  -30.7161   25.7726 H   0  0  0  0  0  0
  -24.8917  -32.2996   26.4742 H   0  0  0  0  0  0
  -25.7970  -30.9005   27.0218 H   0  0  0  0  0  0
  -26.3016  -29.6651   24.1305 H   0  0  0  0  0  0
  -27.3969  -29.7246   25.4910 H   0  0  0  0  0  0
  -27.8949  -30.4157   23.9671 H   0  0  0  0  0  0
  -27.2621  -33.3664   26.1975 H   0  0  0  0  0  0
  -28.3893  -32.6844   25.0342 H   0  0  0  0  0  0
  -28.0656  -31.8510   26.5479 H   0  0  0  0  0  0
  -28.2541  -38.0113   24.7570 H   0  0  0  0  0  0
  -28.1134  -36.2650   24.6184 H   0  0  0  0  0  0
  -27.2321  -37.1304   25.8855 H   0  0  0  0  0  0
  -20.9501  -29.8755   21.6798 H   0  0  0  0  0  0
  -26.0121  -38.2790   24.1459 H   0  0  0  0  0  0
  -29.7815  -22.2294   15.7173 H   0  0  0  0  0  0
  -29.0744  -23.8247   15.1342 H   0  0  0  0  0  0
  -29.9354  -24.9539   17.1837 H   0  0  0  0  0  0
  -30.6613  -23.3554   17.7352 H   0  0  0  0  0  0
  -27.5942  -23.9036   17.0960 H   0  0  0  0  0  0
  -26.1973  -22.3093   15.9000 H   0  0  0  0  0  0
  -26.0075  -20.5921   15.5962 H   0  0  0  0  0  0
  -27.4877  -21.3980   15.1007 H   0  0  0  0  0  0
  -27.2580  -17.7634   20.1722 H   0  0  0  0  0  0
  -27.9920  -17.2636   18.6270 H   0  0  0  0  0  0
  -26.3121  -17.7332   18.7097 H   0  0  0  0  0  0
  -29.8815  -23.3726   19.8946 H   0  0  0  0  0  0
  -28.9235  -22.8217   21.2049 H   0  0  0  0  0  0
  -28.7486  -19.0077   21.4902 H   0  0  0  0  0  0
  -30.1883  -19.8174   21.0280 H   0  0  0  0  0  0
  -31.1516  -17.7987   20.5639 H   0  0  0  0  0  0
  -30.2915  -17.7349   19.0921 H   0  0  0  0  0  0
  -27.0805  -24.3592   20.7382 H   0  0  0  0  0  0
  -27.4209  -24.4845   19.0922 H   0  0  0  0  0  0
  -28.8147  -16.0373   20.7901 H   0  0  0  0  0  0
  1 25  1  0  0  0
  1 30  2  0  0  0
  1 86  1  0  0  0
  2  3  1  0  0  0
  2 25  1  0  0  0
  2 87  1  0  0  0
  2 88  1  0  0  0
  3  4  1  0  0  0
  3 89  1  0  0  0
  3 90  1  0  0  0
  4  5  1  0  0  0
  4 91  1  0  0  0
  4 92  1  0  0  0
  5  6  1  0  0  0
  5 26  1  0  0  0
  5 93  1  0  0  0
  6 25  1  0  0  0
  6 94  1  0  0  0
  6 95  1  0  0  0
  7  8  2  0  0  0
  7 26  1  0  0  0
  7 29  1  0  0  0
  8  9  1  0  0  0
  8 22  1  0  0  0
  9 10  1  0  0  0
  9 27  2  0  0  0
 10 11  2  0  0  0
 10 15  1  0  0  0
 11 12  1  0  0  0
 11 96  1  0  0  0
 12 13  2  0  0  0
 12 97  1  0  0  0
 13 14  1  0  0  0
 13 31  1  0  0  0
 14 15  2  0  0  0
 14 98  1  0  0  0
 15 99  1  0  0  0
 16 17  2  0  0  0
 16 21  1  0  0  0
 16 31  1  0  0  0
 17 18  1  0  0  0
 17100  1  0  0  0
 18 19  2  0  0  0
 18101  1  0  0  0
 19 20  1  0  0  0
 19 24  1  0  0  0
 20 21  2  0  0  0
 20102  1  0  0  0
 21 23  1  0  0  0
 22 28  1  0  0  0
 22 32  2  0  0  0
 26 27  1  0  0  0
 28103  1  0  0  0
 28104  1  0  0  0
 29105  1  0  0  0
 29106  1  0  0  0
 33 34  1  0  0  0
 33 66  1  0  0  0
 33 70  2  0  0  0
 34 36  1  0  0  0
 34 59  1  0  0  0
 34107  1  0  0  0
 35 44  2  0  0  0
 35 45  1  0  0  0
 35 68  1  0  0  0
 36 56  1  0  0  0
 36108  1  0  0  0
 37 39  1  0  0  0
 37 47  1  0  0  0
 37 66  1  0  0  0
 37109  1  0  0  0
 38 43  2  0  0  0
 38 46  1  0  0  0
 38 47  1  0  0  0
 39 64  1  0  0  0
 39 67  2  0  0  0
 40 52  1  0  0  0
 40 53  2  0  0  0
 40 58  1  0  0  0
 41110  1  0  0  0
 41111  1  0  0  0
 41112  1  0  0  0
 41 48  1  0  0  0
 42 43  1  0  0  0
 42 66  1  0  0  0
 42113  1  0  0  0
 42114  1  0  0  0
 43 44  1  0  0  0
 44115  1  0  0  0
 45 46  2  0  0  0
 45116  1  0  0  0
 46117  1  0  0  0
 47118  1  0  0  0
 47119  1  0  0  0
 48 56  1  0  0  0
 48 65  1  0  0  0
 48120  1  0  0  0
 49 50  1  0  0  0
 49 53  1  0  0  0
 49 64  1  0  0  0
 49121  1  0  0  0
 50 51  1  0  0  0
 50122  1  0  0  0
 50123  1  0  0  0
 51 52  1  0  0  0
 51124  1  0  0  0
 51125  1  0  0  0
 52126  1  0  0  0
 52127  1  0  0  0
 53 54  1  0  0  0
 54 55  2  0  0  0
 54128  1  0  0  0
 55 57  1  0  0  0
 55129  1  0  0  0
 56 69  2  0  0  0
 57 58  2  0  0  0
 57130  1  0  0  0
 58131  1  0  0  0
 59 60  1  0  0  0
 59 61  1  0  0  0
 59 62  1  0  0  0
 60132  1  0  0  0
 60133  1  0  0  0
 60134  1  0  0  0
 61135  1  0  0  0
 61136  1  0  0  0
 61137  1  0  0  0
 62138  1  0  0  0
 62139  1  0  0  0
 62140  1  0  0  0
 63 65  1  0  0  0
 63141  1  0  0  0
 63142  1  0  0  0
 63143  1  0  0  0
 64144  1  0  0  0
 65145  1  0  0  0
 68 84  1  0  0  0
 71 72  1  0  0  0
 71 74  2  0  0  0
 71 78  1  0  0  0
 72 73  2  0  0  0
 72 81  1  0  0  0
 73 75  1  0  0  0
 73 82  1  0  0  0
 74 79  1  0  0  0
 74 85  1  0  0  0
 75 80  1  0  0  0
 75 85  2  0  0  0
 76 77  1  0  0  0
 76 78  1  0  0  0
 76146  1  0  0  0
 76147  1  0  0  0
 77 78  1  0  0  0
 77148  1  0  0  0
 77149  1  0  0  0
 78150  1  0  0  0
 79151  1  0  0  0
 79152  1  0  0  0
 79153  1  0  0  0
 80154  1  0  0  0
 80155  1  0  0  0
 80156  1  0  0  0
 81 84  1  0  0  0
 81157  1  0  0  0
 81158  1  0  0  0
 82 83  1  0  0  0
 82159  1  0  0  0
 82160  1  0  0  0
 83 86  1  0  0  0
 83161  1  0  0  0
 83162  1  0  0  0
 84163  1  0  0  0
 84164  1  0  0  0
 86165  1  0  0  0
M  ISO  4   1 100  68 101  84 101  86 100
M  END
> <chiral flag>
0

> <version>
0

> <s_m_source_file>
/data/baiqing/PycharmProjects/Reinvent-master-3.2/result/LINK_invent/BTK/process_docking_weight1_custom_sum_contain_oxygen_bond_distance_aromatic_linkinvent_7_9_3/rearranged_h_0174.sdf

> <i_m_source_file_index>
28

> <r_mmod_Potential_Energy-OPLS-2005>
608.06787109375

> <r_mmod_Stretch_Energy-OPLS-2005>
345.155120849609

> <r_mmod_Bend_Energy-OPLS-2005>
340.332153320312

> <r_mmod_Torsional_Energy-OPLS-2005>
312.339111328125

> <r_mmod_Improper_Torsional_Energy-OPLS-2005>
4.88838291168213

> <r_mmod_Van_der_Waal_Energy-OPLS-2005>
152.040664672852

> <r_mmod_Electrostatic_Energy-OPLS-2005>
-542.463928222656

> <r_mmod_Solvation_Energy-OPLS-2005>
-231.145553588867

> <b_mmod_Minimization_Converged-OPLS-2005>
0

> <r_mmod_RMS_Derivative-OPLS-2005>
2.20355606079102

$$$$
30
                    3D
 Structure written by MMmdl.
157166  0  0  1  0            999 V2000
  -30.5848  -14.9592   20.4193 C   0  0  0  0  0  0
  -30.4261  -12.6003   19.4971 C   0  0  0  0  0  0
  -29.5137  -12.5248   18.2535 C   0  0  0  0  0  0
  -28.0499  -12.3123   18.6780 C   0  0  0  0  0  0
  -27.6240  -13.2572   19.8328 C   0  0  2  0  0  0
  -28.6682  -13.3224   20.9672 C   0  0  0  0  0  0
  -25.2448  -13.8239   20.5740 C   0  0  0  0  0  0
  -24.1768  -13.0452   20.9236 C   0  0  0  0  0  0
  -24.6397  -11.6937   20.8757 C   0  0  0  0  0  0
  -23.9087  -10.4301   21.0412 C   0  0  0  0  0  0
  -24.3634   -9.4214   21.9189 C   0  0  0  0  0  0
  -23.6304   -8.2251   22.0755 C   0  0  0  0  0  0
  -22.4286   -8.0288   21.3547 C   0  0  0  0  0  0
  -21.9928   -9.0260   20.4648 C   0  0  0  0  0  0
  -22.7259  -10.2140   20.3058 C   0  0  0  0  0  0
  -21.6857   -6.0744   22.5283 C   0  0  0  0  0  0
  -21.4013   -6.5644   23.8214 C   0  0  0  0  0  0
  -21.3655   -5.6794   24.9175 C   0  0  0  0  0  0
  -21.6042   -4.3059   24.7220 C   0  0  0  0  0  0
  -21.8818   -3.8153   23.4340 C   0  0  0  0  0  0
  -21.9193   -4.6973   22.3404 C   0  0  0  0  0  0
  -22.7786  -13.5214   21.1880 C   0  0  0  0  0  0
  -22.1664   -4.2162   21.0983 F   0  0  0  0  0  0
  -21.5624   -3.4542   25.7730 F   0  0  0  0  0  0
  -29.9355  -13.7256   20.3483 N   0  0  0  0  0  0
  -26.2872  -12.9488   20.3261 N   0  0  0  0  0  0
  -25.9334  -11.6607   20.5753 N   0  0  0  0  0  0
  -22.0441  -12.8197   22.0433 N   0  0  0  0  0  0
  -25.4132  -15.1963   20.4177 N   0  0  0  0  0  0
  -31.7954  -14.9428   20.1722 O   0  0  0  0  0  0
  -21.6645   -6.8886   21.4243 O   0  0  0  0  0  0
  -22.3471  -14.5521   20.6730 O   0  0  0  0  0  0
  -24.6467  -31.8434   23.1888 C   0  0  0  0  0  0
  -25.9232  -32.4693   23.8275 C   0  0  1  0  0  0
  -27.2042  -27.1043   20.1500 C   0  0  0  0  0  0
  -25.5976  -33.8498   24.2186 N   0  0  0  0  0  0
  -23.4511  -30.4654   21.5355 C   0  0  2  0  0  0
  -24.8996  -28.8964   20.1087 C   0  0  0  0  0  0
  -22.7587  -29.4547   22.4849 C   0  0  0  0  0  0
  -18.0308  -28.1408   22.8473 C   0  0  0  0  0  0
  -24.1485  -36.7230   23.2641 C   0  0  0  0  0  0
  -26.0128  -30.7053   21.3966 C   0  0  0  0  0  0
  -26.0811  -29.3169   20.7328 C   0  0  0  0  0  0
  -27.2349  -28.4379   20.7378 C   0  0  0  0  0  0
  -25.9974  -26.8077   19.4735 C   0  0  0  0  0  0
  -24.8734  -27.6558   19.4626 C   0  0  0  0  0  0
  -23.6793  -29.8020   20.1534 C   0  0  0  0  0  0
  -25.4115  -36.3023   24.0320 C   0  0  1  0  0  0
  -20.5924  -28.3734   23.1224 C   0  0  2  0  0  0
  -20.6795  -26.9433   22.5400 C   0  0  0  0  0  0
  -19.5763  -26.6383   21.5217 C   0  0  0  0  0  0
  -18.1941  -26.7946   22.1621 C   0  0  0  0  0  0
  -19.1567  -28.8887   23.2840 C   0  0  0  0  0  0
  -18.9484  -30.1485   23.8865 C   0  0  0  0  0  0
  -17.6481  -30.6601   24.0565 C   0  0  0  0  0  0
  -25.9082  -34.9409   23.5059 C   0  0  0  0  0  0
  -16.5371  -29.9091   23.6358 C   0  0  0  0  0  0
  -16.7291  -28.6515   23.0366 C   0  0  0  0  0  0
  -26.4535  -31.6577   25.0731 C   0  0  0  0  0  0
  -25.3701  -31.3777   26.1412 C   0  0  0  0  0  0
  -27.0417  -30.2965   24.6351 C   0  0  0  0  0  0
  -27.6069  -32.4348   25.7499 C   0  0  0  0  0  0
  -27.5584  -37.1745   24.8447 C   0  0  0  0  0  0
  -21.4276  -29.3055   22.3596 N   0  0  0  0  0  0
  -26.4257  -37.3760   23.9446 N   0  0  0  0  0  0
  -24.7236  -31.0261   22.0946 N   0  0  0  0  0  0
  -23.4214  -28.8090   23.3007 O   0  0  0  0  0  0
  -28.2136  -26.0603   20.2383 O   0  0  0  0  0  0
  -26.5662  -34.8912   22.4636 O   0  0  0  0  0  0
  -23.5578  -32.1330   23.7083 O   0  0  0  0  0  0
  -29.6249  -20.9399   19.3707 C   0  0  0  0  0  0
  -28.2184  -22.2209   21.3585 C   0  0  0  0  0  0
  -29.2751  -20.0565   20.4538 C   0  0  0  0  0  0
  -29.2810  -22.3604   19.2678 C   0  0  0  0  0  0
  -28.5663  -20.8035   21.4636 C   0  0  0  0  0  0
  -28.5366  -23.0985   20.2621 C   0  0  0  0  0  0
  -29.0150  -17.1211   21.0978 C   0  0  0  0  0  0
  -30.3098  -17.4522   19.4993 C   0  0  0  0  0  0
  -29.7379  -18.4513   20.5805 C   0  0  0  0  0  0
  -29.6936  -23.0898   18.0024 C   0  0  0  0  0  0
  -28.1426  -20.0656   22.7200 C   0  0  0  0  0  0
  -27.7818  -24.5690   20.0228 C   0  0  0  0  0  0
  -29.8998  -16.2102   20.2695 N   0  0  0  0  0  0
  -31.4620  -12.7348   19.1833 H   0  0  0  0  0  0
  -30.4052  -11.6601   20.0506 H   0  0  0  0  0  0
  -29.8342  -11.7166   17.5947 H   0  0  0  0  0  0
  -29.6001  -13.4461   17.6751 H   0  0  0  0  0  0
  -27.9514  -11.2741   18.9980 H   0  0  0  0  0  0
  -27.3829  -12.4306   17.8230 H   0  0  0  0  0  0
  -27.5767  -14.2531   19.3899 H   0  0  0  0  0  0
  -28.7613  -12.3635   21.4785 H   0  0  0  0  0  0
  -28.3682  -14.0535   21.7201 H   0  0  0  0  0  0
  -25.2777   -9.5691   22.4768 H   0  0  0  0  0  0
  -24.0009   -7.4645   22.7480 H   0  0  0  0  0  0
  -21.0859   -8.8785   19.8952 H   0  0  0  0  0  0
  -22.3721  -10.9681   19.6166 H   0  0  0  0  0  0
  -21.2007   -7.6150   23.9722 H   0  0  0  0  0  0
  -21.1472   -6.0523   25.9076 H   0  0  0  0  0  0
  -22.0598   -2.7616   23.2839 H   0  0  0  0  0  0
  -22.4065  -11.9854   22.4807 H   0  0  0  0  0  0
  -21.1055  -13.1211   22.2645 H   0  0  0  0  0  0
  -24.6480  -15.8516   20.5321 H   0  0  0  0  0  0
  -26.2667  -15.6327   20.0940 H   0  0  0  0  0  0
  -26.7293  -32.5283   23.0996 H   0  0  0  0  0  0
  -25.0134  -33.9619   25.0342 H   0  0  0  0  0  0
  -22.7553  -31.2934   21.3828 H   0  0  0  0  0  0
  -23.3797  -35.9508   23.3221 H   0  0  0  0  0  0
  -24.3597  -36.8943   22.2075 H   0  0  0  0  0  0
  -23.7165  -37.6367   23.6729 H   0  0  0  0  0  0
  -26.1794  -31.4612   20.6283 H   0  0  0  0  0  0
  -26.8796  -30.7490   22.0446 H   0  0  0  0  0  0
  -28.1291  -28.7525   21.2573 H   0  0  0  0  0  0
  -25.8628  -25.8687   18.9612 H   0  0  0  0  0  0
  -23.9740  -27.3302   18.9584 H   0  0  0  0  0  0
  -23.8208  -30.5806   19.4028 H   0  0  0  0  0  0
  -22.7928  -29.2492   19.8374 H   0  0  0  0  0  0
  -25.1291  -36.1834   25.0805 H   0  0  0  0  0  0
  -21.0015  -28.3328   24.1348 H   0  0  0  0  0  0
  -20.5710  -26.2345   23.3622 H   0  0  0  0  0  0
  -21.6658  -26.7451   22.1182 H   0  0  0  0  0  0
  -19.6929  -25.6289   21.1262 H   0  0  0  0  0  0
  -19.6707  -27.3186   20.6743 H   0  0  0  0  0  0
  -17.4216  -26.6705   21.4016 H   0  0  0  0  0  0
  -18.0334  -26.0093   22.9019 H   0  0  0  0  0  0
  -19.7963  -30.7317   24.2211 H   0  0  0  0  0  0
  -17.5035  -31.6282   24.5171 H   0  0  0  0  0  0
  -15.5371  -30.2983   23.7713 H   0  0  0  0  0  0
  -15.8687  -28.0828   22.7100 H   0  0  0  0  0  0
  -24.5886  -30.7129   25.7712 H   0  0  0  0  0  0
  -24.8890  -32.2969   26.4772 H   0  0  0  0  0  0
  -25.7962  -30.8977   27.0231 H   0  0  0  0  0  0
  -26.3059  -29.6667   24.1343 H   0  0  0  0  0  0
  -27.3999  -29.7290   25.4949 H   0  0  0  0  0  0
  -27.8975  -30.4194   23.9712 H   0  0  0  0  0  0
  -27.2685  -33.3705   26.1961 H   0  0  0  0  0  0
  -28.3929  -32.6815   25.0349 H   0  0  0  0  0  0
  -28.0677  -31.8544   26.5498 H   0  0  0  0  0  0
  -28.2504  -38.0142   24.7654 H   0  0  0  0  0  0
  -28.1180  -36.2685   24.6067 H   0  0  0  0  0  0
  -27.2334  -37.1131   25.8850 H   0  0  0  0  0  0
  -20.9499  -29.8755   21.6757 H   0  0  0  0  0  0
  -26.0112  -38.2794   24.1574 H   0  0  0  0  0  0
  -30.1857  -20.5023   18.5560 H   0  0  0  0  0  0
  -27.6227  -22.6474   22.1537 H   0  0  0  0  0  0
  -27.9682  -17.0733   20.7950 H   0  0  0  0  0  0
  -29.0968  -16.9790   22.1762 H   0  0  0  0  0  0
  -31.3843  -17.5636   19.3441 H   0  0  0  0  0  0
  -29.7908  -17.5381   18.5437 H   0  0  0  0  0  0
  -30.5666  -18.5747   21.2798 H   0  0  0  0  0  0
  -30.5194  -22.5833   17.5023 H   0  0  0  0  0  0
  -30.0199  -24.1059   18.2279 H   0  0  0  0  0  0
  -28.8575  -23.1451   17.3047 H   0  0  0  0  0  0
  -27.7127  -20.7399   23.4611 H   0  0  0  0  0  0
  -28.9985  -19.5724   23.1819 H   0  0  0  0  0  0
  -27.3970  -19.3061   22.4835 H   0  0  0  0  0  0
  -26.8553  -24.4623   20.5895 H   0  0  0  0  0  0
  -27.4813  -24.5098   18.9774 H   0  0  0  0  0  0
  1 25  1  0  0  0
  1 30  2  0  0  0
  1 83  1  0  0  0
  2  3  1  0  0  0
  2 25  1  0  0  0
  2 84  1  0  0  0
  2 85  1  0  0  0
  3  4  1  0  0  0
  3 86  1  0  0  0
  3 87  1  0  0  0
  4  5  1  0  0  0
  4 88  1  0  0  0
  4 89  1  0  0  0
  5  6  1  0  0  0
  5 26  1  0  0  0
  5 90  1  0  0  0
  6 25  1  0  0  0
  6 91  1  0  0  0
  6 92  1  0  0  0
  7  8  2  0  0  0
  7 26  1  0  0  0
  7 29  1  0  0  0
  8  9  1  0  0  0
  8 22  1  0  0  0
  9 10  1  0  0  0
  9 27  2  0  0  0
 10 11  2  0  0  0
 10 15  1  0  0  0
 11 12  1  0  0  0
 11 93  1  0  0  0
 12 13  2  0  0  0
 12 94  1  0  0  0
 13 14  1  0  0  0
 13 31  1  0  0  0
 14 15  2  0  0  0
 14 95  1  0  0  0
 15 96  1  0  0  0
 16 17  2  0  0  0
 16 21  1  0  0  0
 16 31  1  0  0  0
 17 18  1  0  0  0
 17 97  1  0  0  0
 18 19  2  0  0  0
 18 98  1  0  0  0
 19 20  1  0  0  0
 19 24  1  0  0  0
 20 21  2  0  0  0
 20 99  1  0  0  0
 21 23  1  0  0  0
 22 28  1  0  0  0
 22 32  2  0  0  0
 26 27  1  0  0  0
 28100  1  0  0  0
 28101  1  0  0  0
 29102  1  0  0  0
 29103  1  0  0  0
 33 34  1  0  0  0
 33 66  1  0  0  0
 33 70  2  0  0  0
 34 36  1  0  0  0
 34 59  1  0  0  0
 34104  1  0  0  0
 35 44  2  0  0  0
 35 45  1  0  0  0
 35 68  1  0  0  0
 36 56  1  0  0  0
 36105  1  0  0  0
 37 39  1  0  0  0
 37 47  1  0  0  0
 37 66  1  0  0  0
 37106  1  0  0  0
 38 43  2  0  0  0
 38 46  1  0  0  0
 38 47  1  0  0  0
 39 64  1  0  0  0
 39 67  2  0  0  0
 40 52  1  0  0  0
 40 53  2  0  0  0
 40 58  1  0  0  0
 41107  1  0  0  0
 41108  1  0  0  0
 41109  1  0  0  0
 41 48  1  0  0  0
 42 43  1  0  0  0
 42 66  1  0  0  0
 42110  1  0  0  0
 42111  1  0  0  0
 43 44  1  0  0  0
 44112  1  0  0  0
 45 46  2  0  0  0
 45113  1  0  0  0
 46114  1  0  0  0
 47115  1  0  0  0
 47116  1  0  0  0
 48 56  1  0  0  0
 48 65  1  0  0  0
 48117  1  0  0  0
 49 50  1  0  0  0
 49 53  1  0  0  0
 49 64  1  0  0  0
 49118  1  0  0  0
 50 51  1  0  0  0
 50119  1  0  0  0
 50120  1  0  0  0
 51 52  1  0  0  0
 51121  1  0  0  0
 51122  1  0  0  0
 52123  1  0  0  0
 52124  1  0  0  0
 53 54  1  0  0  0
 54 55  2  0  0  0
 54125  1  0  0  0
 55 57  1  0  0  0
 55126  1  0  0  0
 56 69  2  0  0  0
 57 58  2  0  0  0
 57127  1  0  0  0
 58128  1  0  0  0
 59 60  1  0  0  0
 59 61  1  0  0  0
 59 62  1  0  0  0
 60129  1  0  0  0
 60130  1  0  0  0
 60131  1  0  0  0
 61132  1  0  0  0
 61133  1  0  0  0
 61134  1  0  0  0
 62135  1  0  0  0
 62136  1  0  0  0
 62137  1  0  0  0
 63 65  1  0  0  0
 63138  1  0  0  0
 63139  1  0  0  0
 63140  1  0  0  0
 64141  1  0  0  0
 65142  1  0  0  0
 68 82  1  0  0  0
 71 73  2  0  0  0
 71 74  1  0  0  0
 71143  1  0  0  0
 72 75  2  0  0  0
 72 76  1  0  0  0
 72144  1  0  0  0
 73 75  1  0  0  0
 73 79  1  0  0  0
 74 76  2  0  0  0
 74 80  1  0  0  0
 75 81  1  0  0  0
 76 82  1  0  0  0
 77 79  1  0  0  0
 77 83  1  0  0  0
 77145  1  0  0  0
 77146  1  0  0  0
 78 79  1  0  0  0
 78 83  1  0  0  0
 78147  1  0  0  0
 78148  1  0  0  0
 79149  1  0  0  0
 80150  1  0  0  0
 80151  1  0  0  0
 80152  1  0  0  0
 81153  1  0  0  0
 81154  1  0  0  0
 81155  1  0  0  0
 82156  1  0  0  0
 82157  1  0  0  0
M  ISO  4   1 100  68 101  82 101  83 100
M  END
> <chiral flag>
0

> <version>
0

> <s_m_source_file>
/data/baiqing/PycharmProjects/Reinvent-master-3.2/result/LINK_invent/BTK/process_docking_weight1_custom_sum_contain_oxygen_bond_distance_aromatic_linkinvent_7_9_3/rearranged_h_0174.sdf

> <i_m_source_file_index>
29

> <r_mmod_Potential_Energy-OPLS-2005>
672.467041015625

> <r_mmod_Stretch_Energy-OPLS-2005>
243.294540405273

> <r_mmod_Bend_Energy-OPLS-2005>
302.085327148438

> <r_mmod_Torsional_Energy-OPLS-2005>
283.443237304688

> <r_mmod_Improper_Torsional_Energy-OPLS-2005>
22.2030467987061

> <r_mmod_Van_der_Waal_Energy-OPLS-2005>
132.02294921875

> <r_mmod_Electrostatic_Energy-OPLS-2005>
-324.981658935547

> <r_mmod_Solvation_Energy-OPLS-2005>
-203.046936035156

> <b_mmod_Minimization_Converged-OPLS-2005>
0

> <r_mmod_RMS_Derivative-OPLS-2005>
1.02247095108032

$$$$
31
                    3D
 Structure written by MMmdl.
166175  0  0  1  0            999 V2000
  -30.6612  -14.5618   20.4930 C   0  0  0  0  0  0
  -30.4264  -12.3420   19.4362 C   0  0  0  0  0  0
  -29.4987  -12.4930   18.2108 C   0  0  0  0  0  0
  -28.0192  -12.3506   18.6239 C   0  0  0  0  0  0
  -27.6523  -13.2123   19.8626 C   0  0  2  0  0  0
  -28.6992  -13.0542   20.9893 C   0  0  0  0  0  0
  -25.2566  -13.8160   20.5686 C   0  0  0  0  0  0
  -24.1829  -13.0434   20.9189 C   0  0  0  0  0  0
  -24.6392  -11.6902   20.8741 C   0  0  0  0  0  0
  -23.9064  -10.4286   21.0404 C   0  0  0  0  0  0
  -24.3618   -9.4200   21.9178 C   0  0  0  0  0  0
  -23.6299   -8.2233   22.0746 C   0  0  0  0  0  0
  -22.4277   -8.0272   21.3540 C   0  0  0  0  0  0
  -21.9914   -9.0243   20.4640 C   0  0  0  0  0  0
  -22.7243  -10.2124   20.3049 C   0  0  0  0  0  0
  -21.6850   -6.0729   22.5280 C   0  0  0  0  0  0
  -21.4007   -6.5634   23.8210 C   0  0  0  0  0  0
  -21.3660   -5.6790   24.9172 C   0  0  0  0  0  0
  -21.6050   -4.3052   24.7225 C   0  0  0  0  0  0
  -21.8818   -3.8144   23.4343 C   0  0  0  0  0  0
  -21.9191   -4.6957   22.3402 C   0  0  0  0  0  0
  -22.7855  -13.5230   21.1845 C   0  0  0  0  0  0
  -22.1663   -4.2143   21.0980 F   0  0  0  0  0  0
  -21.5638   -3.4541   25.7738 F   0  0  0  0  0  0
  -30.0168  -13.3613   20.4177 N   0  0  0  0  0  0
  -26.2986  -12.9338   20.3321 N   0  0  0  0  0  0
  -25.9317  -11.6496   20.5752 N   0  0  0  0  0  0
  -22.0495  -12.8221   22.0402 N   0  0  0  0  0  0
  -25.4303  -15.1881   20.4107 N   0  0  0  0  0  0
  -31.8406  -14.6892   20.1526 O   0  0  0  0  0  0
  -21.6640   -6.8876   21.4239 O   0  0  0  0  0  0
  -22.3547  -14.5534   20.6688 O   0  0  0  0  0  0
  -24.6195  -31.8641   23.2068 C   0  0  0  0  0  0
  -25.9072  -32.4807   23.8375 C   0  0  1  0  0  0
  -27.2334  -27.3818   20.0970 C   0  0  0  0  0  0
  -25.5915  -33.8603   24.2309 N   0  0  0  0  0  0
  -23.4100  -30.4876   21.5475 C   0  0  2  0  0  0
  -24.8564  -28.9489   20.1122 C   0  0  0  0  0  0
  -22.7434  -29.4639   22.4957 C   0  0  0  0  0  0
  -18.0276  -28.1375   22.8494 C   0  0  0  0  0  0
  -24.1488  -36.7301   23.2640 C   0  0  0  0  0  0
  -25.9449  -30.8129   21.3685 C   0  0  0  0  0  0
  -26.0197  -29.4440   20.7132 C   0  0  0  0  0  0
  -27.2067  -28.6665   20.7057 C   0  0  0  0  0  0
  -26.0379  -26.9071   19.5075 C   0  0  0  0  0  0
  -24.8627  -27.6818   19.5081 C   0  0  0  0  0  0
  -23.6220  -29.8222   20.1620 C   0  0  0  0  0  0
  -25.4111  -36.3101   24.0337 C   0  0  1  0  0  0
  -20.5872  -28.3664   23.1310 C   0  0  2  0  0  0
  -20.6764  -26.9393   22.5415 C   0  0  0  0  0  0
  -19.5744  -26.6379   21.5212 C   0  0  0  0  0  0
  -18.1922  -26.7923   22.1624 C   0  0  0  0  0  0
  -19.1527  -28.8835   23.2901 C   0  0  0  0  0  0
  -18.9452  -30.1441   23.8909 C   0  0  0  0  0  0
  -17.6455  -30.6584   24.0557 C   0  0  0  0  0  0
  -25.9041  -34.9466   23.5121 C   0  0  0  0  0  0
  -16.5345  -29.9082   23.6328 C   0  0  0  0  0  0
  -16.7265  -28.6495   23.0356 C   0  0  0  0  0  0
  -26.4484  -31.6606   25.0723 C   0  0  0  0  0  0
  -25.3733  -31.3722   26.1464 C   0  0  0  0  0  0
  -27.0314  -30.3044   24.6131 C   0  0  0  0  0  0
  -27.6066  -32.4316   25.7483 C   0  0  0  0  0  0
  -27.5584  -37.1804   24.8464 C   0  0  0  0  0  0
  -21.4151  -29.3029   22.3710 N   0  0  0  0  0  0
  -26.4293  -37.3793   23.9413 N   0  0  0  0  0  0
  -24.6766  -31.0704   22.0987 N   0  0  0  0  0  0
  -23.4190  -28.8175   23.3010 O   0  0  0  0  0  0
  -28.3930  -26.6136   20.1491 O   0  0  0  0  0  0
  -26.5597  -34.8922   22.4678 O   0  0  0  0  0  0
  -23.5378  -32.1409   23.7439 O   0  0  0  0  0  0
  -29.3960  -22.2753   21.2700 C   0  0  0  0  0  0
  -29.1723  -23.1462   18.6450 C   0  0  0  0  0  0
  -28.9929  -23.6180   21.0047 C   0  0  0  0  0  0
  -29.5917  -21.8164   18.9049 C   0  0  0  0  0  0
  -29.7467  -21.3566   20.2425 C   0  0  0  0  0  0
  -28.9095  -24.0889   19.6653 C   0  0  0  0  0  0
  -29.3286  -16.3935   21.6057 C   0  0  0  0  0  0
  -29.7461  -16.4653   19.2123 C   0  0  0  0  0  0
  -29.8801  -17.8564   21.7293 C   0  0  0  0  0  0
  -30.3861  -17.8684   19.3523 C   0  0  0  0  0  0
  -28.7061  -24.5348   22.1808 C   0  0  0  0  0  0
  -29.9152  -20.9437   17.7068 C   0  0  0  0  0  0
  -30.4869  -20.0283   20.6193 C   0  0  0  0  0  0
  -28.6208  -25.5475   19.1918 C   0  0  0  0  0  0
  -29.8415  -15.6555   20.4380 N   0  0  0  0  0  0
  -29.8199  -18.6759   20.4739 N   0  3  0  0  0  0
  -31.4712  -12.4443   19.1358 H   0  0  0  0  0  0
  -30.3348  -11.3438   19.8673 H   0  0  0  0  0  0
  -29.7484  -11.7453   17.4562 H   0  0  0  0  0  0
  -29.6578  -13.4648   17.7418 H   0  0  0  0  0  0
  -27.8383  -11.2977   18.8406 H   0  0  0  0  0  0
  -27.3681  -12.6008   17.7853 H   0  0  0  0  0  0
  -27.6711  -14.2490   19.5296 H   0  0  0  0  0  0
  -28.6908  -12.0370   21.3846 H   0  0  0  0  0  0
  -28.4652  -13.7082   21.8300 H   0  0  0  0  0  0
  -25.2765   -9.5679   22.4747 H   0  0  0  0  0  0
  -24.0011   -7.4626   22.7462 H   0  0  0  0  0  0
  -21.0844   -8.8762   19.8954 H   0  0  0  0  0  0
  -22.3704  -10.9655   19.6155 H   0  0  0  0  0  0
  -21.1988   -7.6144   23.9708 H   0  0  0  0  0  0
  -21.1494   -6.0522   25.9077 H   0  0  0  0  0  0
  -22.0600   -2.7607   23.2839 H   0  0  0  0  0  0
  -22.4121  -11.9884   22.4790 H   0  0  0  0  0  0
  -21.1106  -13.1237   22.2594 H   0  0  0  0  0  0
  -24.6631  -15.8435   20.5130 H   0  0  0  0  0  0
  -26.2821  -15.6220   20.0812 H   0  0  0  0  0  0
  -26.7136  -32.5499   23.1127 H   0  0  0  0  0  0
  -25.0072  -33.9764   25.0457 H   0  0  0  0  0  0
  -22.7006  -31.3060   21.4070 H   0  0  0  0  0  0
  -23.3767  -35.9618   23.3291 H   0  0  0  0  0  0
  -24.3588  -36.8925   22.2058 H   0  0  0  0  0  0
  -23.7217  -37.6491   23.6659 H   0  0  0  0  0  0
  -26.0664  -31.5772   20.5996 H   0  0  0  0  0  0
  -26.8297  -30.8635   21.9915 H   0  0  0  0  0  0
  -28.1021  -29.0442   21.1793 H   0  0  0  0  0  0
  -25.9720  -25.9208   19.0728 H   0  0  0  0  0  0
  -23.9629  -27.2882   19.0551 H   0  0  0  0  0  0
  -23.7359  -30.5973   19.4037 H   0  0  0  0  0  0
  -22.7447  -29.2459   19.8641 H   0  0  0  0  0  0
  -25.1289  -36.1960   25.0831 H   0  0  0  0  0  0
  -20.9968  -28.3219   24.1431 H   0  0  0  0  0  0
  -20.5662  -26.2259   23.3597 H   0  0  0  0  0  0
  -21.6628  -26.7427   22.1202 H   0  0  0  0  0  0
  -19.6895  -25.6292   21.1235 H   0  0  0  0  0  0
  -19.6692  -27.3191   20.6743 H   0  0  0  0  0  0
  -17.4189  -26.6674   21.4026 H   0  0  0  0  0  0
  -18.0324  -26.0063   22.9017 H   0  0  0  0  0  0
  -19.7927  -30.7250   24.2285 H   0  0  0  0  0  0
  -17.5012  -31.6271   24.5142 H   0  0  0  0  0  0
  -15.5343  -30.2984   23.7656 H   0  0  0  0  0  0
  -15.8664  -28.0818   22.7071 H   0  0  0  0  0  0
  -24.5895  -30.7096   25.7780 H   0  0  0  0  0  0
  -24.8941  -32.2877   26.4932 H   0  0  0  0  0  0
  -25.8066  -30.8854   27.0209 H   0  0  0  0  0  0
  -26.2862  -29.6800   24.1190 H   0  0  0  0  0  0
  -27.4075  -29.7295   25.4604 H   0  0  0  0  0  0
  -27.8704  -30.4355   23.9295 H   0  0  0  0  0  0
  -27.2717  -33.3629   26.2058 H   0  0  0  0  0  0
  -28.3880  -32.6847   25.0305 H   0  0  0  0  0  0
  -28.0730  -31.8430   26.5393 H   0  0  0  0  0  0
  -28.2595  -38.0110   24.7529 H   0  0  0  0  0  0
  -28.1084  -36.2639   24.6265 H   0  0  0  0  0  0
  -27.2301  -37.1417   25.8867 H   0  0  0  0  0  0
  -20.9307  -29.8766   21.6945 H   0  0  0  0  0  0
  -26.0181  -38.2868   24.1428 H   0  0  0  0  0  0
  -29.5092  -21.9653   22.3000 H   0  0  0  0  0  0
  -29.0992  -23.4796   17.6187 H   0  0  0  0  0  0
  -28.2404  -16.4221   21.5315 H   0  0  0  0  0  0
  -29.5491  -15.8451   22.5234 H   0  0  0  0  0  0
  -30.2089  -15.9455   18.3705 H   0  0  0  0  0  0
  -28.6929  -16.5652   18.9478 H   0  0  0  0  0  0
  -30.9207  -17.7982   22.0536 H   0  0  0  0  0  0
  -29.3456  -18.3776   22.5252 H   0  0  0  0  0  0
  -30.2740  -18.3911   18.4076 H   0  0  0  0  0  0
  -31.4600  -17.7475   19.5028 H   0  0  0  0  0  0
  -28.7813  -24.0063   23.1316 H   0  0  0  0  0  0
  -27.6996  -24.9478   22.1115 H   0  0  0  0  0  0
  -29.4195  -25.3581   22.2053 H   0  0  0  0  0  0
  -29.8781  -21.5143   16.7778 H   0  0  0  0  0  0
  -29.1788  -20.1461   17.6143 H   0  0  0  0  0  0
  -30.9168  -20.5205   17.7791 H   0  0  0  0  0  0
  -30.8003  -20.1420   21.6582 H   0  0  0  0  0  0
  -31.4346  -20.0234   20.0789 H   0  0  0  0  0  0
  -27.8915  -25.5204   18.3846 H   0  0  0  0  0  0
  -29.5331  -25.8547   18.6797 H   0  0  0  0  0  0
  -28.8463  -18.8542   20.2770 H   0  0  0  0  0  0
  1 25  1  0  0  0
  1 30  2  0  0  0
  1 85  1  0  0  0
  2  3  1  0  0  0
  2 25  1  0  0  0
  2 87  1  0  0  0
  2 88  1  0  0  0
  3  4  1  0  0  0
  3 89  1  0  0  0
  3 90  1  0  0  0
  4  5  1  0  0  0
  4 91  1  0  0  0
  4 92  1  0  0  0
  5  6  1  0  0  0
  5 26  1  0  0  0
  5 93  1  0  0  0
  6 25  1  0  0  0
  6 94  1  0  0  0
  6 95  1  0  0  0
  7  8  2  0  0  0
  7 26  1  0  0  0
  7 29  1  0  0  0
  8  9  1  0  0  0
  8 22  1  0  0  0
  9 10  1  0  0  0
  9 27  2  0  0  0
 10 11  2  0  0  0
 10 15  1  0  0  0
 11 12  1  0  0  0
 11 96  1  0  0  0
 12 13  2  0  0  0
 12 97  1  0  0  0
 13 14  1  0  0  0
 13 31  1  0  0  0
 14 15  2  0  0  0
 14 98  1  0  0  0
 15 99  1  0  0  0
 16 17  2  0  0  0
 16 21  1  0  0  0
 16 31  1  0  0  0
 17 18  1  0  0  0
 17100  1  0  0  0
 18 19  2  0  0  0
 18101  1  0  0  0
 19 20  1  0  0  0
 19 24  1  0  0  0
 20 21  2  0  0  0
 20102  1  0  0  0
 21 23  1  0  0  0
 22 28  1  0  0  0
 22 32  2  0  0  0
 26 27  1  0  0  0
 28103  1  0  0  0
 28104  1  0  0  0
 29105  1  0  0  0
 29106  1  0  0  0
 33 34  1  0  0  0
 33 66  1  0  0  0
 33 70  2  0  0  0
 34 36  1  0  0  0
 34 59  1  0  0  0
 34107  1  0  0  0
 35 44  2  0  0  0
 35 45  1  0  0  0
 35 68  1  0  0  0
 36 56  1  0  0  0
 36108  1  0  0  0
 37 39  1  0  0  0
 37 47  1  0  0  0
 37 66  1  0  0  0
 37109  1  0  0  0
 38 43  2  0  0  0
 38 46  1  0  0  0
 38 47  1  0  0  0
 39 64  1  0  0  0
 39 67  2  0  0  0
 40 52  1  0  0  0
 40 53  2  0  0  0
 40 58  1  0  0  0
 41110  1  0  0  0
 41111  1  0  0  0
 41112  1  0  0  0
 41 48  1  0  0  0
 42 43  1  0  0  0
 42 66  1  0  0  0
 42113  1  0  0  0
 42114  1  0  0  0
 43 44  1  0  0  0
 44115  1  0  0  0
 45 46  2  0  0  0
 45116  1  0  0  0
 46117  1  0  0  0
 47118  1  0  0  0
 47119  1  0  0  0
 48 56  1  0  0  0
 48 65  1  0  0  0
 48120  1  0  0  0
 49 50  1  0  0  0
 49 53  1  0  0  0
 49 64  1  0  0  0
 49121  1  0  0  0
 50 51  1  0  0  0
 50122  1  0  0  0
 50123  1  0  0  0
 51 52  1  0  0  0
 51124  1  0  0  0
 51125  1  0  0  0
 52126  1  0  0  0
 52127  1  0  0  0
 53 54  1  0  0  0
 54 55  2  0  0  0
 54128  1  0  0  0
 55 57  1  0  0  0
 55129  1  0  0  0
 56 69  2  0  0  0
 57 58  2  0  0  0
 57130  1  0  0  0
 58131  1  0  0  0
 59 60  1  0  0  0
 59 61  1  0  0  0
 59 62  1  0  0  0
 60132  1  0  0  0
 60133  1  0  0  0
 60134  1  0  0  0
 61135  1  0  0  0
 61136  1  0  0  0
 61137  1  0  0  0
 62138  1  0  0  0
 62139  1  0  0  0
 62140  1  0  0  0
 63 65  1  0  0  0
 63141  1  0  0  0
 63142  1  0  0  0
 63143  1  0  0  0
 64144  1  0  0  0
 65145  1  0  0  0
 68 84  1  0  0  0
 71 73  2  0  0  0
 71 75  1  0  0  0
 71146  1  0  0  0
 72 74  1  0  0  0
 72 76  2  0  0  0
 72147  1  0  0  0
 73 76  1  0  0  0
 73 81  1  0  0  0
 74 75  2  0  0  0
 74 82  1  0  0  0
 75 83  1  0  0  0
 76 84  1  0  0  0
 77 79  1  0  0  0
 77 85  1  0  0  0
 77148  1  0  0  0
 77149  1  0  0  0
 78 80  1  0  0  0
 78 85  1  0  0  0
 78150  1  0  0  0
 78151  1  0  0  0
 79 86  1  0  0  0
 79152  1  0  0  0
 79153  1  0  0  0
 80 86  1  0  0  0
 80154  1  0  0  0
 80155  1  0  0  0
 81156  1  0  0  0
 81157  1  0  0  0
 81158  1  0  0  0
 82159  1  0  0  0
 82160  1  0  0  0
 82161  1  0  0  0
 83162  1  0  0  0
 83163  1  0  0  0
 83 86  1  0  0  0
 84164  1  0  0  0
 84165  1  0  0  0
 86166  1  0  0  0
M  CHG  1  86   1
M  ISO  4   1 100  68 101  84 101  85 100
M  END
> <chiral flag>
0

> <version>
0

> <s_m_source_file>
/data/baiqing/PycharmProjects/Reinvent-master-3.2/result/LINK_invent/BTK/process_docking_weight1_custom_sum_contain_oxygen_bond_distance_aromatic_linkinvent_7_9_3/rearranged_h_0174.sdf

> <i_m_source_file_index>
30

> <r_mmod_Potential_Energy-OPLS-2005>
147.284240722656

> <r_mmod_Stretch_Energy-OPLS-2005>
59.0644683837891

> <r_mmod_Bend_Energy-OPLS-2005>
140.966506958008

> <r_mmod_Torsional_Energy-OPLS-2005>
400.108276367188

> <r_mmod_Improper_Torsional_Energy-OPLS-2005>
19.2751598358154

> <r_mmod_Van_der_Waal_Energy-OPLS-2005>
149.7265625

> <r_mmod_Electrostatic_Energy-OPLS-2005>
-222.525527954102

> <r_mmod_Solvation_Energy-OPLS-2005>
-427.458190917969

> <b_mmod_Minimization_Converged-OPLS-2005>
0

> <r_mmod_RMS_Derivative-OPLS-2005>
1.33283090591431

$$$$
32
                    3D
 Structure written by MMmdl.
152161  0  0  1  0            999 V2000
  -30.4339  -15.3264   20.3645 C   0  0  0  0  0  0
  -30.4305  -12.8513   19.5366 C   0  0  0  0  0  0
  -29.5358  -12.5871   18.2984 C   0  0  0  0  0  0
  -28.0887  -12.2983   18.7282 C   0  0  0  0  0  0
  -27.6069  -13.2831   19.8215 C   0  0  2  0  0  0
  -28.6360  -13.4944   20.9547 C   0  0  0  0  0  0
  -25.2368  -13.8261   20.5768 C   0  0  0  0  0  0
  -24.1728  -13.0437   20.9268 C   0  0  0  0  0  0
  -24.6397  -11.6939   20.8769 C   0  0  0  0  0  0
  -23.9101  -10.4292   21.0405 C   0  0  0  0  0  0
  -24.3642   -9.4202   21.9184 C   0  0  0  0  0  0
  -23.6305   -8.2242   22.0756 C   0  0  0  0  0  0
  -22.4284   -8.0288   21.3549 C   0  0  0  0  0  0
  -21.9930   -9.0263   20.4648 C   0  0  0  0  0  0
  -22.7271  -10.2134   20.3052 C   0  0  0  0  0  0
  -21.6858   -6.0743   22.5279 C   0  0  0  0  0  0
  -21.4019   -6.5649   23.8216 C   0  0  0  0  0  0
  -21.3652   -5.6796   24.9176 C   0  0  0  0  0  0
  -21.6036   -4.3060   24.7228 C   0  0  0  0  0  0
  -21.8817   -3.8155   23.4349 C   0  0  0  0  0  0
  -21.9195   -4.6970   22.3403 C   0  0  0  0  0  0
  -22.7743  -13.5181   21.1907 C   0  0  0  0  0  0
  -22.1662   -4.2157   21.0980 F   0  0  0  0  0  0
  -21.5619   -3.4542   25.7738 F   0  0  0  0  0  0
  -29.8614  -14.0151   20.3247 N   0  0  0  0  0  0
  -26.2797  -12.9554   20.3226 N   0  0  0  0  0  0
  -25.9337  -11.6653   20.5729 N   0  0  0  0  0  0
  -22.0411  -12.8159   22.0463 N   0  0  0  0  0  0
  -25.3985  -15.2001   20.4226 N   0  0  0  0  0  0
  -31.6508  -15.2887   20.1333 O   0  0  0  0  0  0
  -21.6642   -6.8888   21.4240 O   0  0  0  0  0  0
  -22.3421  -14.5483   20.6748 O   0  0  0  0  0  0
  -24.6654  -31.8178   23.1652 C   0  0  0  0  0  0
  -25.9309  -32.4564   23.8143 C   0  0  1  0  0  0
  -27.2215  -26.8836   20.1928 C   0  0  0  0  0  0
  -25.5968  -33.8379   24.2045 N   0  0  0  0  0  0
  -23.4845  -30.4275   21.5134 C   0  0  2  0  0  0
  -24.9403  -28.8070   20.1081 C   0  0  0  0  0  0
  -22.7690  -29.4409   22.4735 C   0  0  0  0  0  0
  -18.0329  -28.1416   22.8471 C   0  0  0  0  0  0
  -24.1483  -36.7186   23.2655 C   0  0  0  0  0  0
  -26.0553  -30.6096   21.4046 C   0  0  0  0  0  0
  -26.1224  -29.1953   20.7503 C   0  0  0  0  0  0
  -27.2535  -28.2543   20.7695 C   0  0  0  0  0  0
  -26.0137  -26.6615   19.4915 C   0  0  0  0  0  0
  -24.9142  -27.5615   19.4582 C   0  0  0  0  0  0
  -23.7278  -29.7392   20.1404 C   0  0  0  0  0  0
  -25.4127  -36.2952   24.0304 C   0  0  1  0  0  0
  -20.5962  -28.3755   23.1170 C   0  0  2  0  0  0
  -20.6801  -26.9429   22.5400 C   0  0  0  0  0  0
  -19.5770  -26.6374   21.5220 C   0  0  0  0  0  0
  -18.1950  -26.7953   22.1622 C   0  0  0  0  0  0
  -19.1598  -28.8909   23.2812 C   0  0  0  0  0  0
  -18.9509  -30.1501   23.8848 C   0  0  0  0  0  0
  -17.6500  -30.6603   24.0558 C   0  0  0  0  0  0
  -25.9097  -34.9340   23.4998 C   0  0  0  0  0  0
  -16.5392  -29.9095   23.6352 C   0  0  0  0  0  0
  -16.7313  -28.6513   23.0372 C   0  0  0  0  0  0
  -26.4554  -31.6534   25.0694 C   0  0  0  0  0  0
  -25.3664  -31.3796   26.1340 C   0  0  0  0  0  0
  -27.0476  -30.2900   24.6466 C   0  0  0  0  0  0
  -27.6034  -32.4370   25.7488 C   0  0  0  0  0  0
  -27.5557  -37.1754   24.8475 C   0  0  0  0  0  0
  -21.4352  -29.3042   22.3508 N   0  0  0  0  0  0
  -26.4264  -37.3699   23.9420 N   0  0  0  0  0  0
  -24.7565  -30.9802   22.0812 N   0  0  0  0  0  0
  -23.4213  -28.7986   23.3001 O   0  0  0  0  0  0
  -28.2038  -25.7497   20.3117 O   0  0  0  0  0  0
  -26.5718  -34.8889   22.4601 O   0  0  0  0  0  0
  -23.5713  -32.1171   23.6705 O   0  0  0  0  0  0
  -30.1076  -21.6417   22.3710 C   0  0  0  0  0  0
  -29.4303  -22.7330   21.7650 C   0  0  0  0  0  0
  -28.8267  -21.1575   20.0150 C   0  0  0  0  0  0
  -30.1661  -20.3329   21.8186 C   0  0  0  0  0  0
  -29.5032  -19.9086   20.6567 C   0  0  0  0  0  0
  -28.7604  -22.6358   20.5275 C   0  0  0  0  0  0
  -31.1486  -19.3084   22.3150 C   0  0  0  0  0  0
  -30.1101  -18.2757   20.2656 C   0  0  1  0  0  0
  -31.4130  -18.3581   21.1273 C   0  0  1  0  0  0
  -27.9934  -24.1288   19.9654 C   0  0  0  0  0  0
  -29.7150  -16.6425   20.4681 N   0  0  0  0  0  0
  -32.4818  -18.8592   20.3391 O   0  0  0  0  0  0
  -31.4492  -13.0506   19.2017 H   0  0  0  0  0  0
  -30.5021  -11.9578   20.1595 H   0  0  0  0  0  0
  -29.9275  -11.7524   17.7155 H   0  0  0  0  0  0
  -29.5552  -13.4586   17.6423 H   0  0  0  0  0  0
  -28.0573  -11.2796   19.1166 H   0  0  0  0  0  0
  -27.4197  -12.3174   17.8670 H   0  0  0  0  0  0
  -27.5108  -14.2395   19.3060 H   0  0  0  0  0  0
  -28.8180  -12.5734   21.5101 H   0  0  0  0  0  0
  -28.2611  -14.2235   21.6750 H   0  0  0  0  0  0
  -25.2783   -9.5677   22.4766 H   0  0  0  0  0  0
  -24.0008   -7.4637   22.7477 H   0  0  0  0  0  0
  -21.0857   -8.8789   19.8957 H   0  0  0  0  0  0
  -22.3730  -10.9676   19.6164 H   0  0  0  0  0  0
  -21.2015   -7.6160   23.9722 H   0  0  0  0  0  0
  -21.1467   -6.0529   25.9078 H   0  0  0  0  0  0
  -22.0599   -2.7616   23.2848 H   0  0  0  0  0  0
  -22.4057  -11.9826   22.4840 H   0  0  0  0  0  0
  -21.1024  -13.1152   22.2675 H   0  0  0  0  0  0
  -24.6261  -15.8475   20.5401 H   0  0  0  0  0  0
  -26.2406  -15.6463   20.0836 H   0  0  0  0  0  0
  -26.7372  -32.5089   23.0849 H   0  0  0  0  0  0
  -25.0087  -33.9456   25.0176 H   0  0  0  0  0  0
  -22.8019  -31.2612   21.3368 H   0  0  0  0  0  0
  -23.3764  -35.9499   23.3295 H   0  0  0  0  0  0
  -24.3551  -36.8847   22.2073 H   0  0  0  0  0  0
  -23.7221  -37.6359   23.6724 H   0  0  0  0  0  0
  -26.2442  -31.3479   20.6241 H   0  0  0  0  0  0
  -26.9129  -30.6650   22.0633 H   0  0  0  0  0  0
  -28.1410  -28.5473   21.3118 H   0  0  0  0  0  0
  -25.8800  -25.7117   18.9945 H   0  0  0  0  0  0
  -24.0177  -27.2591   18.9344 H   0  0  0  0  0  0
  -23.8871  -30.5060   19.3810 H   0  0  0  0  0  0
  -22.8384  -29.1941   19.8206 H   0  0  0  0  0  0
  -25.1329  -36.1737   25.0797 H   0  0  0  0  0  0
  -21.0064  -28.3363   24.1289 H   0  0  0  0  0  0
  -20.5672  -26.2381   23.3648 H   0  0  0  0  0  0
  -21.6660  -26.7391   22.1213 H   0  0  0  0  0  0
  -19.6922  -25.6273   21.1277 H   0  0  0  0  0  0
  -19.6709  -27.3163   20.6732 H   0  0  0  0  0  0
  -17.4226  -26.6712   21.4019 H   0  0  0  0  0  0
  -18.0328  -26.0110   22.9027 H   0  0  0  0  0  0
  -19.7989  -30.7330   24.2182 H   0  0  0  0  0  0
  -17.5058  -31.6280   24.5172 H   0  0  0  0  0  0
  -15.5391  -30.2982   23.7707 H   0  0  0  0  0  0
  -15.8712  -28.0813   22.7120 H   0  0  0  0  0  0
  -24.5867  -30.7126   25.7641 H   0  0  0  0  0  0
  -24.8834  -32.3005   26.4622 H   0  0  0  0  0  0
  -25.7884  -30.9056   27.0206 H   0  0  0  0  0  0
  -26.3166  -29.6550   24.1451 H   0  0  0  0  0  0
  -27.3982  -29.7293   25.5137 H   0  0  0  0  0  0
  -27.9109  -30.4092   23.9915 H   0  0  0  0  0  0
  -27.2591  -33.3731   26.1892 H   0  0  0  0  0  0
  -28.3920  -32.6825   25.0366 H   0  0  0  0  0  0
  -28.0610  -31.8609   26.5538 H   0  0  0  0  0  0
  -28.2574  -38.0049   24.7516 H   0  0  0  0  0  0
  -28.1053  -36.2582   24.6314 H   0  0  0  0  0  0
  -27.2279  -37.1405   25.8878 H   0  0  0  0  0  0
  -20.9606  -29.8738   21.6643 H   0  0  0  0  0  0
  -26.0105  -38.2752   24.1438 H   0  0  0  0  0  0
  -30.6636  -21.8421   23.2768 H   0  0  0  0  0  0
  -29.4589  -23.6945   22.2593 H   0  0  0  0  0  0
  -28.3692  -20.9871   19.0506 H   0  0  0  0  0  0
  -30.6857  -18.7636   23.1390 H   0  0  0  0  0  0
  -32.0611  -19.7683   22.6961 H   0  0  0  0  0  0
  -30.3641  -18.3312   19.2063 H   0  0  0  0  0  0
  -31.7627  -17.4078   21.5279 H   0  0  0  0  0  0
  -26.9377  -23.9495   20.1658 H   0  0  0  0  0  0
  -28.0724  -24.0762   18.8797 H   0  0  0  0  0  0
  -28.7291  -16.5133   20.6419 H   0  0  0  0  0  0
  -33.2729  -18.8175   20.8694 H   0  0  0  0  0  0
  1 25  1  0  0  0
  1 30  2  0  0  0
  1 81  1  0  0  0
  2  3  1  0  0  0
  2 25  1  0  0  0
  2 83  1  0  0  0
  2 84  1  0  0  0
  3  4  1  0  0  0
  3 85  1  0  0  0
  3 86  1  0  0  0
  4  5  1  0  0  0
  4 87  1  0  0  0
  4 88  1  0  0  0
  5  6  1  0  0  0
  5 26  1  0  0  0
  5 89  1  0  0  0
  6 25  1  0  0  0
  6 90  1  0  0  0
  6 91  1  0  0  0
  7  8  2  0  0  0
  7 26  1  0  0  0
  7 29  1  0  0  0
  8  9  1  0  0  0
  8 22  1  0  0  0
  9 10  1  0  0  0
  9 27  2  0  0  0
 10 11  2  0  0  0
 10 15  1  0  0  0
 11 12  1  0  0  0
 11 92  1  0  0  0
 12 13  2  0  0  0
 12 93  1  0  0  0
 13 14  1  0  0  0
 13 31  1  0  0  0
 14 15  2  0  0  0
 14 94  1  0  0  0
 15 95  1  0  0  0
 16 17  2  0  0  0
 16 21  1  0  0  0
 16 31  1  0  0  0
 17 18  1  0  0  0
 17 96  1  0  0  0
 18 19  2  0  0  0
 18 97  1  0  0  0
 19 20  1  0  0  0
 19 24  1  0  0  0
 20 21  2  0  0  0
 20 98  1  0  0  0
 21 23  1  0  0  0
 22 28  1  0  0  0
 22 32  2  0  0  0
 26 27  1  0  0  0
 28 99  1  0  0  0
 28100  1  0  0  0
 29101  1  0  0  0
 29102  1  0  0  0
 33 34  1  0  0  0
 33 66  1  0  0  0
 33 70  2  0  0  0
 34 36  1  0  0  0
 34 59  1  0  0  0
 34103  1  0  0  0
 35 44  2  0  0  0
 35 45  1  0  0  0
 35 68  1  0  0  0
 36 56  1  0  0  0
 36104  1  0  0  0
 37 39  1  0  0  0
 37 47  1  0  0  0
 37 66  1  0  0  0
 37105  1  0  0  0
 38 43  2  0  0  0
 38 46  1  0  0  0
 38 47  1  0  0  0
 39 64  1  0  0  0
 39 67  2  0  0  0
 40 52  1  0  0  0
 40 53  2  0  0  0
 40 58  1  0  0  0
 41106  1  0  0  0
 41107  1  0  0  0
 41108  1  0  0  0
 41 48  1  0  0  0
 42 43  1  0  0  0
 42 66  1  0  0  0
 42109  1  0  0  0
 42110  1  0  0  0
 43 44  1  0  0  0
 44111  1  0  0  0
 45 46  2  0  0  0
 45112  1  0  0  0
 46113  1  0  0  0
 47114  1  0  0  0
 47115  1  0  0  0
 48 56  1  0  0  0
 48 65  1  0  0  0
 48116  1  0  0  0
 49 50  1  0  0  0
 49 53  1  0  0  0
 49 64  1  0  0  0
 49117  1  0  0  0
 50 51  1  0  0  0
 50118  1  0  0  0
 50119  1  0  0  0
 51 52  1  0  0  0
 51120  1  0  0  0
 51121  1  0  0  0
 52122  1  0  0  0
 52123  1  0  0  0
 53 54  1  0  0  0
 54 55  2  0  0  0
 54124  1  0  0  0
 55 57  1  0  0  0
 55125  1  0  0  0
 56 69  2  0  0  0
 57 58  2  0  0  0
 57126  1  0  0  0
 58127  1  0  0  0
 59 60  1  0  0  0
 59 61  1  0  0  0
 59 62  1  0  0  0
 60128  1  0  0  0
 60129  1  0  0  0
 60130  1  0  0  0
 61131  1  0  0  0
 61132  1  0  0  0
 61133  1  0  0  0
 62134  1  0  0  0
 62135  1  0  0  0
 62136  1  0  0  0
 63 65  1  0  0  0
 63137  1  0  0  0
 63138  1  0  0  0
 63139  1  0  0  0
 64140  1  0  0  0
 65141  1  0  0  0
 68 80  1  0  0  0
 71 72  2  0  0  0
 71 74  1  0  0  0
 71142  1  0  0  0
 72 76  1  0  0  0
 72143  1  0  0  0
 73 75  1  0  0  0
 73 76  2  0  0  0
 73144  1  0  0  0
 74 75  2  0  0  0
 74 77  1  0  0  0
 75 78  1  0  0  0
 76 80  1  0  0  0
 77 79  1  0  0  0
 77145  1  0  0  0
 77146  1  0  0  0
 78 79  1  0  0  0
 78 81  1  0  0  0
 78147  1  0  0  0
 79 82  1  0  0  0
 79148  1  0  0  0
 80149  1  0  0  0
 80150  1  0  0  0
 81151  1  0  0  0
 82152  1  0  0  0
M  ISO  4   1 100  68 101  80 101  81 100
M  END
> <chiral flag>
0

> <version>
0

> <s_m_source_file>
/data/baiqing/PycharmProjects/Reinvent-master-3.2/result/LINK_invent/BTK/process_docking_weight1_custom_sum_contain_oxygen_bond_distance_aromatic_linkinvent_7_9_3/rearranged_h_0174.sdf

> <i_m_source_file_index>
31

> <r_mmod_Potential_Energy-OPLS-2005>
1403.87524414062

> <r_mmod_Stretch_Energy-OPLS-2005>
656.06787109375

> <r_mmod_Bend_Energy-OPLS-2005>
517.80615234375

> <r_mmod_Torsional_Energy-OPLS-2005>
217.533233642578

> <r_mmod_Improper_Torsional_Energy-OPLS-2005>
9.99419021606445

> <r_mmod_Van_der_Waal_Energy-OPLS-2005>
127.844291687012

> <r_mmod_Electrostatic_Energy-OPLS-2005>
-418.447204589844

> <r_mmod_Solvation_Energy-OPLS-2005>
-233.946746826172

> <b_mmod_Minimization_Converged-OPLS-2005>
0

> <r_mmod_RMS_Derivative-OPLS-2005>
1.25294208526611

$$$$
33
                    3D
 Structure written by MMmdl.
167177  0  0  1  0            999 V2000
  -30.7041  -14.5469   20.5232 C   0  0  0  0  0  0
  -30.4178  -12.3431   19.4419 C   0  0  0  0  0  0
  -29.5000  -12.5072   18.2133 C   0  0  0  0  0  0
  -28.0213  -12.3592   18.6237 C   0  0  0  0  0  0
  -27.6541  -13.2216   19.8637 C   0  0  2  0  0  0
  -28.6987  -13.0677   20.9926 C   0  0  0  0  0  0
  -25.2556  -13.8186   20.5700 C   0  0  0  0  0  0
  -24.1823  -13.0448   20.9197 C   0  0  0  0  0  0
  -24.6391  -11.6924   20.8732 C   0  0  0  0  0  0
  -23.9057  -10.4298   21.0384 C   0  0  0  0  0  0
  -24.3607   -9.4220   21.9171 C   0  0  0  0  0  0
  -23.6297   -8.2251   22.0740 C   0  0  0  0  0  0
  -22.4276   -8.0281   21.3545 C   0  0  0  0  0  0
  -21.9904   -9.0238   20.4640 C   0  0  0  0  0  0
  -22.7222  -10.2124   20.3044 C   0  0  0  0  0  0
  -21.6856   -6.0725   22.5279 C   0  0  0  0  0  0
  -21.4008   -6.5634   23.8208 C   0  0  0  0  0  0
  -21.3668   -5.6784   24.9173 C   0  0  0  0  0  0
  -21.6046   -4.3047   24.7223 C   0  0  0  0  0  0
  -21.8823   -3.8131   23.4346 C   0  0  0  0  0  0
  -21.9199   -4.6949   22.3404 C   0  0  0  0  0  0
  -22.7846  -13.5239   21.1861 C   0  0  0  0  0  0
  -22.1667   -4.2132   21.0982 F   0  0  0  0  0  0
  -21.5642   -3.4529   25.7733 F   0  0  0  0  0  0
  -30.0223  -13.3670   20.4259 N   0  0  0  0  0  0
  -26.2995  -12.9371   20.3327 N   0  0  0  0  0  0
  -25.9327  -11.6524   20.5740 N   0  0  0  0  0  0
  -22.0474  -12.8236   22.0407 N   0  0  0  0  0  0
  -25.4283  -15.1899   20.4112 N   0  0  0  0  0  0
  -31.8598  -14.6653   20.1072 O   0  0  0  0  0  0
  -21.6655   -6.8869   21.4237 O   0  0  0  0  0  0
  -22.3537  -14.5555   20.6716 O   0  0  0  0  0  0
  -24.6237  -31.8638   23.2099 C   0  0  0  0  0  0
  -25.9101  -32.4795   23.8394 C   0  0  1  0  0  0
  -27.2182  -27.3590   20.0943 C   0  0  0  0  0  0
  -25.5940  -33.8590   24.2308 N   0  0  0  0  0  0
  -23.4128  -30.4926   21.5524 C   0  0  2  0  0  0
  -24.8560  -28.9632   20.1112 C   0  0  0  0  0  0
  -22.7453  -29.4656   22.4976 C   0  0  0  0  0  0
  -18.0273  -28.1387   22.8492 C   0  0  0  0  0  0
  -24.1491  -36.7297   23.2639 C   0  0  0  0  0  0
  -25.9537  -30.8054   21.3762 C   0  0  0  0  0  0
  -26.0269  -29.4383   20.7149 C   0  0  0  0  0  0
  -27.2114  -28.6480   20.7016 C   0  0  0  0  0  0
  -26.0187  -26.9385   19.4621 C   0  0  0  0  0  0
  -24.8530  -27.7167   19.4767 C   0  0  0  0  0  0
  -23.6214  -29.8356   20.1659 C   0  0  0  0  0  0
  -25.4117  -36.3087   24.0333 C   0  0  1  0  0  0
  -20.5870  -28.3684   23.1299 C   0  0  2  0  0  0
  -20.6764  -26.9414   22.5421 C   0  0  0  0  0  0
  -19.5747  -26.6381   21.5221 C   0  0  0  0  0  0
  -18.1917  -26.7944   22.1610 C   0  0  0  0  0  0
  -19.1521  -28.8851   23.2890 C   0  0  0  0  0  0
  -18.9443  -30.1459   23.8900 C   0  0  0  0  0  0
  -17.6443  -30.6596   24.0561 C   0  0  0  0  0  0
  -25.9057  -34.9460   23.5117 C   0  0  0  0  0  0
  -16.5332  -29.9088   23.6343 C   0  0  0  0  0  0
  -16.7260  -28.6506   23.0368 C   0  0  0  0  0  0
  -26.4503  -31.6592   25.0748 C   0  0  0  0  0  0
  -25.3743  -31.3733   26.1478 C   0  0  0  0  0  0
  -27.0314  -30.3009   24.6189 C   0  0  0  0  0  0
  -27.6080  -32.4316   25.7503 C   0  0  0  0  0  0
  -27.5585  -37.1799   24.8454 C   0  0  0  0  0  0
  -21.4171  -29.3037   22.3702 N   0  0  0  0  0  0
  -26.4289  -37.3785   23.9419 N   0  0  0  0  0  0
  -24.6815  -31.0706   22.1017 N   0  0  0  0  0  0
  -23.4210  -28.8177   23.3012 O   0  0  0  0  0  0
  -28.3368  -26.5142   20.1408 O   0  0  0  0  0  0
  -26.5609  -34.8922   22.4671 O   0  0  0  0  0  0
  -23.5417  -32.1402   23.7473 O   0  0  0  0  0  0
  -30.4885  -24.2305   19.9497 C   0  0  0  0  0  0
  -28.7185  -22.6619   20.4271 C   0  0  0  0  0  0
  -29.1151  -24.0010   20.1553 C   0  0  0  0  0  0
  -31.4086  -23.1578   20.0037 C   0  0  0  0  0  0
  -29.6784  -21.6241   20.4720 C   0  0  0  0  0  0
  -29.8536  -18.0435   21.8835 C   0  0  0  0  0  0
  -30.1085  -17.9846   19.8170 C   0  0  0  0  0  0
  -33.4409  -24.5330   20.2273 C   0  0  0  0  0  0
  -33.7503  -22.4047   20.2953 C   0  0  0  0  0  0
  -30.2324  -19.1404   20.8481 C   0  0  1  0  0  0
  -30.5654  -17.0285   20.9539 C   0  0  2  0  0  0
  -34.6185  -23.6285   20.6282 C   0  0  0  0  0  0
  -28.0440  -25.0928   19.9225 C   0  0  0  0  0  0
  -30.9839  -21.8936   20.2602 N   0  0  0  0  0  0
  -32.7907  -23.3359   19.7132 N   0  0  0  0  0  0
  -29.2911  -20.2786   20.7107 N   0  0  0  0  0  0
  -30.0138  -15.6428   20.9302 N   0  0  0  0  0  0
  -34.9682  -23.7221   22.0615 N   0  3  0  0  0  0
  -31.4659  -12.4247   19.1479 H   0  0  0  0  0  0
  -30.3102  -11.3458   19.8715 H   0  0  0  0  0  0
  -29.7561  -11.7697   17.4526 H   0  0  0  0  0  0
  -29.6587  -13.4844   17.7558 H   0  0  0  0  0  0
  -27.8425  -11.3053   18.8380 H   0  0  0  0  0  0
  -27.3689  -12.6092   17.7844 H   0  0  0  0  0  0
  -27.6777  -14.2603   19.5339 H   0  0  0  0  0  0
  -28.6855  -12.0520   21.3910 H   0  0  0  0  0  0
  -28.4612  -13.7203   21.8341 H   0  0  0  0  0  0
  -25.2749   -9.5718   22.4741 H   0  0  0  0  0  0
  -24.0019   -7.4647   22.7451 H   0  0  0  0  0  0
  -21.0841   -8.8739   19.8945 H   0  0  0  0  0  0
  -22.3666  -10.9654   19.6141 H   0  0  0  0  0  0
  -21.1974   -7.6147   23.9707 H   0  0  0  0  0  0
  -21.1502   -6.0515   25.9080 H   0  0  0  0  0  0
  -22.0591   -2.7587   23.2843 H   0  0  0  0  0  0
  -22.4084  -11.9896   22.4803 H   0  0  0  0  0  0
  -21.1092  -13.1247   22.2571 H   0  0  0  0  0  0
  -24.6614  -15.8460   20.5125 H   0  0  0  0  0  0
  -26.2828  -15.6268   20.0896 H   0  0  0  0  0  0
  -26.7167  -32.5470   23.1138 H   0  0  0  0  0  0
  -25.0131  -33.9749   25.0482 H   0  0  0  0  0  0
  -22.7050  -31.3131   21.4176 H   0  0  0  0  0  0
  -23.3761  -35.9618   23.3273 H   0  0  0  0  0  0
  -24.3596  -36.8940   22.2059 H   0  0  0  0  0  0
  -23.7225  -37.6487   23.6670 H   0  0  0  0  0  0
  -26.0860  -31.5705   20.6099 H   0  0  0  0  0  0
  -26.8346  -30.8481   22.0048 H   0  0  0  0  0  0
  -28.1071  -29.0102   21.1873 H   0  0  0  0  0  0
  -25.9313  -25.9953   18.9456 H   0  0  0  0  0  0
  -23.9593  -27.3508   18.9913 H   0  0  0  0  0  0
  -23.7290  -30.6129   19.4083 H   0  0  0  0  0  0
  -22.7426  -29.2587   19.8694 H   0  0  0  0  0  0
  -25.1296  -36.1933   25.0823 H   0  0  0  0  0  0
  -20.9958  -28.3232   24.1416 H   0  0  0  0  0  0
  -20.5663  -26.2290   23.3610 H   0  0  0  0  0  0
  -21.6630  -26.7454   22.1200 H   0  0  0  0  0  0
  -19.6910  -25.6288   21.1255 H   0  0  0  0  0  0
  -19.6709  -27.3188   20.6754 H   0  0  0  0  0  0
  -17.4209  -26.6719   21.3983 H   0  0  0  0  0  0
  -18.0287  -26.0065   22.8974 H   0  0  0  0  0  0
  -19.7917  -30.7278   24.2252 H   0  0  0  0  0  0
  -17.5004  -31.6278   24.5143 H   0  0  0  0  0  0
  -15.5343  -30.2990   23.7684 H   0  0  0  0  0  0
  -15.8646  -28.0832   22.7095 H   0  0  0  0  0  0
  -24.5942  -30.7041   25.7821 H   0  0  0  0  0  0
  -24.8904  -32.2896   26.4875 H   0  0  0  0  0  0
  -25.8077  -30.8949   27.0270 H   0  0  0  0  0  0
  -26.2859  -29.6780   24.1227 H   0  0  0  0  0  0
  -27.4003  -29.7257   25.4694 H   0  0  0  0  0  0
  -27.8752  -30.4276   23.9399 H   0  0  0  0  0  0
  -27.2708  -33.3640   26.2053 H   0  0  0  0  0  0
  -28.3903  -32.6833   25.0319 H   0  0  0  0  0  0
  -28.0728  -31.8444   26.5436 H   0  0  0  0  0  0
  -28.2578  -38.0123   24.7536 H   0  0  0  0  0  0
  -28.1098  -36.2653   24.6217 H   0  0  0  0  0  0
  -27.2321  -37.1360   25.8860 H   0  0  0  0  0  0
  -20.9336  -29.8776   21.6938 H   0  0  0  0  0  0
  -26.0162  -38.2853   24.1441 H   0  0  0  0  0  0
  -30.8197  -25.2279   19.6959 H   0  0  0  0  0  0
  -27.6691  -22.4359   20.5619 H   0  0  0  0  0  0
  -28.7791  -17.8734   21.9720 H   0  0  0  0  0  0
  -30.3186  -18.1678   22.8631 H   0  0  0  0  0  0
  -30.7990  -18.0521   18.9749 H   0  0  0  0  0  0
  -29.0865  -17.8022   19.4780 H   0  0  0  0  0  0
  -33.6815  -25.2594   19.4492 H   0  0  0  0  0  0
  -32.9152  -24.9878   21.0694 H   0  0  0  0  0  0
  -33.3806  -21.8705   21.1732 H   0  0  0  0  0  0
  -34.1931  -21.7287   19.5620 H   0  0  0  0  0  0
  -31.2692  -19.4615   20.9728 H   0  0  0  0  0  0
  -31.6488  -17.0634   21.0997 H   0  0  0  0  0  0
  -35.4816  -23.7284   19.9672 H   0  0  0  0  0  0
  -27.1797  -24.8112   20.5288 H   0  0  0  0  0  0
  -27.7648  -24.9593   18.8764 H   0  0  0  0  0  0
  -28.3077  -20.0987   20.8806 H   0  0  0  0  0  0
  -29.0566  -15.5039   21.2183 H   0  0  0  0  0  0
  -34.1551  -23.6717   22.6479 H   0  0  0  0  0  0
  -35.4395  -24.5875   22.2531 H   0  0  0  0  0  0
  -35.5905  -22.9782   22.3223 H   0  0  0  0  0  0
  1 25  1  0  0  0
  1 30  2  0  0  0
  1 87  1  0  0  0
  2  3  1  0  0  0
  2 25  1  0  0  0
  2 89  1  0  0  0
  2 90  1  0  0  0
  3  4  1  0  0  0
  3 91  1  0  0  0
  3 92  1  0  0  0
  4  5  1  0  0  0
  4 93  1  0  0  0
  4 94  1  0  0  0
  5  6  1  0  0  0
  5 26  1  0  0  0
  5 95  1  0  0  0
  6 25  1  0  0  0
  6 96  1  0  0  0
  6 97  1  0  0  0
  7  8  2  0  0  0
  7 26  1  0  0  0
  7 29  1  0  0  0
  8  9  1  0  0  0
  8 22  1  0  0  0
  9 10  1  0  0  0
  9 27  2  0  0  0
 10 11  2  0  0  0
 10 15  1  0  0  0
 11 12  1  0  0  0
 11 98  1  0  0  0
 12 13  2  0  0  0
 12 99  1  0  0  0
 13 14  1  0  0  0
 13 31  1  0  0  0
 14 15  2  0  0  0
 14100  1  0  0  0
 15101  1  0  0  0
 16 17  2  0  0  0
 16 21  1  0  0  0
 16 31  1  0  0  0
 17 18  1  0  0  0
 17102  1  0  0  0
 18 19  2  0  0  0
 18103  1  0  0  0
 19 20  1  0  0  0
 19 24  1  0  0  0
 20 21  2  0  0  0
 20104  1  0  0  0
 21 23  1  0  0  0
 22 28  1  0  0  0
 22 32  2  0  0  0
 26 27  1  0  0  0
 28105  1  0  0  0
 28106  1  0  0  0
 29107  1  0  0  0
 29108  1  0  0  0
 33 34  1  0  0  0
 33 66  1  0  0  0
 33 70  2  0  0  0
 34 36  1  0  0  0
 34 59  1  0  0  0
 34109  1  0  0  0
 35 44  2  0  0  0
 35 45  1  0  0  0
 35 68  1  0  0  0
 36 56  1  0  0  0
 36110  1  0  0  0
 37 39  1  0  0  0
 37 47  1  0  0  0
 37 66  1  0  0  0
 37111  1  0  0  0
 38 43  2  0  0  0
 38 46  1  0  0  0
 38 47  1  0  0  0
 39 64  1  0  0  0
 39 67  2  0  0  0
 40 52  1  0  0  0
 40 53  2  0  0  0
 40 58  1  0  0  0
 41112  1  0  0  0
 41113  1  0  0  0
 41114  1  0  0  0
 41 48  1  0  0  0
 42 43  1  0  0  0
 42 66  1  0  0  0
 42115  1  0  0  0
 42116  1  0  0  0
 43 44  1  0  0  0
 44117  1  0  0  0
 45 46  2  0  0  0
 45118  1  0  0  0
 46119  1  0  0  0
 47120  1  0  0  0
 47121  1  0  0  0
 48 56  1  0  0  0
 48 65  1  0  0  0
 48122  1  0  0  0
 49 50  1  0  0  0
 49 53  1  0  0  0
 49 64  1  0  0  0
 49123  1  0  0  0
 50 51  1  0  0  0
 50124  1  0  0  0
 50125  1  0  0  0
 51 52  1  0  0  0
 51126  1  0  0  0
 51127  1  0  0  0
 52128  1  0  0  0
 52129  1  0  0  0
 53 54  1  0  0  0
 54 55  2  0  0  0
 54130  1  0  0  0
 55 57  1  0  0  0
 55131  1  0  0  0
 56 69  2  0  0  0
 57 58  2  0  0  0
 57132  1  0  0  0
 58133  1  0  0  0
 59 60  1  0  0  0
 59 61  1  0  0  0
 59 62  1  0  0  0
 60134  1  0  0  0
 60135  1  0  0  0
 60136  1  0  0  0
 61137  1  0  0  0
 61138  1  0  0  0
 61139  1  0  0  0
 62140  1  0  0  0
 62141  1  0  0  0
 62142  1  0  0  0
 63 65  1  0  0  0
 63143  1  0  0  0
 63144  1  0  0  0
 63145  1  0  0  0
 64146  1  0  0  0
 65147  1  0  0  0
 68 83  1  0  0  0
 71 73  2  0  0  0
 71 74  1  0  0  0
 71148  1  0  0  0
 72 73  1  0  0  0
 72 75  2  0  0  0
 72149  1  0  0  0
 73 83  1  0  0  0
 74 84  2  0  0  0
 74 85  1  0  0  0
 75 84  1  0  0  0
 75 86  1  0  0  0
 76 80  1  0  0  0
 76 81  1  0  0  0
 76150  1  0  0  0
 76151  1  0  0  0
 77 80  1  0  0  0
 77 81  1  0  0  0
 77152  1  0  0  0
 77153  1  0  0  0
 78 82  1  0  0  0
 78 85  1  0  0  0
 78154  1  0  0  0
 78155  1  0  0  0
 79 82  1  0  0  0
 79 85  1  0  0  0
 79156  1  0  0  0
 79157  1  0  0  0
 80 86  1  0  0  0
 80158  1  0  0  0
 81 87  1  0  0  0
 81159  1  0  0  0
 82 88  1  0  0  0
 82160  1  0  0  0
 83161  1  0  0  0
 83162  1  0  0  0
 86163  1  0  0  0
 87164  1  0  0  0
 88165  1  0  0  0
 88166  1  0  0  0
 88167  1  0  0  0
M  CHG  1  88   1
M  ISO  4   1 100  68 101  83 101  87 100
M  END
> <chiral flag>
0

> <version>
0

> <s_m_source_file>
/data/baiqing/PycharmProjects/Reinvent-master-3.2/result/LINK_invent/BTK/process_docking_weight1_custom_sum_contain_oxygen_bond_distance_aromatic_linkinvent_7_9_3/rearranged_h_0174.sdf

> <i_m_source_file_index>
32

> <r_mmod_Potential_Energy-OPLS-2005>
-509.311920166016

> <r_mmod_Stretch_Energy-OPLS-2005>
55.331356048584

> <r_mmod_Bend_Energy-OPLS-2005>
181.798385620117

> <r_mmod_Torsional_Energy-OPLS-2005>
242.832534790039

> <r_mmod_Improper_Torsional_Energy-OPLS-2005>
11.7131643295288

> <r_mmod_Van_der_Waal_Energy-OPLS-2005>
167.17561340332

> <r_mmod_Electrostatic_Energy-OPLS-2005>
-631.718994140625

> <r_mmod_Solvation_Energy-OPLS-2005>
-568.003479003906

> <b_mmod_Minimization_Converged-OPLS-2005>
0

> <r_mmod_RMS_Derivative-OPLS-2005>
2.29692697525024

$$$$
34
                    3D
 Structure written by MMmdl.
172182  0  0  1  0            999 V2000
  -30.7077  -14.4824   20.4881 C   0  0  0  0  0  0
  -30.4171  -12.2948   19.4249 C   0  0  0  0  0  0
  -29.4946  -12.4824   18.2030 C   0  0  0  0  0  0
  -28.0174  -12.3413   18.6218 C   0  0  0  0  0  0
  -27.6539  -13.2077   19.8586 C   0  0  2  0  0  0
  -28.7014  -13.0498   20.9855 C   0  0  0  0  0  0
  -25.2572  -13.8160   20.5671 C   0  0  0  0  0  0
  -24.1828  -13.0443   20.9188 C   0  0  0  0  0  0
  -24.6384  -11.6910   20.8747 C   0  0  0  0  0  0
  -23.9052  -10.4297   21.0417 C   0  0  0  0  0  0
  -24.3603   -9.4211   21.9193 C   0  0  0  0  0  0
  -23.6279   -8.2241   22.0757 C   0  0  0  0  0  0
  -22.4258   -8.0282   21.3547 C   0  0  0  0  0  0
  -21.9892   -9.0261   20.4656 C   0  0  0  0  0  0
  -22.7225  -10.2139   20.3070 C   0  0  0  0  0  0
  -21.6851   -6.0727   22.5277 C   0  0  0  0  0  0
  -21.4011   -6.5629   23.8209 C   0  0  0  0  0  0
  -21.3661   -5.6783   24.9169 C   0  0  0  0  0  0
  -21.6042   -4.3046   24.7226 C   0  0  0  0  0  0
  -21.8819   -3.8141   23.4348 C   0  0  0  0  0  0
  -21.9192   -4.6955   22.3402 C   0  0  0  0  0  0
  -22.7853  -13.5253   21.1833 C   0  0  0  0  0  0
  -22.1664   -4.2144   21.0981 F   0  0  0  0  0  0
  -21.5634   -3.4530   25.7742 F   0  0  0  0  0  0
  -30.0250  -13.3133   20.4075 N   0  0  0  0  0  0
  -26.2993  -12.9331   20.3301 N   0  0  0  0  0  0
  -25.9308  -11.6494   20.5747 N   0  0  0  0  0  0
  -22.0467  -12.8274   22.0391 N   0  0  0  0  0  0
  -25.4293  -15.1876   20.4060 N   0  0  0  0  0  0
  -31.9168  -14.5560   20.2530 O   0  0  0  0  0  0
  -21.6633   -6.8872   21.4236 O   0  0  0  0  0  0
  -22.3557  -14.5560   20.6670 O   0  0  0  0  0  0
  -24.6131  -31.8695   23.2117 C   0  0  0  0  0  0
  -25.9033  -32.4835   23.8399 C   0  0  1  0  0  0
  -27.2352  -27.4465   20.0823 C   0  0  0  0  0  0
  -25.5890  -33.8634   24.2332 N   0  0  0  0  0  0
  -23.4003  -30.4939   21.5521 C   0  0  2  0  0  0
  -24.8462  -28.9603   20.1158 C   0  0  0  0  0  0
  -22.7403  -29.4663   22.4997 C   0  0  0  0  0  0
  -18.0271  -28.1379   22.8494 C   0  0  0  0  0  0
  -24.1483  -36.7317   23.2637 C   0  0  0  0  0  0
  -25.9289  -30.8352   21.3653 C   0  0  0  0  0  0
  -26.0050  -29.4689   20.7155 C   0  0  0  0  0  0
  -27.1990  -28.7125   20.7080 C   0  0  0  0  0  0
  -26.0510  -26.9401   19.5007 C   0  0  0  0  0  0
  -24.8617  -27.6923   19.5110 C   0  0  0  0  0  0
  -23.6088  -29.8273   20.1655 C   0  0  0  0  0  0
  -25.4104  -36.3121   24.0339 C   0  0  1  0  0  0
  -20.5861  -28.3659   23.1331 C   0  0  2  0  0  0
  -20.6759  -26.9394   22.5432 C   0  0  0  0  0  0
  -19.5747  -26.6389   21.5215 C   0  0  0  0  0  0
  -18.1917  -26.7932   22.1611 C   0  0  0  0  0  0
  -19.1521  -28.8832   23.2914 C   0  0  0  0  0  0
  -18.9448  -30.1436   23.8929 C   0  0  0  0  0  0
  -17.6454  -30.6585   24.0573 C   0  0  0  0  0  0
  -25.9031  -34.9481   23.5134 C   0  0  0  0  0  0
  -16.5344  -29.9096   23.6319 C   0  0  0  0  0  0
  -16.7266  -28.6512   23.0341 C   0  0  0  0  0  0
  -26.4462  -31.6613   25.0724 C   0  0  0  0  0  0
  -25.3729  -31.3745   26.1482 C   0  0  0  0  0  0
  -27.0267  -30.3045   24.6101 C   0  0  0  0  0  0
  -27.6061  -32.4316   25.7464 C   0  0  0  0  0  0
  -27.5584  -37.1805   24.8456 C   0  0  0  0  0  0
  -21.4129  -29.3034   22.3737 N   0  0  0  0  0  0
  -26.4292  -37.3801   23.9409 N   0  0  0  0  0  0
  -24.6659  -31.0798   22.1015 N   0  0  0  0  0  0
  -23.4179  -28.8203   23.3028 O   0  0  0  0  0  0
  -28.4013  -26.7107   20.0868 O   0  0  0  0  0  0
  -26.5592  -34.8933   22.4694 O   0  0  0  0  0  0
  -23.5327  -32.1440   23.7516 O   0  0  0  0  0  0
  -29.9194  -19.4020   17.8286 C   0  0  0  0  0  0
  -29.1512  -21.2257   19.2725 C   0  0  0  0  0  0
  -29.4319  -19.8222   19.0907 C   0  0  0  0  0  0
  -29.4009  -22.1151   18.1730 C   0  0  0  0  0  0
  -30.1553  -20.3227   16.8010 C   0  0  0  0  0  0
  -30.4006  -24.4340   17.8217 C   0  0  0  0  0  0
  -30.4987  -16.7233   19.4737 C   0  0  0  0  0  0
  -29.1669  -16.4677   21.0290 C   0  0  0  0  0  0
  -29.1548  -23.6072   18.0395 C   0  0  2  0  0  0
  -29.4944  -24.7799   18.9715 C   0  0  2  0  0  0
  -29.1825  -17.4230   19.8174 C   0  0  0  0  0  0
  -30.7073  -19.9116   15.4496 C   0  0  0  0  0  0
  -27.2142  -21.1555   20.9857 C   0  0  0  0  0  0
  -28.8010  -26.1363   18.8413 C   0  0  0  0  0  0
  -28.5613  -21.7938   20.5806 C   0  0  1  0  0  0
  -29.8878  -21.6174   17.0159 N   0  3  0  0  0  0
  -29.9573  -15.5631   20.1842 N   0  0  0  0  0  0
  -29.2659  -18.8615   20.1269 N   0  0  0  0  0  0
  -29.5353  -21.8081   21.6944 N   0  3  0  0  0  0
  -31.4639  -12.3752   19.1267 H   0  0  0  0  0  0
  -30.2999  -11.2967   19.8493 H   0  0  0  0  0  0
  -29.7370  -11.7511   17.4302 H   0  0  0  0  0  0
  -29.6580  -13.4654   17.7574 H   0  0  0  0  0  0
  -27.8403  -11.2892   18.8450 H   0  0  0  0  0  0
  -27.3628  -12.5854   17.7852 H   0  0  0  0  0  0
  -27.6767  -14.2433   19.5218 H   0  0  0  0  0  0
  -28.6724  -12.0427   21.4041 H   0  0  0  0  0  0
  -28.4895  -13.7312   21.8106 H   0  0  0  0  0  0
  -25.2753   -9.5685   22.4755 H   0  0  0  0  0  0
  -23.9998   -7.4629   22.7471 H   0  0  0  0  0  0
  -21.0820   -8.8787   19.8963 H   0  0  0  0  0  0
  -22.3693  -10.9675   19.6173 H   0  0  0  0  0  0
  -21.2003   -7.6135   23.9706 H   0  0  0  0  0  0
  -21.1480   -6.0514   25.9069 H   0  0  0  0  0  0
  -22.0599   -2.7608   23.2848 H   0  0  0  0  0  0
  -22.4058  -11.9956   22.4838 H   0  0  0  0  0  0
  -21.1082  -13.1318   22.2538 H   0  0  0  0  0  0
  -24.6632  -15.8428   20.5169 H   0  0  0  0  0  0
  -26.2766  -15.6188   20.0616 H   0  0  0  0  0  0
  -26.7104  -32.5554   23.1166 H   0  0  0  0  0  0
  -25.0039  -33.9797   25.0476 H   0  0  0  0  0  0
  -22.6891  -31.3103   21.4149 H   0  0  0  0  0  0
  -23.3749  -35.9644   23.3302 H   0  0  0  0  0  0
  -24.3577  -36.8929   22.2049 H   0  0  0  0  0  0
  -23.7229  -37.6520   23.6652 H   0  0  0  0  0  0
  -26.0391  -31.5995   20.5944 H   0  0  0  0  0  0
  -26.8176  -30.8908   21.9823 H   0  0  0  0  0  0
  -28.0942  -29.1009   21.1737 H   0  0  0  0  0  0
  -26.0321  -25.9566   19.0541 H   0  0  0  0  0  0
  -23.9661  -27.2889   19.0587 H   0  0  0  0  0  0
  -23.7187  -30.6028   19.4069 H   0  0  0  0  0  0
  -22.7320  -29.2486   19.8692 H   0  0  0  0  0  0
  -25.1281  -36.1985   25.0832 H   0  0  0  0  0  0
  -20.9958  -28.3226   24.1451 H   0  0  0  0  0  0
  -20.5650  -26.2264   23.3618 H   0  0  0  0  0  0
  -21.6635  -26.7435   22.1238 H   0  0  0  0  0  0
  -19.6908  -25.6302   21.1236 H   0  0  0  0  0  0
  -19.6701  -27.3211   20.6753 H   0  0  0  0  0  0
  -17.4197  -26.6705   21.3996 H   0  0  0  0  0  0
  -18.0298  -26.0063   22.8996 H   0  0  0  0  0  0
  -19.7925  -30.7238   24.2327 H   0  0  0  0  0  0
  -17.5012  -31.6267   24.5173 H   0  0  0  0  0  0
  -15.5347  -30.3011   23.7621 H   0  0  0  0  0  0
  -15.8662  -28.0845   22.7037 H   0  0  0  0  0  0
  -24.5903  -30.7083   25.7838 H   0  0  0  0  0  0
  -24.8915  -32.2912   26.4897 H   0  0  0  0  0  0
  -25.8079  -30.8947   27.0256 H   0  0  0  0  0  0
  -26.2795  -29.6826   24.1162 H   0  0  0  0  0  0
  -27.4028  -29.7274   25.4557 H   0  0  0  0  0  0
  -27.8642  -30.4348   23.9244 H   0  0  0  0  0  0
  -27.2708  -33.3607   26.2083 H   0  0  0  0  0  0
  -28.3835  -32.6886   25.0258 H   0  0  0  0  0  0
  -28.0771  -31.8413   26.5335 H   0  0  0  0  0  0
  -28.2617  -38.0088   24.7492 H   0  0  0  0  0  0
  -28.1061  -36.2621   24.6281 H   0  0  0  0  0  0
  -27.2313  -37.1469   25.8863 H   0  0  0  0  0  0
  -20.9279  -29.8751   21.6965 H   0  0  0  0  0  0
  -26.0188  -38.2882   24.1409 H   0  0  0  0  0  0
  -30.1299  -18.3750   17.6058 H   0  0  0  0  0  0
  -30.4124  -25.0956   16.9583 H   0  0  0  0  0  0
  -31.3655  -24.0079   18.0900 H   0  0  0  0  0  0
  -31.3820  -17.1642   19.9443 H   0  0  0  0  0  0
  -30.6732  -16.5252   18.4161 H   0  0  0  0  0  0
  -28.1720  -16.1087   21.2925 H   0  0  0  0  0  0
  -29.7050  -16.8288   21.9086 H   0  0  0  0  0  0
  -28.3238  -23.7667   17.3531 H   0  0  0  0  0  0
  -29.8966  -24.5639   19.9585 H   0  0  0  0  0  0
  -28.3886  -17.1879   19.1025 H   0  0  0  0  0  0
  -30.8869  -18.8373   15.4056 H   0  0  0  0  0  0
  -31.6539  -20.4168   15.2561 H   0  0  0  0  0  0
  -30.0081  -20.1668   14.6538 H   0  0  0  0  0  0
  -26.5051  -21.1972   20.1579 H   0  0  0  0  0  0
  -26.7613  -21.7008   21.8146 H   0  0  0  0  0  0
  -27.2980  -20.1156   21.2964 H   0  0  0  0  0  0
  -28.0028  -26.0545   18.1037 H   0  0  0  0  0  0
  -29.5138  -26.8390   18.4071 H   0  0  0  0  0  0
  -28.3184  -22.8401   20.4075 H   0  0  0  0  0  0
  -30.0543  -22.2734   16.2495 H   0  0  0  0  0  0
  -28.6591  -19.1362   20.8880 H   0  0  0  0  0  0
  -29.8906  -20.8937   21.9112 H   0  0  0  0  0  0
  -29.1072  -22.1808   22.5247 H   0  0  0  0  0  0
  -30.3205  -22.3951   21.4762 H   0  0  0  0  0  0
  1 25  1  0  0  0
  1 30  2  0  0  0
  1 87  1  0  0  0
  2  3  1  0  0  0
  2 25  1  0  0  0
  2 90  1  0  0  0
  2 91  1  0  0  0
  3  4  1  0  0  0
  3 92  1  0  0  0
  3 93  1  0  0  0
  4  5  1  0  0  0
  4 94  1  0  0  0
  4 95  1  0  0  0
  5  6  1  0  0  0
  5 26  1  0  0  0
  5 96  1  0  0  0
  6 25  1  0  0  0
  6 97  1  0  0  0
  6 98  1  0  0  0
  7  8  2  0  0  0
  7 26  1  0  0  0
  7 29  1  0  0  0
  8  9  1  0  0  0
  8 22  1  0  0  0
  9 10  1  0  0  0
  9 27  2  0  0  0
 10 11  2  0  0  0
 10 15  1  0  0  0
 11 12  1  0  0  0
 11 99  1  0  0  0
 12 13  2  0  0  0
 12100  1  0  0  0
 13 14  1  0  0  0
 13 31  1  0  0  0
 14 15  2  0  0  0
 14101  1  0  0  0
 15102  1  0  0  0
 16 17  2  0  0  0
 16 21  1  0  0  0
 16 31  1  0  0  0
 17 18  1  0  0  0
 17103  1  0  0  0
 18 19  2  0  0  0
 18104  1  0  0  0
 19 20  1  0  0  0
 19 24  1  0  0  0
 20 21  2  0  0  0
 20105  1  0  0  0
 21 23  1  0  0  0
 22 28  1  0  0  0
 22 32  2  0  0  0
 26 27  1  0  0  0
 28106  1  0  0  0
 28107  1  0  0  0
 29108  1  0  0  0
 29109  1  0  0  0
 33 34  1  0  0  0
 33 66  1  0  0  0
 33 70  2  0  0  0
 34 36  1  0  0  0
 34 59  1  0  0  0
 34110  1  0  0  0
 35 44  2  0  0  0
 35 45  1  0  0  0
 35 68  1  0  0  0
 36 56  1  0  0  0
 36111  1  0  0  0
 37 39  1  0  0  0
 37 47  1  0  0  0
 37 66  1  0  0  0
 37112  1  0  0  0
 38 43  2  0  0  0
 38 46  1  0  0  0
 38 47  1  0  0  0
 39 64  1  0  0  0
 39 67  2  0  0  0
 40 52  1  0  0  0
 40 53  2  0  0  0
 40 58  1  0  0  0
 41113  1  0  0  0
 41114  1  0  0  0
 41115  1  0  0  0
 41 48  1  0  0  0
 42 43  1  0  0  0
 42 66  1  0  0  0
 42116  1  0  0  0
 42117  1  0  0  0
 43 44  1  0  0  0
 44118  1  0  0  0
 45 46  2  0  0  0
 45119  1  0  0  0
 46120  1  0  0  0
 47121  1  0  0  0
 47122  1  0  0  0
 48 56  1  0  0  0
 48 65  1  0  0  0
 48123  1  0  0  0
 49 50  1  0  0  0
 49 53  1  0  0  0
 49 64  1  0  0  0
 49124  1  0  0  0
 50 51  1  0  0  0
 50125  1  0  0  0
 50126  1  0  0  0
 51 52  1  0  0  0
 51127  1  0  0  0
 51128  1  0  0  0
 52129  1  0  0  0
 52130  1  0  0  0
 53 54  1  0  0  0
 54 55  2  0  0  0
 54131  1  0  0  0
 55 57  1  0  0  0
 55132  1  0  0  0
 56 69  2  0  0  0
 57 58  2  0  0  0
 57133  1  0  0  0
 58134  1  0  0  0
 59 60  1  0  0  0
 59 61  1  0  0  0
 59 62  1  0  0  0
 60135  1  0  0  0
 60136  1  0  0  0
 60137  1  0  0  0
 61138  1  0  0  0
 61139  1  0  0  0
 61140  1  0  0  0
 62141  1  0  0  0
 62142  1  0  0  0
 62143  1  0  0  0
 63 65  1  0  0  0
 63144  1  0  0  0
 63145  1  0  0  0
 63146  1  0  0  0
 64147  1  0  0  0
 65148  1  0  0  0
 68 84  1  0  0  0
 71 73  2  0  0  0
 71 75  1  0  0  0
 71149  1  0  0  0
 72 73  1  0  0  0
 72 74  2  0  0  0
 72 85  1  0  0  0
 73 88  1  0  0  0
 74 86  1  0  0  0
 74 79  1  0  0  0
 75 82  1  0  0  0
 75 86  2  0  0  0
 76 79  1  0  0  0
 76 80  1  0  0  0
 76150  1  0  0  0
 76151  1  0  0  0
 77 81  1  0  0  0
 77 87  1  0  0  0
 77152  1  0  0  0
 77153  1  0  0  0
 78 81  1  0  0  0
 78 87  1  0  0  0
 78154  1  0  0  0
 78155  1  0  0  0
 79 80  1  0  0  0
 79156  1  0  0  0
 80 84  1  0  0  0
 80157  1  0  0  0
 81 88  1  0  0  0
 81158  1  0  0  0
 82159  1  0  0  0
 82160  1  0  0  0
 82161  1  0  0  0
 83162  1  0  0  0
 83163  1  0  0  0
 83164  1  0  0  0
 83 85  1  0  0  0
 84165  1  0  0  0
 84166  1  0  0  0
 85 89  1  0  0  0
 85167  1  0  0  0
 86168  1  0  0  0
 88169  1  0  0  0
 89170  1  0  0  0
 89171  1  0  0  0
 89172  1  0  0  0
M  CHG  2  86   1  89   1
M  ISO  4   1 100  68 101  84 101  87 100
M  END
> <chiral flag>
0

> <version>
0

> <s_m_source_file>
/data/baiqing/PycharmProjects/Reinvent-master-3.2/result/LINK_invent/BTK/process_docking_weight1_custom_sum_contain_oxygen_bond_distance_aromatic_linkinvent_7_9_3/rearranged_h_0174.sdf

> <i_m_source_file_index>
33

> <r_mmod_Potential_Energy-OPLS-2005>
-189.601089477539

> <r_mmod_Stretch_Energy-OPLS-2005>
44.6179313659668

> <r_mmod_Bend_Energy-OPLS-2005>
150.141021728516

> <r_mmod_Torsional_Energy-OPLS-2005>
292.803131103516

> <r_mmod_Improper_Torsional_Energy-OPLS-2005>
32.0434913635254

> <r_mmod_Van_der_Waal_Energy-OPLS-2005>
154.233001708984

> <r_mmod_Electrostatic_Energy-OPLS-2005>
102.722694396973

> <r_mmod_Solvation_Energy-OPLS-2005>
-989.040588378906

> <b_mmod_Minimization_Converged-OPLS-2005>
0

> <r_mmod_RMS_Derivative-OPLS-2005>
1.58291494846344

$$$$
35
                    3D
 Structure written by MMmdl.
163172  0  0  1  0            999 V2000
  -30.4896  -15.2997   20.3667 C   0  0  0  0  0  0
  -30.4213  -12.8464   19.5038 C   0  0  0  0  0  0
  -29.5210  -12.5717   18.2759 C   0  0  0  0  0  0
  -28.0779  -12.2850   18.7190 C   0  0  0  0  0  0
  -27.5993  -13.2776   19.8076 C   0  0  2  0  0  0
  -28.6378  -13.5068   20.9287 C   0  0  0  0  0  0
  -25.2321  -13.8220   20.5748 C   0  0  0  0  0  0
  -24.1695  -13.0405   20.9273 C   0  0  0  0  0  0
  -24.6379  -11.6919   20.8782 C   0  0  0  0  0  0
  -23.9095  -10.4279   21.0421 C   0  0  0  0  0  0
  -24.3640   -9.4190   21.9196 C   0  0  0  0  0  0
  -23.6304   -8.2234   22.0764 C   0  0  0  0  0  0
  -22.4284   -8.0277   21.3552 C   0  0  0  0  0  0
  -21.9926   -9.0249   20.4650 C   0  0  0  0  0  0
  -22.7266  -10.2126   20.3059 C   0  0  0  0  0  0
  -21.6849   -6.0735   22.5283 C   0  0  0  0  0  0
  -21.4006   -6.5639   23.8213 C   0  0  0  0  0  0
  -21.3644   -5.6790   24.9175 C   0  0  0  0  0  0
  -21.6037   -4.3052   24.7227 C   0  0  0  0  0  0
  -21.8816   -3.8147   23.4345 C   0  0  0  0  0  0
  -21.9182   -4.6965   22.3406 C   0  0  0  0  0  0
  -22.7715  -13.5166   21.1900 C   0  0  0  0  0  0
  -22.1647   -4.2148   21.0977 F   0  0  0  0  0  0
  -21.5634   -3.4534   25.7743 F   0  0  0  0  0  0
  -29.8532  -14.0222   20.2715 N   0  0  0  0  0  0
  -26.2765  -12.9521   20.3208 N   0  0  0  0  0  0
  -25.9317  -11.6628   20.5731 N   0  0  0  0  0  0
  -22.0379  -12.8168   22.0471 N   0  0  0  0  0  0
  -25.3865  -15.1952   20.4178 N   0  0  0  0  0  0
  -31.7183  -15.1732   20.2543 O   0  0  0  0  0  0
  -21.6636   -6.8880   21.4245 O   0  0  0  0  0  0
  -22.3406  -14.5462   20.6720 O   0  0  0  0  0  0
  -24.6667  -31.8209   23.1676 C   0  0  0  0  0  0
  -25.9333  -32.4575   23.8158 C   0  0  1  0  0  0
  -27.2144  -26.9047   20.1844 C   0  0  0  0  0  0
  -25.5993  -33.8394   24.2062 N   0  0  0  0  0  0
  -23.4816  -30.4336   21.5187 C   0  0  2  0  0  0
  -24.9340  -28.8188   20.1101 C   0  0  0  0  0  0
  -22.7684  -29.4436   22.4785 C   0  0  0  0  0  0
  -18.0310  -28.1419   22.8457 C   0  0  0  0  0  0
  -24.1481  -36.7189   23.2655 C   0  0  0  0  0  0
  -26.0533  -30.6206   21.4009 C   0  0  0  0  0  0
  -26.1202  -29.2084   20.7454 C   0  0  0  0  0  0
  -27.2547  -28.2739   20.7565 C   0  0  0  0  0  0
  -26.0000  -26.6770   19.4978 C   0  0  0  0  0  0
  -24.9016  -27.5727   19.4650 C   0  0  0  0  0  0
  -23.7218  -29.7498   20.1450 C   0  0  0  0  0  0
  -25.4123  -36.2958   24.0306 C   0  0  1  0  0  0
  -20.5942  -28.3761   23.1182 C   0  0  2  0  0  0
  -20.6792  -26.9448   22.5396 C   0  0  0  0  0  0
  -19.5766  -26.6384   21.5217 C   0  0  0  0  0  0
  -18.1939  -26.7955   22.1613 C   0  0  0  0  0  0
  -19.1577  -28.8909   23.2800 C   0  0  0  0  0  0
  -18.9499  -30.1499   23.8841 C   0  0  0  0  0  0
  -17.6493  -30.6608   24.0556 C   0  0  0  0  0  0
  -25.9098  -34.9347   23.4996 C   0  0  0  0  0  0
  -16.5377  -29.9097   23.6348 C   0  0  0  0  0  0
  -16.7291  -28.6517   23.0368 C   0  0  0  0  0  0
  -26.4577  -31.6531   25.0700 C   0  0  0  0  0  0
  -25.3689  -31.3791   26.1348 C   0  0  0  0  0  0
  -27.0474  -30.2898   24.6444 C   0  0  0  0  0  0
  -27.6078  -32.4342   25.7482 C   0  0  0  0  0  0
  -27.5557  -37.1742   24.8475 C   0  0  0  0  0  0
  -21.4354  -29.3049   22.3538 N   0  0  0  0  0  0
  -26.4253  -37.3711   23.9436 N   0  0  0  0  0  0
  -24.7560  -30.9857   22.0824 N   0  0  0  0  0  0
  -23.4214  -28.8011   23.3044 O   0  0  0  0  0  0
  -28.1925  -25.7693   20.2630 O   0  0  0  0  0  0
  -26.5718  -34.8893   22.4600 O   0  0  0  0  0  0
  -23.5730  -32.1191   23.6743 O   0  0  0  0  0  0
  -27.9479  -21.2562   20.0811 C   0  0  0  0  0  0
  -30.5811  -20.9179   20.5697 C   0  0  0  0  0  0
  -28.5462  -19.8684   20.1380 C   0  0  0  0  0  0
  -29.9203  -19.6404   20.3356 C   0  0  0  0  0  0
  -29.9972  -22.2773   20.5255 C   0  0  0  0  0  0
  -28.6106  -22.5911   20.2460 C   0  0  0  0  0  0
  -27.8233  -18.4901   19.9335 C   0  0  0  0  0  0
  -28.4423  -17.0945   20.5415 C   0  0  0  0  0  0
  -30.6238  -18.1043   20.2125 C   0  0  2  0  0  0
  -30.9272  -23.4469   20.7847 C   0  0  0  0  0  0
  -30.7243  -17.7777   17.6496 C   0  0  0  0  0  0
  -32.4714  -19.2434   18.7170 C   0  0  0  0  0  0
  -27.8158  -24.1653   20.0936 C   0  0  0  0  0  0
  -31.5318  -18.0440   18.9345 C   0  0  0  0  0  0
  -29.8827  -16.6827   20.3351 N   0  0  0  0  0  0
  -31.4369  -13.0364   19.1536 H   0  0  0  0  0  0
  -30.4988  -11.9623   20.1380 H   0  0  0  0  0  0
  -29.9105  -11.7337   17.6966 H   0  0  0  0  0  0
  -29.5340  -13.4371   17.6125 H   0  0  0  0  0  0
  -28.0496  -11.2682   19.1120 H   0  0  0  0  0  0
  -27.4037  -12.2967   17.8612 H   0  0  0  0  0  0
  -27.4922  -14.2224   19.2754 H   0  0  0  0  0  0
  -28.8264  -12.5922   21.4937 H   0  0  0  0  0  0
  -28.2671  -14.2430   21.6439 H   0  0  0  0  0  0
  -25.2784   -9.5660   22.4774 H   0  0  0  0  0  0
  -24.0005   -7.4621   22.7486 H   0  0  0  0  0  0
  -21.0859   -8.8763   19.8960 H   0  0  0  0  0  0
  -22.3727  -10.9662   19.6164 H   0  0  0  0  0  0
  -21.2003   -7.6151   23.9721 H   0  0  0  0  0  0
  -21.1462   -6.0522   25.9077 H   0  0  0  0  0  0
  -22.0613   -2.7614   23.2847 H   0  0  0  0  0  0
  -22.4032  -11.9846   22.4860 H   0  0  0  0  0  0
  -21.0993  -13.1163   22.2672 H   0  0  0  0  0  0
  -24.6105  -15.8369   20.5340 H   0  0  0  0  0  0
  -26.2251  -15.6426   20.0774 H   0  0  0  0  0  0
  -26.7407  -32.5099   23.0875 H   0  0  0  0  0  0
  -25.0130  -33.9490   25.0205 H   0  0  0  0  0  0
  -22.7958  -31.2656   21.3472 H   0  0  0  0  0  0
  -23.3775  -35.9484   23.3260 H   0  0  0  0  0  0
  -24.3570  -36.8887   22.2081 H   0  0  0  0  0  0
  -23.7178  -37.6338   23.6739 H   0  0  0  0  0  0
  -26.2395  -31.3589   20.6189 H   0  0  0  0  0  0
  -26.9113  -30.6765   22.0582 H   0  0  0  0  0  0
  -28.1483  -28.5689   21.2889 H   0  0  0  0  0  0
  -25.8562  -25.7285   19.0018 H   0  0  0  0  0  0
  -24.0011  -27.2674   18.9495 H   0  0  0  0  0  0
  -23.8768  -30.5181   19.3869 H   0  0  0  0  0  0
  -22.8295  -29.2086   19.8261 H   0  0  0  0  0  0
  -25.1310  -36.1747   25.0793 H   0  0  0  0  0  0
  -21.0007  -28.3354   24.1315 H   0  0  0  0  0  0
  -20.5692  -26.2388   23.3637 H   0  0  0  0  0  0
  -21.6654  -26.7434   22.1197 H   0  0  0  0  0  0
  -19.6944  -25.6287   21.1271 H   0  0  0  0  0  0
  -19.6712  -27.3175   20.6732 H   0  0  0  0  0  0
  -17.4218  -26.6693   21.4008 H   0  0  0  0  0  0
  -18.0326  -26.0114   22.9025 H   0  0  0  0  0  0
  -19.7982  -30.7317   24.2195 H   0  0  0  0  0  0
  -17.5051  -31.6289   24.5169 H   0  0  0  0  0  0
  -15.5382  -30.2985   23.7728 H   0  0  0  0  0  0
  -15.8681  -28.0819   22.7139 H   0  0  0  0  0  0
  -24.5877  -30.7153   25.7626 H   0  0  0  0  0  0
  -24.8905  -32.3014   26.4657 H   0  0  0  0  0  0
  -25.7909  -30.9006   27.0195 H   0  0  0  0  0  0
  -26.3156  -29.6565   24.1424 H   0  0  0  0  0  0
  -27.3984  -29.7270   25.5103 H   0  0  0  0  0  0
  -27.9096  -30.4092   23.9876 H   0  0  0  0  0  0
  -27.2679  -33.3736   26.1851 H   0  0  0  0  0  0
  -28.3975  -32.6738   25.0345 H   0  0  0  0  0  0
  -28.0635  -31.8594   26.5556 H   0  0  0  0  0  0
  -28.2539  -38.0075   24.7541 H   0  0  0  0  0  0
  -28.1069  -36.2595   24.6241 H   0  0  0  0  0  0
  -27.2289  -37.1307   25.8883 H   0  0  0  0  0  0
  -20.9617  -29.8736   21.6658 H   0  0  0  0  0  0
  -26.0087  -38.2756   24.1483 H   0  0  0  0  0  0
  -26.8866  -21.2948   19.8780 H   0  0  0  0  0  0
  -31.6406  -20.8612   20.7758 H   0  0  0  0  0  0
  -27.7105  -18.3620   18.8560 H   0  0  0  0  0  0
  -26.8056  -18.6004   20.3110 H   0  0  0  0  0  0
  -27.8256  -16.2787   20.1811 H   0  0  0  0  0  0
  -28.2953  -17.1115   21.6220 H   0  0  0  0  0  0
  -31.3048  -18.0884   21.0649 H   0  0  0  0  0  0
  -31.9606  -23.1238   20.9178 H   0  0  0  0  0  0
  -30.6276  -23.9806   21.6877 H   0  0  0  0  0  0
  -30.9002  -24.1462   19.9489 H   0  0  0  0  0  0
  -30.1874  -16.8299   17.6888 H   0  0  0  0  0  0
  -31.3790  -17.7333   16.7776 H   0  0  0  0  0  0
  -29.9936  -18.5675   17.4720 H   0  0  0  0  0  0
  -33.0589  -19.4553   19.6104 H   0  0  0  0  0  0
  -31.9294  -20.1445   18.4297 H   0  0  0  0  0  0
  -33.1802  -19.0381   17.9134 H   0  0  0  0  0  0
  -26.9345  -24.0494   20.7257 H   0  0  0  0  0  0
  -27.4242  -24.1084   19.0784 H   0  0  0  0  0  0
  -32.2115  -17.2017   19.0461 H   0  0  0  0  0  0
  1 25  1  0  0  0
  1 30  2  0  0  0
  1 85  1  0  0  0
  2  3  1  0  0  0
  2 25  1  0  0  0
  2 86  1  0  0  0
  2 87  1  0  0  0
  3  4  1  0  0  0
  3 88  1  0  0  0
  3 89  1  0  0  0
  4  5  1  0  0  0
  4 90  1  0  0  0
  4 91  1  0  0  0
  5  6  1  0  0  0
  5 26  1  0  0  0
  5 92  1  0  0  0
  6 25  1  0  0  0
  6 93  1  0  0  0
  6 94  1  0  0  0
  7  8  2  0  0  0
  7 26  1  0  0  0
  7 29  1  0  0  0
  8  9  1  0  0  0
  8 22  1  0  0  0
  9 10  1  0  0  0
  9 27  2  0  0  0
 10 11  2  0  0  0
 10 15  1  0  0  0
 11 12  1  0  0  0
 11 95  1  0  0  0
 12 13  2  0  0  0
 12 96  1  0  0  0
 13 14  1  0  0  0
 13 31  1  0  0  0
 14 15  2  0  0  0
 14 97  1  0  0  0
 15 98  1  0  0  0
 16 17  2  0  0  0
 16 21  1  0  0  0
 16 31  1  0  0  0
 17 18  1  0  0  0
 17 99  1  0  0  0
 18 19  2  0  0  0
 18100  1  0  0  0
 19 20  1  0  0  0
 19 24  1  0  0  0
 20 21  2  0  0  0
 20101  1  0  0  0
 21 23  1  0  0  0
 22 28  1  0  0  0
 22 32  2  0  0  0
 26 27  1  0  0  0
 28102  1  0  0  0
 28103  1  0  0  0
 29104  1  0  0  0
 29105  1  0  0  0
 33 34  1  0  0  0
 33 66  1  0  0  0
 33 70  2  0  0  0
 34 36  1  0  0  0
 34 59  1  0  0  0
 34106  1  0  0  0
 35 44  2  0  0  0
 35 45  1  0  0  0
 35 68  1  0  0  0
 36 56  1  0  0  0
 36107  1  0  0  0
 37 39  1  0  0  0
 37 47  1  0  0  0
 37 66  1  0  0  0
 37108  1  0  0  0
 38 43  2  0  0  0
 38 46  1  0  0  0
 38 47  1  0  0  0
 39 64  1  0  0  0
 39 67  2  0  0  0
 40 52  1  0  0  0
 40 53  2  0  0  0
 40 58  1  0  0  0
 41109  1  0  0  0
 41110  1  0  0  0
 41111  1  0  0  0
 41 48  1  0  0  0
 42 43  1  0  0  0
 42 66  1  0  0  0
 42112  1  0  0  0
 42113  1  0  0  0
 43 44  1  0  0  0
 44114  1  0  0  0
 45 46  2  0  0  0
 45115  1  0  0  0
 46116  1  0  0  0
 47117  1  0  0  0
 47118  1  0  0  0
 48 56  1  0  0  0
 48 65  1  0  0  0
 48119  1  0  0  0
 49 50  1  0  0  0
 49 53  1  0  0  0
 49 64  1  0  0  0
 49120  1  0  0  0
 50 51  1  0  0  0
 50121  1  0  0  0
 50122  1  0  0  0
 51 52  1  0  0  0
 51123  1  0  0  0
 51124  1  0  0  0
 52125  1  0  0  0
 52126  1  0  0  0
 53 54  1  0  0  0
 54 55  2  0  0  0
 54127  1  0  0  0
 55 57  1  0  0  0
 55128  1  0  0  0
 56 69  2  0  0  0
 57 58  2  0  0  0
 57129  1  0  0  0
 58130  1  0  0  0
 59 60  1  0  0  0
 59 61  1  0  0  0
 59 62  1  0  0  0
 60131  1  0  0  0
 60132  1  0  0  0
 60133  1  0  0  0
 61134  1  0  0  0
 61135  1  0  0  0
 61136  1  0  0  0
 62137  1  0  0  0
 62138  1  0  0  0
 62139  1  0  0  0
 63 65  1  0  0  0
 63140  1  0  0  0
 63141  1  0  0  0
 63142  1  0  0  0
 64143  1  0  0  0
 65144  1  0  0  0
 68 83  1  0  0  0
 71 73  2  0  0  0
 71 76  1  0  0  0
 71145  1  0  0  0
 72 74  2  0  0  0
 72 75  1  0  0  0
 72146  1  0  0  0
 73 74  1  0  0  0
 73 77  1  0  0  0
 74 79  1  0  0  0
 75 76  2  0  0  0
 75 80  1  0  0  0
 76 83  1  0  0  0
 77 78  1  0  0  0
 77147  1  0  0  0
 77148  1  0  0  0
 78 85  1  0  0  0
 78149  1  0  0  0
 78150  1  0  0  0
 79 84  1  0  0  0
 79 85  1  0  0  0
 79151  1  0  0  0
 80152  1  0  0  0
 80153  1  0  0  0
 80154  1  0  0  0
 81155  1  0  0  0
 81156  1  0  0  0
 81157  1  0  0  0
 81 84  1  0  0  0
 82 84  1  0  0  0
 82158  1  0  0  0
 82159  1  0  0  0
 82160  1  0  0  0
 83161  1  0  0  0
 83162  1  0  0  0
 84163  1  0  0  0
M  ISO  4   1 100  68 101  83 101  85 100
M  END
> <chiral flag>
0

> <version>
0

> <s_m_source_file>
/data/baiqing/PycharmProjects/Reinvent-master-3.2/result/LINK_invent/BTK/process_docking_weight1_custom_sum_contain_oxygen_bond_distance_aromatic_linkinvent_7_9_3/rearranged_h_0174.sdf

> <i_m_source_file_index>
34

> <r_mmod_Potential_Energy-OPLS-2005>
1406.88818359375

> <r_mmod_Stretch_Energy-OPLS-2005>
530.25439453125

> <r_mmod_Bend_Energy-OPLS-2005>
447.603546142578

> <r_mmod_Torsional_Energy-OPLS-2005>
290.355529785156

> <r_mmod_Improper_Torsional_Energy-OPLS-2005>
6.09533548355103

> <r_mmod_Van_der_Waal_Energy-OPLS-2005>
130.872802734375

> <r_mmod_Electrostatic_Energy-OPLS-2005>
-300.500549316406

> <r_mmod_Solvation_Energy-OPLS-2005>
-193.505294799805

> <b_mmod_Minimization_Converged-OPLS-2005>
0

> <r_mmod_RMS_Derivative-OPLS-2005>
1.91958177089691

$$$$
36
                    3D
 Structure written by MMmdl.
171181  0  0  1  0            999 V2000
  -30.7125  -14.6993   20.4784 C   0  0  0  0  0  0
  -30.4021  -12.4456   19.4580 C   0  0  0  0  0  0
  -29.4860  -12.4990   18.2207 C   0  0  0  0  0  0
  -28.0143  -12.3385   18.6439 C   0  0  0  0  0  0
  -27.6316  -13.2426   19.8492 C   0  0  2  0  0  0
  -28.6873  -13.1851   20.9749 C   0  0  0  0  0  0
  -25.2429  -13.8228   20.5701 C   0  0  0  0  0  0
  -24.1751  -13.0448   20.9230 C   0  0  0  0  0  0
  -24.6372  -11.6936   20.8771 C   0  0  0  0  0  0
  -23.9067  -10.4302   21.0398 C   0  0  0  0  0  0
  -24.3625   -9.4222   21.9171 C   0  0  0  0  0  0
  -23.6311   -8.2254   22.0744 C   0  0  0  0  0  0
  -22.4291   -8.0292   21.3539 C   0  0  0  0  0  0
  -21.9928   -9.0262   20.4643 C   0  0  0  0  0  0
  -22.7242  -10.2141   20.3042 C   0  0  0  0  0  0
  -21.6851   -6.0755   22.5283 C   0  0  0  0  0  0
  -21.4021   -6.5648   23.8223 C   0  0  0  0  0  0
  -21.3658   -5.6790   24.9181 C   0  0  0  0  0  0
  -21.6038   -4.3055   24.7219 C   0  0  0  0  0  0
  -21.8819   -3.8157   23.4333 C   0  0  0  0  0  0
  -21.9188   -4.6986   22.3400 C   0  0  0  0  0  0
  -22.7764  -13.5219   21.1871 C   0  0  0  0  0  0
  -22.1642   -4.2180   21.0971 F   0  0  0  0  0  0
  -21.5631   -3.4528   25.7720 F   0  0  0  0  0  0
  -29.9711  -13.5409   20.3622 N   0  0  0  0  0  0
  -26.2886  -12.9471   20.3337 N   0  0  0  0  0  0
  -25.9312  -11.6594   20.5819 N   0  0  0  0  0  0
  -22.0406  -12.8206   22.0426 N   0  0  0  0  0  0
  -25.4054  -15.1948   20.4038 N   0  0  0  0  0  0
  -31.9195  -14.6177   20.2370 O   0  0  0  0  0  0
  -21.6643   -6.8898   21.4244 O   0  0  0  0  0  0
  -22.3456  -14.5522   20.6708 O   0  0  0  0  0  0
  -24.6346  -31.8587   23.2071 C   0  0  0  0  0  0
  -25.9175  -32.4763   23.8385 C   0  0  1  0  0  0
  -27.1869  -27.2616   20.1054 C   0  0  0  0  0  0
  -25.5979  -33.8569   24.2296 N   0  0  0  0  0  0
  -23.4270  -30.4915   21.5520 C   0  0  2  0  0  0
  -24.8656  -28.9578   20.1074 C   0  0  0  0  0  0
  -22.7504  -29.4642   22.4926 C   0  0  0  0  0  0
  -18.0294  -28.1395   22.8487 C   0  0  0  0  0  0
  -24.1488  -36.7276   23.2633 C   0  0  0  0  0  0
  -25.9790  -30.7688   21.3928 C   0  0  0  0  0  0
  -26.0439  -29.3973   20.7257 C   0  0  0  0  0  0
  -27.2100  -28.5591   20.7237 C   0  0  0  0  0  0
  -25.9949  -26.9322   19.4139 C   0  0  0  0  0  0
  -24.8476  -27.7324   19.4413 C   0  0  0  0  0  0
  -23.6412  -29.8449   20.1625 C   0  0  0  0  0  0
  -25.4114  -36.3068   24.0325 C   0  0  1  0  0  0
  -20.5903  -28.3711   23.1252 C   0  0  2  0  0  0
  -20.6788  -26.9424   22.5408 C   0  0  0  0  0  0
  -19.5759  -26.6395   21.5217 C   0  0  0  0  0  0
  -18.1934  -26.7944   22.1613 C   0  0  0  0  0  0
  -19.1553  -28.8870   23.2870 C   0  0  0  0  0  0
  -18.9466  -30.1469   23.8894 C   0  0  0  0  0  0
  -17.6464  -30.6595   24.0567 C   0  0  0  0  0  0
  -25.9067  -34.9438   23.5103 C   0  0  0  0  0  0
  -16.5359  -29.9089   23.6335 C   0  0  0  0  0  0
  -16.7278  -28.6509   23.0356 C   0  0  0  0  0  0
  -26.4528  -31.6579   25.0766 C   0  0  0  0  0  0
  -25.3741  -31.3736   26.1476 C   0  0  0  0  0  0
  -27.0368  -30.2980   24.6278 C   0  0  0  0  0  0
  -27.6088  -32.4314   25.7529 C   0  0  0  0  0  0
  -27.5579  -37.1787   24.8450 C   0  0  0  0  0  0
  -21.4216  -29.3065   22.3652 N   0  0  0  0  0  0
  -26.4275  -37.3776   23.9415 N   0  0  0  0  0  0
  -24.6996  -31.0558   22.1059 N   0  0  0  0  0  0
  -23.4201  -28.8157   23.3006 O   0  0  0  0  0  0
  -28.2179  -26.2878   20.1833 O   0  0  0  0  0  0
  -26.5611  -34.8903   22.4652 O   0  0  0  0  0  0
  -23.5498  -32.1417   23.7358 O   0  0  0  0  0  0
  -29.0644  -21.2827   19.4026 C   0  0  0  0  0  0
  -29.2628  -20.6428   20.6545 C   0  0  0  0  0  0
  -28.8180  -22.9080   21.6765 C   0  0  0  0  0  0
  -28.7161  -22.6670   19.2765 C   0  0  0  0  0  0
  -28.5367  -23.5195   20.4145 C   0  0  0  0  0  0
  -29.1495  -21.5075   21.7854 C   0  0  0  0  0  0
  -29.3751  -25.0866   23.0534 C   0  0  0  0  0  0
  -29.8694  -23.9185   23.8690 C   0  0  0  0  0  0
  -28.5547  -18.0353   21.0342 C   0  0  0  0  0  0
  -30.4429  -18.4893   19.6181 C   0  0  0  0  0  0
  -29.0253  -16.5259   21.2592 C   0  0  0  0  0  0
  -31.0439  -17.0809   19.9334 C   0  0  0  0  0  0
  -29.6693  -19.1027   20.7983 C   0  0  0  0  0  0
  -28.6990  -23.7377   22.9271 C   0  0  0  0  0  0
  -28.4781  -23.1964   17.8714 C   0  0  0  0  0  0
  -28.2082  -20.5956   23.7355 C   0  0  0  0  0  0
  -27.7042  -24.8766   20.3139 C   0  0  0  0  0  0
  -30.1419  -15.9839   20.4242 N   0  0  0  0  0  0
  -29.3835  -20.9614   23.0223 O   0  0  0  0  0  0
  -31.4445  -12.5266   19.1450 H   0  0  0  0  0  0
  -30.3229  -11.4788   19.9574 H   0  0  0  0  0  0
  -29.7599  -11.7162   17.5116 H   0  0  0  0  0  0
  -29.6195  -13.4474   17.6979 H   0  0  0  0  0  0
  -27.8610  -11.2904   18.9032 H   0  0  0  0  0  0
  -27.3541  -12.5380   17.7991 H   0  0  0  0  0  0
  -27.6192  -14.2625   19.4651 H   0  0  0  0  0  0
  -28.7311  -12.1852   21.4084 H   0  0  0  0  0  0
  -28.4379  -13.8514   21.7998 H   0  0  0  0  0  0
  -25.2758   -9.5711   22.4763 H   0  0  0  0  0  0
  -24.0029   -7.4639   22.7452 H   0  0  0  0  0  0
  -21.0876   -8.8764   19.8939 H   0  0  0  0  0  0
  -22.3687  -10.9683   19.6156 H   0  0  0  0  0  0
  -21.2010   -7.6150   23.9745 H   0  0  0  0  0  0
  -21.1471   -6.0505   25.9087 H   0  0  0  0  0  0
  -22.0601   -2.7625   23.2808 H   0  0  0  0  0  0
  -22.4038  -11.9890   22.4835 H   0  0  0  0  0  0
  -21.1013  -13.1216   22.2611 H   0  0  0  0  0  0
  -24.6301  -15.8422   20.4990 H   0  0  0  0  0  0
  -26.2470  -15.6327   20.0529 H   0  0  0  0  0  0
  -26.7237  -32.5397   23.1119 H   0  0  0  0  0  0
  -25.0158  -33.9723   25.0464 H   0  0  0  0  0  0
  -22.7251  -31.3173   21.4149 H   0  0  0  0  0  0
  -23.3765  -35.9590   23.3260 H   0  0  0  0  0  0
  -24.3593  -36.8940   22.2054 H   0  0  0  0  0  0
  -23.7211  -37.6456   23.6677 H   0  0  0  0  0  0
  -26.1230  -31.5344   20.6291 H   0  0  0  0  0  0
  -26.8558  -30.8068   22.0277 H   0  0  0  0  0  0
  -28.1035  -28.8801   21.2403 H   0  0  0  0  0  0
  -25.8807  -26.0398   18.8235 H   0  0  0  0  0  0
  -23.9549  -27.4034   18.9273 H   0  0  0  0  0  0
  -23.7667  -30.6301   19.4158 H   0  0  0  0  0  0
  -22.7570  -29.2852   19.8528 H   0  0  0  0  0  0
  -25.1294  -36.1909   25.0815 H   0  0  0  0  0  0
  -20.9995  -28.3291   24.1369 H   0  0  0  0  0  0
  -20.5685  -26.2330   23.3625 H   0  0  0  0  0  0
  -21.6654  -26.7443   22.1192 H   0  0  0  0  0  0
  -19.6922  -25.6303   21.1252 H   0  0  0  0  0  0
  -19.6711  -27.3202   20.6744 H   0  0  0  0  0  0
  -17.4217  -26.6721   21.3996 H   0  0  0  0  0  0
  -18.0311  -26.0075   22.8989 H   0  0  0  0  0  0
  -19.7944  -30.7298   24.2253 H   0  0  0  0  0  0
  -17.5013  -31.6274   24.5171 H   0  0  0  0  0  0
  -15.5356  -30.2983   23.7676 H   0  0  0  0  0  0
  -15.8677  -28.0829   22.7062 H   0  0  0  0  0  0
  -24.5991  -30.6983   25.7825 H   0  0  0  0  0  0
  -24.8846  -32.2898   26.4789 H   0  0  0  0  0  0
  -25.8079  -30.9032   27.0309 H   0  0  0  0  0  0
  -26.2965  -29.6728   24.1271 H   0  0  0  0  0  0
  -27.3983  -29.7248   25.4825 H   0  0  0  0  0  0
  -27.8878  -30.4230   23.9580 H   0  0  0  0  0  0
  -27.2712  -33.3640   26.2058 H   0  0  0  0  0  0
  -28.3919  -32.6821   25.0360 H   0  0  0  0  0  0
  -28.0715  -31.8454   26.5479 H   0  0  0  0  0  0
  -28.2556  -38.0122   24.7538 H   0  0  0  0  0  0
  -28.1119  -36.2653   24.6220 H   0  0  0  0  0  0
  -27.2309  -37.1356   25.8856 H   0  0  0  0  0  0
  -20.9408  -29.8801   21.6867 H   0  0  0  0  0  0
  -26.0152  -38.2839   24.1462 H   0  0  0  0  0  0
  -29.1622  -20.6932   18.5006 H   0  0  0  0  0  0
  -30.0111  -25.4240   22.2371 H   0  0  0  0  0  0
  -28.8387  -25.8719   23.5831 H   0  0  0  0  0  0
  -29.6628  -23.9421   24.9371 H   0  0  0  0  0  0
  -30.8254  -23.4808   23.5862 H   0  0  0  0  0  0
  -27.9467  -18.3293   21.8900 H   0  0  0  0  0  0
  -27.8717  -18.0605   20.1831 H   0  0  0  0  0  0
  -29.8009  -18.4247   18.7393 H   0  0  0  0  0  0
  -31.2618  -19.1557   19.3419 H   0  0  0  0  0  0
  -28.1455  -15.9000   21.1311 H   0  0  0  0  0  0
  -29.3246  -16.4059   22.3018 H   0  0  0  0  0  0
  -31.8288  -17.2159   20.6814 H   0  0  0  0  0  0
  -31.5502  -16.7522   19.0227 H   0  0  0  0  0  0
  -30.3378  -19.0667   21.6588 H   0  0  0  0  0  0
  -27.7085  -23.6323   23.3647 H   0  0  0  0  0  0
  -29.1183  -22.6875   17.1502 H   0  0  0  0  0  0
  -28.6977  -24.2621   17.8023 H   0  0  0  0  0  0
  -27.4416  -23.0320   17.5762 H   0  0  0  0  0  0
  -28.4458  -19.7893   24.4294 H   0  0  0  0  0  0
  -27.4087  -20.2452   23.0811 H   0  0  0  0  0  0
  -27.8297  -21.4323   24.3217 H   0  0  0  0  0  0
  -27.0172  -24.8783   21.1615 H   0  0  0  0  0  0
  -27.0697  -24.6372   19.4723 H   0  0  0  0  0  0
  1 25  1  0  0  0
  1 30  2  0  0  0
  1 88  1  0  0  0
  2  3  1  0  0  0
  2 25  1  0  0  0
  2 90  1  0  0  0
  2 91  1  0  0  0
  3  4  1  0  0  0
  3 92  1  0  0  0
  3 93  1  0  0  0
  4  5  1  0  0  0
  4 94  1  0  0  0
  4 95  1  0  0  0
  5  6  1  0  0  0
  5 26  1  0  0  0
  5 96  1  0  0  0
  6 25  1  0  0  0
  6 97  1  0  0  0
  6 98  1  0  0  0
  7  8  2  0  0  0
  7 26  1  0  0  0
  7 29  1  0  0  0
  8  9  1  0  0  0
  8 22  1  0  0  0
  9 10  1  0  0  0
  9 27  2  0  0  0
 10 11  2  0  0  0
 10 15  1  0  0  0
 11 12  1  0  0  0
 11 99  1  0  0  0
 12 13  2  0  0  0
 12100  1  0  0  0
 13 14  1  0  0  0
 13 31  1  0  0  0
 14 15  2  0  0  0
 14101  1  0  0  0
 15102  1  0  0  0
 16 17  2  0  0  0
 16 21  1  0  0  0
 16 31  1  0  0  0
 17 18  1  0  0  0
 17103  1  0  0  0
 18 19  2  0  0  0
 18104  1  0  0  0
 19 20  1  0  0  0
 19 24  1  0  0  0
 20 21  2  0  0  0
 20105  1  0  0  0
 21 23  1  0  0  0
 22 28  1  0  0  0
 22 32  2  0  0  0
 26 27  1  0  0  0
 28106  1  0  0  0
 28107  1  0  0  0
 29108  1  0  0  0
 29109  1  0  0  0
 33 34  1  0  0  0
 33 66  1  0  0  0
 33 70  2  0  0  0
 34 36  1  0  0  0
 34 59  1  0  0  0
 34110  1  0  0  0
 35 44  2  0  0  0
 35 45  1  0  0  0
 35 68  1  0  0  0
 36 56  1  0  0  0
 36111  1  0  0  0
 37 39  1  0  0  0
 37 47  1  0  0  0
 37 66  1  0  0  0
 37112  1  0  0  0
 38 43  2  0  0  0
 38 46  1  0  0  0
 38 47  1  0  0  0
 39 64  1  0  0  0
 39 67  2  0  0  0
 40 52  1  0  0  0
 40 53  2  0  0  0
 40 58  1  0  0  0
 41113  1  0  0  0
 41114  1  0  0  0
 41115  1  0  0  0
 41 48  1  0  0  0
 42 43  1  0  0  0
 42 66  1  0  0  0
 42116  1  0  0  0
 42117  1  0  0  0
 43 44  1  0  0  0
 44118  1  0  0  0
 45 46  2  0  0  0
 45119  1  0  0  0
 46120  1  0  0  0
 47121  1  0  0  0
 47122  1  0  0  0
 48 56  1  0  0  0
 48 65  1  0  0  0
 48123  1  0  0  0
 49 50  1  0  0  0
 49 53  1  0  0  0
 49 64  1  0  0  0
 49124  1  0  0  0
 50 51  1  0  0  0
 50125  1  0  0  0
 50126  1  0  0  0
 51 52  1  0  0  0
 51127  1  0  0  0
 51128  1  0  0  0
 52129  1  0  0  0
 52130  1  0  0  0
 53 54  1  0  0  0
 54 55  2  0  0  0
 54131  1  0  0  0
 55 57  1  0  0  0
 55132  1  0  0  0
 56 69  2  0  0  0
 57 58  2  0  0  0
 57133  1  0  0  0
 58134  1  0  0  0
 59 60  1  0  0  0
 59 61  1  0  0  0
 59 62  1  0  0  0
 60135  1  0  0  0
 60136  1  0  0  0
 60137  1  0  0  0
 61138  1  0  0  0
 61139  1  0  0  0
 61140  1  0  0  0
 62141  1  0  0  0
 62142  1  0  0  0
 62143  1  0  0  0
 63 65  1  0  0  0
 63144  1  0  0  0
 63145  1  0  0  0
 63146  1  0  0  0
 64147  1  0  0  0
 65148  1  0  0  0
 68 87  1  0  0  0
 71 72  2  0  0  0
 71 74  1  0  0  0
 71149  1  0  0  0
 72 76  1  0  0  0
 72 83  1  0  0  0
 73 75  1  0  0  0
 73 76  2  0  0  0
 73 84  1  0  0  0
 74 75  2  0  0  0
 74 85  1  0  0  0
 75 87  1  0  0  0
 76 89  1  0  0  0
 77 78  1  0  0  0
 77 84  1  0  0  0
 77150  1  0  0  0
 77151  1  0  0  0
 78 84  1  0  0  0
 78152  1  0  0  0
 78153  1  0  0  0
 79 81  1  0  0  0
 79 83  1  0  0  0
 79154  1  0  0  0
 79155  1  0  0  0
 80 82  1  0  0  0
 80 83  1  0  0  0
 80156  1  0  0  0
 80157  1  0  0  0
 81 88  1  0  0  0
 81158  1  0  0  0
 81159  1  0  0  0
 82 88  1  0  0  0
 82160  1  0  0  0
 82161  1  0  0  0
 83162  1  0  0  0
 84163  1  0  0  0
 85164  1  0  0  0
 85165  1  0  0  0
 85166  1  0  0  0
 86 89  1  0  0  0
 86167  1  0  0  0
 86168  1  0  0  0
 86169  1  0  0  0
 87170  1  0  0  0
 87171  1  0  0  0
M  ISO  4   1 100  68 101  87 101  88 100
M  END
> <chiral flag>
0

> <version>
0

> <s_m_source_file>
/data/baiqing/PycharmProjects/Reinvent-master-3.2/result/LINK_invent/BTK/process_docking_weight1_custom_sum_contain_oxygen_bond_distance_aromatic_linkinvent_7_9_3/rearranged_h_0174.sdf

> <i_m_source_file_index>
35

> <r_mmod_Potential_Energy-OPLS-2005>
507.940338134766

> <r_mmod_Stretch_Energy-OPLS-2005>
115.882110595703

> <r_mmod_Bend_Energy-OPLS-2005>
206.437072753906

> <r_mmod_Torsional_Energy-OPLS-2005>
395.859558105469

> <r_mmod_Improper_Torsional_Energy-OPLS-2005>
17.9310054779053

> <r_mmod_Van_der_Waal_Energy-OPLS-2005>
161.578201293945

> <r_mmod_Electrostatic_Energy-OPLS-2005>
-285.802764892578

> <r_mmod_Solvation_Energy-OPLS-2005>
-198.412933349609

> <b_mmod_Minimization_Converged-OPLS-2005>
0

> <r_mmod_RMS_Derivative-OPLS-2005>
2.00132369995117

$$$$
37
                    3D
 Structure written by MMmdl.
170180  0  0  1  0            999 V2000
  -30.6554  -14.6743   20.4625 C   0  0  0  0  0  0
  -30.4244  -12.3979   19.4727 C   0  0  0  0  0  0
  -29.5081  -12.4774   18.2330 C   0  0  0  0  0  0
  -28.0265  -12.3513   18.6391 C   0  0  0  0  0  0
  -27.6487  -13.2333   19.8614 C   0  0  2  0  0  0
  -28.6970  -13.1404   20.9901 C   0  0  0  0  0  0
  -25.2533  -13.8207   20.5712 C   0  0  0  0  0  0
  -24.1809  -13.0472   20.9222 C   0  0  0  0  0  0
  -24.6390  -11.6947   20.8767 C   0  0  0  0  0  0
  -23.9075  -10.4322   21.0423 C   0  0  0  0  0  0
  -24.3627   -9.4229   21.9194 C   0  0  0  0  0  0
  -23.6303   -8.2268   22.0753 C   0  0  0  0  0  0
  -22.4289   -8.0305   21.3552 C   0  0  0  0  0  0
  -21.9939   -9.0277   20.4654 C   0  0  0  0  0  0
  -22.7252  -10.2158   20.3073 C   0  0  0  0  0  0
  -21.6857   -6.0756   22.5282 C   0  0  0  0  0  0
  -21.4003   -6.5647   23.8207 C   0  0  0  0  0  0
  -21.3671   -5.6796   24.9167 C   0  0  0  0  0  0
  -21.6055   -4.3066   24.7213 C   0  0  0  0  0  0
  -21.8818   -3.8157   23.4326 C   0  0  0  0  0  0
  -21.9188   -4.6983   22.3384 C   0  0  0  0  0  0
  -22.7839  -13.5254   21.1910 C   0  0  0  0  0  0
  -22.1666   -4.2174   21.0966 F   0  0  0  0  0  0
  -21.5643   -3.4542   25.7720 F   0  0  0  0  0  0
  -30.0012  -13.4678   20.4014 N   0  0  0  0  0  0
  -26.2969  -12.9418   20.3350 N   0  0  0  0  0  0
  -25.9326  -11.6562   20.5803 N   0  0  0  0  0  0
  -22.0497  -12.8205   22.0450 N   0  0  0  0  0  0
  -25.4247  -15.1923   20.4094 N   0  0  0  0  0  0
  -31.8503  -14.7492   20.1655 O   0  0  0  0  0  0
  -21.6655   -6.8906   21.4240 O   0  0  0  0  0  0
  -22.3518  -14.5578   20.6797 O   0  0  0  0  0  0
  -24.6303  -31.8576   23.2040 C   0  0  0  0  0  0
  -25.9146  -32.4760   23.8356 C   0  0  1  0  0  0
  -27.2194  -27.2795   20.1148 C   0  0  0  0  0  0
  -25.5945  -33.8563   24.2266 N   0  0  0  0  0  0
  -23.4255  -30.4849   21.5476 C   0  0  2  0  0  0
  -24.8721  -28.9448   20.1085 C   0  0  0  0  0  0
  -22.7497  -29.4627   22.4941 C   0  0  0  0  0  0
  -18.0293  -28.1381   22.8486 C   0  0  0  0  0  0
  -24.1491  -36.7271   23.2648 C   0  0  0  0  0  0
  -25.9734  -30.7743   21.3884 C   0  0  0  0  0  0
  -26.0459  -29.4041   20.7180 C   0  0  0  0  0  0
  -27.2218  -28.5860   20.7109 C   0  0  0  0  0  0
  -26.0151  -26.8899   19.4792 C   0  0  0  0  0  0
  -24.8626  -27.6942   19.4777 C   0  0  0  0  0  0
  -23.6396  -29.8252   20.1611 C   0  0  0  0  0  0
  -25.4129  -36.3096   24.0331 C   0  0  1  0  0  0
  -20.5890  -28.3684   23.1277 C   0  0  2  0  0  0
  -20.6802  -26.9399   22.5417 C   0  0  0  0  0  0
  -19.5772  -26.6367   21.5233 C   0  0  0  0  0  0
  -18.1943  -26.7922   22.1628 C   0  0  0  0  0  0
  -19.1546  -28.8852   23.2875 C   0  0  0  0  0  0
  -18.9471  -30.1462   23.8861 C   0  0  0  0  0  0
  -17.6475  -30.6580   24.0557 C   0  0  0  0  0  0
  -25.9061  -34.9454   23.5094 C   0  0  0  0  0  0
  -16.5359  -29.9066   23.6352 C   0  0  0  0  0  0
  -16.7284  -28.6503   23.0347 C   0  0  0  0  0  0
  -26.4508  -31.6588   25.0749 C   0  0  0  0  0  0
  -25.3700  -31.3715   26.1440 C   0  0  0  0  0  0
  -27.0377  -30.3010   24.6262 C   0  0  0  0  0  0
  -27.6060  -32.4345   25.7502 C   0  0  0  0  0  0
  -27.5590  -37.1806   24.8471 C   0  0  0  0  0  0
  -21.4210  -29.3034   22.3656 N   0  0  0  0  0  0
  -26.4308  -37.3798   23.9404 N   0  0  0  0  0  0
  -24.6954  -31.0547   22.1016 N   0  0  0  0  0  0
  -23.4198  -28.8162   23.3033 O   0  0  0  0  0  0
  -28.3207  -26.3886   20.1457 O   0  0  0  0  0  0
  -26.5653  -34.8931   22.4673 O   0  0  0  0  0  0
  -23.5453  -32.1420   23.7307 O   0  0  0  0  0  0
  -28.3741  -20.8214   18.9835 C   0  0  0  0  0  0
  -29.6471  -19.7866   20.7433 C   0  0  0  0  0  0
  -29.0229  -20.9857   20.2208 C   0  0  0  0  0  0
  -29.0421  -18.4351   18.7984 C   0  0  0  0  0  0
  -28.3601  -19.5839   18.2945 C   0  0  0  0  0  0
  -29.6573  -18.4991   20.0793 C   0  0  0  0  0  0
  -30.4689  -16.6371   17.5089 C   0  0  0  0  0  0
  -29.4803  -17.1512   16.5039 C   0  0  0  0  0  0
  -29.2034  -22.3576   22.4861 C   0  0  0  0  0  0
  -27.7781  -22.3384   22.0665 C   0  0  0  0  0  0
  -29.1278  -17.1661   17.9807 C   0  0  0  0  0  0
  -28.8674  -22.3622   20.9928 C   0  0  0  0  0  0
  -27.5680  -19.5378   16.9955 C   0  0  0  0  0  0
  -30.5223  -24.3306   20.5557 C   0  0  0  0  0  0
  -30.4299  -17.2549   20.7018 C   0  0  0  0  0  0
  -28.0300  -24.9142   20.1786 C   0  0  0  0  0  0
  -29.1489  -23.7394   20.1910 C   0  0  2  0  0  0
  -29.9173  -15.8227   20.6522 N   0  0  0  0  0  0
  -31.4723  -12.4893   19.1781 H   0  0  0  0  0  0
  -30.3365  -11.4205   19.9503 H   0  0  0  0  0  0
  -29.7599  -11.6860   17.5240 H   0  0  0  0  0  0
  -29.6729  -13.4178   17.7086 H   0  0  0  0  0  0
  -27.8368  -11.3023   18.8642 H   0  0  0  0  0  0
  -27.3858  -12.5972   17.7912 H   0  0  0  0  0  0
  -27.6565  -14.2646   19.5100 H   0  0  0  0  0  0
  -28.7109  -12.1385   21.4202 H   0  0  0  0  0  0
  -28.4546  -13.8167   21.8107 H   0  0  0  0  0  0
  -25.2779   -9.5690   22.4771 H   0  0  0  0  0  0
  -24.0014   -7.4643   22.7450 H   0  0  0  0  0  0
  -21.0893   -8.8783   19.8947 H   0  0  0  0  0  0
  -22.3710  -10.9696   19.6184 H   0  0  0  0  0  0
  -21.1988   -7.6157   23.9716 H   0  0  0  0  0  0
  -21.1507   -6.0530   25.9072 H   0  0  0  0  0  0
  -22.0590   -2.7629   23.2815 H   0  0  0  0  0  0
  -22.4092  -11.9810   22.4764 H   0  0  0  0  0  0
  -21.1134  -13.1226   22.2722 H   0  0  0  0  0  0
  -24.6649  -15.8526   20.5240 H   0  0  0  0  0  0
  -26.2772  -15.6325   20.0892 H   0  0  0  0  0  0
  -26.7190  -32.5433   23.1074 H   0  0  0  0  0  0
  -25.0097  -33.9664   25.0413 H   0  0  0  0  0  0
  -22.7253  -31.3107   21.4058 H   0  0  0  0  0  0
  -23.3791  -35.9569   23.3337 H   0  0  0  0  0  0
  -24.3575  -36.8871   22.2058 H   0  0  0  0  0  0
  -23.7198  -37.6458   23.6658 H   0  0  0  0  0  0
  -26.1222  -31.5468   20.6343 H   0  0  0  0  0  0
  -26.8436  -30.8021   22.0329 H   0  0  0  0  0  0
  -28.1197  -28.9346   21.2038 H   0  0  0  0  0  0
  -25.9159  -25.9493   18.9653 H   0  0  0  0  0  0
  -23.9666  -27.3372   18.9896 H   0  0  0  0  0  0
  -23.7511  -30.6057   19.4072 H   0  0  0  0  0  0
  -22.7593  -29.2536   19.8626 H   0  0  0  0  0  0
  -25.1305  -36.1959   25.0828 H   0  0  0  0  0  0
  -20.9975  -28.3281   24.1406 H   0  0  0  0  0  0
  -20.5747  -26.2293   23.3621 H   0  0  0  0  0  0
  -21.6667  -26.7460   22.1180 H   0  0  0  0  0  0
  -19.6951  -25.6286   21.1252 H   0  0  0  0  0  0
  -19.6723  -27.3194   20.6773 H   0  0  0  0  0  0
  -17.4232  -26.6689   21.4011 H   0  0  0  0  0  0
  -18.0319  -26.0045   22.9002 H   0  0  0  0  0  0
  -19.7948  -30.7300   24.2194 H   0  0  0  0  0  0
  -17.5019  -31.6253   24.5168 H   0  0  0  0  0  0
  -15.5357  -30.2944   23.7697 H   0  0  0  0  0  0
  -15.8693  -28.0811   22.7045 H   0  0  0  0  0  0
  -24.5868  -30.7092   25.7736 H   0  0  0  0  0  0
  -24.8883  -32.2856   26.4920 H   0  0  0  0  0  0
  -25.7960  -30.8830   27.0205 H   0  0  0  0  0  0
  -26.2975  -29.6738   24.1274 H   0  0  0  0  0  0
  -27.4045  -29.7307   25.4813 H   0  0  0  0  0  0
  -27.8866  -30.4312   23.9539 H   0  0  0  0  0  0
  -27.2687  -33.3662   26.2062 H   0  0  0  0  0  0
  -28.3858  -32.6879   25.0306 H   0  0  0  0  0  0
  -28.0752  -31.8488   26.5420 H   0  0  0  0  0  0
  -28.2621  -38.0101   24.7544 H   0  0  0  0  0  0
  -28.1066  -36.2624   24.6268 H   0  0  0  0  0  0
  -27.2294  -37.1428   25.8875 H   0  0  0  0  0  0
  -20.9414  -29.8725   21.6823 H   0  0  0  0  0  0
  -26.0198  -38.2881   24.1410 H   0  0  0  0  0  0
  -27.8435  -21.6637   18.5594 H   0  0  0  0  0  0
  -30.1404  -19.8414   21.7004 H   0  0  0  0  0  0
  -31.3562  -17.2467   17.6642 H   0  0  0  0  0  0
  -30.6351  -15.5620   17.5309 H   0  0  0  0  0  0
  -28.9973  -16.4078   15.8707 H   0  0  0  0  0  0
  -29.7477  -18.0818   16.0083 H   0  0  0  0  0  0
  -29.5600  -21.4541   22.9718 H   0  0  0  0  0  0
  -29.5310  -23.2786   22.9609 H   0  0  0  0  0  0
  -27.2295  -23.2238   22.3736 H   0  0  0  0  0  0
  -27.2347  -21.4053   22.2012 H   0  0  0  0  0  0
  -28.3921  -16.4393   18.3176 H   0  0  0  0  0  0
  -28.1953  -19.8569   16.1622 H   0  0  0  0  0  0
  -26.7113  -20.2113   17.0427 H   0  0  0  0  0  0
  -27.1713  -18.5457   16.7780 H   0  0  0  0  0  0
  -30.5159  -24.8164   21.5312 H   0  0  0  0  0  0
  -30.8298  -25.0759   19.8210 H   0  0  0  0  0  0
  -31.2925  -23.5596   20.5670 H   0  0  0  0  0  0
  -31.4247  -17.2785   20.2482 H   0  0  0  0  0  0
  -30.6001  -17.4802   21.7544 H   0  0  0  0  0  0
  -27.3588  -24.7878   21.0215 H   0  0  0  0  0  0
  -27.4454  -24.6657   19.2965 H   0  0  0  0  0  0
  -29.2596  -23.4405   19.1498 H   0  0  0  0  0  0
  -28.9358  -15.6946   20.8443 H   0  0  0  0  0  0
  1 25  1  0  0  0
  1 30  2  0  0  0
  1 88  1  0  0  0
  2  3  1  0  0  0
  2 25  1  0  0  0
  2 89  1  0  0  0
  2 90  1  0  0  0
  3  4  1  0  0  0
  3 91  1  0  0  0
  3 92  1  0  0  0
  4  5  1  0  0  0
  4 93  1  0  0  0
  4 94  1  0  0  0
  5  6  1  0  0  0
  5 26  1  0  0  0
  5 95  1  0  0  0
  6 25  1  0  0  0
  6 96  1  0  0  0
  6 97  1  0  0  0
  7  8  2  0  0  0
  7 26  1  0  0  0
  7 29  1  0  0  0
  8  9  1  0  0  0
  8 22  1  0  0  0
  9 10  1  0  0  0
  9 27  2  0  0  0
 10 11  2  0  0  0
 10 15  1  0  0  0
 11 12  1  0  0  0
 11 98  1  0  0  0
 12 13  2  0  0  0
 12 99  1  0  0  0
 13 14  1  0  0  0
 13 31  1  0  0  0
 14 15  2  0  0  0
 14100  1  0  0  0
 15101  1  0  0  0
 16 17  2  0  0  0
 16 21  1  0  0  0
 16 31  1  0  0  0
 17 18  1  0  0  0
 17102  1  0  0  0
 18 19  2  0  0  0
 18103  1  0  0  0
 19 20  1  0  0  0
 19 24  1  0  0  0
 20 21  2  0  0  0
 20104  1  0  0  0
 21 23  1  0  0  0
 22 28  1  0  0  0
 22 32  2  0  0  0
 26 27  1  0  0  0
 28105  1  0  0  0
 28106  1  0  0  0
 29107  1  0  0  0
 29108  1  0  0  0
 33 34  1  0  0  0
 33 66  1  0  0  0
 33 70  2  0  0  0
 34 36  1  0  0  0
 34 59  1  0  0  0
 34109  1  0  0  0
 35 44  2  0  0  0
 35 45  1  0  0  0
 35 68  1  0  0  0
 36 56  1  0  0  0
 36110  1  0  0  0
 37 39  1  0  0  0
 37 47  1  0  0  0
 37 66  1  0  0  0
 37111  1  0  0  0
 38 43  2  0  0  0
 38 46  1  0  0  0
 38 47  1  0  0  0
 39 64  1  0  0  0
 39 67  2  0  0  0
 40 52  1  0  0  0
 40 53  2  0  0  0
 40 58  1  0  0  0
 41112  1  0  0  0
 41113  1  0  0  0
 41114  1  0  0  0
 41 48  1  0  0  0
 42 43  1  0  0  0
 42 66  1  0  0  0
 42115  1  0  0  0
 42116  1  0  0  0
 43 44  1  0  0  0
 44117  1  0  0  0
 45 46  2  0  0  0
 45118  1  0  0  0
 46119  1  0  0  0
 47120  1  0  0  0
 47121  1  0  0  0
 48 56  1  0  0  0
 48 65  1  0  0  0
 48122  1  0  0  0
 49 50  1  0  0  0
 49 53  1  0  0  0
 49 64  1  0  0  0
 49123  1  0  0  0
 50 51  1  0  0  0
 50124  1  0  0  0
 50125  1  0  0  0
 51 52  1  0  0  0
 51126  1  0  0  0
 51127  1  0  0  0
 52128  1  0  0  0
 52129  1  0  0  0
 53 54  1  0  0  0
 54 55  2  0  0  0
 54130  1  0  0  0
 55 57  1  0  0  0
 55131  1  0  0  0
 56 69  2  0  0  0
 57 58  2  0  0  0
 57132  1  0  0  0
 58133  1  0  0  0
 59 60  1  0  0  0
 59 61  1  0  0  0
 59 62  1  0  0  0
 60134  1  0  0  0
 60135  1  0  0  0
 60136  1  0  0  0
 61137  1  0  0  0
 61138  1  0  0  0
 61139  1  0  0  0
 62140  1  0  0  0
 62141  1  0  0  0
 62142  1  0  0  0
 63 65  1  0  0  0
 63143  1  0  0  0
 63144  1  0  0  0
 63145  1  0  0  0
 64146  1  0  0  0
 65147  1  0  0  0
 68 86  1  0  0  0
 71 73  2  0  0  0
 71 75  1  0  0  0
 71148  1  0  0  0
 72 73  1  0  0  0
 72 76  2  0  0  0
 72149  1  0  0  0
 73 82  1  0  0  0
 74 75  2  0  0  0
 74 76  1  0  0  0
 74 81  1  0  0  0
 75 83  1  0  0  0
 76 85  1  0  0  0
 77 78  1  0  0  0
 77 81  1  0  0  0
 77150  1  0  0  0
 77151  1  0  0  0
 78 81  1  0  0  0
 78152  1  0  0  0
 78153  1  0  0  0
 79 80  1  0  0  0
 79 82  1  0  0  0
 79154  1  0  0  0
 79155  1  0  0  0
 80 82  1  0  0  0
 80156  1  0  0  0
 80157  1  0  0  0
 81158  1  0  0  0
 82 87  1  0  0  0
 83159  1  0  0  0
 83160  1  0  0  0
 83161  1  0  0  0
 84162  1  0  0  0
 84163  1  0  0  0
 84164  1  0  0  0
 84 87  1  0  0  0
 85 88  1  0  0  0
 85165  1  0  0  0
 85166  1  0  0  0
 86 87  1  0  0  0
 86167  1  0  0  0
 86168  1  0  0  0
 87169  1  0  0  0
 88170  1  0  0  0
M  ISO  4   1 100  68 101  86 101  88 100
M  END
> <chiral flag>
0

> <version>
0

> <s_m_source_file>
/data/baiqing/PycharmProjects/Reinvent-master-3.2/result/LINK_invent/BTK/process_docking_weight1_custom_sum_contain_oxygen_bond_distance_aromatic_linkinvent_7_9_3/rearranged_h_0174.sdf

> <i_m_source_file_index>
36

> <r_mmod_Potential_Energy-OPLS-2005>
178.168487548828

> <r_mmod_Stretch_Energy-OPLS-2005>
122.91259765625

> <r_mmod_Bend_Energy-OPLS-2005>
169.319534301758

> <r_mmod_Torsional_Energy-OPLS-2005>
303.432952880859

> <r_mmod_Improper_Torsional_Energy-OPLS-2005>
5.37698793411255

> <r_mmod_Van_der_Waal_Energy-OPLS-2005>
143.689651489258

> <r_mmod_Electrostatic_Energy-OPLS-2005>
-433.89208984375

> <r_mmod_Solvation_Energy-OPLS-2005>
-199.08203125

> <b_mmod_Minimization_Converged-OPLS-2005>
0

> <r_mmod_RMS_Derivative-OPLS-2005>
3.50236821174622

$$$$
38
                    3D
 Structure written by MMmdl.
170180  0  0  1  0            999 V2000
  -30.6904  -14.6737   20.5143 C   0  0  0  0  0  0
  -30.4179  -12.4352   19.4474 C   0  0  0  0  0  0
  -29.4910  -12.4986   18.2165 C   0  0  0  0  0  0
  -28.0216  -12.3073   18.6385 C   0  0  0  0  0  0
  -27.6384  -13.2004   19.8451 C   0  0  2  0  0  0
  -28.6934  -13.0986   20.9761 C   0  0  0  0  0  0
  -25.2497  -13.8125   20.5646 C   0  0  0  0  0  0
  -24.1777  -13.0412   20.9205 C   0  0  0  0  0  0
  -24.6344  -11.6883   20.8766 C   0  0  0  0  0  0
  -23.9028  -10.4277   21.0428 C   0  0  0  0  0  0
  -24.3594   -9.4196   21.9200 C   0  0  0  0  0  0
  -23.6278   -8.2228   22.0760 C   0  0  0  0  0  0
  -22.4262   -8.0267   21.3546 C   0  0  0  0  0  0
  -21.9892   -9.0240   20.4650 C   0  0  0  0  0  0
  -22.7211  -10.2122   20.3068 C   0  0  0  0  0  0
  -21.6849   -6.0729   22.5280 C   0  0  0  0  0  0
  -21.4007   -6.5635   23.8213 C   0  0  0  0  0  0
  -21.3658   -5.6790   24.9176 C   0  0  0  0  0  0
  -21.6045   -4.3052   24.7228 C   0  0  0  0  0  0
  -21.8821   -3.8142   23.4349 C   0  0  0  0  0  0
  -21.9190   -4.6958   22.3405 C   0  0  0  0  0  0
  -22.7809  -13.5223   21.1865 C   0  0  0  0  0  0
  -22.1662   -4.2145   21.0982 F   0  0  0  0  0  0
  -21.5631   -3.4536   25.7741 F   0  0  0  0  0  0
  -29.9790  -13.4960   20.3889 N   0  0  0  0  0  0
  -26.2901  -12.9278   20.3266 N   0  0  0  0  0  0
  -25.9259  -11.6456   20.5772 N   0  0  0  0  0  0
  -22.0450  -12.8223   22.0424 N   0  0  0  0  0  0
  -25.4139  -15.1838   20.3986 N   0  0  0  0  0  0
  -31.8817  -14.6528   20.1876 O   0  0  0  0  0  0
  -21.6630   -6.8864   21.4241 O   0  0  0  0  0  0
  -22.3501  -14.5536   20.6720 O   0  0  0  0  0  0
  -24.6231  -31.8606   23.2026 C   0  0  0  0  0  0
  -25.9091  -32.4781   23.8346 C   0  0  1  0  0  0
  -27.2299  -27.3479   20.1186 C   0  0  0  0  0  0
  -25.5917  -33.8581   24.2282 N   0  0  0  0  0  0
  -23.4155  -30.4823   21.5443 C   0  0  2  0  0  0
  -24.8635  -28.9338   20.1142 C   0  0  0  0  0  0
  -22.7458  -29.4627   22.4951 C   0  0  0  0  0  0
  -18.0288  -28.1370   22.8490 C   0  0  0  0  0  0
  -24.1487  -36.7299   23.2638 C   0  0  0  0  0  0
  -25.9523  -30.8011   21.3668 C   0  0  0  0  0  0
  -26.0302  -29.4288   20.7125 C   0  0  0  0  0  0
  -27.2199  -28.6481   20.7007 C   0  0  0  0  0  0
  -26.0441  -26.8870   19.5105 C   0  0  0  0  0  0
  -24.8706  -27.6668   19.5051 C   0  0  0  0  0  0
  -23.6291  -29.8109   20.1611 C   0  0  0  0  0  0
  -25.4110  -36.3087   24.0332 C   0  0  1  0  0  0
  -20.5882  -28.3675   23.1293 C   0  0  2  0  0  0
  -20.6780  -26.9395   22.5422 C   0  0  0  0  0  0
  -19.5763  -26.6370   21.5218 C   0  0  0  0  0  0
  -18.1941  -26.7913   22.1625 C   0  0  0  0  0  0
  -19.1537  -28.8840   23.2885 C   0  0  0  0  0  0
  -18.9460  -30.1444   23.8897 C   0  0  0  0  0  0
  -17.6461  -30.6579   24.0561 C   0  0  0  0  0  0
  -25.9044  -34.9455   23.5108 C   0  0  0  0  0  0
  -16.5355  -29.9075   23.6323 C   0  0  0  0  0  0
  -16.7276  -28.6490   23.0347 C   0  0  0  0  0  0
  -26.4486  -31.6583   25.0706 C   0  0  0  0  0  0
  -25.3733  -31.3717   26.1445 C   0  0  0  0  0  0
  -27.0321  -30.3012   24.6132 C   0  0  0  0  0  0
  -27.6048  -32.4312   25.7476 C   0  0  0  0  0  0
  -27.5580  -37.1803   24.8466 C   0  0  0  0  0  0
  -21.4174  -29.3034   22.3691 N   0  0  0  0  0  0
  -26.4295  -37.3778   23.9408 N   0  0  0  0  0  0
  -24.6823  -31.0640   22.0956 N   0  0  0  0  0  0
  -23.4193  -28.8179   23.3033 O   0  0  0  0  0  0
  -28.3549  -26.5242   20.1237 O   0  0  0  0  0  0
  -26.5611  -34.8922   22.4672 O   0  0  0  0  0  0
  -23.5403  -32.1395   23.7378 O   0  0  0  0  0  0
  -28.7396  -21.3733   20.5841 C   0  0  0  0  0  0
  -28.3453  -20.2305   21.2447 C   0  0  0  0  0  0
  -27.1208  -20.4073   22.0265 C   0  0  0  0  0  0
  -26.2963  -21.4377   21.8119 C   0  0  0  0  0  0
  -26.6208  -22.5245   20.8950 C   0  0  0  0  0  0
  -25.1140  -21.4712   22.7434 C   0  0  0  0  0  0
  -25.2226  -20.1305   23.4911 C   0  0  0  0  0  0
  -28.1802  -17.6334   20.8161 C   0  0  0  0  0  0
  -30.3751  -18.5739   20.5410 C   0  0  0  0  0  0
  -28.7534  -16.2567   21.2745 C   0  0  0  0  0  0
  -30.9926  -17.1455   20.8228 C   0  0  0  0  0  0
  -29.0516  -18.8200   21.2875 C   0  0  0  0  0  0
  -26.6561  -19.6050   23.2336 C   0  0  2  0  0  0
  -27.5578  -19.8498   24.4551 C   0  0  0  0  0  0
  -28.4217  -23.8724   19.9055 C   0  0  0  0  0  0
  -28.2147  -25.2050   20.7614 C   0  0  0  0  0  0
  -27.9374  -22.5833   20.5338 N   0  0  0  0  0  0
  -30.1060  -15.9259   20.7603 N   0  0  0  0  0  0
  -25.7836  -23.3592   20.5344 O   0  0  0  0  0  0
  -31.4550  -12.5438   19.1267 H   0  0  0  0  0  0
  -30.3655  -11.4530   19.9201 H   0  0  0  0  0  0
  -29.7735  -11.7363   17.4889 H   0  0  0  0  0  0
  -29.6093  -13.4608   17.7150 H   0  0  0  0  0  0
  -27.8852  -11.2569   18.8989 H   0  0  0  0  0  0
  -27.3570  -12.5016   17.7955 H   0  0  0  0  0  0
  -27.6339  -14.2075   19.4336 H   0  0  0  0  0  0
  -28.7455  -12.0734   21.3447 H   0  0  0  0  0  0
  -28.4411  -13.6866   21.8568 H   0  0  0  0  0  0
  -25.2742   -9.5679   22.4772 H   0  0  0  0  0  0
  -23.9997   -7.4620   22.7476 H   0  0  0  0  0  0
  -21.0828   -8.8757   19.8951 H   0  0  0  0  0  0
  -22.3677  -10.9665   19.6179 H   0  0  0  0  0  0
  -21.1996   -7.6141   23.9716 H   0  0  0  0  0  0
  -21.1482   -6.0517   25.9081 H   0  0  0  0  0  0
  -22.0599   -2.7603   23.2850 H   0  0  0  0  0  0
  -22.4060  -11.9886   22.4816 H   0  0  0  0  0  0
  -21.1078  -13.1262   22.2642 H   0  0  0  0  0  0
  -24.6446  -15.8335   20.5168 H   0  0  0  0  0  0
  -26.2605  -15.6269   20.0684 H   0  0  0  0  0  0
  -26.7160  -32.5459   23.1096 H   0  0  0  0  0  0
  -25.0068  -33.9725   25.0430 H   0  0  0  0  0  0
  -22.7078  -31.3011   21.4001 H   0  0  0  0  0  0
  -23.3746  -35.9636   23.3305 H   0  0  0  0  0  0
  -24.3581  -36.8911   22.2052 H   0  0  0  0  0  0
  -23.7248  -37.6506   23.6653 H   0  0  0  0  0  0
  -26.0756  -31.5633   20.5964 H   0  0  0  0  0  0
  -26.8358  -30.8532   21.9915 H   0  0  0  0  0  0
  -28.1204  -29.0255   21.1653 H   0  0  0  0  0  0
  -26.0239  -25.9094   19.0494 H   0  0  0  0  0  0
  -23.9751  -27.2790   19.0392 H   0  0  0  0  0  0
  -23.7454  -30.5841   19.4010 H   0  0  0  0  0  0
  -22.7500  -29.2361   19.8633 H   0  0  0  0  0  0
  -25.1291  -36.1939   25.0827 H   0  0  0  0  0  0
  -20.9974  -28.3246   24.1413 H   0  0  0  0  0  0
  -20.5673  -26.2289   23.3626 H   0  0  0  0  0  0
  -21.6652  -26.7427   22.1220 H   0  0  0  0  0  0
  -19.6927  -25.6284   21.1242 H   0  0  0  0  0  0
  -19.6708  -27.3176   20.6745 H   0  0  0  0  0  0
  -17.4214  -26.6669   21.4020 H   0  0  0  0  0  0
  -18.0336  -26.0051   22.9016 H   0  0  0  0  0  0
  -19.7934  -30.7259   24.2268 H   0  0  0  0  0  0
  -17.5013  -31.6261   24.5153 H   0  0  0  0  0  0
  -15.5352  -30.2974   23.7638 H   0  0  0  0  0  0
  -15.8681  -28.0805   22.7050 H   0  0  0  0  0  0
  -24.5905  -30.7065   25.7784 H   0  0  0  0  0  0
  -24.8929  -32.2881   26.4881 H   0  0  0  0  0  0
  -25.8074  -30.8893   27.0212 H   0  0  0  0  0  0
  -26.2883  -29.6768   24.1168 H   0  0  0  0  0  0
  -27.4045  -29.7260   25.4618 H   0  0  0  0  0  0
  -27.8739  -30.4306   23.9326 H   0  0  0  0  0  0
  -27.2658  -33.3604   26.2067 H   0  0  0  0  0  0
  -28.3853  -32.6882   25.0305 H   0  0  0  0  0  0
  -28.0718  -31.8428   26.5383 H   0  0  0  0  0  0
  -28.2600  -38.0097   24.7502 H   0  0  0  0  0  0
  -28.1071  -36.2626   24.6299 H   0  0  0  0  0  0
  -27.2298  -37.1466   25.8870 H   0  0  0  0  0  0
  -20.9347  -29.8748   21.6898 H   0  0  0  0  0  0
  -26.0176  -38.2856   24.1400 H   0  0  0  0  0  0
  -29.6419  -21.4252   19.9920 H   0  0  0  0  0  0
  -24.1756  -21.5674   22.1963 H   0  0  0  0  0  0
  -25.2117  -22.3188   23.4235 H   0  0  0  0  0  0
  -24.5029  -19.4288   23.0661 H   0  0  0  0  0  0
  -24.9818  -20.2281   24.5505 H   0  0  0  0  0  0
  -27.1567  -17.7209   21.1712 H   0  0  0  0  0  0
  -28.0882  -17.6500   19.7288 H   0  0  0  0  0  0
  -30.2183  -18.6970   19.4682 H   0  0  0  0  0  0
  -31.1013  -19.3369   20.8239 H   0  0  0  0  0  0
  -28.0122  -15.5401   20.9746 H   0  0  0  0  0  0
  -28.7825  -16.2139   22.3641 H   0  0  0  0  0  0
  -31.4259  -17.1543   21.8243 H   0  0  0  0  0  0
  -31.8404  -17.0475   20.1431 H   0  0  0  0  0  0
  -29.2680  -18.6627   22.3430 H   0  0  0  0  0  0
  -26.6191  -18.5366   23.0323 H   0  0  0  0  0  0
  -27.6113  -20.9103   24.7045 H   0  0  0  0  0  0
  -28.5755  -19.5012   24.2876 H   0  0  0  0  0  0
  -27.1781  -19.3225   25.3307 H   0  0  0  0  0  0
  -29.4756  -23.7779   19.6443 H   0  0  0  0  0  0
  -27.8982  -23.9889   18.9556 H   0  0  0  0  0  0
  -28.9534  -25.1828   21.5629 H   0  0  0  0  0  0
  -27.2655  -25.1849   21.2943 H   0  0  0  0  0  0
  1 25  1  0  0  0
  1 30  2  0  0  0
  1 88  1  0  0  0
  2  3  1  0  0  0
  2 25  1  0  0  0
  2 90  1  0  0  0
  2 91  1  0  0  0
  3  4  1  0  0  0
  3 92  1  0  0  0
  3 93  1  0  0  0
  4  5  1  0  0  0
  4 94  1  0  0  0
  4 95  1  0  0  0
  5  6  1  0  0  0
  5 26  1  0  0  0
  5 96  1  0  0  0
  6 25  1  0  0  0
  6 97  1  0  0  0
  6 98  1  0  0  0
  7  8  2  0  0  0
  7 26  1  0  0  0
  7 29  1  0  0  0
  8  9  1  0  0  0
  8 22  1  0  0  0
  9 10  1  0  0  0
  9 27  2  0  0  0
 10 11  2  0  0  0
 10 15  1  0  0  0
 11 12  1  0  0  0
 11 99  1  0  0  0
 12 13  2  0  0  0
 12100  1  0  0  0
 13 14  1  0  0  0
 13 31  1  0  0  0
 14 15  2  0  0  0
 14101  1  0  0  0
 15102  1  0  0  0
 16 17  2  0  0  0
 16 21  1  0  0  0
 16 31  1  0  0  0
 17 18  1  0  0  0
 17103  1  0  0  0
 18 19  2  0  0  0
 18104  1  0  0  0
 19 20  1  0  0  0
 19 24  1  0  0  0
 20 21  2  0  0  0
 20105  1  0  0  0
 21 23  1  0  0  0
 22 28  1  0  0  0
 22 32  2  0  0  0
 26 27  1  0  0  0
 28106  1  0  0  0
 28107  1  0  0  0
 29108  1  0  0  0
 29109  1  0  0  0
 33 34  1  0  0  0
 33 66  1  0  0  0
 33 70  2  0  0  0
 34 36  1  0  0  0
 34 59  1  0  0  0
 34110  1  0  0  0
 35 44  2  0  0  0
 35 45  1  0  0  0
 35 68  1  0  0  0
 36 56  1  0  0  0
 36111  1  0  0  0
 37 39  1  0  0  0
 37 47  1  0  0  0
 37 66  1  0  0  0
 37112  1  0  0  0
 38 43  2  0  0  0
 38 46  1  0  0  0
 38 47  1  0  0  0
 39 64  1  0  0  0
 39 67  2  0  0  0
 40 52  1  0  0  0
 40 53  2  0  0  0
 40 58  1  0  0  0
 41113  1  0  0  0
 41114  1  0  0  0
 41115  1  0  0  0
 41 48  1  0  0  0
 42 43  1  0  0  0
 42 66  1  0  0  0
 42116  1  0  0  0
 42117  1  0  0  0
 43 44  1  0  0  0
 44118  1  0  0  0
 45 46  2  0  0  0
 45119  1  0  0  0
 46120  1  0  0  0
 47121  1  0  0  0
 47122  1  0  0  0
 48 56  1  0  0  0
 48 65  1  0  0  0
 48123  1  0  0  0
 49 50  1  0  0  0
 49 53  1  0  0  0
 49 64  1  0  0  0
 49124  1  0  0  0
 50 51  1  0  0  0
 50125  1  0  0  0
 50126  1  0  0  0
 51 52  1  0  0  0
 51127  1  0  0  0
 51128  1  0  0  0
 52129  1  0  0  0
 52130  1  0  0  0
 53 54  1  0  0  0
 54 55  2  0  0  0
 54131  1  0  0  0
 55 57  1  0  0  0
 55132  1  0  0  0
 56 69  2  0  0  0
 57 58  2  0  0  0
 57133  1  0  0  0
 58134  1  0  0  0
 59 60  1  0  0  0
 59 61  1  0  0  0
 59 62  1  0  0  0
 60135  1  0  0  0
 60136  1  0  0  0
 60137  1  0  0  0
 61138  1  0  0  0
 61139  1  0  0  0
 61140  1  0  0  0
 62141  1  0  0  0
 62142  1  0  0  0
 62143  1  0  0  0
 63 65  1  0  0  0
 63144  1  0  0  0
 63145  1  0  0  0
 63146  1  0  0  0
 64147  1  0  0  0
 65148  1  0  0  0
 68 86  1  0  0  0
 71 72  2  0  0  0
 71 87  1  0  0  0
 71149  1  0  0  0
 72 73  1  0  0  0
 72 82  1  0  0  0
 73 74  2  0  0  0
 73 83  1  0  0  0
 74 75  1  0  0  0
 74 76  1  0  0  0
 75 87  1  0  0  0
 75 89  2  0  0  0
 76 77  1  0  0  0
 76150  1  0  0  0
 76151  1  0  0  0
 77 83  1  0  0  0
 77152  1  0  0  0
 77153  1  0  0  0
 78 80  1  0  0  0
 78 82  1  0  0  0
 78154  1  0  0  0
 78155  1  0  0  0
 79 81  1  0  0  0
 79 82  1  0  0  0
 79156  1  0  0  0
 79157  1  0  0  0
 80 88  1  0  0  0
 80158  1  0  0  0
 80159  1  0  0  0
 81 88  1  0  0  0
 81160  1  0  0  0
 81161  1  0  0  0
 82162  1  0  0  0
 83 84  1  0  0  0
 83163  1  0  0  0
 84164  1  0  0  0
 84165  1  0  0  0
 84166  1  0  0  0
 85 86  1  0  0  0
 85 87  1  0  0  0
 85167  1  0  0  0
 85168  1  0  0  0
 86169  1  0  0  0
 86170  1  0  0  0
M  ISO  4   1 100  68 101  86 101  88 100
M  END
> <chiral flag>
0

> <version>
0

> <s_m_source_file>
/data/baiqing/PycharmProjects/Reinvent-master-3.2/result/LINK_invent/BTK/process_docking_weight1_custom_sum_contain_oxygen_bond_distance_aromatic_linkinvent_7_9_3/rearranged_h_0174.sdf

> <i_m_source_file_index>
37

> <r_mmod_Potential_Energy-OPLS-2005>
434.630157470703

> <r_mmod_Stretch_Energy-OPLS-2005>
96.0138549804688

> <r_mmod_Bend_Energy-OPLS-2005>
236.361312866211

> <r_mmod_Torsional_Energy-OPLS-2005>
351.778564453125

> <r_mmod_Improper_Torsional_Energy-OPLS-2005>
6.36081886291504

> <r_mmod_Van_der_Waal_Energy-OPLS-2005>
165.732666015625

> <r_mmod_Electrostatic_Energy-OPLS-2005>
-272.401885986328

> <r_mmod_Solvation_Energy-OPLS-2005>
-199.935394287109

> <b_mmod_Minimization_Converged-OPLS-2005>
0

> <r_mmod_RMS_Derivative-OPLS-2005>
0.826760411262512

$$$$
39
                    3D
 Structure written by MMmdl.
159168  0  0  1  0            999 V2000
  -30.5235  -14.9876   20.4174 C   0  0  0  0  0  0
  -30.4449  -12.6204   19.4877 C   0  0  0  0  0  0
  -29.5257  -12.5311   18.2486 C   0  0  0  0  0  0
  -28.0586  -12.3115   18.6709 C   0  0  0  0  0  0
  -27.6266  -13.2501   19.8287 C   0  0  2  0  0  0
  -28.6707  -13.2963   20.9619 C   0  0  0  0  0  0
  -25.2461  -13.8214   20.5711 C   0  0  0  0  0  0
  -24.1785  -13.0436   20.9242 C   0  0  0  0  0  0
  -24.6408  -11.6926   20.8758 C   0  0  0  0  0  0
  -23.9099  -10.4289   21.0401 C   0  0  0  0  0  0
  -24.3651   -9.4199   21.9171 C   0  0  0  0  0  0
  -23.6318   -8.2243   22.0750 C   0  0  0  0  0  0
  -22.4295   -8.0287   21.3542 C   0  0  0  0  0  0
  -21.9933   -9.0265   20.4642 C   0  0  0  0  0  0
  -22.7275  -10.2135   20.3041 C   0  0  0  0  0  0
  -21.6854   -6.0748   22.5277 C   0  0  0  0  0  0
  -21.4016   -6.5648   23.8214 C   0  0  0  0  0  0
  -21.3660   -5.6792   24.9170 C   0  0  0  0  0  0
  -21.6048   -4.3060   24.7217 C   0  0  0  0  0  0
  -21.8820   -3.8157   23.4335 C   0  0  0  0  0  0
  -21.9191   -4.6979   22.3395 C   0  0  0  0  0  0
  -22.7803  -13.5210   21.1879 C   0  0  0  0  0  0
  -22.1650   -4.2169   21.0967 F   0  0  0  0  0  0
  -21.5627   -3.4533   25.7726 F   0  0  0  0  0  0
  -29.9340  -13.7238   20.3496 N   0  0  0  0  0  0
  -26.2880  -12.9454   20.3210 N   0  0  0  0  0  0
  -25.9341  -11.6588   20.5741 N   0  0  0  0  0  0
  -22.0432  -12.8211   22.0426 N   0  0  0  0  0  0
  -25.4090  -15.1947   20.4120 N   0  0  0  0  0  0
  -31.7424  -15.0402   20.2181 O   0  0  0  0  0  0
  -21.6648   -6.8898   21.4243 O   0  0  0  0  0  0
  -22.3496  -14.5506   20.6701 O   0  0  0  0  0  0
  -24.6470  -31.8413   23.1851 C   0  0  0  0  0  0
  -25.9224  -32.4681   23.8260 C   0  0  1  0  0  0
  -27.2120  -27.0975   20.1608 C   0  0  0  0  0  0
  -25.5950  -33.8489   24.2171 N   0  0  0  0  0  0
  -23.4515  -30.4604   21.5318 C   0  0  2  0  0  0
  -24.8992  -28.8778   20.1146 C   0  0  0  0  0  0
  -22.7581  -29.4542   22.4847 C   0  0  0  0  0  0
  -18.0311  -28.1391   22.8467 C   0  0  0  0  0  0
  -24.1490  -36.7255   23.2642 C   0  0  0  0  0  0
  -26.0101  -30.7028   21.3891 C   0  0  0  0  0  0
  -26.0790  -29.3092   20.7337 C   0  0  0  0  0  0
  -27.2360  -28.4360   20.7366 C   0  0  0  0  0  0
  -26.0071  -26.7794   19.4975 C   0  0  0  0  0  0
  -24.8783  -27.6280   19.4792 C   0  0  0  0  0  0
  -23.6795  -29.7868   20.1529 C   0  0  0  0  0  0
  -25.4121  -36.3027   24.0313 C   0  0  1  0  0  0
  -20.5924  -28.3729   23.1220 C   0  0  2  0  0  0
  -20.6790  -26.9426   22.5396 C   0  0  0  0  0  0
  -19.5763  -26.6373   21.5203 C   0  0  0  0  0  0
  -18.1947  -26.7928   22.1616 C   0  0  0  0  0  0
  -19.1566  -28.8877   23.2833 C   0  0  0  0  0  0
  -18.9478  -30.1470   23.8862 C   0  0  0  0  0  0
  -17.6475  -30.6586   24.0556 C   0  0  0  0  0  0
  -25.9072  -34.9405   23.5055 C   0  0  0  0  0  0
  -16.5368  -29.9077   23.6335 C   0  0  0  0  0  0
  -16.7298  -28.6497   23.0357 C   0  0  0  0  0  0
  -26.4527  -31.6565   25.0723 C   0  0  0  0  0  0
  -25.3697  -31.3769   26.1408 C   0  0  0  0  0  0
  -27.0399  -30.2955   24.6336 C   0  0  0  0  0  0
  -27.6046  -32.4342   25.7516 C   0  0  0  0  0  0
  -27.5576  -37.1783   24.8462 C   0  0  0  0  0  0
  -21.4271  -29.3052   22.3589 N   0  0  0  0  0  0
  -26.4285  -37.3741   23.9411 N   0  0  0  0  0  0
  -24.7230  -31.0244   22.0898 N   0  0  0  0  0  0
  -23.4208  -28.8087   23.3009 O   0  0  0  0  0  0
  -28.2668  -26.1033   20.2038 O   0  0  0  0  0  0
  -26.5662  -34.8908   22.4634 O   0  0  0  0  0  0
  -23.5584  -32.1307   23.7053 O   0  0  0  0  0  0
  -29.4071  -20.4677   20.6858 C   0  0  0  0  0  0
  -28.9499  -21.6629   19.9262 C   0  0  0  0  0  0
  -28.6081  -21.3207   18.6177 C   0  0  0  0  0  0
  -29.3834  -19.0709   20.1544 C   0  0  0  0  0  0
  -28.5307  -19.9798   18.1609 C   0  0  0  0  0  0
  -28.6104  -22.5474   17.7368 C   0  0  0  0  0  0
  -29.4774  -23.5544   18.5305 C   0  0  0  0  0  0
  -29.1631  -23.3170   20.0302 C   0  0  2  0  0  0
  -28.1541  -19.6796   16.7236 C   0  0  0  0  0  0
  -30.3682  -23.5995   20.9393 C   0  0  0  0  0  0
  -30.0834  -17.7042   20.7856 C   0  0  0  0  0  0
  -28.0148  -24.5466   20.3022 C   0  0  0  0  0  0
  -28.8768  -18.8990   18.9122 N   0  0  0  0  0  0
  -29.7405  -16.1765   20.5126 N   0  0  0  0  0  0
  -31.4750  -12.7945   19.1718 H   0  0  0  0  0  0
  -30.4588  -11.6778   20.0361 H   0  0  0  0  0  0
  -29.8545  -11.7226   17.5946 H   0  0  0  0  0  0
  -29.6079  -13.4486   17.6632 H   0  0  0  0  0  0
  -27.9603  -11.2734   18.9903 H   0  0  0  0  0  0
  -27.3973  -12.4297   17.8117 H   0  0  0  0  0  0
  -27.5829  -14.2478   19.3913 H   0  0  0  0  0  0
  -28.7731  -12.3260   21.4505 H   0  0  0  0  0  0
  -28.3666  -14.0035   21.7360 H   0  0  0  0  0  0
  -25.2784   -9.5692   22.4756 H   0  0  0  0  0  0
  -24.0025   -7.4643   22.7478 H   0  0  0  0  0  0
  -21.0853   -8.8801   19.8953 H   0  0  0  0  0  0
  -22.3726  -10.9689   19.6164 H   0  0  0  0  0  0
  -21.2001   -7.6153   23.9731 H   0  0  0  0  0  0
  -21.1480   -6.0508   25.9079 H   0  0  0  0  0  0
  -22.0596   -2.7620   23.2817 H   0  0  0  0  0  0
  -22.4058  -11.9910   22.4878 H   0  0  0  0  0  0
  -21.1036  -13.1232   22.2584 H   0  0  0  0  0  0
  -24.6344  -15.8397   20.5249 H   0  0  0  0  0  0
  -26.2398  -15.6390   20.0429 H   0  0  0  0  0  0
  -26.7288  -32.5277   23.0985 H   0  0  0  0  0  0
  -25.0096  -33.9586   25.0319 H   0  0  0  0  0  0
  -22.7566  -31.2876   21.3743 H   0  0  0  0  0  0
  -23.3762  -35.9574   23.3277 H   0  0  0  0  0  0
  -24.3579  -36.8919   22.2063 H   0  0  0  0  0  0
  -23.7232  -37.6437   23.6698 H   0  0  0  0  0  0
  -26.1691  -31.4531   20.6137 H   0  0  0  0  0  0
  -26.8789  -30.7550   22.0342 H   0  0  0  0  0  0
  -28.1360  -28.7624   21.2376 H   0  0  0  0  0  0
  -25.9044  -25.8363   18.9850 H   0  0  0  0  0  0
  -23.9813  -27.2951   18.9751 H   0  0  0  0  0  0
  -23.8212  -30.5586   19.3957 H   0  0  0  0  0  0
  -22.7928  -29.2330   19.8395 H   0  0  0  0  0  0
  -25.1309  -36.1849   25.0806 H   0  0  0  0  0  0
  -21.0022  -28.3321   24.1340 H   0  0  0  0  0  0
  -20.5672  -26.2349   23.3621 H   0  0  0  0  0  0
  -21.6658  -26.7414   22.1204 H   0  0  0  0  0  0
  -19.6923  -25.6271   21.1262 H   0  0  0  0  0  0
  -19.6700  -27.3161   20.6712 H   0  0  0  0  0  0
  -17.4216  -26.6673   21.4021 H   0  0  0  0  0  0
  -18.0347  -26.0071   22.9016 H   0  0  0  0  0  0
  -19.7955  -30.7287   24.2223 H   0  0  0  0  0  0
  -17.5032  -31.6265   24.5161 H   0  0  0  0  0  0
  -15.5367  -30.2970   23.7668 H   0  0  0  0  0  0
  -15.8701  -28.0801   22.7095 H   0  0  0  0  0  0
  -24.5874  -30.7118   25.7729 H   0  0  0  0  0  0
  -24.8888  -32.2961   26.4770 H   0  0  0  0  0  0
  -25.7967  -30.8981   27.0232 H   0  0  0  0  0  0
  -26.3027  -29.6669   24.1332 H   0  0  0  0  0  0
  -27.3984  -29.7265   25.4927 H   0  0  0  0  0  0
  -27.8949  -30.4184   23.9683 H   0  0  0  0  0  0
  -27.2624  -33.3663   26.2028 H   0  0  0  0  0  0
  -28.3893  -32.6872   25.0373 H   0  0  0  0  0  0
  -28.0675  -31.8515   26.5492 H   0  0  0  0  0  0
  -28.2572  -38.0100   24.7518 H   0  0  0  0  0  0
  -28.1088  -36.2628   24.6268 H   0  0  0  0  0  0
  -27.2296  -37.1413   25.8865 H   0  0  0  0  0  0
  -20.9485  -29.8784   21.6780 H   0  0  0  0  0  0
  -26.0149  -38.2808   24.1414 H   0  0  0  0  0  0
  -29.8689  -20.6307   21.6501 H   0  0  0  0  0  0
  -27.5891  -22.9086   17.6103 H   0  0  0  0  0  0
  -29.0311  -22.3533   16.7501 H   0  0  0  0  0  0
  -29.3527  -24.5854   18.1963 H   0  0  0  0  0  0
  -30.5238  -23.3008   18.3492 H   0  0  0  0  0  0
  -27.3292  -20.3133   16.3997 H   0  0  0  0  0  0
  -27.8451  -18.6412   16.5945 H   0  0  0  0  0  0
  -29.0056  -19.8678   16.0686 H   0  0  0  0  0  0
  -31.2408  -23.0175   20.6402 H   0  0  0  0  0  0
  -30.1378  -23.3389   21.9722 H   0  0  0  0  0  0
  -30.6428  -24.6543   20.9149 H   0  0  0  0  0  0
  -30.0121  -17.8236   21.8660 H   0  0  0  0  0  0
  -31.1480  -17.8115   20.5753 H   0  0  0  0  0  0
  -27.6038  -24.3826   21.2990 H   0  0  0  0  0  0
  -27.1891  -24.3128   19.6345 H   0  0  0  0  0  0
  -28.7468  -16.0059   20.5049 H   0  0  0  0  0  0
  1 25  1  0  0  0
  1 30  2  0  0  0
  1 84  1  0  0  0
  2  3  1  0  0  0
  2 25  1  0  0  0
  2 85  1  0  0  0
  2 86  1  0  0  0
  3  4  1  0  0  0
  3 87  1  0  0  0
  3 88  1  0  0  0
  4  5  1  0  0  0
  4 89  1  0  0  0
  4 90  1  0  0  0
  5  6  1  0  0  0
  5 26  1  0  0  0
  5 91  1  0  0  0
  6 25  1  0  0  0
  6 92  1  0  0  0
  6 93  1  0  0  0
  7  8  2  0  0  0
  7 26  1  0  0  0
  7 29  1  0  0  0
  8  9  1  0  0  0
  8 22  1  0  0  0
  9 10  1  0  0  0
  9 27  2  0  0  0
 10 11  2  0  0  0
 10 15  1  0  0  0
 11 12  1  0  0  0
 11 94  1  0  0  0
 12 13  2  0  0  0
 12 95  1  0  0  0
 13 14  1  0  0  0
 13 31  1  0  0  0
 14 15  2  0  0  0
 14 96  1  0  0  0
 15 97  1  0  0  0
 16 17  2  0  0  0
 16 21  1  0  0  0
 16 31  1  0  0  0
 17 18  1  0  0  0
 17 98  1  0  0  0
 18 19  2  0  0  0
 18 99  1  0  0  0
 19 20  1  0  0  0
 19 24  1  0  0  0
 20 21  2  0  0  0
 20100  1  0  0  0
 21 23  1  0  0  0
 22 28  1  0  0  0
 22 32  2  0  0  0
 26 27  1  0  0  0
 28101  1  0  0  0
 28102  1  0  0  0
 29103  1  0  0  0
 29104  1  0  0  0
 33 34  1  0  0  0
 33 66  1  0  0  0
 33 70  2  0  0  0
 34 36  1  0  0  0
 34 59  1  0  0  0
 34105  1  0  0  0
 35 44  2  0  0  0
 35 45  1  0  0  0
 35 68  1  0  0  0
 36 56  1  0  0  0
 36106  1  0  0  0
 37 39  1  0  0  0
 37 47  1  0  0  0
 37 66  1  0  0  0
 37107  1  0  0  0
 38 43  2  0  0  0
 38 46  1  0  0  0
 38 47  1  0  0  0
 39 64  1  0  0  0
 39 67  2  0  0  0
 40 52  1  0  0  0
 40 53  2  0  0  0
 40 58  1  0  0  0
 41108  1  0  0  0
 41109  1  0  0  0
 41110  1  0  0  0
 41 48  1  0  0  0
 42 43  1  0  0  0
 42 66  1  0  0  0
 42111  1  0  0  0
 42112  1  0  0  0
 43 44  1  0  0  0
 44113  1  0  0  0
 45 46  2  0  0  0
 45114  1  0  0  0
 46115  1  0  0  0
 47116  1  0  0  0
 47117  1  0  0  0
 48 56  1  0  0  0
 48 65  1  0  0  0
 48118  1  0  0  0
 49 50  1  0  0  0
 49 53  1  0  0  0
 49 64  1  0  0  0
 49119  1  0  0  0
 50 51  1  0  0  0
 50120  1  0  0  0
 50121  1  0  0  0
 51 52  1  0  0  0
 51122  1  0  0  0
 51123  1  0  0  0
 52124  1  0  0  0
 52125  1  0  0  0
 53 54  1  0  0  0
 54 55  2  0  0  0
 54126  1  0  0  0
 55 57  1  0  0  0
 55127  1  0  0  0
 56 69  2  0  0  0
 57 58  2  0  0  0
 57128  1  0  0  0
 58129  1  0  0  0
 59 60  1  0  0  0
 59 61  1  0  0  0
 59 62  1  0  0  0
 60130  1  0  0  0
 60131  1  0  0  0
 60132  1  0  0  0
 61133  1  0  0  0
 61134  1  0  0  0
 61135  1  0  0  0
 62136  1  0  0  0
 62137  1  0  0  0
 62138  1  0  0  0
 63 65  1  0  0  0
 63139  1  0  0  0
 63140  1  0  0  0
 63141  1  0  0  0
 64142  1  0  0  0
 65143  1  0  0  0
 68 82  1  0  0  0
 71 72  2  0  0  0
 71 74  1  0  0  0
 71144  1  0  0  0
 72 73  1  0  0  0
 72 78  1  0  0  0
 73 75  2  0  0  0
 73 76  1  0  0  0
 74 81  1  0  0  0
 74 83  2  0  0  0
 75 79  1  0  0  0
 75 83  1  0  0  0
 76 77  1  0  0  0
 76145  1  0  0  0
 76146  1  0  0  0
 77 78  1  0  0  0
 77147  1  0  0  0
 77148  1  0  0  0
 78 80  1  0  0  0
 78 82  1  0  0  0
 79149  1  0  0  0
 79150  1  0  0  0
 79151  1  0  0  0
 80152  1  0  0  0
 80153  1  0  0  0
 80154  1  0  0  0
 81 84  1  0  0  0
 81155  1  0  0  0
 81156  1  0  0  0
 82157  1  0  0  0
 82158  1  0  0  0
 84159  1  0  0  0
M  ISO  4   1 100  68 101  82 101  84 100
M  END
> <chiral flag>
0

> <version>
0

> <s_m_source_file>
/data/baiqing/PycharmProjects/Reinvent-master-3.2/result/LINK_invent/BTK/process_docking_weight1_custom_sum_contain_oxygen_bond_distance_aromatic_linkinvent_7_9_3/rearranged_h_0174.sdf

> <i_m_source_file_index>
38

> <r_mmod_Potential_Energy-OPLS-2005>
361.847106933594

> <r_mmod_Stretch_Energy-OPLS-2005>
284.794891357422

> <r_mmod_Bend_Energy-OPLS-2005>
334.853759765625

> <r_mmod_Torsional_Energy-OPLS-2005>
245.359130859375

> <r_mmod_Improper_Torsional_Energy-OPLS-2005>
11.5372772216797

> <r_mmod_Van_der_Waal_Energy-OPLS-2005>
127.502319335938

> <r_mmod_Electrostatic_Energy-OPLS-2005>
-641.953735351562

> <r_mmod_Solvation_Energy-OPLS-2005>
-223.999145507812

> <b_mmod_Minimization_Converged-OPLS-2005>
0

> <r_mmod_RMS_Derivative-OPLS-2005>
1.81795835494995

$$$$
40
                    3D
 Structure written by MMmdl.
161170  0  0  1  0            999 V2000
  -30.6795  -14.5825   20.5014 C   0  0  0  0  0  0
  -30.4250  -12.3566   19.4533 C   0  0  0  0  0  0
  -29.5060  -12.4958   18.2216 C   0  0  0  0  0  0
  -28.0262  -12.3510   18.6299 C   0  0  0  0  0  0
  -27.6535  -13.2184   19.8628 C   0  0  2  0  0  0
  -28.6972  -13.0785   20.9927 C   0  0  0  0  0  0
  -25.2557  -13.8175   20.5675 C   0  0  0  0  0  0
  -24.1821  -13.0451   20.9177 C   0  0  0  0  0  0
  -24.6397  -11.6914   20.8734 C   0  0  0  0  0  0
  -23.9059  -10.4301   21.0403 C   0  0  0  0  0  0
  -24.3615   -9.4213   21.9179 C   0  0  0  0  0  0
  -23.6282   -8.2253   22.0750 C   0  0  0  0  0  0
  -22.4260   -8.0294   21.3552 C   0  0  0  0  0  0
  -21.9897   -9.0271   20.4655 C   0  0  0  0  0  0
  -22.7233  -10.2146   20.3057 C   0  0  0  0  0  0
  -21.6868   -6.0727   22.5266 C   0  0  0  0  0  0
  -21.4037   -6.5628   23.8205 C   0  0  0  0  0  0
  -21.3651   -5.6781   24.9166 C   0  0  0  0  0  0
  -21.6039   -4.3048   24.7214 C   0  0  0  0  0  0
  -21.8830   -3.8135   23.4342 C   0  0  0  0  0  0
  -21.9204   -4.6953   22.3396 C   0  0  0  0  0  0
  -22.7839  -13.5238   21.1829 C   0  0  0  0  0  0
  -22.1665   -4.2137   21.0974 F   0  0  0  0  0  0
  -21.5616   -3.4534   25.7732 F   0  0  0  0  0  0
  -30.0144  -13.3905   20.4213 N   0  0  0  0  0  0
  -26.2991  -12.9359   20.3330 N   0  0  0  0  0  0
  -25.9329  -11.6512   20.5758 N   0  0  0  0  0  0
  -22.0486  -12.8243   22.0407 N   0  0  0  0  0  0
  -25.4273  -15.1890   20.4054 N   0  0  0  0  0  0
  -31.8566  -14.6812   20.1407 O   0  0  0  0  0  0
  -21.6644   -6.8877   21.4237 O   0  0  0  0  0  0
  -22.3519  -14.5531   20.6673 O   0  0  0  0  0  0
  -24.6210  -31.8632   23.2052 C   0  0  0  0  0  0
  -25.9081  -32.4788   23.8376 C   0  0  1  0  0  0
  -27.2330  -27.3737   20.1206 C   0  0  0  0  0  0
  -25.5921  -33.8580   24.2312 N   0  0  0  0  0  0
  -23.4136  -30.4867   21.5437 C   0  0  2  0  0  0
  -24.8671  -28.9494   20.1085 C   0  0  0  0  0  0
  -22.7449  -29.4636   22.4915 C   0  0  0  0  0  0
  -18.0289  -28.1377   22.8467 C   0  0  0  0  0  0
  -24.1485  -36.7285   23.2628 C   0  0  0  0  0  0
  -25.9491  -30.8120   21.3702 C   0  0  0  0  0  0
  -26.0304  -29.4429   20.7148 C   0  0  0  0  0  0
  -27.2206  -28.6642   20.7173 C   0  0  0  0  0  0
  -26.0565  -26.9216   19.4868 C   0  0  0  0  0  0
  -24.8779  -27.6902   19.4873 C   0  0  0  0  0  0
  -23.6311  -29.8225   20.1576 C   0  0  0  0  0  0
  -25.4102  -36.3071   24.0332 C   0  0  1  0  0  0
  -20.5884  -28.3672   23.1259 C   0  0  2  0  0  0
  -20.6771  -26.9394   22.5385 C   0  0  0  0  0  0
  -19.5756  -26.6376   21.5176 C   0  0  0  0  0  0
  -18.1941  -26.7911   22.1600 C   0  0  0  0  0  0
  -19.1535  -28.8835   23.2864 C   0  0  0  0  0  0
  -18.9475  -30.1435   23.8888 C   0  0  0  0  0  0
  -17.6477  -30.6572   24.0563 C   0  0  0  0  0  0
  -25.9040  -34.9452   23.5123 C   0  0  0  0  0  0
  -16.5362  -29.9076   23.6322 C   0  0  0  0  0  0
  -16.7282  -28.6491   23.0337 C   0  0  0  0  0  0
  -26.4494  -31.6559   25.0714 C   0  0  0  0  0  0
  -25.3773  -31.3739   26.1495 C   0  0  0  0  0  0
  -27.0267  -30.2959   24.6130 C   0  0  0  0  0  0
  -27.6105  -32.4232   25.7451 C   0  0  0  0  0  0
  -27.5579  -37.1779   24.8458 C   0  0  0  0  0  0
  -21.4158  -29.3035   22.3652 N   0  0  0  0  0  0
  -26.4271  -37.3777   23.9429 N   0  0  0  0  0  0
  -24.6787  -31.0697   22.0971 N   0  0  0  0  0  0
  -23.4187  -28.8164   23.2971 O   0  0  0  0  0  0
  -28.3232  -26.5098   20.1730 O   0  0  0  0  0  0
  -26.5593  -34.8911   22.4674 O   0  0  0  0  0  0
  -23.5387  -32.1407   23.7410 O   0  0  0  0  0  0
  -30.0875  -23.7810   21.4162 C   0  0  0  0  0  0
  -30.6235  -22.4700   21.4458 C   0  0  0  0  0  0
  -28.8207  -24.0118   20.8380 C   0  0  0  0  0  0
  -28.1880  -22.8694   20.2668 C   0  0  0  0  0  0
  -29.8976  -21.3865   20.9114 C   0  0  0  0  0  0
  -29.9373  -17.7938   21.9745 C   0  0  0  0  0  0
  -30.3946  -18.0396   19.5615 C   0  0  0  0  0  0
  -29.3674  -16.3587   21.7272 C   0  0  0  0  0  0
  -29.8245  -16.6074   19.3345 C   0  0  0  0  0  0
  -29.7759  -18.7718   20.7756 C   0  0  0  0  0  0
  -26.8319  -22.9777   19.5971 C   0  0  0  0  0  0
  -28.0921  -25.3755   21.0657 C   0  0  0  0  0  0
  -28.7084  -21.6029   20.3066 N   0  0  0  0  0  0
  -29.9002  -15.7120   20.5128 N   0  0  0  0  0  0
  -30.4348  -20.0773   21.0320 N   0  0  0  0  0  0
  -31.4700  -12.4523   19.1560 H   0  0  0  0  0  0
  -30.3307  -11.3641   19.8973 H   0  0  0  0  0  0
  -29.7626  -11.7445   17.4736 H   0  0  0  0  0  0
  -29.6669  -13.4650   17.7446 H   0  0  0  0  0  0
  -27.8502  -11.2970   18.8504 H   0  0  0  0  0  0
  -27.3786  -12.5964   17.7878 H   0  0  0  0  0  0
  -27.6714  -14.2550   19.5252 H   0  0  0  0  0  0
  -28.6941  -12.0651   21.3956 H   0  0  0  0  0  0
  -28.4550  -13.7358   21.8275 H   0  0  0  0  0  0
  -25.2769   -9.5689   22.4742 H   0  0  0  0  0  0
  -24.0012   -7.4638   22.7453 H   0  0  0  0  0  0
  -21.0836   -8.8795   19.8946 H   0  0  0  0  0  0
  -22.3700  -10.9685   19.6159 H   0  0  0  0  0  0
  -21.2048   -7.6142   23.9700 H   0  0  0  0  0  0
  -21.1445   -6.0513   25.9065 H   0  0  0  0  0  0
  -22.0615   -2.7601   23.2851 H   0  0  0  0  0  0
  -22.4109  -11.9942   22.4844 H   0  0  0  0  0  0
  -21.1097  -13.1262   22.2578 H   0  0  0  0  0  0
  -24.6614  -15.8465   20.4993 H   0  0  0  0  0  0
  -26.2828  -15.6196   20.0793 H   0  0  0  0  0  0
  -26.7148  -32.5492   23.1128 H   0  0  0  0  0  0
  -25.0107  -33.9741   25.0485 H   0  0  0  0  0  0
  -22.7043  -31.3046   21.3993 H   0  0  0  0  0  0
  -23.3762  -35.9597   23.3254 H   0  0  0  0  0  0
  -24.3608  -36.8947   22.2052 H   0  0  0  0  0  0
  -23.7210  -37.6461   23.6681 H   0  0  0  0  0  0
  -26.0757  -31.5791   20.6051 H   0  0  0  0  0  0
  -26.8299  -30.8616   21.9977 H   0  0  0  0  0  0
  -28.1106  -29.0335   21.2076 H   0  0  0  0  0  0
  -26.0447  -25.9525   19.0115 H   0  0  0  0  0  0
  -23.9866  -27.3017   19.0137 H   0  0  0  0  0  0
  -23.7486  -30.5998   19.4005 H   0  0  0  0  0  0
  -22.7542  -29.2479   19.8530 H   0  0  0  0  0  0
  -25.1263  -36.1921   25.0818 H   0  0  0  0  0  0
  -20.9979  -28.3258   24.1375 H   0  0  0  0  0  0
  -20.5620  -26.2294   23.3586 H   0  0  0  0  0  0
  -21.6657  -26.7400   22.1217 H   0  0  0  0  0  0
  -19.6918  -25.6285   21.1215 H   0  0  0  0  0  0
  -19.6681  -27.3178   20.6698 H   0  0  0  0  0  0
  -17.4188  -26.6609   21.4038 H   0  0  0  0  0  0
  -18.0382  -26.0067   22.9011 H   0  0  0  0  0  0
  -19.7966  -30.7241   24.2252 H   0  0  0  0  0  0
  -17.5049  -31.6254   24.5164 H   0  0  0  0  0  0
  -15.5368  -30.2979   23.7652 H   0  0  0  0  0  0
  -15.8678  -28.0812   22.7053 H   0  0  0  0  0  0
  -24.5813  -30.7240   25.7852 H   0  0  0  0  0  0
  -24.9154  -32.2950   26.5062 H   0  0  0  0  0  0
  -25.8117  -30.8771   27.0181 H   0  0  0  0  0  0
  -26.2782  -29.6729   24.1217 H   0  0  0  0  0  0
  -27.4018  -29.7199   25.4605 H   0  0  0  0  0  0
  -27.8660  -30.4214   23.9280 H   0  0  0  0  0  0
  -27.2796  -33.3580   26.1992 H   0  0  0  0  0  0
  -28.3938  -32.6684   25.0261 H   0  0  0  0  0  0
  -28.0725  -31.8345   26.5391 H   0  0  0  0  0  0
  -28.2563  -38.0108   24.7552 H   0  0  0  0  0  0
  -28.1097  -36.2645   24.6195 H   0  0  0  0  0  0
  -27.2328  -37.1349   25.8866 H   0  0  0  0  0  0
  -20.9310  -29.8790   21.6905 H   0  0  0  0  0  0
  -26.0148  -38.2832   24.1487 H   0  0  0  0  0  0
  -30.6221  -24.5886   21.8960 H   0  0  0  0  0  0
  -31.5801  -22.3099   21.9244 H   0  0  0  0  0  0
  -30.9966  -17.6962   22.2208 H   0  0  0  0  0  0
  -29.4636  -18.2186   22.8600 H   0  0  0  0  0  0
  -30.2422  -18.6341   18.6587 H   0  0  0  0  0  0
  -31.4756  -17.9634   19.6911 H   0  0  0  0  0  0
  -28.2824  -16.4105   21.6301 H   0  0  0  0  0  0
  -29.5616  -15.7356   22.6024 H   0  0  0  0  0  0
  -30.3284  -16.1539   18.4787 H   0  0  0  0  0  0
  -28.7765  -16.6814   19.0429 H   0  0  0  0  0  0
  -28.7133  -18.9366   20.5952 H   0  0  0  0  0  0
  -26.8429  -23.7690   18.8482 H   0  0  0  0  0  0
  -26.0565  -23.2025   20.3290 H   0  0  0  0  0  0
  -26.5571  -22.0505   19.0920 H   0  0  0  0  0  0
  -28.3811  -25.7164   22.0616 H   0  0  0  0  0  0
  -27.0296  -25.1589   21.1660 H   0  0  0  0  0  0
  -31.3282  -20.0205   21.5086 H   0  0  0  0  0  0
  1 25  1  0  0  0
  1 30  2  0  0  0
  1 84  1  0  0  0
  2  3  1  0  0  0
  2 25  1  0  0  0
  2 86  1  0  0  0
  2 87  1  0  0  0
  3  4  1  0  0  0
  3 88  1  0  0  0
  3 89  1  0  0  0
  4  5  1  0  0  0
  4 90  1  0  0  0
  4 91  1  0  0  0
  5  6  1  0  0  0
  5 26  1  0  0  0
  5 92  1  0  0  0
  6 25  1  0  0  0
  6 93  1  0  0  0
  6 94  1  0  0  0
  7  8  2  0  0  0
  7 26  1  0  0  0
  7 29  1  0  0  0
  8  9  1  0  0  0
  8 22  1  0  0  0
  9 10  1  0  0  0
  9 27  2  0  0  0
 10 11  2  0  0  0
 10 15  1  0  0  0
 11 12  1  0  0  0
 11 95  1  0  0  0
 12 13  2  0  0  0
 12 96  1  0  0  0
 13 14  1  0  0  0
 13 31  1  0  0  0
 14 15  2  0  0  0
 14 97  1  0  0  0
 15 98  1  0  0  0
 16 17  2  0  0  0
 16 21  1  0  0  0
 16 31  1  0  0  0
 17 18  1  0  0  0
 17 99  1  0  0  0
 18 19  2  0  0  0
 18100  1  0  0  0
 19 20  1  0  0  0
 19 24  1  0  0  0
 20 21  2  0  0  0
 20101  1  0  0  0
 21 23  1  0  0  0
 22 28  1  0  0  0
 22 32  2  0  0  0
 26 27  1  0  0  0
 28102  1  0  0  0
 28103  1  0  0  0
 29104  1  0  0  0
 29105  1  0  0  0
 33 34  1  0  0  0
 33 66  1  0  0  0
 33 70  2  0  0  0
 34 36  1  0  0  0
 34 59  1  0  0  0
 34106  1  0  0  0
 35 44  2  0  0  0
 35 45  1  0  0  0
 35 68  1  0  0  0
 36 56  1  0  0  0
 36107  1  0  0  0
 37 39  1  0  0  0
 37 47  1  0  0  0
 37 66  1  0  0  0
 37108  1  0  0  0
 38 43  2  0  0  0
 38 46  1  0  0  0
 38 47  1  0  0  0
 39 64  1  0  0  0
 39 67  2  0  0  0
 40 52  1  0  0  0
 40 53  2  0  0  0
 40 58  1  0  0  0
 41109  1  0  0  0
 41110  1  0  0  0
 41111  1  0  0  0
 41 48  1  0  0  0
 42 43  1  0  0  0
 42 66  1  0  0  0
 42112  1  0  0  0
 42113  1  0  0  0
 43 44  1  0  0  0
 44114  1  0  0  0
 45 46  2  0  0  0
 45115  1  0  0  0
 46116  1  0  0  0
 47117  1  0  0  0
 47118  1  0  0  0
 48 56  1  0  0  0
 48 65  1  0  0  0
 48119  1  0  0  0
 49 50  1  0  0  0
 49 53  1  0  0  0
 49 64  1  0  0  0
 49120  1  0  0  0
 50 51  1  0  0  0
 50121  1  0  0  0
 50122  1  0  0  0
 51 52  1  0  0  0
 51123  1  0  0  0
 51124  1  0  0  0
 52125  1  0  0  0
 52126  1  0  0  0
 53 54  1  0  0  0
 54 55  2  0  0  0
 54127  1  0  0  0
 55 57  1  0  0  0
 55128  1  0  0  0
 56 69  2  0  0  0
 57 58  2  0  0  0
 57129  1  0  0  0
 58130  1  0  0  0
 59 60  1  0  0  0
 59 61  1  0  0  0
 59 62  1  0  0  0
 60131  1  0  0  0
 60132  1  0  0  0
 60133  1  0  0  0
 61134  1  0  0  0
 61135  1  0  0  0
 61136  1  0  0  0
 62137  1  0  0  0
 62138  1  0  0  0
 62139  1  0  0  0
 63 65  1  0  0  0
 63140  1  0  0  0
 63141  1  0  0  0
 63142  1  0  0  0
 64143  1  0  0  0
 65144  1  0  0  0
 68 82  1  0  0  0
 71 72  2  0  0  0
 71 73  1  0  0  0
 71145  1  0  0  0
 72 75  1  0  0  0
 72146  1  0  0  0
 73 74  2  0  0  0
 73 82  1  0  0  0
 74 81  1  0  0  0
 74 83  1  0  0  0
 75 83  2  0  0  0
 75 85  1  0  0  0
 76 78  1  0  0  0
 76 80  1  0  0  0
 76147  1  0  0  0
 76148  1  0  0  0
 77 79  1  0  0  0
 77 80  1  0  0  0
 77149  1  0  0  0
 77150  1  0  0  0
 78 84  1  0  0  0
 78151  1  0  0  0
 78152  1  0  0  0
 79 84  1  0  0  0
 79153  1  0  0  0
 79154  1  0  0  0
 80 85  1  0  0  0
 80155  1  0  0  0
 81156  1  0  0  0
 81157  1  0  0  0
 81158  1  0  0  0
 82159  1  0  0  0
 82160  1  0  0  0
 85161  1  0  0  0
M  ISO  4   1 100  68 101  82 101  84 100
M  END
> <chiral flag>
0

> <version>
0

> <s_m_source_file>
/data/baiqing/PycharmProjects/Reinvent-master-3.2/result/LINK_invent/BTK/process_docking_weight1_custom_sum_contain_oxygen_bond_distance_aromatic_linkinvent_7_9_3/rearranged_h_0174.sdf

> <i_m_source_file_index>
39

> <r_mmod_Potential_Energy-OPLS-2005>
44.5514183044434

> <r_mmod_Stretch_Energy-OPLS-2005>
57.508243560791

> <r_mmod_Bend_Energy-OPLS-2005>
135.720520019531

> <r_mmod_Torsional_Energy-OPLS-2005>
356.953002929688

> <r_mmod_Improper_Torsional_Energy-OPLS-2005>
17.4733142852783

> <r_mmod_Van_der_Waal_Energy-OPLS-2005>
142.303558349609

> <r_mmod_Electrostatic_Energy-OPLS-2005>
-481.736663818359

> <r_mmod_Solvation_Energy-OPLS-2005>
-219.503341674805

> <b_mmod_Minimization_Converged-OPLS-2005>
0

> <r_mmod_RMS_Derivative-OPLS-2005>
2.15816116333008

$$$$
41
                    3D
 Structure written by MMmdl.
172181  0  0  1  0            999 V2000
  -30.7483  -14.7111   20.5322 C   0  0  0  0  0  0
  -30.4385  -12.4616   19.5118 C   0  0  0  0  0  0
  -29.5300  -12.5113   18.2663 C   0  0  0  0  0  0
  -28.0557  -12.3250   18.6651 C   0  0  0  0  0  0
  -27.6507  -13.2414   19.8522 C   0  0  2  0  0  0
  -28.6941  -13.2163   20.9970 C   0  0  0  0  0  0
  -25.2550  -13.8239   20.5735 C   0  0  0  0  0  0
  -24.1831  -13.0493   20.9218 C   0  0  0  0  0  0
  -24.6385  -11.6965   20.8677 C   0  0  0  0  0  0
  -23.9016  -10.4321   21.0282 C   0  0  0  0  0  0
  -24.3604   -9.4243   21.9068 C   0  0  0  0  0  0
  -23.6329   -8.2241   22.0658 C   0  0  0  0  0  0
  -22.4323   -8.0241   21.3484 C   0  0  0  0  0  0
  -21.9885   -9.0176   20.4554 C   0  0  0  0  0  0
  -22.7175  -10.2086   20.2966 C   0  0  0  0  0  0
  -21.6872   -6.0714   22.5280 C   0  0  0  0  0  0
  -21.3969   -6.5589   23.8205 C   0  0  0  0  0  0
  -21.3665   -5.6763   24.9170 C   0  0  0  0  0  0
  -21.6096   -4.3034   24.7214 C   0  0  0  0  0  0
  -21.8817   -3.8120   23.4337 C   0  0  0  0  0  0
  -21.9179   -4.6921   22.3396 C   0  0  0  0  0  0
  -22.7857  -13.5244   21.1848 C   0  0  0  0  0  0
  -22.1700   -4.2102   21.0992 F   0  0  0  0  0  0
  -21.5625   -3.4527   25.7729 F   0  0  0  0  0  0
  -30.0209  -13.5381   20.4404 N   0  0  0  0  0  0
  -26.2982  -12.9459   20.3319 N   0  0  0  0  0  0
  -25.9305  -11.6583   20.5698 N   0  0  0  0  0  0
  -22.0510  -12.8247   22.0401 N   0  0  0  0  0  0
  -25.4318  -15.1965   20.4180 N   0  0  0  0  0  0
  -31.8966  -14.7446   20.0973 O   0  0  0  0  0  0
  -21.6691   -6.8834   21.4245 O   0  0  0  0  0  0
  -22.3490  -14.5508   20.6641 O   0  0  0  0  0  0
  -24.6296  -31.8554   23.2019 C   0  0  0  0  0  0
  -25.9129  -32.4759   23.8307 C   0  0  1  0  0  0
  -27.2116  -27.2571   20.1283 C   0  0  0  0  0  0
  -25.5942  -33.8561   24.2231 N   0  0  0  0  0  0
  -23.4240  -30.4820   21.5480 C   0  0  2  0  0  0
  -24.8717  -28.9384   20.1157 C   0  0  0  0  0  0
  -22.7469  -29.4601   22.4949 C   0  0  0  0  0  0
  -18.0268  -28.1383   22.8485 C   0  0  0  0  0  0
  -24.1505  -36.7251   23.2632 C   0  0  0  0  0  0
  -25.9758  -30.7722   21.3852 C   0  0  0  0  0  0
  -26.0521  -29.3976   20.7205 C   0  0  0  0  0  0
  -27.2230  -28.5673   20.7220 C   0  0  0  0  0  0
  -25.9944  -26.8648   19.5505 C   0  0  0  0  0  0
  -24.8476  -27.6717   19.5267 C   0  0  0  0  0  0
  -23.6390  -29.8186   20.1648 C   0  0  0  0  0  0
  -25.4138  -36.3071   24.0318 C   0  0  1  0  0  0
  -20.5873  -28.3676   23.1309 C   0  0  2  0  0  0
  -20.6784  -26.9405   22.5416 C   0  0  0  0  0  0
  -19.5766  -26.6379   21.5220 C   0  0  0  0  0  0
  -18.1930  -26.7925   22.1609 C   0  0  0  0  0  0
  -19.1521  -28.8840   23.2891 C   0  0  0  0  0  0
  -18.9453  -30.1459   23.8876 C   0  0  0  0  0  0
  -17.6456  -30.6602   24.0547 C   0  0  0  0  0  0
  -25.9084  -34.9437   23.5067 C   0  0  0  0  0  0
  -16.5333  -29.9079   23.6380 C   0  0  0  0  0  0
  -16.7249  -28.6507   23.0366 C   0  0  0  0  0  0
  -26.4479  -31.6577   25.0687 C   0  0  0  0  0  0
  -25.3665  -31.3747   26.1377 C   0  0  0  0  0  0
  -27.0329  -30.2981   24.6205 C   0  0  0  0  0  0
  -27.6045  -32.4288   25.7464 C   0  0  0  0  0  0
  -27.5599  -37.1784   24.8451 C   0  0  0  0  0  0
  -21.4176  -29.3028   22.3704 N   0  0  0  0  0  0
  -26.4303  -37.3784   23.9411 N   0  0  0  0  0  0
  -24.6958  -31.0497   22.1012 N   0  0  0  0  0  0
  -23.4167  -28.8140   23.3047 O   0  0  0  0  0  0
  -28.2836  -26.3322   20.1826 O   0  0  0  0  0  0
  -26.5635  -34.8903   22.4635 O   0  0  0  0  0  0
  -23.5460  -32.1380   23.7324 O   0  0  0  0  0  0
  -27.7525  -20.7124   19.7178 C   0  0  0  0  0  0
  -29.1468  -22.6668   20.0472 C   0  0  0  0  0  0
  -28.9992  -21.2126   20.1126 C   0  0  0  0  0  0
  -26.7467  -21.5446   19.2113 C   0  0  0  0  0  0
  -28.1340  -23.5923   19.5448 C   0  0  0  0  0  0
  -26.9442  -22.9442   19.0572 C   0  0  0  0  0  0
  -29.9204  -19.7197   23.0237 C   0  0  0  0  0  0
  -30.1165  -20.1728   20.6147 C   0  0  1  0  0  0
  -30.5408  -20.7008   22.0075 C   0  0  2  0  0  0
  -29.7484  -18.6014   20.9183 C   0  0  1  0  0  0
  -25.4594  -20.8531   18.7774 C   0  0  0  0  0  0
  -25.8613  -23.6689   18.2668 C   0  0  0  0  0  0
  -32.0472  -21.0005   22.1680 C   0  0  0  0  0  0
  -31.9884  -17.4437   21.8065 C   0  0  0  0  0  0
  -28.4314  -25.1592   19.2439 C   0  0  0  0  0  0
  -30.7717  -17.3170   20.8433 C   0  0  1  0  0  0
  -30.1691  -15.8989   20.9525 N   0  0  0  0  0  0
  -29.1686  -18.6977   22.2627 N   0  3  0  0  0  0
  -31.4824  -12.5577   19.2137 H   0  0  0  0  0  0
  -30.3889  -11.4982   20.0188 H   0  0  0  0  0  0
  -29.8383  -11.7463   17.5493 H   0  0  0  0  0  0
  -29.6525  -13.4760   17.7766 H   0  0  0  0  0  0
  -27.9235  -11.2782   18.9364 H   0  0  0  0  0  0
  -27.4089  -12.4969   17.8030 H   0  0  0  0  0  0
  -27.6343  -14.2547   19.4492 H   0  0  0  0  0  0
  -28.7145  -12.2360   21.4708 H   0  0  0  0  0  0
  -28.4219  -13.9213   21.7807 H   0  0  0  0  0  0
  -25.2698   -9.5797   22.4681 H   0  0  0  0  0  0
  -24.0072   -7.4621   22.7377 H   0  0  0  0  0  0
  -21.0817   -8.8605   19.8891 H   0  0  0  0  0  0
  -22.3518  -10.9587   19.6100 H   0  0  0  0  0  0
  -21.1951   -7.6074   23.9691 H   0  0  0  0  0  0
  -21.1531   -6.0490   25.9087 H   0  0  0  0  0  0
  -22.0604   -2.7574   23.2856 H   0  0  0  0  0  0
  -22.4178  -12.0010   22.4928 H   0  0  0  0  0  0
  -21.1027  -13.1079   22.2408 H   0  0  0  0  0  0
  -24.6734  -15.8666   20.4882 H   0  0  0  0  0  0
  -26.2771  -15.6065   20.0437 H   0  0  0  0  0  0
  -26.7153  -32.5423   23.1019 H   0  0  0  0  0  0
  -25.0080  -33.9685   25.0360 H   0  0  0  0  0  0
  -22.7213  -31.3054   21.4072 H   0  0  0  0  0  0
  -23.3818  -35.9535   23.3271 H   0  0  0  0  0  0
  -24.3602  -36.8889   22.2054 H   0  0  0  0  0  0
  -23.7195  -37.6415   23.6667 H   0  0  0  0  0  0
  -26.1161  -31.5438   20.6260 H   0  0  0  0  0  0
  -26.8482  -30.8105   22.0260 H   0  0  0  0  0  0
  -28.1211  -28.9093   21.2205 H   0  0  0  0  0  0
  -25.8851  -25.8713   19.2018 H   0  0  0  0  0  0
  -23.9308  -27.2849   19.0977 H   0  0  0  0  0  0
  -23.7405  -30.5883   19.3987 H   0  0  0  0  0  0
  -22.7604  -29.2345   19.8838 H   0  0  0  0  0  0
  -25.1337  -36.1914   25.0815 H   0  0  0  0  0  0
  -20.9945  -28.3224   24.1442 H   0  0  0  0  0  0
  -20.5738  -26.2249   23.3590 H   0  0  0  0  0  0
  -21.6656  -26.7493   22.1187 H   0  0  0  0  0  0
  -19.6949  -25.6296   21.1250 H   0  0  0  0  0  0
  -19.6743  -27.3192   20.6761 H   0  0  0  0  0  0
  -17.4224  -26.6671   21.3986 H   0  0  0  0  0  0
  -18.0313  -26.0066   22.9005 H   0  0  0  0  0  0
  -19.7937  -30.7283   24.2217 H   0  0  0  0  0  0
  -17.5023  -31.6314   24.5097 H   0  0  0  0  0  0
  -15.5331  -30.2962   23.7787 H   0  0  0  0  0  0
  -15.8632  -28.0843   22.7083 H   0  0  0  0  0  0
  -24.5870  -30.7074   25.7678 H   0  0  0  0  0  0
  -24.8816  -32.2928   26.4708 H   0  0  0  0  0  0
  -25.7930  -30.8964   27.0203 H   0  0  0  0  0  0
  -26.2939  -29.6711   24.1204 H   0  0  0  0  0  0
  -27.3965  -29.7257   25.4750 H   0  0  0  0  0  0
  -27.8827  -30.4224   23.9489 H   0  0  0  0  0  0
  -27.2683  -33.3617   26.1996 H   0  0  0  0  0  0
  -28.3887  -32.6775   25.0301 H   0  0  0  0  0  0
  -28.0660  -31.8407   26.5408 H   0  0  0  0  0  0
  -28.2584  -38.0120   24.7603 H   0  0  0  0  0  0
  -28.1119  -36.2659   24.6171 H   0  0  0  0  0  0
  -27.2295  -37.1290   25.8836 H   0  0  0  0  0  0
  -20.9334  -29.8715   21.6904 H   0  0  0  0  0  0
  -26.0176  -38.2844   24.1463 H   0  0  0  0  0  0
  -27.5471  -19.6562   19.7577 H   0  0  0  0  0  0
  -30.0925  -23.0894   20.3582 H   0  0  0  0  0  0
  -29.2345  -20.2401   23.6942 H   0  0  0  0  0  0
  -30.6712  -19.2516   23.6580 H   0  0  0  0  0  0
  -30.9150  -20.2062   19.8727 H   0  0  0  0  0  0
  -30.0544  -21.6523   22.2187 H   0  0  0  0  0  0
  -28.9742  -18.2895   20.2278 H   0  0  0  0  0  0
  -25.4502  -19.8028   19.0738 H   0  0  0  0  0  0
  -25.3553  -20.8748   17.6924 H   0  0  0  0  0  0
  -24.5910  -21.3270   19.2352 H   0  0  0  0  0  0
  -25.4475  -23.0404   17.4815 H   0  0  0  0  0  0
  -26.2174  -24.5299   17.7101 H   0  0  0  0  0  0
  -25.0345  -23.9363   18.9270 H   0  0  0  0  0  0
  -32.6146  -20.7690   21.2644 H   0  0  0  0  0  0
  -32.4949  -20.4425   22.9918 H   0  0  0  0  0  0
  -32.2126  -22.0633   22.3756 H   0  0  0  0  0  0
  -32.5274  -18.3723   21.6344 H   0  0  0  0  0  0
  -32.7328  -16.6573   21.6532 H   0  0  0  0  0  0
  -31.7183  -17.4019   22.8646 H   0  0  0  0  0  0
  -27.9843  -25.4459   18.2956 H   0  0  0  0  0  0
  -29.4942  -25.1637   18.9985 H   0  0  0  0  0  0
  -31.2031  -17.3512   19.8398 H   0  0  0  0  0  0
  -29.2306  -15.8106   21.3047 H   0  0  0  0  0  0
  -28.2330  -19.0456   22.1474 H   0  0  0  0  0  0
  -29.1341  -17.8192   22.7516 H   0  0  0  0  0  0
  1 25  1  0  0  0
  1 30  2  0  0  0
  1 87  1  0  0  0
  2  3  1  0  0  0
  2 25  1  0  0  0
  2 89  1  0  0  0
  2 90  1  0  0  0
  3  4  1  0  0  0
  3 91  1  0  0  0
  3 92  1  0  0  0
  4  5  1  0  0  0
  4 93  1  0  0  0
  4 94  1  0  0  0
  5  6  1  0  0  0
  5 26  1  0  0  0
  5 95  1  0  0  0
  6 25  1  0  0  0
  6 96  1  0  0  0
  6 97  1  0  0  0
  7  8  2  0  0  0
  7 26  1  0  0  0
  7 29  1  0  0  0
  8  9  1  0  0  0
  8 22  1  0  0  0
  9 10  1  0  0  0
  9 27  2  0  0  0
 10 11  2  0  0  0
 10 15  1  0  0  0
 11 12  1  0  0  0
 11 98  1  0  0  0
 12 13  2  0  0  0
 12 99  1  0  0  0
 13 14  1  0  0  0
 13 31  1  0  0  0
 14 15  2  0  0  0
 14100  1  0  0  0
 15101  1  0  0  0
 16 17  2  0  0  0
 16 21  1  0  0  0
 16 31  1  0  0  0
 17 18  1  0  0  0
 17102  1  0  0  0
 18 19  2  0  0  0
 18103  1  0  0  0
 19 20  1  0  0  0
 19 24  1  0  0  0
 20 21  2  0  0  0
 20104  1  0  0  0
 21 23  1  0  0  0
 22 28  1  0  0  0
 22 32  2  0  0  0
 26 27  1  0  0  0
 28105  1  0  0  0
 28106  1  0  0  0
 29107  1  0  0  0
 29108  1  0  0  0
 33 34  1  0  0  0
 33 66  1  0  0  0
 33 70  2  0  0  0
 34 36  1  0  0  0
 34 59  1  0  0  0
 34109  1  0  0  0
 35 44  2  0  0  0
 35 45  1  0  0  0
 35 68  1  0  0  0
 36 56  1  0  0  0
 36110  1  0  0  0
 37 39  1  0  0  0
 37 47  1  0  0  0
 37 66  1  0  0  0
 37111  1  0  0  0
 38 43  2  0  0  0
 38 46  1  0  0  0
 38 47  1  0  0  0
 39 64  1  0  0  0
 39 67  2  0  0  0
 40 52  1  0  0  0
 40 53  2  0  0  0
 40 58  1  0  0  0
 41112  1  0  0  0
 41113  1  0  0  0
 41114  1  0  0  0
 41 48  1  0  0  0
 42 43  1  0  0  0
 42 66  1  0  0  0
 42115  1  0  0  0
 42116  1  0  0  0
 43 44  1  0  0  0
 44117  1  0  0  0
 45 46  2  0  0  0
 45118  1  0  0  0
 46119  1  0  0  0
 47120  1  0  0  0
 47121  1  0  0  0
 48 56  1  0  0  0
 48 65  1  0  0  0
 48122  1  0  0  0
 49 50  1  0  0  0
 49 53  1  0  0  0
 49 64  1  0  0  0
 49123  1  0  0  0
 50 51  1  0  0  0
 50124  1  0  0  0
 50125  1  0  0  0
 51 52  1  0  0  0
 51126  1  0  0  0
 51127  1  0  0  0
 52128  1  0  0  0
 52129  1  0  0  0
 53 54  1  0  0  0
 54 55  2  0  0  0
 54130  1  0  0  0
 55 57  1  0  0  0
 55131  1  0  0  0
 56 69  2  0  0  0
 57 58  2  0  0  0
 57132  1  0  0  0
 58133  1  0  0  0
 59 60  1  0  0  0
 59 61  1  0  0  0
 59 62  1  0  0  0
 60134  1  0  0  0
 60135  1  0  0  0
 60136  1  0  0  0
 61137  1  0  0  0
 61138  1  0  0  0
 61139  1  0  0  0
 62140  1  0  0  0
 62141  1  0  0  0
 62142  1  0  0  0
 63 65  1  0  0  0
 63143  1  0  0  0
 63144  1  0  0  0
 63145  1  0  0  0
 64146  1  0  0  0
 65147  1  0  0  0
 68 85  1  0  0  0
 71 73  2  0  0  0
 71 74  1  0  0  0
 71148  1  0  0  0
 72 73  1  0  0  0
 72 75  2  0  0  0
 72149  1  0  0  0
 73 78  1  0  0  0
 74 76  2  0  0  0
 74 81  1  0  0  0
 75 76  1  0  0  0
 75 85  1  0  0  0
 76 82  1  0  0  0
 77 79  1  0  0  0
 77 88  1  0  0  0
 77150  1  0  0  0
 77151  1  0  0  0
 78 79  1  0  0  0
 78 80  1  0  0  0
 78152  1  0  0  0
 79 83  1  0  0  0
 79153  1  0  0  0
 80 86  1  0  0  0
 80 88  1  0  0  0
 80154  1  0  0  0
 81155  1  0  0  0
 81156  1  0  0  0
 81157  1  0  0  0
 82158  1  0  0  0
 82159  1  0  0  0
 82160  1  0  0  0
 83161  1  0  0  0
 83162  1  0  0  0
 83163  1  0  0  0
 84164  1  0  0  0
 84165  1  0  0  0
 84166  1  0  0  0
 84 86  1  0  0  0
 85167  1  0  0  0
 85168  1  0  0  0
 86 87  1  0  0  0
 86169  1  0  0  0
 87170  1  0  0  0
 88171  1  0  0  0
 88172  1  0  0  0
M  CHG  1  88   1
M  ISO  4   1 100  68 101  85 101  87 100
M  END
> <chiral flag>
0

> <version>
0

> <s_m_source_file>
/data/baiqing/PycharmProjects/Reinvent-master-3.2/result/LINK_invent/BTK/process_docking_weight1_custom_sum_contain_oxygen_bond_distance_aromatic_linkinvent_7_9_3/rearranged_h_0174.sdf

> <i_m_source_file_index>
40

> <r_mmod_Potential_Energy-OPLS-2005>
230.484115600586

> <r_mmod_Stretch_Energy-OPLS-2005>
158.240982055664

> <r_mmod_Bend_Energy-OPLS-2005>
248.838439941406

> <r_mmod_Torsional_Energy-OPLS-2005>
353.778289794922

> <r_mmod_Improper_Torsional_Energy-OPLS-2005>
6.36091423034668

> <r_mmod_Van_der_Waal_Energy-OPLS-2005>
163.070938110352

> <r_mmod_Electrostatic_Energy-OPLS-2005>
-307.916229248047

> <r_mmod_Solvation_Energy-OPLS-2005>
-477.483093261719

> <b_mmod_Minimization_Converged-OPLS-2005>
0

> <r_mmod_RMS_Derivative-OPLS-2005>
8.01800918579102

$$$$
42
                    3D
 Structure written by MMmdl.
157166  0  0  1  0            999 V2000
  -30.6056  -14.7305   20.4635 C   0  0  0  0  0  0
  -30.4345  -12.4450   19.4722 C   0  0  0  0  0  0
  -29.5110  -12.5046   18.2356 C   0  0  0  0  0  0
  -28.0361  -12.3319   18.6478 C   0  0  0  0  0  0
  -27.6437  -13.2277   19.8529 C   0  0  2  0  0  0
  -28.6876  -13.1492   20.9883 C   0  0  0  0  0  0
  -25.2523  -13.8190   20.5690 C   0  0  0  0  0  0
  -24.1810  -13.0441   20.9204 C   0  0  0  0  0  0
  -24.6395  -11.6919   20.8745 C   0  0  0  0  0  0
  -23.9069  -10.4297   21.0408 C   0  0  0  0  0  0
  -24.3623   -9.4210   21.9183 C   0  0  0  0  0  0
  -23.6300   -8.2246   22.0753 C   0  0  0  0  0  0
  -22.4280   -8.0283   21.3543 C   0  0  0  0  0  0
  -21.9915   -9.0256   20.4645 C   0  0  0  0  0  0
  -22.7242  -10.2137   20.3058 C   0  0  0  0  0  0
  -21.6854   -6.0736   22.5278 C   0  0  0  0  0  0
  -21.4015   -6.5641   23.8212 C   0  0  0  0  0  0
  -21.3661   -5.6793   24.9173 C   0  0  0  0  0  0
  -21.6046   -4.3055   24.7224 C   0  0  0  0  0  0
  -21.8821   -3.8147   23.4344 C   0  0  0  0  0  0
  -21.9194   -4.6964   22.3399 C   0  0  0  0  0  0
  -22.7835  -13.5227   21.1861 C   0  0  0  0  0  0
  -22.1666   -4.2150   21.0977 F   0  0  0  0  0  0
  -21.5627   -3.4539   25.7737 F   0  0  0  0  0  0
  -29.9896  -13.5012   20.4089 N   0  0  0  0  0  0
  -26.2945  -12.9388   20.3286 N   0  0  0  0  0  0
  -25.9322  -11.6534   20.5752 N   0  0  0  0  0  0
  -22.0481  -12.8218   22.0417 N   0  0  0  0  0  0
  -25.4216  -15.1915   20.4096 N   0  0  0  0  0  0
  -31.7899  -14.8439   20.1367 O   0  0  0  0  0  0
  -21.6644   -6.8881   21.4242 O   0  0  0  0  0  0
  -22.3524  -14.5533   20.6706 O   0  0  0  0  0  0
  -24.6300  -31.8545   23.1969 C   0  0  0  0  0  0
  -25.9128  -32.4748   23.8318 C   0  0  1  0  0  0
  -27.2271  -27.2685   20.1250 C   0  0  0  0  0  0
  -25.5925  -33.8551   24.2245 N   0  0  0  0  0  0
  -23.4260  -30.4752   21.5403 C   0  0  2  0  0  0
  -24.8726  -28.9180   20.1106 C   0  0  0  0  0  0
  -22.7494  -29.4595   22.4920 C   0  0  0  0  0  0
  -18.0288  -28.1385   22.8486 C   0  0  0  0  0  0
  -24.1490  -36.7282   23.2641 C   0  0  0  0  0  0
  -25.9694  -30.7702   21.3733 C   0  0  0  0  0  0
  -26.0415  -29.3919   20.7171 C   0  0  0  0  0  0
  -27.2172  -28.5788   20.7122 C   0  0  0  0  0  0
  -26.0297  -26.8512   19.5026 C   0  0  0  0  0  0
  -24.8713  -27.6560   19.4944 C   0  0  0  0  0  0
  -23.6430  -29.8045   20.1573 C   0  0  0  0  0  0
  -25.4116  -36.3064   24.0325 C   0  0  1  0  0  0
  -20.5891  -28.3693   23.1279 C   0  0  2  0  0  0
  -20.6777  -26.9413   22.5414 C   0  0  0  0  0  0
  -19.5752  -26.6384   21.5216 C   0  0  0  0  0  0
  -18.1931  -26.7928   22.1623 C   0  0  0  0  0  0
  -19.1541  -28.8856   23.2876 C   0  0  0  0  0  0
  -18.9462  -30.1458   23.8894 C   0  0  0  0  0  0
  -17.6461  -30.6587   24.0562 C   0  0  0  0  0  0
  -25.9057  -34.9435   23.5089 C   0  0  0  0  0  0
  -16.5353  -29.9084   23.6330 C   0  0  0  0  0  0
  -16.7276  -28.6501   23.0354 C   0  0  0  0  0  0
  -26.4504  -31.6574   25.0707 C   0  0  0  0  0  0
  -25.3731  -31.3721   26.1430 C   0  0  0  0  0  0
  -27.0356  -30.2993   24.6188 C   0  0  0  0  0  0
  -27.6054  -32.4321   25.7480 C   0  0  0  0  0  0
  -27.5580  -37.1793   24.8464 C   0  0  0  0  0  0
  -21.4203  -29.3037   22.3668 N   0  0  0  0  0  0
  -26.4290  -37.3765   23.9410 N   0  0  0  0  0  0
  -24.6942  -31.0519   22.0935 N   0  0  0  0  0  0
  -23.4200  -28.8147   23.3024 O   0  0  0  0  0  0
  -28.3646  -26.4340   20.1933 O   0  0  0  0  0  0
  -26.5635  -34.8914   22.4663 O   0  0  0  0  0  0
  -23.5454  -32.1364   23.7274 O   0  0  0  0  0  0
  -28.3939  -21.0959   20.6374 C   0  0  0  0  0  0
  -30.4965  -20.7030   20.1353 C   0  0  0  0  0  0
  -29.2841  -20.0162   20.4493 C   0  0  0  0  0  0
  -30.2950  -22.0389   20.1751 C   0  0  0  0  0  0
  -31.4998  -22.7948   19.9581 C   0  0  0  0  0  0
  -31.9257  -20.3626   19.8274 C   0  0  0  0  0  0
  -32.6142  -21.7658   19.7084 C   0  0  0  0  0  0
  -29.0130  -18.4451   20.5700 C   0  0  0  0  0  0
  -28.4126  -23.7809   20.7937 C   0  0  0  0  0  0
  -30.1895  -17.3336   20.5408 C   0  0  0  0  0  0
  -28.4305  -25.0021   19.7353 C   0  0  0  0  0  0
  -28.9909  -22.3898   20.4857 N   0  0  0  0  0  0
  -29.8218  -15.8531   20.6764 N   0  0  0  0  0  0
  -31.6485  -24.0181   19.9908 O   0  0  0  0  0  0
  -31.4756  -12.5722   19.1706 H   0  0  0  0  0  0
  -30.3800  -11.4657   19.9502 H   0  0  0  0  0  0
  -29.7922  -11.7335   17.5170 H   0  0  0  0  0  0
  -29.6408  -13.4605   17.7255 H   0  0  0  0  0  0
  -27.8880  -11.2824   18.9050 H   0  0  0  0  0  0
  -27.3811  -12.5309   17.7991 H   0  0  0  0  0  0
  -27.6420  -14.2512   19.4782 H   0  0  0  0  0  0
  -28.7196  -12.1477   21.4193 H   0  0  0  0  0  0
  -28.4252  -13.8239   21.8047 H   0  0  0  0  0  0
  -25.2767   -9.5693   22.4757 H   0  0  0  0  0  0
  -24.0010   -7.4639   22.7474 H   0  0  0  0  0  0
  -21.0843   -8.8778   19.8952 H   0  0  0  0  0  0
  -22.3699  -10.9678   19.6170 H   0  0  0  0  0  0
  -21.2007   -7.6149   23.9716 H   0  0  0  0  0  0
  -21.1482   -6.0520   25.9075 H   0  0  0  0  0  0
  -22.0598   -2.7609   23.2843 H   0  0  0  0  0  0
  -22.4103  -11.9881   22.4805 H   0  0  0  0  0  0
  -21.1100  -13.1247   22.2622 H   0  0  0  0  0  0
  -24.6518  -15.8436   20.5160 H   0  0  0  0  0  0
  -26.2615  -15.6286   20.0534 H   0  0  0  0  0  0
  -26.7193  -32.5400   23.1058 H   0  0  0  0  0  0
  -25.0061  -33.9685   25.0382 H   0  0  0  0  0  0
  -22.7218  -31.2963   21.3929 H   0  0  0  0  0  0
  -23.3754  -35.9613   23.3292 H   0  0  0  0  0  0
  -24.3582  -36.8920   22.2059 H   0  0  0  0  0  0
  -23.7243  -37.6477   23.6678 H   0  0  0  0  0  0
  -26.1055  -31.5305   20.6031 H   0  0  0  0  0  0
  -26.8480  -30.8206   22.0051 H   0  0  0  0  0  0
  -28.1148  -28.9397   21.1943 H   0  0  0  0  0  0
  -25.9488  -25.8842   19.0326 H   0  0  0  0  0  0
  -23.9728  -27.2853   19.0202 H   0  0  0  0  0  0
  -23.7659  -30.5779   19.3983 H   0  0  0  0  0  0
  -22.7617  -29.2356   19.8558 H   0  0  0  0  0  0
  -25.1300  -36.1905   25.0818 H   0  0  0  0  0  0
  -20.9980  -28.3269   24.1400 H   0  0  0  0  0  0
  -20.5677  -26.2304   23.3616 H   0  0  0  0  0  0
  -21.6645  -26.7437   22.1208 H   0  0  0  0  0  0
  -19.6914  -25.6295   21.1247 H   0  0  0  0  0  0
  -19.6689  -27.3194   20.6746 H   0  0  0  0  0  0
  -17.4204  -26.6680   21.4024 H   0  0  0  0  0  0
  -18.0323  -26.0069   22.9017 H   0  0  0  0  0  0
  -19.7938  -30.7277   24.2261 H   0  0  0  0  0  0
  -17.5013  -31.6266   24.5166 H   0  0  0  0  0  0
  -15.5352  -30.2984   23.7653 H   0  0  0  0  0  0
  -15.8676  -28.0818   22.7069 H   0  0  0  0  0  0
  -24.5899  -30.7082   25.7754 H   0  0  0  0  0  0
  -24.8934  -32.2893   26.4859 H   0  0  0  0  0  0
  -25.8049  -30.8889   27.0203 H   0  0  0  0  0  0
  -26.2937  -29.6726   24.1224 H   0  0  0  0  0  0
  -27.4057  -29.7269   25.4704 H   0  0  0  0  0  0
  -27.8805  -30.4272   23.9416 H   0  0  0  0  0  0
  -27.2656  -33.3621   26.2049 H   0  0  0  0  0  0
  -28.3866  -32.6881   25.0310 H   0  0  0  0  0  0
  -28.0722  -31.8454   26.5402 H   0  0  0  0  0  0
  -28.2588  -38.0099   24.7519 H   0  0  0  0  0  0
  -28.1085  -36.2629   24.6277 H   0  0  0  0  0  0
  -27.2301  -37.1427   25.8867 H   0  0  0  0  0  0
  -20.9390  -29.8750   21.6863 H   0  0  0  0  0  0
  -26.0163  -38.2836   24.1416 H   0  0  0  0  0  0
  -27.3481  -21.0533   20.9167 H   0  0  0  0  0  0
  -31.9931  -19.7994   18.8963 H   0  0  0  0  0  0
  -32.3609  -19.7672   20.6306 H   0  0  0  0  0  0
  -33.4032  -21.8886   20.4499 H   0  0  0  0  0  0
  -33.0422  -21.9173   18.7181 H   0  0  0  0  0  0
  -28.3068  -18.2009   19.7759 H   0  0  0  0  0  0
  -28.4550  -18.3089   21.4966 H   0  0  0  0  0  0
  -27.3845  -23.6427   21.1285 H   0  0  0  0  0  0
  -28.9466  -24.1282   21.6783 H   0  0  0  0  0  0
  -30.8990  -17.5633   21.3363 H   0  0  0  0  0  0
  -30.7450  -17.4490   19.6096 H   0  0  0  0  0  0
  -27.7165  -24.7961   18.9418 H   0  0  0  0  0  0
  -29.3856  -24.9493   19.2169 H   0  0  0  0  0  0
  -28.8594  -15.6589   20.9079 H   0  0  0  0  0  0
  1 25  1  0  0  0
  1 30  2  0  0  0
  1 83  1  0  0  0
  2  3  1  0  0  0
  2 25  1  0  0  0
  2 85  1  0  0  0
  2 86  1  0  0  0
  3  4  1  0  0  0
  3 87  1  0  0  0
  3 88  1  0  0  0
  4  5  1  0  0  0
  4 89  1  0  0  0
  4 90  1  0  0  0
  5  6  1  0  0  0
  5 26  1  0  0  0
  5 91  1  0  0  0
  6 25  1  0  0  0
  6 92  1  0  0  0
  6 93  1  0  0  0
  7  8  2  0  0  0
  7 26  1  0  0  0
  7 29  1  0  0  0
  8  9  1  0  0  0
  8 22  1  0  0  0
  9 10  1  0  0  0
  9 27  2  0  0  0
 10 11  2  0  0  0
 10 15  1  0  0  0
 11 12  1  0  0  0
 11 94  1  0  0  0
 12 13  2  0  0  0
 12 95  1  0  0  0
 13 14  1  0  0  0
 13 31  1  0  0  0
 14 15  2  0  0  0
 14 96  1  0  0  0
 15 97  1  0  0  0
 16 17  2  0  0  0
 16 21  1  0  0  0
 16 31  1  0  0  0
 17 18  1  0  0  0
 17 98  1  0  0  0
 18 19  2  0  0  0
 18 99  1  0  0  0
 19 20  1  0  0  0
 19 24  1  0  0  0
 20 21  2  0  0  0
 20100  1  0  0  0
 21 23  1  0  0  0
 22 28  1  0  0  0
 22 32  2  0  0  0
 26 27  1  0  0  0
 28101  1  0  0  0
 28102  1  0  0  0
 29103  1  0  0  0
 29104  1  0  0  0
 33 34  1  0  0  0
 33 66  1  0  0  0
 33 70  2  0  0  0
 34 36  1  0  0  0
 34 59  1  0  0  0
 34105  1  0  0  0
 35 44  2  0  0  0
 35 45  1  0  0  0
 35 68  1  0  0  0
 36 56  1  0  0  0
 36106  1  0  0  0
 37 39  1  0  0  0
 37 47  1  0  0  0
 37 66  1  0  0  0
 37107  1  0  0  0
 38 43  2  0  0  0
 38 46  1  0  0  0
 38 47  1  0  0  0
 39 64  1  0  0  0
 39 67  2  0  0  0
 40 52  1  0  0  0
 40 53  2  0  0  0
 40 58  1  0  0  0
 41108  1  0  0  0
 41109  1  0  0  0
 41110  1  0  0  0
 41 48  1  0  0  0
 42 43  1  0  0  0
 42 66  1  0  0  0
 42111  1  0  0  0
 42112  1  0  0  0
 43 44  1  0  0  0
 44113  1  0  0  0
 45 46  2  0  0  0
 45114  1  0  0  0
 46115  1  0  0  0
 47116  1  0  0  0
 47117  1  0  0  0
 48 56  1  0  0  0
 48 65  1  0  0  0
 48118  1  0  0  0
 49 50  1  0  0  0
 49 53  1  0  0  0
 49 64  1  0  0  0
 49119  1  0  0  0
 50 51  1  0  0  0
 50120  1  0  0  0
 50121  1  0  0  0
 51 52  1  0  0  0
 51122  1  0  0  0
 51123  1  0  0  0
 52124  1  0  0  0
 52125  1  0  0  0
 53 54  1  0  0  0
 54 55  2  0  0  0
 54126  1  0  0  0
 55 57  1  0  0  0
 55127  1  0  0  0
 56 69  2  0  0  0
 57 58  2  0  0  0
 57128  1  0  0  0
 58129  1  0  0  0
 59 60  1  0  0  0
 59 61  1  0  0  0
 59 62  1  0  0  0
 60130  1  0  0  0
 60131  1  0  0  0
 60132  1  0  0  0
 61133  1  0  0  0
 61134  1  0  0  0
 61135  1  0  0  0
 62136  1  0  0  0
 62137  1  0  0  0
 62138  1  0  0  0
 63 65  1  0  0  0
 63139  1  0  0  0
 63140  1  0  0  0
 63141  1  0  0  0
 64142  1  0  0  0
 65143  1  0  0  0
 68 81  1  0  0  0
 71 73  2  0  0  0
 71 82  1  0  0  0
 71144  1  0  0  0
 72 73  1  0  0  0
 72 74  2  0  0  0
 72 76  1  0  0  0
 73 78  1  0  0  0
 74 75  1  0  0  0
 74 82  1  0  0  0
 75 77  1  0  0  0
 75 84  2  0  0  0
 76 77  1  0  0  0
 76145  1  0  0  0
 76146  1  0  0  0
 77147  1  0  0  0
 77148  1  0  0  0
 78 80  1  0  0  0
 78149  1  0  0  0
 78150  1  0  0  0
 79 81  1  0  0  0
 79 82  1  0  0  0
 79151  1  0  0  0
 79152  1  0  0  0
 80 83  1  0  0  0
 80153  1  0  0  0
 80154  1  0  0  0
 81155  1  0  0  0
 81156  1  0  0  0
 83157  1  0  0  0
M  ISO  4   1 100  68 101  81 101  83 100
M  END
> <chiral flag>
0

> <version>
0

> <s_m_source_file>
/data/baiqing/PycharmProjects/Reinvent-master-3.2/result/LINK_invent/BTK/process_docking_weight1_custom_sum_contain_oxygen_bond_distance_aromatic_linkinvent_7_9_3/rearranged_h_0174.sdf

> <i_m_source_file_index>
41

> <r_mmod_Potential_Energy-OPLS-2005>
242.535400390625

> <r_mmod_Stretch_Energy-OPLS-2005>
121.503852844238

> <r_mmod_Bend_Energy-OPLS-2005>
278.982879638672

> <r_mmod_Torsional_Energy-OPLS-2005>
246.719863891602

> <r_mmod_Improper_Torsional_Energy-OPLS-2005>
6.30774164199829

> <r_mmod_Van_der_Waal_Energy-OPLS-2005>
106.025756835938

> <r_mmod_Electrostatic_Energy-OPLS-2005>
-363.595031738281

> <r_mmod_Solvation_Energy-OPLS-2005>
-229.945220947266

> <b_mmod_Minimization_Converged-OPLS-2005>
0

> <r_mmod_RMS_Derivative-OPLS-2005>
0.555050075054169

$$$$
43
                    3D
 Structure written by MMmdl.
168177  0  0  1  0            999 V2000
  -30.7038  -14.4914   20.5858 C   0  0  0  0  0  0
  -30.4036  -12.3119   19.4361 C   0  0  0  0  0  0
  -29.5015  -12.5703   18.2157 C   0  0  0  0  0  0
  -28.0206  -12.4146   18.6121 C   0  0  0  0  0  0
  -27.6587  -13.2350   19.8834 C   0  0  2  0  0  0
  -28.6972  -13.0075   21.0031 C   0  0  0  0  0  0
  -25.2505  -13.8264   20.5810 C   0  0  0  0  0  0
  -24.1782  -13.0454   20.9309 C   0  0  0  0  0  0
  -24.6419  -11.6956   20.8811 C   0  0  0  0  0  0
  -23.9110  -10.4302   21.0492 C   0  0  0  0  0  0
  -24.3650   -9.4182   21.9200 C   0  0  0  0  0  0
  -23.6334   -8.2210   22.0695 C   0  0  0  0  0  0
  -22.4289   -8.0301   21.3545 C   0  0  0  0  0  0
  -22.0021   -9.0243   20.4574 C   0  0  0  0  0  0
  -22.7347  -10.2139   20.3064 C   0  0  0  0  0  0
  -21.6769   -6.0811   22.5348 C   0  0  0  0  0  0
  -21.3953   -6.5677   23.8313 C   0  0  0  0  0  0
  -21.3704   -5.6811   24.9255 C   0  0  0  0  0  0
  -21.6076   -4.3099   24.7294 C   0  0  0  0  0  0
  -21.8774   -3.8215   23.4415 C   0  0  0  0  0  0
  -21.9165   -4.7047   22.3480 C   0  0  0  0  0  0
  -22.7786  -13.5177   21.2006 C   0  0  0  0  0  0
  -22.1574   -4.2266   21.1028 F   0  0  0  0  0  0
  -21.5713   -3.4545   25.7773 F   0  0  0  0  0  0
  -30.0285  -13.3082   20.4561 N   0  0  0  0  0  0
  -26.2975  -12.9471   20.3401 N   0  0  0  0  0  0
  -25.9341  -11.6622   20.5789 N   0  0  0  0  0  0
  -22.0385  -12.8042   22.0487 N   0  0  0  0  0  0
  -25.4219  -15.1974   20.4268 N   0  0  0  0  0  0
  -31.8251  -14.6646   20.0936 O   0  0  0  0  0  0
  -21.6591   -6.8954   21.4292 O   0  0  0  0  0  0
  -22.3435  -14.5490   20.6922 O   0  0  0  0  0  0
  -24.6155  -31.8708   23.2157 C   0  0  0  0  0  0
  -25.9060  -32.4858   23.8457 C   0  0  1  0  0  0
  -27.1873  -27.4175   20.0654 C   0  0  0  0  0  0
  -25.5940  -33.8692   24.2338 N   0  0  0  0  0  0
  -23.3974  -30.5014   21.5677 C   0  0  2  0  0  0
  -24.8201  -28.9672   20.1248 C   0  0  0  0  0  0
  -22.7397  -29.4655   22.5111 C   0  0  0  0  0  0
  -18.0247  -28.1410   22.8489 C   0  0  0  0  0  0
  -24.1481  -36.7343   23.2612 C   0  0  0  0  0  0
  -25.9310  -30.8238   21.3700 C   0  0  0  0  0  0
  -25.9942  -29.4629   20.7047 C   0  0  0  0  0  0
  -27.1809  -28.6988   20.6599 C   0  0  0  0  0  0
  -25.9840  -26.9381   19.4890 C   0  0  0  0  0  0
  -24.8090  -27.7053   19.5143 C   0  0  0  0  0  0
  -23.5970  -29.8514   20.1787 C   0  0  0  0  0  0
  -25.4121  -36.3175   24.0274 C   0  0  1  0  0  0
  -20.5815  -28.3708   23.1391 C   0  0  2  0  0  0
  -20.6799  -26.9491   22.5462 C   0  0  0  0  0  0
  -19.5781  -26.6420   21.5290 C   0  0  0  0  0  0
  -18.1919  -26.7950   22.1637 C   0  0  0  0  0  0
  -19.1480  -28.8877   23.2901 C   0  0  0  0  0  0
  -18.9421  -30.1485   23.8924 C   0  0  0  0  0  0
  -17.6432  -30.6651   24.0593 C   0  0  0  0  0  0
  -25.9068  -34.9518   23.5099 C   0  0  0  0  0  0
  -16.5311  -29.9146   23.6372 C   0  0  0  0  0  0
  -16.7240  -28.6550   23.0379 C   0  0  0  0  0  0
  -26.4370  -31.6657   25.0854 C   0  0  0  0  0  0
  -25.3543  -31.3864   26.1550 C   0  0  0  0  0  0
  -27.0272  -30.3104   24.6330 C   0  0  0  0  0  0
  -27.5920  -32.4386   25.7719 C   0  0  0  0  0  0
  -27.5585  -37.1853   24.8429 C   0  0  0  0  0  0
  -21.4119  -29.3063   22.3828 N   0  0  0  0  0  0
  -26.4307  -37.3865   23.9369 N   0  0  0  0  0  0
  -24.6693  -31.0766   22.1098 N   0  0  0  0  0  0
  -23.4133  -28.8215   23.3186 O   0  0  0  0  0  0
  -28.3645  -26.7006   20.0630 O   0  0  0  0  0  0
  -26.5643  -34.8931   22.4677 O   0  0  0  0  0  0
  -23.5331  -32.1520   23.7526 O   0  0  0  0  0  0
  -29.5111  -20.7062   20.9821 C   0  0  0  0  0  0
  -30.3794  -20.3479   23.2105 C   0  0  0  0  0  0
  -30.0413  -19.8003   21.9453 C   0  0  0  0  0  0
  -29.3479  -22.0870   21.2822 C   0  0  0  0  0  0
  -30.1840  -21.7218   23.4785 C   0  0  0  0  0  0
  -30.4880  -17.9187   20.3150 C   0  0  0  0  0  0
  -30.4937  -17.4092   22.7104 C   0  0  0  0  0  0
  -29.6362  -16.6579   20.0651 C   0  0  0  0  0  0
  -29.9235  -15.9825   22.4141 C   0  0  0  0  0  0
  -26.7681  -24.0421   21.2257 C   0  0  0  0  0  0
  -30.5909  -23.7011   24.8064 C   0  0  0  0  0  0
  -28.3802  -25.3341   19.6190 C   0  0  0  0  0  0
  -28.2334  -24.2898   20.7598 C   0  0  2  0  0  0
  -29.6700  -22.5177   22.5192 N   0  3  0  0  0  0
  -30.2025  -18.4007   21.6668 N   0  0  0  0  0  0
  -29.9701  -15.5611   20.9973 N   0  0  0  0  0  0
  -28.8800  -23.0321   20.3449 N   0  0  0  0  0  0
  -30.5261  -22.2759   24.6933 O   0  0  0  0  0  0
  -31.4583  -12.3700   19.1649 H   0  0  0  0  0  0
  -30.2350  -11.2988   19.8051 H   0  0  0  0  0  0
  -29.7512  -11.9016   17.3912 H   0  0  0  0  0  0
  -29.6813  -13.5856   17.8505 H   0  0  0  0  0  0
  -27.8365  -11.3521   18.7863 H   0  0  0  0  0  0
  -27.3817  -12.7056   17.7799 H   0  0  0  0  0  0
  -27.6951  -14.2897   19.6072 H   0  0  0  0  0  0
  -28.6496  -11.9702   21.3314 H   0  0  0  0  0  0
  -28.4656  -13.6080   21.8825 H   0  0  0  0  0  0
  -25.2788   -9.5608   22.4768 H   0  0  0  0  0  0
  -24.0057   -7.4590   22.7367 H   0  0  0  0  0  0
  -21.0994   -8.8755   19.8805 H   0  0  0  0  0  0
  -22.3841  -10.9669   19.6156 H   0  0  0  0  0  0
  -21.1777   -7.6148   23.9845 H   0  0  0  0  0  0
  -21.1594   -6.0530   25.9175 H   0  0  0  0  0  0
  -22.0499   -2.7682   23.2876 H   0  0  0  0  0  0
  -22.3951  -11.9644   22.4807 H   0  0  0  0  0  0
  -21.0992  -13.0948   22.2622 H   0  0  0  0  0  0
  -24.6783  -15.8722   20.5706 H   0  0  0  0  0  0
  -26.2914  -15.6294   20.1385 H   0  0  0  0  0  0
  -26.7156  -32.5481   23.1223 H   0  0  0  0  0  0
  -25.0078  -33.9940   25.0470 H   0  0  0  0  0  0
  -22.6839  -31.3166   21.4435 H   0  0  0  0  0  0
  -23.3792  -35.9643   23.3286 H   0  0  0  0  0  0
  -24.3532  -36.9018   22.2046 H   0  0  0  0  0  0
  -23.7201  -37.6497   23.6673 H   0  0  0  0  0  0
  -26.0444  -31.5923   20.6064 H   0  0  0  0  0  0
  -26.8174  -30.8629   21.9903 H   0  0  0  0  0  0
  -28.1000  -29.0867   21.0796 H   0  0  0  0  0  0
  -25.8950  -25.9723   19.0197 H   0  0  0  0  0  0
  -23.8988  -27.3129   19.0783 H   0  0  0  0  0  0
  -23.7238  -30.6375   19.4365 H   0  0  0  0  0  0
  -22.7073  -29.3007   19.8748 H   0  0  0  0  0  0
  -25.1297  -36.2070   25.0773 H   0  0  0  0  0  0
  -20.9818  -28.3331   24.1553 H   0  0  0  0  0  0
  -20.5948  -26.2340   23.3623 H   0  0  0  0  0  0
  -21.6652  -26.7716   22.1168 H   0  0  0  0  0  0
  -19.7012  -25.6350   21.1334 H   0  0  0  0  0  0
  -19.6737  -27.3255   20.6853 H   0  0  0  0  0  0
  -17.4239  -26.6734   21.4004 H   0  0  0  0  0  0
  -18.0259  -26.0084   22.9037 H   0  0  0  0  0  0
  -19.7868  -30.7299   24.2326 H   0  0  0  0  0  0
  -17.4975  -31.6335   24.5193 H   0  0  0  0  0  0
  -15.5321  -30.3089   23.7670 H   0  0  0  0  0  0
  -15.8599  -28.0914   22.7097 H   0  0  0  0  0  0
  -24.5614  -30.7361   25.7824 H   0  0  0  0  0  0
  -24.8835  -32.3098   26.4969 H   0  0  0  0  0  0
  -25.7729  -30.8971   27.0355 H   0  0  0  0  0  0
  -26.3009  -29.6971   24.0991 H   0  0  0  0  0  0
  -27.3613  -29.7241   25.4900 H   0  0  0  0  0  0
  -27.8954  -30.4462   23.9878 H   0  0  0  0  0  0
  -27.2472  -33.3641   26.2341 H   0  0  0  0  0  0
  -28.3738  -32.7015   25.0598 H   0  0  0  0  0  0
  -28.0517  -31.8475   26.5634 H   0  0  0  0  0  0
  -28.2514  -38.0221   24.7561 H   0  0  0  0  0  0
  -28.1157  -36.2768   24.6167 H   0  0  0  0  0  0
  -27.2277  -37.1387   25.8808 H   0  0  0  0  0  0
  -20.9334  -29.8709   21.6947 H   0  0  0  0  0  0
  -26.0185  -38.2934   24.1431 H   0  0  0  0  0  0
  -29.1995  -20.3498   20.0140 H   0  0  0  0  0  0
  -30.8178  -19.7312   23.9789 H   0  0  0  0  0  0
  -30.3175  -18.6626   19.5383 H   0  0  0  0  0  0
  -31.5525  -17.6756   20.2429 H   0  0  0  0  0  0
  -31.5790  -17.3403   22.8033 H   0  0  0  0  0  0
  -30.1177  -17.7299   23.6837 H   0  0  0  0  0  0
  -29.7154  -16.3408   19.0239 H   0  0  0  0  0  0
  -28.5874  -16.9109   20.2157 H   0  0  0  0  0  0
  -28.8790  -15.9425   22.7257 H   0  0  0  0  0  0
  -30.4416  -15.2584   23.0477 H   0  0  0  0  0  0
  -26.2465  -24.9590   21.5188 H   0  0  0  0  0  0
  -26.7395  -23.3993   22.1072 H   0  0  0  0  0  0
  -26.1700  -23.5511   20.4523 H   0  0  0  0  0  0
  -30.7945  -23.9724   25.8419 H   0  0  0  0  0  0
  -29.6618  -24.2026   24.5239 H   0  0  0  0  0  0
  -31.4047  -24.1034   24.1991 H   0  0  0  0  0  0
  -27.7182  -25.1062   18.7847 H   0  0  0  0  0  0
  -29.3730  -25.2215   19.1789 H   0  0  0  0  0  0
  -28.7621  -24.7063   21.6201 H   0  0  0  0  0  0
  -29.5419  -23.5100   22.7299 H   0  0  0  0  0  0
  -28.9945  -22.8527   19.3428 H   0  0  0  0  0  0
  1 25  1  0  0  0
  1 30  2  0  0  0
  1 86  1  0  0  0
  2  3  1  0  0  0
  2 25  1  0  0  0
  2 89  1  0  0  0
  2 90  1  0  0  0
  3  4  1  0  0  0
  3 91  1  0  0  0
  3 92  1  0  0  0
  4  5  1  0  0  0
  4 93  1  0  0  0
  4 94  1  0  0  0
  5  6  1  0  0  0
  5 26  1  0  0  0
  5 95  1  0  0  0
  6 25  1  0  0  0
  6 96  1  0  0  0
  6 97  1  0  0  0
  7  8  2  0  0  0
  7 26  1  0  0  0
  7 29  1  0  0  0
  8  9  1  0  0  0
  8 22  1  0  0  0
  9 10  1  0  0  0
  9 27  2  0  0  0
 10 11  2  0  0  0
 10 15  1  0  0  0
 11 12  1  0  0  0
 11 98  1  0  0  0
 12 13  2  0  0  0
 12 99  1  0  0  0
 13 14  1  0  0  0
 13 31  1  0  0  0
 14 15  2  0  0  0
 14100  1  0  0  0
 15101  1  0  0  0
 16 17  2  0  0  0
 16 21  1  0  0  0
 16 31  1  0  0  0
 17 18  1  0  0  0
 17102  1  0  0  0
 18 19  2  0  0  0
 18103  1  0  0  0
 19 20  1  0  0  0
 19 24  1  0  0  0
 20 21  2  0  0  0
 20104  1  0  0  0
 21 23  1  0  0  0
 22 28  1  0  0  0
 22 32  2  0  0  0
 26 27  1  0  0  0
 28105  1  0  0  0
 28106  1  0  0  0
 29107  1  0  0  0
 29108  1  0  0  0
 33 34  1  0  0  0
 33 66  1  0  0  0
 33 70  2  0  0  0
 34 36  1  0  0  0
 34 59  1  0  0  0
 34109  1  0  0  0
 35 44  2  0  0  0
 35 45  1  0  0  0
 35 68  1  0  0  0
 36 56  1  0  0  0
 36110  1  0  0  0
 37 39  1  0  0  0
 37 47  1  0  0  0
 37 66  1  0  0  0
 37111  1  0  0  0
 38 43  2  0  0  0
 38 46  1  0  0  0
 38 47  1  0  0  0
 39 64  1  0  0  0
 39 67  2  0  0  0
 40 52  1  0  0  0
 40 53  2  0  0  0
 40 58  1  0  0  0
 41112  1  0  0  0
 41113  1  0  0  0
 41114  1  0  0  0
 41 48  1  0  0  0
 42 43  1  0  0  0
 42 66  1  0  0  0
 42115  1  0  0  0
 42116  1  0  0  0
 43 44  1  0  0  0
 44117  1  0  0  0
 45 46  2  0  0  0
 45118  1  0  0  0
 46119  1  0  0  0
 47120  1  0  0  0
 47121  1  0  0  0
 48 56  1  0  0  0
 48 65  1  0  0  0
 48122  1  0  0  0
 49 50  1  0  0  0
 49 53  1  0  0  0
 49 64  1  0  0  0
 49123  1  0  0  0
 50 51  1  0  0  0
 50124  1  0  0  0
 50125  1  0  0  0
 51 52  1  0  0  0
 51126  1  0  0  0
 51127  1  0  0  0
 52128  1  0  0  0
 52129  1  0  0  0
 53 54  1  0  0  0
 54 55  2  0  0  0
 54130  1  0  0  0
 55 57  1  0  0  0
 55131  1  0  0  0
 56 69  2  0  0  0
 57 58  2  0  0  0
 57132  1  0  0  0
 58133  1  0  0  0
 59 60  1  0  0  0
 59 61  1  0  0  0
 59 62  1  0  0  0
 60134  1  0  0  0
 60135  1  0  0  0
 60136  1  0  0  0
 61137  1  0  0  0
 61138  1  0  0  0
 61139  1  0  0  0
 62140  1  0  0  0
 62141  1  0  0  0
 62142  1  0  0  0
 63 65  1  0  0  0
 63143  1  0  0  0
 63144  1  0  0  0
 63145  1  0  0  0
 64146  1  0  0  0
 65147  1  0  0  0
 68 82  1  0  0  0
 71 73  2  0  0  0
 71 74  1  0  0  0
 71148  1  0  0  0
 72 73  1  0  0  0
 72 75  2  0  0  0
 72149  1  0  0  0
 73 85  1  0  0  0
 74 84  2  0  0  0
 74 87  1  0  0  0
 75 84  1  0  0  0
 75 88  1  0  0  0
 76 78  1  0  0  0
 76 85  1  0  0  0
 76150  1  0  0  0
 76151  1  0  0  0
 77 79  1  0  0  0
 77 85  1  0  0  0
 77152  1  0  0  0
 77153  1  0  0  0
 78 86  1  0  0  0
 78154  1  0  0  0
 78155  1  0  0  0
 79 86  1  0  0  0
 79156  1  0  0  0
 79157  1  0  0  0
 80158  1  0  0  0
 80159  1  0  0  0
 80160  1  0  0  0
 80 83  1  0  0  0
 81 88  1  0  0  0
 81161  1  0  0  0
 81162  1  0  0  0
 81163  1  0  0  0
 82 83  1  0  0  0
 82164  1  0  0  0
 82165  1  0  0  0
 83 87  1  0  0  0
 83166  1  0  0  0
 84167  1  0  0  0
 87168  1  0  0  0
M  CHG  1  84   1
M  ISO  4   1 100  68 101  82 101  86 100
M  END
> <chiral flag>
0

> <version>
0

> <s_m_source_file>
/data/baiqing/PycharmProjects/Reinvent-master-3.2/result/LINK_invent/BTK/process_docking_weight1_custom_sum_contain_oxygen_bond_distance_aromatic_linkinvent_7_9_3/rearranged_h_0174.sdf

> <i_m_source_file_index>
42

> <r_mmod_Potential_Energy-OPLS-2005>
18.6725673675537

> <r_mmod_Stretch_Energy-OPLS-2005>
50.1776084899902

> <r_mmod_Bend_Energy-OPLS-2005>
153.257949829102

> <r_mmod_Torsional_Energy-OPLS-2005>
322.023223876953

> <r_mmod_Improper_Torsional_Energy-OPLS-2005>
9.89014339447021

> <r_mmod_Van_der_Waal_Energy-OPLS-2005>
168.148208618164

> <r_mmod_Electrostatic_Energy-OPLS-2005>
-293.848999023438

> <r_mmod_Solvation_Energy-OPLS-2005>
-408.856903076172

> <b_mmod_Minimization_Converged-OPLS-2005>
0

> <r_mmod_RMS_Derivative-OPLS-2005>
10.1028337478638

$$$$
44
                    3D
 Structure written by MMmdl.
175185  0  0  1  0            999 V2000
  -30.7212  -14.4799   20.5170 C   0  0  0  0  0  0
  -30.4090  -12.2999   19.4258 C   0  0  0  0  0  0
  -29.4881  -12.4921   18.2041 C   0  0  0  0  0  0
  -28.0075  -12.3609   18.6167 C   0  0  0  0  0  0
  -27.6526  -13.2106   19.8681 C   0  0  2  0  0  0
  -28.7015  -13.0223   20.9883 C   0  0  0  0  0  0
  -25.2534  -13.8171   20.5686 C   0  0  0  0  0  0
  -24.1804  -13.0434   20.9197 C   0  0  0  0  0  0
  -24.6377  -11.6905   20.8763 C   0  0  0  0  0  0
  -23.9052  -10.4286   21.0424 C   0  0  0  0  0  0
  -24.3608   -9.4199   21.9199 C   0  0  0  0  0  0
  -23.6287   -8.2231   22.0757 C   0  0  0  0  0  0
  -22.4274   -8.0268   21.3544 C   0  0  0  0  0  0
  -21.9909   -9.0239   20.4651 C   0  0  0  0  0  0
  -22.7230  -10.2123   20.3071 C   0  0  0  0  0  0
  -21.6833   -6.0736   22.5283 C   0  0  0  0  0  0
  -21.4001   -6.5640   23.8219 C   0  0  0  0  0  0
  -21.3664   -5.6792   24.9181 C   0  0  0  0  0  0
  -21.6043   -4.3056   24.7227 C   0  0  0  0  0  0
  -21.8817   -3.8146   23.4350 C   0  0  0  0  0  0
  -21.9182   -4.6964   22.3404 C   0  0  0  0  0  0
  -22.7824  -13.5223   21.1852 C   0  0  0  0  0  0
  -22.1650   -4.2152   21.0984 F   0  0  0  0  0  0
  -21.5647   -3.4543   25.7743 F   0  0  0  0  0  0
  -30.0186  -13.3183   20.4129 N   0  0  0  0  0  0
  -26.2975  -12.9354   20.3369 N   0  0  0  0  0  0
  -25.9300  -11.6510   20.5791 N   0  0  0  0  0  0
  -22.0454  -12.8228   22.0419 N   0  0  0  0  0  0
  -25.4219  -15.1892   20.4057 N   0  0  0  0  0  0
  -31.9155  -14.5315   20.2087 O   0  0  0  0  0  0
  -21.6632   -6.8865   21.4240 O   0  0  0  0  0  0
  -22.3514  -14.5519   20.6689 O   0  0  0  0  0  0
  -24.6125  -31.8689   23.2111 C   0  0  0  0  0  0
  -25.9026  -32.4829   23.8402 C   0  0  1  0  0  0
  -27.2371  -27.4549   20.0955 C   0  0  0  0  0  0
  -25.5889  -33.8630   24.2334 N   0  0  0  0  0  0
  -23.4006  -30.4910   21.5508 C   0  0  2  0  0  0
  -24.8505  -28.9590   20.1146 C   0  0  0  0  0  0
  -22.7401  -29.4655   22.4999 C   0  0  0  0  0  0
  -18.0263  -28.1372   22.8498 C   0  0  0  0  0  0
  -24.1484  -36.7320   23.2638 C   0  0  0  0  0  0
  -25.9261  -30.8409   21.3610 C   0  0  0  0  0  0
  -26.0083  -29.4760   20.7108 C   0  0  0  0  0  0
  -27.2074  -28.7290   20.7043 C   0  0  0  0  0  0
  -26.0656  -26.9415   19.5047 C   0  0  0  0  0  0
  -24.8729  -27.6896   19.5089 C   0  0  0  0  0  0
  -23.6089  -29.8212   20.1656 C   0  0  0  0  0  0
  -25.4105  -36.3120   24.0339 C   0  0  1  0  0  0
  -20.5852  -28.3655   23.1326 C   0  0  2  0  0  0
  -20.6752  -26.9390   22.5424 C   0  0  0  0  0  0
  -19.5733  -26.6379   21.5217 C   0  0  0  0  0  0
  -18.1910  -26.7923   22.1622 C   0  0  0  0  0  0
  -19.1513  -28.8830   23.2909 C   0  0  0  0  0  0
  -18.9446  -30.1438   23.8914 C   0  0  0  0  0  0
  -17.6450  -30.6580   24.0561 C   0  0  0  0  0  0
  -25.9031  -34.9484   23.5133 C   0  0  0  0  0  0
  -16.5339  -29.9083   23.6326 C   0  0  0  0  0  0
  -16.7253  -28.6499   23.0350 C   0  0  0  0  0  0
  -26.4466  -31.6601   25.0722 C   0  0  0  0  0  0
  -25.3744  -31.3708   26.1483 C   0  0  0  0  0  0
  -27.0283  -30.3044   24.6075 C   0  0  0  0  0  0
  -27.6056  -32.4309   25.7472 C   0  0  0  0  0  0
  -27.5580  -37.1810   24.8463 C   0  0  0  0  0  0
  -21.4129  -29.3030   22.3744 N   0  0  0  0  0  0
  -26.4295  -37.3801   23.9408 N   0  0  0  0  0  0
  -24.6644  -31.0807   22.0999 N   0  0  0  0  0  0
  -23.4181  -28.8201   23.3039 O   0  0  0  0  0  0
  -28.3698  -26.6805   20.1021 O   0  0  0  0  0  0
  -26.5597  -34.8931   22.4697 O   0  0  0  0  0  0
  -23.5324  -32.1435   23.7515 O   0  0  0  0  0  0
  -29.2108  -20.4206   19.6326 C   0  0  0  0  0  0
  -30.0342  -19.3301   19.2701 C   0  0  0  0  0  0
  -31.1968  -19.6423   18.4968 C   0  0  0  0  0  0
  -31.4842  -21.0079   18.2186 C   0  0  0  0  0  0
  -30.5334  -22.0039   18.5637 C   0  0  0  0  0  0
  -28.8717  -23.5116   16.3770 C   0  0  0  0  0  0
  -30.3878  -23.4417   16.4827 C   0  0  0  0  0  0
  -29.1343  -17.7494   21.1600 C   0  0  0  0  0  0
  -29.1226  -16.2268   21.4190 C   0  0  0  0  0  0
  -30.4741  -16.7008   19.5345 C   0  0  0  0  0  0
  -28.4697  -24.3799   17.5718 C   0  0  0  0  0  0
  -29.5434  -17.9104   19.6903 C   0  0  2  0  0  0
  -30.6359  -23.4395   17.9984 C   0  0  1  0  0  0
  -32.1094  -18.5743   17.8941 C   0  0  0  0  0  0
  -32.7869  -21.3880   17.5038 C   0  0  0  0  0  0
  -30.2183  -25.7413   18.8010 C   0  0  0  0  0  0
  -29.2560  -26.9335   19.0250 C   0  0  0  0  0  0
  -29.4234  -21.7053   19.2717 N   0  0  0  0  0  0
  -29.9935  -15.6247   20.4072 N   0  0  0  0  0  0
  -29.6163  -24.3916   18.5249 N   0  3  1  0  0  0
  -31.4558  -12.3742   19.1253 H   0  0  0  0  0  0
  -30.2924  -11.2986   19.8451 H   0  0  0  0  0  0
  -29.7270  -11.7631   17.4292 H   0  0  0  0  0  0
  -29.6611  -13.4743   17.7619 H   0  0  0  0  0  0
  -27.8125  -11.3070   18.8175 H   0  0  0  0  0  0
  -27.3591  -12.6342   17.7831 H   0  0  0  0  0  0
  -27.6821  -14.2520   19.5497 H   0  0  0  0  0  0
  -28.6815  -11.9953   21.3560 H   0  0  0  0  0  0
  -28.4866  -13.6476   21.8539 H   0  0  0  0  0  0
  -25.2752   -9.5673   22.4779 H   0  0  0  0  0  0
  -23.9998   -7.4616   22.7469 H   0  0  0  0  0  0
  -21.0845   -8.8748   19.8951 H   0  0  0  0  0  0
  -22.3683  -10.9666   19.6186 H   0  0  0  0  0  0
  -21.1987   -7.6146   23.9729 H   0  0  0  0  0  0
  -21.1497   -6.0522   25.9085 H   0  0  0  0  0  0
  -22.0598   -2.7611   23.2854 H   0  0  0  0  0  0
  -22.4030  -11.9880   22.4824 H   0  0  0  0  0  0
  -21.1073  -13.1275   22.2610 H   0  0  0  0  0  0
  -24.6548  -15.8430   20.5162 H   0  0  0  0  0  0
  -26.2745  -15.6275   20.0822 H   0  0  0  0  0  0
  -26.7098  -32.5555   23.1173 H   0  0  0  0  0  0
  -25.0046  -33.9796   25.0482 H   0  0  0  0  0  0
  -22.6885  -31.3070   21.4116 H   0  0  0  0  0  0
  -23.3748  -35.9647   23.3299 H   0  0  0  0  0  0
  -24.3580  -36.8938   22.2051 H   0  0  0  0  0  0
  -23.7227  -37.6521   23.6653 H   0  0  0  0  0  0
  -26.0328  -31.6061   20.5913 H   0  0  0  0  0  0
  -26.8153  -30.8989   21.9763 H   0  0  0  0  0  0
  -28.0998  -29.1210   21.1723 H   0  0  0  0  0  0
  -26.0730  -25.9610   19.0502 H   0  0  0  0  0  0
  -23.9812  -27.2836   19.0512 H   0  0  0  0  0  0
  -23.7104  -30.5948   19.4037 H   0  0  0  0  0  0
  -22.7350  -29.2360   19.8735 H   0  0  0  0  0  0
  -25.1283  -36.1987   25.0834 H   0  0  0  0  0  0
  -20.9941  -28.3208   24.1447 H   0  0  0  0  0  0
  -20.5641  -26.2260   23.3610 H   0  0  0  0  0  0
  -21.6619  -26.7431   22.1212 H   0  0  0  0  0  0
  -19.6885  -25.6294   21.1232 H   0  0  0  0  0  0
  -19.6672  -27.3199   20.6756 H   0  0  0  0  0  0
  -17.4184  -26.6687   21.4016 H   0  0  0  0  0  0
  -18.0297  -26.0050   22.9001 H   0  0  0  0  0  0
  -19.7924  -30.7247   24.2287 H   0  0  0  0  0  0
  -17.5007  -31.6265   24.5150 H   0  0  0  0  0  0
  -15.5339  -30.2989   23.7646 H   0  0  0  0  0  0
  -15.8653  -28.0822   22.7062 H   0  0  0  0  0  0
  -24.5894  -30.7080   25.7823 H   0  0  0  0  0  0
  -24.8964  -32.2866   26.4968 H   0  0  0  0  0  0
  -25.8103  -30.8844   27.0217 H   0  0  0  0  0  0
  -26.2805  -29.6809   24.1156 H   0  0  0  0  0  0
  -27.4089  -29.7281   25.4517 H   0  0  0  0  0  0
  -27.8630  -30.4366   23.9187 H   0  0  0  0  0  0
  -27.2696  -33.3617   26.2054 H   0  0  0  0  0  0
  -28.3862  -32.6850   25.0288 H   0  0  0  0  0  0
  -28.0720  -31.8421   26.5380 H   0  0  0  0  0  0
  -28.2610  -38.0098   24.7515 H   0  0  0  0  0  0
  -28.1070  -36.2636   24.6285 H   0  0  0  0  0  0
  -27.2304  -37.1451   25.8869 H   0  0  0  0  0  0
  -20.9282  -29.8775   21.6993 H   0  0  0  0  0  0
  -26.0190  -38.2883   24.1409 H   0  0  0  0  0  0
  -28.3072  -20.2547   20.1990 H   0  0  0  0  0  0
  -28.4439  -22.5132   16.4840 H   0  0  0  0  0  0
  -28.5340  -23.9192   15.4240 H   0  0  0  0  0  0
  -30.8228  -24.3404   16.0440 H   0  0  0  0  0  0
  -30.8100  -22.5866   15.9564 H   0  0  0  0  0  0
  -29.8826  -18.2159   21.8032 H   0  0  0  0  0  0
  -28.1726  -18.2104   21.3881 H   0  0  0  0  0  0
  -28.1103  -15.8432   21.2995 H   0  0  0  0  0  0
  -29.4518  -15.9913   22.4326 H   0  0  0  0  0  0
  -31.4758  -16.9620   19.8740 H   0  0  0  0  0  0
  -30.5127  -16.3313   18.5098 H   0  0  0  0  0  0
  -27.5825  -23.9770   18.0620 H   0  0  0  0  0  0
  -28.2029  -25.3662   17.2017 H   0  0  0  0  0  0
  -28.6574  -17.7095   19.0841 H   0  0  0  0  0  0
  -31.6291  -23.8169   18.2363 H   0  0  0  0  0  0
  -31.5320  -17.7869   17.4201 H   0  0  0  0  0  0
  -32.7830  -18.1609   18.6430 H   0  0  0  0  0  0
  -32.7320  -18.9349   17.0793 H   0  0  0  0  0  0
  -33.6240  -20.7941   17.8738 H   0  0  0  0  0  0
  -33.0926  -22.4194   17.6598 H   0  0  0  0  0  0
  -32.7012  -21.2234   16.4291 H   0  0  0  0  0  0
  -30.8796  -25.6531   19.6636 H   0  0  0  0  0  0
  -30.8570  -26.0152   17.9598 H   0  0  0  0  0  0
  -28.7212  -27.2026   18.1142 H   0  0  0  0  0  0
  -29.8469  -27.8143   19.2795 H   0  0  0  0  0  0
  -29.2985  -23.9741   19.3917 H   0  0  0  0  0  0
  1 25  1  0  0  0
  1 30  2  0  0  0
  1 89  1  0  0  0
  2  3  1  0  0  0
  2 25  1  0  0  0
  2 91  1  0  0  0
  2 92  1  0  0  0
  3  4  1  0  0  0
  3 93  1  0  0  0
  3 94  1  0  0  0
  4  5  1  0  0  0
  4 95  1  0  0  0
  4 96  1  0  0  0
  5  6  1  0  0  0
  5 26  1  0  0  0
  5 97  1  0  0  0
  6 25  1  0  0  0
  6 98  1  0  0  0
  6 99  1  0  0  0
  7  8  2  0  0  0
  7 26  1  0  0  0
  7 29  1  0  0  0
  8  9  1  0  0  0
  8 22  1  0  0  0
  9 10  1  0  0  0
  9 27  2  0  0  0
 10 11  2  0  0  0
 10 15  1  0  0  0
 11 12  1  0  0  0
 11100  1  0  0  0
 12 13  2  0  0  0
 12101  1  0  0  0
 13 14  1  0  0  0
 13 31  1  0  0  0
 14 15  2  0  0  0
 14102  1  0  0  0
 15103  1  0  0  0
 16 17  2  0  0  0
 16 21  1  0  0  0
 16 31  1  0  0  0
 17 18  1  0  0  0
 17104  1  0  0  0
 18 19  2  0  0  0
 18105  1  0  0  0
 19 20  1  0  0  0
 19 24  1  0  0  0
 20 21  2  0  0  0
 20106  1  0  0  0
 21 23  1  0  0  0
 22 28  1  0  0  0
 22 32  2  0  0  0
 26 27  1  0  0  0
 28107  1  0  0  0
 28108  1  0  0  0
 29109  1  0  0  0
 29110  1  0  0  0
 33 34  1  0  0  0
 33 66  1  0  0  0
 33 70  2  0  0  0
 34 36  1  0  0  0
 34 59  1  0  0  0
 34111  1  0  0  0
 35 44  2  0  0  0
 35 45  1  0  0  0
 35 68  1  0  0  0
 36 56  1  0  0  0
 36112  1  0  0  0
 37 39  1  0  0  0
 37 47  1  0  0  0
 37 66  1  0  0  0
 37113  1  0  0  0
 38 43  2  0  0  0
 38 46  1  0  0  0
 38 47  1  0  0  0
 39 64  1  0  0  0
 39 67  2  0  0  0
 40 52  1  0  0  0
 40 53  2  0  0  0
 40 58  1  0  0  0
 41114  1  0  0  0
 41115  1  0  0  0
 41116  1  0  0  0
 41 48  1  0  0  0
 42 43  1  0  0  0
 42 66  1  0  0  0
 42117  1  0  0  0
 42118  1  0  0  0
 43 44  1  0  0  0
 44119  1  0  0  0
 45 46  2  0  0  0
 45120  1  0  0  0
 46121  1  0  0  0
 47122  1  0  0  0
 47123  1  0  0  0
 48 56  1  0  0  0
 48 65  1  0  0  0
 48124  1  0  0  0
 49 50  1  0  0  0
 49 53  1  0  0  0
 49 64  1  0  0  0
 49125  1  0  0  0
 50 51  1  0  0  0
 50126  1  0  0  0
 50127  1  0  0  0
 51 52  1  0  0  0
 51128  1  0  0  0
 51129  1  0  0  0
 52130  1  0  0  0
 52131  1  0  0  0
 53 54  1  0  0  0
 54 55  2  0  0  0
 54132  1  0  0  0
 55 57  1  0  0  0
 55133  1  0  0  0
 56 69  2  0  0  0
 57 58  2  0  0  0
 57134  1  0  0  0
 58135  1  0  0  0
 59 60  1  0  0  0
 59 61  1  0  0  0
 59 62  1  0  0  0
 60136  1  0  0  0
 60137  1  0  0  0
 60138  1  0  0  0
 61139  1  0  0  0
 61140  1  0  0  0
 61141  1  0  0  0
 62142  1  0  0  0
 62143  1  0  0  0
 62144  1  0  0  0
 63 65  1  0  0  0
 63145  1  0  0  0
 63146  1  0  0  0
 63147  1  0  0  0
 64148  1  0  0  0
 65149  1  0  0  0
 68 87  1  0  0  0
 71 72  2  0  0  0
 71 88  1  0  0  0
 71150  1  0  0  0
 72 73  1  0  0  0
 72 82  1  0  0  0
 73 74  2  0  0  0
 73 84  1  0  0  0
 74 75  1  0  0  0
 74 85  1  0  0  0
 75 88  2  0  0  0
 75 83  1  0  0  0
 76 77  1  0  0  0
 76 81  1  0  0  0
 76151  1  0  0  0
 76152  1  0  0  0
 77 83  1  0  0  0
 77153  1  0  0  0
 77154  1  0  0  0
 78 79  1  0  0  0
 78 82  1  0  0  0
 78155  1  0  0  0
 78156  1  0  0  0
 79 89  1  0  0  0
 79157  1  0  0  0
 79158  1  0  0  0
 80 82  1  0  0  0
 80 89  1  0  0  0
 80159  1  0  0  0
 80160  1  0  0  0
 81 90  1  0  0  0
 81161  1  0  0  0
 81162  1  0  0  0
 82163  1  0  0  0
 83 90  1  0  0  0
 83164  1  0  0  0
 84165  1  0  0  0
 84166  1  0  0  0
 84167  1  0  0  0
 85168  1  0  0  0
 85169  1  0  0  0
 85170  1  0  0  0
 86 87  1  0  0  0
 86171  1  0  0  0
 86172  1  0  0  0
 86 90  1  0  0  0
 87173  1  0  0  0
 87174  1  0  0  0
 90175  1  0  0  0
M  CHG  1  90   1
M  ISO  4   1 100  68 101  87 101  89 100
M  END
> <chiral flag>
0

> <version>
0

> <s_m_source_file>
/data/baiqing/PycharmProjects/Reinvent-master-3.2/result/LINK_invent/BTK/process_docking_weight1_custom_sum_contain_oxygen_bond_distance_aromatic_linkinvent_7_9_3/rearranged_h_0174.sdf

> <i_m_source_file_index>
43

> <r_mmod_Potential_Energy-OPLS-2005>
47.6794738769531

> <r_mmod_Stretch_Energy-OPLS-2005>
45.5219192504883

> <r_mmod_Bend_Energy-OPLS-2005>
169.316024780273

> <r_mmod_Torsional_Energy-OPLS-2005>
427.793426513672

> <r_mmod_Improper_Torsional_Energy-OPLS-2005>
21.5772399902344

> <r_mmod_Van_der_Waal_Energy-OPLS-2005>
171.056579589844

> <r_mmod_Electrostatic_Energy-OPLS-2005>
-419.963653564453

> <r_mmod_Solvation_Energy-OPLS-2005>
-387.594604492188

> <b_mmod_Minimization_Converged-OPLS-2005>
0

> <r_mmod_RMS_Derivative-OPLS-2005>
1.25031471252441

$$$$
45
                    3D
 Structure written by MMmdl.
160169  0  0  1  0            999 V2000
  -30.4789  -15.0529   20.3607 C   0  0  0  0  0  0
  -30.4442  -12.6558   19.4816 C   0  0  0  0  0  0
  -29.5215  -12.5298   18.2485 C   0  0  0  0  0  0
  -28.0639  -12.2859   18.6830 C   0  0  0  0  0  0
  -27.6192  -13.2446   19.8163 C   0  0  2  0  0  0
  -28.6615  -13.3301   20.9448 C   0  0  0  0  0  0
  -25.2456  -13.8193   20.5708 C   0  0  0  0  0  0
  -24.1773  -13.0419   20.9248 C   0  0  0  0  0  0
  -24.6377  -11.6903   20.8759 C   0  0  0  0  0  0
  -23.9063  -10.4269   21.0393 C   0  0  0  0  0  0
  -24.3629   -9.4196   21.9165 C   0  0  0  0  0  0
  -23.6317   -8.2223   22.0726 C   0  0  0  0  0  0
  -22.4288   -8.0269   21.3536 C   0  0  0  0  0  0
  -21.9924   -9.0250   20.4647 C   0  0  0  0  0  0
  -22.7239  -10.2120   20.3056 C   0  0  0  0  0  0
  -21.6857   -6.0756   22.5289 C   0  0  0  0  0  0
  -21.4020   -6.5647   23.8230 C   0  0  0  0  0  0
  -21.3653   -5.6790   24.9188 C   0  0  0  0  0  0
  -21.6027   -4.3055   24.7226 C   0  0  0  0  0  0
  -21.8813   -3.8159   23.4347 C   0  0  0  0  0  0
  -21.9188   -4.6981   22.3414 C   0  0  0  0  0  0
  -22.7782  -13.5201   21.1918 C   0  0  0  0  0  0
  -22.1664   -4.2168   21.0989 F   0  0  0  0  0  0
  -21.5620   -3.4540   25.7745 F   0  0  0  0  0  0
  -29.9146  -13.7733   20.3163 N   0  0  0  0  0  0
  -26.2840  -12.9400   20.3166 N   0  0  0  0  0  0
  -25.9292  -11.6545   20.5686 N   0  0  0  0  0  0
  -22.0466  -12.8184   22.0478 N   0  0  0  0  0  0
  -25.4119  -15.1930   20.4125 N   0  0  0  0  0  0
  -31.7070  -15.1113   20.2389 O   0  0  0  0  0  0
  -21.6633   -6.8894   21.4248 O   0  0  0  0  0  0
  -22.3449  -14.5512   20.6767 O   0  0  0  0  0  0
  -24.6518  -31.8373   23.1758 C   0  0  0  0  0  0
  -25.9269  -32.4658   23.8165 C   0  0  1  0  0  0
  -27.2173  -27.0735   20.1566 C   0  0  0  0  0  0
  -25.6027  -33.8471   24.2138 N   0  0  0  0  0  0
  -23.4535  -30.4522   21.5246 C   0  0  2  0  0  0
  -24.9004  -28.8479   20.1215 C   0  0  0  0  0  0
  -22.7594  -29.4526   22.4843 C   0  0  0  0  0  0
  -18.0319  -28.1403   22.8461 C   0  0  0  0  0  0
  -24.1485  -36.7223   23.2621 C   0  0  0  0  0  0
  -26.0108  -30.6951   21.3726 C   0  0  0  0  0  0
  -26.0826  -29.2913   20.7272 C   0  0  0  0  0  0
  -27.2451  -28.4225   20.7168 C   0  0  0  0  0  0
  -26.0016  -26.7283   19.5352 C   0  0  0  0  0  0
  -24.8736  -27.5835   19.5132 C   0  0  0  0  0  0
  -23.6816  -29.7633   20.1506 C   0  0  0  0  0  0
  -25.4120  -36.3006   24.0297 C   0  0  1  0  0  0
  -20.5930  -28.3734   23.1242 C   0  0  2  0  0  0
  -20.6813  -26.9434   22.5425 C   0  0  0  0  0  0
  -19.5781  -26.6386   21.5233 C   0  0  0  0  0  0
  -18.1960  -26.7935   22.1634 C   0  0  0  0  0  0
  -19.1565  -28.8888   23.2837 C   0  0  0  0  0  0
  -18.9487  -30.1493   23.8848 C   0  0  0  0  0  0
  -17.6480  -30.6585   24.0567 C   0  0  0  0  0  0
  -25.9074  -34.9401   23.5013 C   0  0  0  0  0  0
  -16.5379  -29.9076   23.6333 C   0  0  0  0  0  0
  -16.7304  -28.6507   23.0325 C   0  0  0  0  0  0
  -26.4554  -31.6539   25.0631 C   0  0  0  0  0  0
  -25.3733  -31.3818   26.1325 C   0  0  0  0  0  0
  -27.0363  -30.2910   24.6249 C   0  0  0  0  0  0
  -27.6099  -32.4274   25.7432 C   0  0  0  0  0  0
  -27.5563  -37.1759   24.8455 C   0  0  0  0  0  0
  -21.4276  -29.3046   22.3592 N   0  0  0  0  0  0
  -26.4262  -37.3753   23.9405 N   0  0  0  0  0  0
  -24.7250  -31.0194   22.0790 N   0  0  0  0  0  0
  -23.4231  -28.8097   23.3010 O   0  0  0  0  0  0
  -28.3067  -26.1163   20.0758 O   0  0  0  0  0  0
  -26.5649  -34.8916   22.4579 O   0  0  0  0  0  0
  -23.5635  -32.1294   23.6966 O   0  0  0  0  0  0
  -30.1898  -19.3612   18.5718 C   0  0  0  0  0  0
  -29.5605  -19.2167   19.8333 C   0  0  0  0  0  0
  -30.2672  -20.6654   18.0276 C   0  0  0  0  0  0
  -29.0034  -21.6769   19.6960 C   0  0  0  0  0  0
  -30.7218  -17.9363   16.3900 C   0  0  0  0  0  0
  -30.0341  -17.0132   17.3547 C   0  0  0  0  0  0
  -30.8429  -18.1794   17.8845 C   0  0  0  0  0  0
  -30.3205  -21.5789   15.7770 C   0  0  0  0  0  0
  -29.8011  -17.7920   20.6909 C   0  0  0  0  0  0
  -28.0602  -23.0559   19.9029 C   0  0  0  0  0  0
  -28.3602  -24.6095   20.5755 C   0  0  0  0  0  0
  -28.9440  -20.4162   20.3426 N   0  0  0  0  0  0
  -29.7001  -21.7560   18.5717 N   0  0  0  0  0  0
  -31.0185  -20.9190   16.8745 N   0  0  0  0  0  0
  -29.6558  -16.2318   20.3245 N   0  0  0  0  0  0
  -31.4680  -12.8499   19.1609 H   0  0  0  0  0  0
  -30.4737  -11.7248   20.0527 H   0  0  0  0  0  0
  -29.8683  -11.7263   17.5975 H   0  0  0  0  0  0
  -29.5799  -13.4459   17.6587 H   0  0  0  0  0  0
  -27.9981  -11.2554   19.0352 H   0  0  0  0  0  0
  -27.3900  -12.3600   17.8290 H   0  0  0  0  0  0
  -27.5622  -14.2296   19.3519 H   0  0  0  0  0  0
  -28.7755  -12.3724   21.4548 H   0  0  0  0  0  0
  -28.3379  -14.0487   21.6989 H   0  0  0  0  0  0
  -25.2778   -9.5670   22.4725 H   0  0  0  0  0  0
  -24.0048   -7.4595   22.7402 H   0  0  0  0  0  0
  -21.0869   -8.8760   19.8951 H   0  0  0  0  0  0
  -22.3700  -10.9660   19.6168 H   0  0  0  0  0  0
  -21.2026   -7.6153   23.9746 H   0  0  0  0  0  0
  -21.1478   -6.0520   25.9091 H   0  0  0  0  0  0
  -22.0601   -2.7625   23.2837 H   0  0  0  0  0  0
  -22.4127  -11.9872   22.4892 H   0  0  0  0  0  0
  -21.1054  -13.1147   22.2694 H   0  0  0  0  0  0
  -24.6441  -15.8449   20.5248 H   0  0  0  0  0  0
  -26.2468  -15.6283   20.0441 H   0  0  0  0  0  0
  -26.7334  -32.5272   23.0881 H   0  0  0  0  0  0
  -25.0301  -33.9557   25.0378 H   0  0  0  0  0  0
  -22.7557  -31.2768   21.3593 H   0  0  0  0  0  0
  -23.3775  -35.9525   23.3243 H   0  0  0  0  0  0
  -24.3579  -36.8895   22.2048 H   0  0  0  0  0  0
  -23.7224  -37.6411   23.6651 H   0  0  0  0  0  0
  -26.1581  -31.4408   20.5896 H   0  0  0  0  0  0
  -26.8822  -30.7628   22.0102 H   0  0  0  0  0  0
  -28.1551  -28.7719   21.1849 H   0  0  0  0  0  0
  -25.9139  -25.7622   19.0605 H   0  0  0  0  0  0
  -23.9685  -27.2346   19.0320 H   0  0  0  0  0  0
  -23.8293  -30.5274   19.3859 H   0  0  0  0  0  0
  -22.7911  -29.2116   19.8419 H   0  0  0  0  0  0
  -25.1323  -36.1802   25.0799 H   0  0  0  0  0  0
  -21.0040  -28.3335   24.1355 H   0  0  0  0  0  0
  -20.5750  -26.2354   23.3656 H   0  0  0  0  0  0
  -21.6672  -26.7453   22.1196 H   0  0  0  0  0  0
  -19.6945  -25.6296   21.1262 H   0  0  0  0  0  0
  -19.6706  -27.3190   20.6752 H   0  0  0  0  0  0
  -17.4254  -26.6707   21.4014 H   0  0  0  0  0  0
  -18.0301  -26.0101   22.9047 H   0  0  0  0  0  0
  -19.7973  -30.7334   24.2166 H   0  0  0  0  0  0
  -17.5034  -31.6238   24.5211 H   0  0  0  0  0  0
  -15.5374  -30.2968   23.7647 H   0  0  0  0  0  0
  -15.8723  -28.0826   22.7009 H   0  0  0  0  0  0
  -24.5986  -30.7034   25.7713 H   0  0  0  0  0  0
  -24.8836  -32.3044   26.4474 H   0  0  0  0  0  0
  -25.8045  -30.9265   27.0252 H   0  0  0  0  0  0
  -26.2979  -29.6665   24.1219 H   0  0  0  0  0  0
  -27.3892  -29.7182   25.4827 H   0  0  0  0  0  0
  -27.8913  -30.4072   23.9589 H   0  0  0  0  0  0
  -27.2723  -33.3638   26.1874 H   0  0  0  0  0  0
  -28.4006  -32.6712   25.0317 H   0  0  0  0  0  0
  -28.0632  -31.8489   26.5492 H   0  0  0  0  0  0
  -28.2575  -38.0058   24.7525 H   0  0  0  0  0  0
  -28.1066  -36.2603   24.6243 H   0  0  0  0  0  0
  -27.2288  -37.1379   25.8858 H   0  0  0  0  0  0
  -20.9493  -29.8787   21.6785 H   0  0  0  0  0  0
  -26.0114  -38.2803   24.1468 H   0  0  0  0  0  0
  -30.0663  -18.5654   15.7900 H   0  0  0  0  0  0
  -31.5968  -17.5467   15.8713 H   0  0  0  0  0  0
  -30.4620  -16.0167   17.4432 H   0  0  0  0  0  0
  -28.9470  -17.0635   17.4010 H   0  0  0  0  0  0
  -31.8003  -17.9461   18.3494 H   0  0  0  0  0  0
  -29.9645  -22.5724   16.0503 H   0  0  0  0  0  0
  -29.4647  -20.9825   15.4567 H   0  0  0  0  0  0
  -30.9859  -21.6843   14.9179 H   0  0  0  0  0  0
  -29.1635  -17.9166   21.5649 H   0  0  0  0  0  0
  -30.8148  -17.8871   21.0775 H   0  0  0  0  0  0
  -27.1783  -22.6820   20.4207 H   0  0  0  0  0  0
  -27.6736  -23.2655   18.9040 H   0  0  0  0  0  0
  -29.3695  -24.5281   20.9794 H   0  0  0  0  0  0
  -27.7542  -24.6347   21.4814 H   0  0  0  0  0  0
  -31.5378  -20.1023   16.5690 H   0  0  0  0  0  0
  -28.6879  -15.9881   20.1944 H   0  0  0  0  0  0
  1 25  1  0  0  0
  1 30  2  0  0  0
  1 85  1  0  0  0
  2  3  1  0  0  0
  2 25  1  0  0  0
  2 86  1  0  0  0
  2 87  1  0  0  0
  3  4  1  0  0  0
  3 88  1  0  0  0
  3 89  1  0  0  0
  4  5  1  0  0  0
  4 90  1  0  0  0
  4 91  1  0  0  0
  5  6  1  0  0  0
  5 26  1  0  0  0
  5 92  1  0  0  0
  6 25  1  0  0  0
  6 93  1  0  0  0
  6 94  1  0  0  0
  7  8  2  0  0  0
  7 26  1  0  0  0
  7 29  1  0  0  0
  8  9  1  0  0  0
  8 22  1  0  0  0
  9 10  1  0  0  0
  9 27  2  0  0  0
 10 11  2  0  0  0
 10 15  1  0  0  0
 11 12  1  0  0  0
 11 95  1  0  0  0
 12 13  2  0  0  0
 12 96  1  0  0  0
 13 14  1  0  0  0
 13 31  1  0  0  0
 14 15  2  0  0  0
 14 97  1  0  0  0
 15 98  1  0  0  0
 16 17  2  0  0  0
 16 21  1  0  0  0
 16 31  1  0  0  0
 17 18  1  0  0  0
 17 99  1  0  0  0
 18 19  2  0  0  0
 18100  1  0  0  0
 19 20  1  0  0  0
 19 24  1  0  0  0
 20 21  2  0  0  0
 20101  1  0  0  0
 21 23  1  0  0  0
 22 28  1  0  0  0
 22 32  2  0  0  0
 26 27  1  0  0  0
 28102  1  0  0  0
 28103  1  0  0  0
 29104  1  0  0  0
 29105  1  0  0  0
 33 34  1  0  0  0
 33 66  1  0  0  0
 33 70  2  0  0  0
 34 36  1  0  0  0
 34 59  1  0  0  0
 34106  1  0  0  0
 35 44  2  0  0  0
 35 45  1  0  0  0
 35 68  1  0  0  0
 36 56  1  0  0  0
 36107  1  0  0  0
 37 39  1  0  0  0
 37 47  1  0  0  0
 37 66  1  0  0  0
 37108  1  0  0  0
 38 43  2  0  0  0
 38 46  1  0  0  0
 38 47  1  0  0  0
 39 64  1  0  0  0
 39 67  2  0  0  0
 40 52  1  0  0  0
 40 53  2  0  0  0
 40 58  1  0  0  0
 41109  1  0  0  0
 41110  1  0  0  0
 41111  1  0  0  0
 41 48  1  0  0  0
 42 43  1  0  0  0
 42 66  1  0  0  0
 42112  1  0  0  0
 42113  1  0  0  0
 43 44  1  0  0  0
 44114  1  0  0  0
 45 46  2  0  0  0
 45115  1  0  0  0
 46116  1  0  0  0
 47117  1  0  0  0
 47118  1  0  0  0
 48 56  1  0  0  0
 48 65  1  0  0  0
 48119  1  0  0  0
 49 50  1  0  0  0
 49 53  1  0  0  0
 49 64  1  0  0  0
 49120  1  0  0  0
 50 51  1  0  0  0
 50121  1  0  0  0
 50122  1  0  0  0
 51 52  1  0  0  0
 51123  1  0  0  0
 51124  1  0  0  0
 52125  1  0  0  0
 52126  1  0  0  0
 53 54  1  0  0  0
 54 55  2  0  0  0
 54127  1  0  0  0
 55 57  1  0  0  0
 55128  1  0  0  0
 56 69  2  0  0  0
 57 58  2  0  0  0
 57129  1  0  0  0
 58130  1  0  0  0
 59 60  1  0  0  0
 59 61  1  0  0  0
 59 62  1  0  0  0
 60131  1  0  0  0
 60132  1  0  0  0
 60133  1  0  0  0
 61134  1  0  0  0
 61135  1  0  0  0
 61136  1  0  0  0
 62137  1  0  0  0
 62138  1  0  0  0
 62139  1  0  0  0
 63 65  1  0  0  0
 63140  1  0  0  0
 63141  1  0  0  0
 63142  1  0  0  0
 64143  1  0  0  0
 65144  1  0  0  0
 68 81  1  0  0  0
 71 72  1  0  0  0
 71 73  2  0  0  0
 71 77  1  0  0  0
 72 79  1  0  0  0
 72 82  2  0  0  0
 73 83  1  0  0  0
 73 84  1  0  0  0
 74 80  1  0  0  0
 74 82  1  0  0  0
 74 83  2  0  0  0
 75 76  1  0  0  0
 75 77  1  0  0  0
 75145  1  0  0  0
 75146  1  0  0  0
 76 77  1  0  0  0
 76147  1  0  0  0
 76148  1  0  0  0
 77149  1  0  0  0
 78 84  1  0  0  0
 78150  1  0  0  0
 78151  1  0  0  0
 78152  1  0  0  0
 79 85  1  0  0  0
 79153  1  0  0  0
 79154  1  0  0  0
 80 81  1  0  0  0
 80155  1  0  0  0
 80156  1  0  0  0
 81157  1  0  0  0
 81158  1  0  0  0
 84159  1  0  0  0
 85160  1  0  0  0
M  ISO  4   1 100  68 101  81 101  85 100
M  END
> <chiral flag>
0

> <version>
0

> <s_m_source_file>
/data/baiqing/PycharmProjects/Reinvent-master-3.2/result/LINK_invent/BTK/process_docking_weight1_custom_sum_contain_oxygen_bond_distance_aromatic_linkinvent_7_9_3/rearranged_h_0174.sdf

> <i_m_source_file_index>
44

> <r_mmod_Potential_Energy-OPLS-2005>
209.063217163086

> <r_mmod_Stretch_Energy-OPLS-2005>
332.289825439453

> <r_mmod_Bend_Energy-OPLS-2005>
382.860565185547

> <r_mmod_Torsional_Energy-OPLS-2005>
278.025482177734

> <r_mmod_Improper_Torsional_Energy-OPLS-2005>
12.9441051483154

> <r_mmod_Van_der_Waal_Energy-OPLS-2005>
127.623237609863

> <r_mmod_Electrostatic_Energy-OPLS-2005>
-923.617797851562

> <r_mmod_Solvation_Energy-OPLS-2005>
-261.583557128906

> <b_mmod_Minimization_Converged-OPLS-2005>
0

> <r_mmod_RMS_Derivative-OPLS-2005>
4.47468614578247

$$$$
46
                    3D
 Structure written by MMmdl.
168177  0  0  1  0            999 V2000
  -30.6507  -14.5160   20.4937 C   0  0  0  0  0  0
  -30.4523  -12.2838   19.4526 C   0  0  0  0  0  0
  -29.5158  -12.3901   18.2247 C   0  0  0  0  0  0
  -28.0273  -12.3241   18.6271 C   0  0  0  0  0  0
  -27.6726  -13.1828   19.8741 C   0  0  2  0  0  0
  -28.7158  -12.9828   21.0020 C   0  0  0  0  0  0
  -25.2688  -13.8098   20.5731 C   0  0  0  0  0  0
  -24.1916  -13.0401   20.9227 C   0  0  0  0  0  0
  -24.6404  -11.6859   20.8710 C   0  0  0  0  0  0
  -23.9041  -10.4258   21.0343 C   0  0  0  0  0  0
  -24.3606   -9.4199   21.9148 C   0  0  0  0  0  0
  -23.6198   -8.2292   22.0824 C   0  0  0  0  0  0
  -22.4191   -8.0305   21.3594 C   0  0  0  0  0  0
  -21.9801   -9.0253   20.4669 C   0  0  0  0  0  0
  -22.7192  -10.2089   20.3010 C   0  0  0  0  0  0
  -21.6821   -6.0688   22.5274 C   0  0  0  0  0  0
  -21.3980   -6.5596   23.8207 C   0  0  0  0  0  0
  -21.3673   -5.6779   24.9170 C   0  0  0  0  0  0
  -21.6041   -4.3034   24.7270 C   0  0  0  0  0  0
  -21.8802   -3.8118   23.4406 C   0  0  0  0  0  0
  -21.9189   -4.6921   22.3419 C   0  0  0  0  0  0
  -22.7943  -13.5227   21.1860 C   0  0  0  0  0  0
  -22.1706   -4.2092   21.1017 F   0  0  0  0  0  0
  -21.5617   -3.4572   25.7818 F   0  0  0  0  0  0
  -30.0456  -13.2962   20.4450 N   0  0  0  0  0  0
  -26.3090  -12.9222   20.3345 N   0  0  0  0  0  0
  -25.9342  -11.6405   20.5814 N   0  0  0  0  0  0
  -22.0482  -12.8310   22.0384 N   0  0  0  0  0  0
  -25.4378  -15.1844   20.4090 N   0  0  0  0  0  0
  -31.7603  -14.7372   20.0029 O   0  0  0  0  0  0
  -21.6611   -6.8874   21.4247 O   0  0  0  0  0  0
  -22.3698  -14.5552   20.6644 O   0  0  0  0  0  0
  -24.6168  -31.8674   23.2041 C   0  0  0  0  0  0
  -25.9037  -32.4820   23.8377 C   0  0  1  0  0  0
  -27.2608  -27.4120   20.1201 C   0  0  0  0  0  0
  -25.5885  -33.8625   24.2331 N   0  0  0  0  0  0
  -23.4096  -30.4820   21.5483 C   0  0  2  0  0  0
  -24.8627  -28.9405   20.1151 C   0  0  0  0  0  0
  -22.7438  -29.4644   22.5016 C   0  0  0  0  0  0
  -18.0274  -28.1378   22.8490 C   0  0  0  0  0  0
  -24.1487  -36.7318   23.2648 C   0  0  0  0  0  0
  -25.9381  -30.8239   21.3619 C   0  0  0  0  0  0
  -26.0188  -29.4544   20.7139 C   0  0  0  0  0  0
  -27.2180  -28.7016   20.7066 C   0  0  0  0  0  0
  -26.0830  -26.9187   19.5089 C   0  0  0  0  0  0
  -24.8922  -27.6746   19.5032 C   0  0  0  0  0  0
  -23.6187  -29.8023   20.1660 C   0  0  0  0  0  0
  -25.4103  -36.3140   24.0355 C   0  0  1  0  0  0
  -20.5870  -28.3668   23.1315 C   0  0  2  0  0  0
  -20.6769  -26.9402   22.5414 C   0  0  0  0  0  0
  -19.5744  -26.6384   21.5217 C   0  0  0  0  0  0
  -18.1922  -26.7919   22.1620 C   0  0  0  0  0  0
  -19.1528  -28.8843   23.2889 C   0  0  0  0  0  0
  -18.9456  -30.1448   23.8893 C   0  0  0  0  0  0
  -17.6450  -30.6576   24.0561 C   0  0  0  0  0  0
  -25.9028  -34.9492   23.5155 C   0  0  0  0  0  0
  -16.5343  -29.9076   23.6329 C   0  0  0  0  0  0
  -16.7264  -28.6492   23.0350 C   0  0  0  0  0  0
  -26.4436  -31.6606   25.0727 C   0  0  0  0  0  0
  -25.3681  -31.3717   26.1461 C   0  0  0  0  0  0
  -27.0277  -30.3052   24.6118 C   0  0  0  0  0  0
  -27.6034  -32.4311   25.7470 C   0  0  0  0  0  0
  -27.5584  -37.1818   24.8470 C   0  0  0  0  0  0
  -21.4174  -29.3033   22.3745 N   0  0  0  0  0  0
  -26.4295  -37.3807   23.9422 N   0  0  0  0  0  0
  -24.6734  -31.0734   22.0968 N   0  0  0  0  0  0
  -23.4184  -28.8225   23.3102 O   0  0  0  0  0  0
  -28.4426  -26.6812   20.1563 O   0  0  0  0  0  0
  -26.5597  -34.8945   22.4730 O   0  0  0  0  0  0
  -23.5341  -32.1450   23.7395 O   0  0  0  0  0  0
  -30.5616  -18.3956   21.8487 C   0  0  0  0  0  0
  -29.7683  -18.1620   20.7089 C   0  0  0  0  0  0
  -30.8059  -19.7389   22.2456 C   0  0  0  0  0  0
  -29.2506  -19.2891   20.0374 C   0  0  0  0  0  0
  -30.2752  -20.8053   21.4673 C   0  0  0  0  0  0
  -28.3697  -19.1083   18.8174 C   0  0  0  0  0  0
  -28.8529  -17.9773   17.8845 C   0  0  0  0  0  0
  -29.4992  -16.7920   20.0576 C   0  0  1  0  0  0
  -29.8335  -16.9625   18.5380 C   0  0  1  0  0  0
  -31.6348  -20.0003   23.4927 C   0  0  0  0  0  0
  -30.4967  -22.3080   21.7434 C   0  0  0  0  0  0
  -29.6199  -24.5329   20.7759 C   0  0  0  0  0  0
  -28.3421  -25.2413   20.2254 C   0  0  0  0  0  0
  -29.5037  -20.5616   20.3869 N   0  0  0  0  0  0
  -29.7982  -15.5209   20.7747 N   0  0  0  0  0  0
  -29.8550  -15.7420   17.7281 N   0  3  0  0  0  0
  -29.3810  -23.1012   21.1548 N   0  3  0  0  0  0
  -31.4909  -12.3965   19.1394 H   0  0  0  0  0  0
  -30.3867  -11.2877   19.8948 H   0  0  0  0  0  0
  -29.7285  -11.5782   17.5265 H   0  0  0  0  0  0
  -29.7257  -13.2881   17.6564 H   0  0  0  0  0  0
  -27.8083  -11.2740   18.8309 H   0  0  0  0  0  0
  -27.3981  -12.6032   17.7797 H   0  0  0  0  0  0
  -27.7127  -14.2230   19.5629 H   0  0  0  0  0  0
  -28.7001  -11.9499   21.3545 H   0  0  0  0  0  0
  -28.4761  -13.5928   21.8725 H   0  0  0  0  0  0
  -25.2795   -9.5675   22.4650 H   0  0  0  0  0  0
  -23.9846   -7.4736   22.7618 H   0  0  0  0  0  0
  -21.0689   -8.8717   19.9037 H   0  0  0  0  0  0
  -22.3625  -10.9563   19.6063 H   0  0  0  0  0  0
  -21.1950   -7.6091   23.9659 H   0  0  0  0  0  0
  -21.1525   -6.0567   25.9069 H   0  0  0  0  0  0
  -22.0563   -2.7569   23.2964 H   0  0  0  0  0  0
  -22.3870  -11.9932   22.4884 H   0  0  0  0  0  0
  -21.1133  -13.1493   22.2456 H   0  0  0  0  0  0
  -24.6682  -15.8321   20.5575 H   0  0  0  0  0  0
  -26.2334  -15.6226   19.9679 H   0  0  0  0  0  0
  -26.7135  -32.5538   23.1169 H   0  0  0  0  0  0
  -25.0027  -33.9790   25.0474 H   0  0  0  0  0  0
  -22.6979  -31.2977   21.4023 H   0  0  0  0  0  0
  -23.3754  -35.9642   23.3329 H   0  0  0  0  0  0
  -24.3573  -36.8900   22.2054 H   0  0  0  0  0  0
  -23.7212  -37.6528   23.6624 H   0  0  0  0  0  0
  -26.0519  -31.5835   20.5865 H   0  0  0  0  0  0
  -26.8250  -30.8841   21.9811 H   0  0  0  0  0  0
  -28.1082  -29.0961   21.1762 H   0  0  0  0  0  0
  -26.0741  -25.9502   19.0288 H   0  0  0  0  0  0
  -24.0086  -27.2727   19.0282 H   0  0  0  0  0  0
  -23.7127  -30.5723   19.3993 H   0  0  0  0  0  0
  -22.7462  -29.2111   19.8810 H   0  0  0  0  0  0
  -25.1280  -36.2028   25.0842 H   0  0  0  0  0  0
  -20.9933  -28.3230   24.1448 H   0  0  0  0  0  0
  -20.5688  -26.2284   23.3614 H   0  0  0  0  0  0
  -21.6641  -26.7450   22.1209 H   0  0  0  0  0  0
  -19.6907  -25.6300   21.1253 H   0  0  0  0  0  0
  -19.6674  -27.3202   20.6764 H   0  0  0  0  0  0
  -17.4197  -26.6675   21.4018 H   0  0  0  0  0  0
  -18.0295  -26.0053   22.9007 H   0  0  0  0  0  0
  -19.7931  -30.7278   24.2243 H   0  0  0  0  0  0
  -17.5003  -31.6259   24.5177 H   0  0  0  0  0  0
  -15.5344  -30.2974   23.7653 H   0  0  0  0  0  0
  -15.8667  -28.0818   22.7053 H   0  0  0  0  0  0
  -24.5855  -30.7062   25.7788 H   0  0  0  0  0  0
  -24.8847  -32.2865   26.4903 H   0  0  0  0  0  0
  -25.7995  -30.8884   27.0238 H   0  0  0  0  0  0
  -26.2846  -29.6812   24.1132 H   0  0  0  0  0  0
  -27.4019  -29.7274   25.4585 H   0  0  0  0  0  0
  -27.8685  -30.4394   23.9306 H   0  0  0  0  0  0
  -27.2700  -33.3633   26.2040 H   0  0  0  0  0  0
  -28.3817  -32.6824   25.0256 H   0  0  0  0  0  0
  -28.0719  -31.8427   26.5372 H   0  0  0  0  0  0
  -28.2630  -38.0093   24.7521 H   0  0  0  0  0  0
  -28.1065  -36.2637   24.6305 H   0  0  0  0  0  0
  -27.2314  -37.1479   25.8876 H   0  0  0  0  0  0
  -20.9363  -29.8723   21.6930 H   0  0  0  0  0  0
  -26.0220  -38.2909   24.1359 H   0  0  0  0  0  0
  -30.9869  -17.5649   22.3964 H   0  0  0  0  0  0
  -28.2722  -20.0432   18.2592 H   0  0  0  0  0  0
  -27.3737  -18.8770   19.1965 H   0  0  0  0  0  0
  -29.3378  -18.4210   17.0138 H   0  0  0  0  0  0
  -27.9669  -17.4706   17.5006 H   0  0  0  0  0  0
  -28.4094  -16.7256   20.0870 H   0  0  0  0  0  0
  -30.8454  -17.3711   18.4761 H   0  0  0  0  0  0
  -32.1547  -19.0983   23.8169 H   0  0  0  0  0  0
  -30.9879  -20.3203   24.3121 H   0  0  0  0  0  0
  -32.3899  -20.7676   23.3217 H   0  0  0  0  0  0
  -31.4449  -22.6042   21.2893 H   0  0  0  0  0  0
  -30.5688  -22.5091   22.8137 H   0  0  0  0  0  0
  -29.9882  -25.0693   21.6499 H   0  0  0  0  0  0
  -30.4155  -24.5855   20.0322 H   0  0  0  0  0  0
  -27.5079  -24.9814   20.8763 H   0  0  0  0  0  0
  -28.1110  -24.8474   19.2362 H   0  0  0  0  0  0
  -29.0068  -15.1902   21.3067 H   0  0  0  0  0  0
  -28.9564  -15.2929   17.7040 H   0  0  0  0  0  0
  -30.5699  -15.1230   18.0735 H   0  0  0  0  0  0
  -30.1014  -15.9824   16.7825 H   0  0  0  0  0  0
  -28.6048  -23.0312   21.7922 H   0  0  0  0  0  0
  -29.1401  -22.5396   20.3478 H   0  0  0  0  0  0
  1 25  1  0  0  0
  1 30  2  0  0  0
  1 85  1  0  0  0
  2  3  1  0  0  0
  2 25  1  0  0  0
  2 88  1  0  0  0
  2 89  1  0  0  0
  3  4  1  0  0  0
  3 90  1  0  0  0
  3 91  1  0  0  0
  4  5  1  0  0  0
  4 92  1  0  0  0
  4 93  1  0  0  0
  5  6  1  0  0  0
  5 26  1  0  0  0
  5 94  1  0  0  0
  6 25  1  0  0  0
  6 95  1  0  0  0
  6 96  1  0  0  0
  7  8  2  0  0  0
  7 26  1  0  0  0
  7 29  1  0  0  0
  8  9  1  0  0  0
  8 22  1  0  0  0
  9 10  1  0  0  0
  9 27  2  0  0  0
 10 11  2  0  0  0
 10 15  1  0  0  0
 11 12  1  0  0  0
 11 97  1  0  0  0
 12 13  2  0  0  0
 12 98  1  0  0  0
 13 14  1  0  0  0
 13 31  1  0  0  0
 14 15  2  0  0  0
 14 99  1  0  0  0
 15100  1  0  0  0
 16 17  2  0  0  0
 16 21  1  0  0  0
 16 31  1  0  0  0
 17 18  1  0  0  0
 17101  1  0  0  0
 18 19  2  0  0  0
 18102  1  0  0  0
 19 20  1  0  0  0
 19 24  1  0  0  0
 20 21  2  0  0  0
 20103  1  0  0  0
 21 23  1  0  0  0
 22 28  1  0  0  0
 22 32  2  0  0  0
 26 27  1  0  0  0
 28104  1  0  0  0
 28105  1  0  0  0
 29106  1  0  0  0
 29107  1  0  0  0
 33 34  1  0  0  0
 33 66  1  0  0  0
 33 70  2  0  0  0
 34 36  1  0  0  0
 34 59  1  0  0  0
 34108  1  0  0  0
 35 44  2  0  0  0
 35 45  1  0  0  0
 35 68  1  0  0  0
 36 56  1  0  0  0
 36109  1  0  0  0
 37 39  1  0  0  0
 37 47  1  0  0  0
 37 66  1  0  0  0
 37110  1  0  0  0
 38 43  2  0  0  0
 38 46  1  0  0  0
 38 47  1  0  0  0
 39 64  1  0  0  0
 39 67  2  0  0  0
 40 52  1  0  0  0
 40 53  2  0  0  0
 40 58  1  0  0  0
 41111  1  0  0  0
 41112  1  0  0  0
 41113  1  0  0  0
 41 48  1  0  0  0
 42 43  1  0  0  0
 42 66  1  0  0  0
 42114  1  0  0  0
 42115  1  0  0  0
 43 44  1  0  0  0
 44116  1  0  0  0
 45 46  2  0  0  0
 45117  1  0  0  0
 46118  1  0  0  0
 47119  1  0  0  0
 47120  1  0  0  0
 48 56  1  0  0  0
 48 65  1  0  0  0
 48121  1  0  0  0
 49 50  1  0  0  0
 49 53  1  0  0  0
 49 64  1  0  0  0
 49122  1  0  0  0
 50 51  1  0  0  0
 50123  1  0  0  0
 50124  1  0  0  0
 51 52  1  0  0  0
 51125  1  0  0  0
 51126  1  0  0  0
 52127  1  0  0  0
 52128  1  0  0  0
 53 54  1  0  0  0
 54 55  2  0  0  0
 54129  1  0  0  0
 55 57  1  0  0  0
 55130  1  0  0  0
 56 69  2  0  0  0
 57 58  2  0  0  0
 57131  1  0  0  0
 58132  1  0  0  0
 59 60  1  0  0  0
 59 61  1  0  0  0
 59 62  1  0  0  0
 60133  1  0  0  0
 60134  1  0  0  0
 60135  1  0  0  0
 61136  1  0  0  0
 61137  1  0  0  0
 61138  1  0  0  0
 62139  1  0  0  0
 62140  1  0  0  0
 62141  1  0  0  0
 63 65  1  0  0  0
 63142  1  0  0  0
 63143  1  0  0  0
 63144  1  0  0  0
 64145  1  0  0  0
 65146  1  0  0  0
 68 83  1  0  0  0
 71 72  2  0  0  0
 71 73  1  0  0  0
 71147  1  0  0  0
 72 74  1  0  0  0
 72 78  1  0  0  0
 73 75  2  0  0  0
 73 80  1  0  0  0
 74 76  1  0  0  0
 74 84  2  0  0  0
 75 81  1  0  0  0
 75 84  1  0  0  0
 76 77  1  0  0  0
 76148  1  0  0  0
 76149  1  0  0  0
 77 79  1  0  0  0
 77150  1  0  0  0
 77151  1  0  0  0
 78 79  1  0  0  0
 78 85  1  0  0  0
 78152  1  0  0  0
 79 86  1  0  0  0
 79153  1  0  0  0
 80154  1  0  0  0
 80155  1  0  0  0
 80156  1  0  0  0
 81 87  1  0  0  0
 81157  1  0  0  0
 81158  1  0  0  0
 82 83  1  0  0  0
 82 87  1  0  0  0
 82159  1  0  0  0
 82160  1  0  0  0
 83161  1  0  0  0
 83162  1  0  0  0
 85163  1  0  0  0
 86164  1  0  0  0
 86165  1  0  0  0
 86166  1  0  0  0
 87167  1  0  0  0
 87168  1  0  0  0
M  CHG  2  86   1  87   1
M  ISO  4   1 100  68 101  83 101  85 100
M  END
> <chiral flag>
0

> <version>
0

> <s_m_source_file>
/data/baiqing/PycharmProjects/Reinvent-master-3.2/result/LINK_invent/BTK/process_docking_weight1_custom_sum_contain_oxygen_bond_distance_aromatic_linkinvent_7_9_3/rearranged_h_0174.sdf

> <i_m_source_file_index>
45

> <r_mmod_Potential_Energy-OPLS-2005>
-618.682006835938

> <r_mmod_Stretch_Energy-OPLS-2005>
48.6078262329102

> <r_mmod_Bend_Energy-OPLS-2005>
153.623458862305

> <r_mmod_Torsional_Energy-OPLS-2005>
272.99951171875

> <r_mmod_Improper_Torsional_Energy-OPLS-2005>
12.4990377426147

> <r_mmod_Van_der_Waal_Energy-OPLS-2005>
166.085021972656

> <r_mmod_Electrostatic_Energy-OPLS-2005>
-416.143402099609

> <r_mmod_Solvation_Energy-OPLS-2005>
-879.053833007812

> <b_mmod_Minimization_Converged-OPLS-2005>
0

> <r_mmod_RMS_Derivative-OPLS-2005>
5.62914657592773

$$$$
47
                    3D
 Structure written by MMmdl.
162171  0  0  1  0            999 V2000
  -30.6464  -14.6731   20.4554 C   0  0  0  0  0  0
  -30.4235  -12.4085   19.4617 C   0  0  0  0  0  0
  -29.5006  -12.4849   18.2261 C   0  0  0  0  0  0
  -28.0267  -12.3264   18.6451 C   0  0  0  0  0  0
  -27.6421  -13.2271   19.8503 C   0  0  2  0  0  0
  -28.6877  -13.1466   20.9829 C   0  0  0  0  0  0
  -25.2492  -13.8212   20.5695 C   0  0  0  0  0  0
  -24.1789  -13.0463   20.9219 C   0  0  0  0  0  0
  -24.6375  -11.6936   20.8758 C   0  0  0  0  0  0
  -23.9064  -10.4303   21.0403 C   0  0  0  0  0  0
  -24.3623   -9.4215   21.9177 C   0  0  0  0  0  0
  -23.6293   -8.2250   22.0762 C   0  0  0  0  0  0
  -22.4268   -8.0282   21.3557 C   0  0  0  0  0  0
  -21.9901   -9.0263   20.4659 C   0  0  0  0  0  0
  -22.7237  -10.2137   20.3056 C   0  0  0  0  0  0
  -21.6851   -6.0726   22.5287 C   0  0  0  0  0  0
  -21.4021   -6.5636   23.8218 C   0  0  0  0  0  0
  -21.3660   -5.6793   24.9187 C   0  0  0  0  0  0
  -21.6047   -4.3054   24.7240 C   0  0  0  0  0  0
  -21.8821   -3.8143   23.4360 C   0  0  0  0  0  0
  -21.9199   -4.6958   22.3412 C   0  0  0  0  0  0
  -22.7809  -13.5240   21.1888 C   0  0  0  0  0  0
  -22.1662   -4.2142   21.0989 F   0  0  0  0  0  0
  -21.5629   -3.4536   25.7747 F   0  0  0  0  0  0
  -29.9925  -13.4695   20.3967 N   0  0  0  0  0  0
  -26.2922  -12.9411   20.3287 N   0  0  0  0  0  0
  -25.9303  -11.6561   20.5769 N   0  0  0  0  0  0
  -22.0454  -12.8228   22.0440 N   0  0  0  0  0  0
  -25.4200  -15.1934   20.4120 N   0  0  0  0  0  0
  -31.8361  -14.7482   20.1397 O   0  0  0  0  0  0
  -21.6655   -6.8868   21.4237 O   0  0  0  0  0  0
  -22.3485  -14.5552   20.6740 O   0  0  0  0  0  0
  -24.6271  -31.8595   23.2041 C   0  0  0  0  0  0
  -25.9125  -32.4782   23.8358 C   0  0  1  0  0  0
  -27.2061  -27.3050   20.1311 C   0  0  0  0  0  0
  -25.5941  -33.8586   24.2300 N   0  0  0  0  0  0
  -23.4180  -30.4864   21.5486 C   0  0  2  0  0  0
  -24.8620  -28.9442   20.1066 C   0  0  0  0  0  0
  -22.7442  -29.4639   22.4941 C   0  0  0  0  0  0
  -18.0263  -28.1329   22.8511 C   0  0  0  0  0  0
  -24.1492  -36.7287   23.2644 C   0  0  0  0  0  0
  -25.9584  -30.7902   21.3747 C   0  0  0  0  0  0
  -26.0306  -29.4185   20.7148 C   0  0  0  0  0  0
  -27.2045  -28.6093   20.7186 C   0  0  0  0  0  0
  -26.0223  -26.8952   19.4785 C   0  0  0  0  0  0
  -24.8600  -27.6888   19.4810 C   0  0  0  0  0  0
  -23.6329  -29.8285   20.1612 C   0  0  0  0  0  0
  -25.4116  -36.3098   24.0349 C   0  0  1  0  0  0
  -20.5864  -28.3690   23.1229 C   0  0  2  0  0  0
  -20.6805  -26.9444   22.5288 C   0  0  0  0  0  0
  -19.5658  -26.6240   21.5251 C   0  0  0  0  0  0
  -18.1874  -26.7837   22.1723 C   0  0  0  0  0  0
  -19.1523  -28.8821   23.2857 C   0  0  0  0  0  0
  -18.9443  -30.1432   23.8852 C   0  0  0  0  0  0
  -17.6441  -30.6564   24.0519 C   0  0  0  0  0  0
  -25.9052  -34.9458   23.5120 C   0  0  0  0  0  0
  -16.5338  -29.9017   23.6363 C   0  0  0  0  0  0
  -16.7252  -28.6417   23.0423 C   0  0  0  0  0  0
  -26.4500  -31.6574   25.0714 C   0  0  0  0  0  0
  -25.3730  -31.3704   26.1443 C   0  0  0  0  0  0
  -27.0334  -30.3003   24.6136 C   0  0  0  0  0  0
  -27.6073  -32.4290   25.7473 C   0  0  0  0  0  0
  -27.5580  -37.1804   24.8473 C   0  0  0  0  0  0
  -21.4152  -29.3106   22.3693 N   0  0  0  0  0  0
  -26.4293  -37.3792   23.9415 N   0  0  0  0  0  0
  -24.6875  -31.0619   22.0999 N   0  0  0  0  0  0
  -23.4145  -28.8131   23.3000 O   0  0  0  0  0  0
  -28.3164  -26.4518   20.2291 O   0  0  0  0  0  0
  -26.5614  -34.8935   22.4684 O   0  0  0  0  0  0
  -23.5442  -32.1384   23.7369 O   0  0  0  0  0  0
  -28.3692  -18.8084   20.2434 C   0  0  0  0  0  0
  -29.9246  -20.8394   21.2227 C   0  0  0  0  0  0
  -28.5717  -21.1817   20.9774 C   0  0  0  0  0  0
  -27.7964  -20.1085   20.4231 C   0  0  0  0  0  0
  -29.7151  -18.5572   20.5933 C   0  0  0  0  0  0
  -28.3953  -22.8553   23.0259 C   0  0  0  0  0  0
  -28.7561  -24.2506   22.5306 C   0  0  0  0  0  0
  -27.9337  -22.4989   21.5996 C   0  0  1  0  0  0
  -27.7844  -24.1054   21.3449 C   0  0  1  0  0  0
  -26.3322  -20.2840   20.0568 C   0  0  0  0  0  0
  -26.3485  -24.5723   21.6603 C   0  0  0  0  0  0
  -30.4871  -17.1988   20.3679 C   0  0  0  0  0  0
  -28.2214  -24.9659   20.0832 C   0  0  0  0  0  0
  -30.4655  -19.5969   21.0447 N   0  0  0  0  0  0
  -29.9164  -15.8256   20.6301 N   0  0  0  0  0  0
  -31.4663  -12.5129   19.1578 H   0  0  0  0  0  0
  -30.3552  -11.4310   19.9414 H   0  0  0  0  0  0
  -29.7647  -11.7107   17.5048 H   0  0  0  0  0  0
  -29.6408  -13.4391   17.7158 H   0  0  0  0  0  0
  -27.8742  -11.2784   18.9079 H   0  0  0  0  0  0
  -27.3683  -12.5265   17.7982 H   0  0  0  0  0  0
  -27.6447  -14.2509   19.4741 H   0  0  0  0  0  0
  -28.7050  -12.1513   21.4277 H   0  0  0  0  0  0
  -28.4421  -13.8389   21.7896 H   0  0  0  0  0  0
  -25.2760   -9.5700   22.4765 H   0  0  0  0  0  0
  -24.0005   -7.4643   22.7484 H   0  0  0  0  0  0
  -21.0830   -8.8787   19.8965 H   0  0  0  0  0  0
  -22.3684  -10.9686   19.6179 H   0  0  0  0  0  0
  -21.2011   -7.6141   23.9718 H   0  0  0  0  0  0
  -21.1472   -6.0522   25.9087 H   0  0  0  0  0  0
  -22.0592   -2.7598   23.2877 H   0  0  0  0  0  0
  -22.4067  -11.9874   22.4817 H   0  0  0  0  0  0
  -21.1089  -13.1264   22.2694 H   0  0  0  0  0  0
  -24.6539  -15.8484   20.5244 H   0  0  0  0  0  0
  -26.2655  -15.6287   20.0695 H   0  0  0  0  0  0
  -26.7190  -32.5456   23.1103 H   0  0  0  0  0  0
  -25.0075  -33.9720   25.0435 H   0  0  0  0  0  0
  -22.7132  -31.3086   21.4097 H   0  0  0  0  0  0
  -23.3766  -35.9598   23.3298 H   0  0  0  0  0  0
  -24.3602  -36.8910   22.2059 H   0  0  0  0  0  0
  -23.7208  -37.6483   23.6653 H   0  0  0  0  0  0
  -26.0907  -31.5582   20.6115 H   0  0  0  0  0  0
  -26.8354  -30.8346   22.0065 H   0  0  0  0  0  0
  -28.0965  -28.9655   21.2163 H   0  0  0  0  0  0
  -25.9562  -25.9391   18.9867 H   0  0  0  0  0  0
  -23.9642  -27.3206   19.0004 H   0  0  0  0  0  0
  -23.7606  -30.6125   19.4147 H   0  0  0  0  0  0
  -22.7493  -29.2692   19.8511 H   0  0  0  0  0  0
  -25.1283  -36.1967   25.0841 H   0  0  0  0  0  0
  -20.9964  -28.3261   24.1344 H   0  0  0  0  0  0
  -20.5983  -26.2317   23.3495 H   0  0  0  0  0  0
  -21.6619  -26.7633   22.0893 H   0  0  0  0  0  0
  -19.6784  -25.6066   21.1465 H   0  0  0  0  0  0
  -19.6523  -27.2902   20.6654 H   0  0  0  0  0  0
  -17.4078  -26.6538   21.4200 H   0  0  0  0  0  0
  -18.0274  -26.0041   22.9181 H   0  0  0  0  0  0
  -19.7910  -30.7276   24.2194 H   0  0  0  0  0  0
  -17.4993  -31.6278   24.5064 H   0  0  0  0  0  0
  -15.5327  -30.2878   23.7707 H   0  0  0  0  0  0
  -15.8657  -28.0669   22.7222 H   0  0  0  0  0  0
  -24.5931  -30.7024   25.7772 H   0  0  0  0  0  0
  -24.8884  -32.2858   26.4856 H   0  0  0  0  0  0
  -25.8068  -30.8905   27.0225 H   0  0  0  0  0  0
  -26.2894  -29.6756   24.1181 H   0  0  0  0  0  0
  -27.4069  -29.7267   25.4630 H   0  0  0  0  0  0
  -27.8751  -30.4304   23.9323 H   0  0  0  0  0  0
  -27.2712  -33.3600   26.2051 H   0  0  0  0  0  0
  -28.3873  -32.6831   25.0277 H   0  0  0  0  0  0
  -28.0733  -31.8394   26.5377 H   0  0  0  0  0  0
  -28.2609  -38.0097   24.7533 H   0  0  0  0  0  0
  -28.1073  -36.2636   24.6280 H   0  0  0  0  0  0
  -27.2315  -37.1432   25.8884 H   0  0  0  0  0  0
  -20.9280  -29.8996   21.7089 H   0  0  0  0  0  0
  -26.0190  -38.2871   24.1427 H   0  0  0  0  0  0
  -27.7702  -18.0024   19.8401 H   0  0  0  0  0  0
  -30.5890  -21.5675   21.6643 H   0  0  0  0  0  0
  -27.5867  -22.8563   23.7589 H   0  0  0  0  0  0
  -29.2548  -22.3050   23.4098 H   0  0  0  0  0  0
  -29.8010  -24.3170   22.2179 H   0  0  0  0  0  0
  -28.5116  -25.0574   23.2252 H   0  0  0  0  0  0
  -26.9077  -22.1590   21.7334 H   0  0  0  0  0  0
  -26.0771  -19.6642   19.1958 H   0  0  0  0  0  0
  -26.0976  -21.3142   19.7908 H   0  0  0  0  0  0
  -25.6942  -19.9816   20.8867 H   0  0  0  0  0  0
  -25.8955  -24.0138   22.4795 H   0  0  0  0  0  0
  -25.6877  -24.4451   20.8019 H   0  0  0  0  0  0
  -26.3092  -25.6162   21.9700 H   0  0  0  0  0  0
  -31.4058  -17.2643   20.9539 H   0  0  0  0  0  0
  -30.8174  -17.2153   19.3270 H   0  0  0  0  0  0
  -27.6225  -24.6947   19.2176 H   0  0  0  0  0  0
  -29.2244  -24.6440   19.8013 H   0  0  0  0  0  0
  -28.9279  -15.7593   20.8165 H   0  0  0  0  0  0
  1 25  1  0  0  0
  1 30  2  0  0  0
  1 85  1  0  0  0
  2  3  1  0  0  0
  2 25  1  0  0  0
  2 86  1  0  0  0
  2 87  1  0  0  0
  3  4  1  0  0  0
  3 88  1  0  0  0
  3 89  1  0  0  0
  4  5  1  0  0  0
  4 90  1  0  0  0
  4 91  1  0  0  0
  5  6  1  0  0  0
  5 26  1  0  0  0
  5 92  1  0  0  0
  6 25  1  0  0  0
  6 93  1  0  0  0
  6 94  1  0  0  0
  7  8  2  0  0  0
  7 26  1  0  0  0
  7 29  1  0  0  0
  8  9  1  0  0  0
  8 22  1  0  0  0
  9 10  1  0  0  0
  9 27  2  0  0  0
 10 11  2  0  0  0
 10 15  1  0  0  0
 11 12  1  0  0  0
 11 95  1  0  0  0
 12 13  2  0  0  0
 12 96  1  0  0  0
 13 14  1  0  0  0
 13 31  1  0  0  0
 14 15  2  0  0  0
 14 97  1  0  0  0
 15 98  1  0  0  0
 16 17  2  0  0  0
 16 21  1  0  0  0
 16 31  1  0  0  0
 17 18  1  0  0  0
 17 99  1  0  0  0
 18 19  2  0  0  0
 18100  1  0  0  0
 19 20  1  0  0  0
 19 24  1  0  0  0
 20 21  2  0  0  0
 20101  1  0  0  0
 21 23  1  0  0  0
 22 28  1  0  0  0
 22 32  2  0  0  0
 26 27  1  0  0  0
 28102  1  0  0  0
 28103  1  0  0  0
 29104  1  0  0  0
 29105  1  0  0  0
 33 34  1  0  0  0
 33 66  1  0  0  0
 33 70  2  0  0  0
 34 36  1  0  0  0
 34 59  1  0  0  0
 34106  1  0  0  0
 35 44  2  0  0  0
 35 45  1  0  0  0
 35 68  1  0  0  0
 36 56  1  0  0  0
 36107  1  0  0  0
 37 39  1  0  0  0
 37 47  1  0  0  0
 37 66  1  0  0  0
 37108  1  0  0  0
 38 43  2  0  0  0
 38 46  1  0  0  0
 38 47  1  0  0  0
 39 64  1  0  0  0
 39 67  2  0  0  0
 40 52  1  0  0  0
 40 53  2  0  0  0
 40 58  1  0  0  0
 41109  1  0  0  0
 41110  1  0  0  0
 41111  1  0  0  0
 41 48  1  0  0  0
 42 43  1  0  0  0
 42 66  1  0  0  0
 42112  1  0  0  0
 42113  1  0  0  0
 43 44  1  0  0  0
 44114  1  0  0  0
 45 46  2  0  0  0
 45115  1  0  0  0
 46116  1  0  0  0
 47117  1  0  0  0
 47118  1  0  0  0
 48 56  1  0  0  0
 48 65  1  0  0  0
 48119  1  0  0  0
 49 50  1  0  0  0
 49 53  1  0  0  0
 49 64  1  0  0  0
 49120  1  0  0  0
 50 51  1  0  0  0
 50121  1  0  0  0
 50122  1  0  0  0
 51 52  1  0  0  0
 51123  1  0  0  0
 51124  1  0  0  0
 52125  1  0  0  0
 52126  1  0  0  0
 53 54  1  0  0  0
 54 55  2  0  0  0
 54127  1  0  0  0
 55 57  1  0  0  0
 55128  1  0  0  0
 56 69  2  0  0  0
 57 58  2  0  0  0
 57129  1  0  0  0
 58130  1  0  0  0
 59 60  1  0  0  0
 59 61  1  0  0  0
 59 62  1  0  0  0
 60131  1  0  0  0
 60132  1  0  0  0
 60133  1  0  0  0
 61134  1  0  0  0
 61135  1  0  0  0
 61136  1  0  0  0
 62137  1  0  0  0
 62138  1  0  0  0
 62139  1  0  0  0
 63 65  1  0  0  0
 63140  1  0  0  0
 63141  1  0  0  0
 63142  1  0  0  0
 64143  1  0  0  0
 65144  1  0  0  0
 68 83  1  0  0  0
 71 74  2  0  0  0
 71 75  1  0  0  0
 71145  1  0  0  0
 72 73  2  0  0  0
 72 84  1  0  0  0
 72146  1  0  0  0
 73 74  1  0  0  0
 73 78  1  0  0  0
 74 80  1  0  0  0
 75 82  1  0  0  0
 75 84  2  0  0  0
 76 77  1  0  0  0
 76 78  1  0  0  0
 76147  1  0  0  0
 76148  1  0  0  0
 77 79  1  0  0  0
 77149  1  0  0  0
 77150  1  0  0  0
 78 79  1  0  0  0
 78151  1  0  0  0
 79 81  1  0  0  0
 79 83  1  0  0  0
 80152  1  0  0  0
 80153  1  0  0  0
 80154  1  0  0  0
 81155  1  0  0  0
 81156  1  0  0  0
 81157  1  0  0  0
 82 85  1  0  0  0
 82158  1  0  0  0
 82159  1  0  0  0
 83160  1  0  0  0
 83161  1  0  0  0
 85162  1  0  0  0
M  ISO  4   1 100  68 101  83 101  85 100
M  END
> <chiral flag>
0

> <version>
0

> <s_m_source_file>
/data/baiqing/PycharmProjects/Reinvent-master-3.2/result/LINK_invent/BTK/process_docking_weight1_custom_sum_contain_oxygen_bond_distance_aromatic_linkinvent_7_9_3/rearranged_h_0174.sdf

> <i_m_source_file_index>
46

> <r_mmod_Potential_Energy-OPLS-2005>
-49.8197441101074

> <r_mmod_Stretch_Energy-OPLS-2005>
96.4942474365234

> <r_mmod_Bend_Energy-OPLS-2005>
222.323303222656

> <r_mmod_Torsional_Energy-OPLS-2005>
229.823120117188

> <r_mmod_Improper_Torsional_Energy-OPLS-2005>
8.50101089477539

> <r_mmod_Van_der_Waal_Energy-OPLS-2005>
149.531829833984

> <r_mmod_Electrostatic_Energy-OPLS-2005>
-599.642517089844

> <r_mmod_Solvation_Energy-OPLS-2005>
-219.401397705078

> <b_mmod_Minimization_Converged-OPLS-2005>
0

> <r_mmod_RMS_Derivative-OPLS-2005>
2.94892883300781

$$$$
48
                    3D
 Structure written by MMmdl.
164173  0  0  1  0            999 V2000
  -30.5898  -14.8979   20.4204 C   0  0  0  0  0  0
  -30.4251  -12.5545   19.4938 C   0  0  0  0  0  0
  -29.5118  -12.5173   18.2496 C   0  0  0  0  0  0
  -28.0443  -12.3198   18.6692 C   0  0  0  0  0  0
  -27.6283  -13.2522   19.8383 C   0  0  2  0  0  0
  -28.6719  -13.2801   20.9747 C   0  0  0  0  0  0
  -25.2463  -13.8240   20.5727 C   0  0  0  0  0  0
  -24.1774  -13.0460   20.9227 C   0  0  0  0  0  0
  -24.6392  -11.6941   20.8755 C   0  0  0  0  0  0
  -23.9079  -10.4304   21.0407 C   0  0  0  0  0  0
  -24.3626   -9.4215   21.9181 C   0  0  0  0  0  0
  -23.6297   -8.2250   22.0747 C   0  0  0  0  0  0
  -22.4276   -8.0282   21.3540 C   0  0  0  0  0  0
  -21.9913   -9.0258   20.4644 C   0  0  0  0  0  0
  -22.7250  -10.2135   20.3057 C   0  0  0  0  0  0
  -21.6858   -6.0732   22.5275 C   0  0  0  0  0  0
  -21.4022   -6.5632   23.8209 C   0  0  0  0  0  0
  -21.3661   -5.6782   24.9168 C   0  0  0  0  0  0
  -21.6041   -4.3046   24.7219 C   0  0  0  0  0  0
  -21.8824   -3.8141   23.4343 C   0  0  0  0  0  0
  -21.9198   -4.6960   22.3399 C   0  0  0  0  0  0
  -22.7792  -13.5230   21.1883 C   0  0  0  0  0  0
  -22.1667   -4.2152   21.0975 F   0  0  0  0  0  0
  -21.5629   -3.4527   25.7733 F   0  0  0  0  0  0
  -29.9490  -13.6650   20.3662 N   0  0  0  0  0  0
  -26.2887  -12.9478   20.3264 N   0  0  0  0  0  0
  -25.9325  -11.6603   20.5747 N   0  0  0  0  0  0
  -22.0448  -12.8205   22.0433 N   0  0  0  0  0  0
  -25.4160  -15.1961   20.4165 N   0  0  0  0  0  0
  -31.7941  -14.9054   20.1396 O   0  0  0  0  0  0
  -21.6641   -6.8875   21.4237 O   0  0  0  0  0  0
  -22.3471  -14.5535   20.6736 O   0  0  0  0  0  0
  -24.6421  -31.8458   23.1905 C   0  0  0  0  0  0
  -25.9202  -32.4701   23.8280 C   0  0  1  0  0  0
  -27.2082  -27.1520   20.1432 C   0  0  0  0  0  0
  -25.5961  -33.8505   24.2202 N   0  0  0  0  0  0
  -23.4439  -30.4679   21.5360 C   0  0  2  0  0  0
  -24.8914  -28.9016   20.1078 C   0  0  0  0  0  0
  -22.7560  -29.4558   22.4862 C   0  0  0  0  0  0
  -18.0307  -28.1395   22.8474 C   0  0  0  0  0  0
  -24.1495  -36.7261   23.2640 C   0  0  0  0  0  0
  -25.9996  -30.7242   21.3881 C   0  0  0  0  0  0
  -26.0692  -29.3384   20.7273 C   0  0  0  0  0  0
  -27.2298  -28.4789   20.7299 C   0  0  0  0  0  0
  -26.0052  -26.8173   19.4814 C   0  0  0  0  0  0
  -24.8717  -27.6545   19.4691 C   0  0  0  0  0  0
  -23.6685  -29.8023   20.1532 C   0  0  0  0  0  0
  -25.4125  -36.3033   24.0316 C   0  0  1  0  0  0
  -20.5918  -28.3720   23.1239 C   0  0  2  0  0  0
  -20.6793  -26.9425   22.5404 C   0  0  0  0  0  0
  -19.5767  -26.6382   21.5211 C   0  0  0  0  0  0
  -18.1947  -26.7933   22.1621 C   0  0  0  0  0  0
  -19.1561  -28.8875   23.2849 C   0  0  0  0  0  0
  -18.9478  -30.1474   23.8875 C   0  0  0  0  0  0
  -17.6473  -30.6590   24.0560 C   0  0  0  0  0  0
  -25.9075  -34.9410   23.5066 C   0  0  0  0  0  0
  -16.5366  -29.9082   23.6336 C   0  0  0  0  0  0
  -16.7289  -28.6502   23.0350 C   0  0  0  0  0  0
  -26.4531  -31.6560   25.0716 C   0  0  0  0  0  0
  -25.3718  -31.3747   26.1413 C   0  0  0  0  0  0
  -27.0391  -30.2953   24.6288 C   0  0  0  0  0  0
  -27.6063  -32.4321   25.7503 C   0  0  0  0  0  0
  -27.5578  -37.1785   24.8462 C   0  0  0  0  0  0
  -21.4254  -29.3049   22.3608 N   0  0  0  0  0  0
  -26.4287  -37.3747   23.9409 N   0  0  0  0  0  0
  -24.7148  -31.0332   22.0934 N   0  0  0  0  0  0
  -23.4216  -28.8097   23.2993 O   0  0  0  0  0  0
  -28.2524  -26.1646   20.2205 O   0  0  0  0  0  0
  -26.5650  -34.8904   22.4639 O   0  0  0  0  0  0
  -23.5547  -32.1326   23.7142 O   0  0  0  0  0  0
  -28.9153  -23.3670   20.3254 C   0  0  0  0  0  0
  -30.2668  -23.5560   20.7156 C   0  0  0  0  0  0
  -28.5443  -21.9331   20.1878 C   0  0  0  0  0  0
  -31.1088  -22.4287   20.9263 C   0  0  0  0  0  0
  -29.4733  -20.8096   20.4241 C   0  0  0  0  0  0
  -30.1978  -18.6313   19.3785 C   0  0  0  0  0  0
  -29.3334  -18.4958   21.5147 C   0  0  0  0  0  0
  -29.9847  -17.0573   19.1471 C   0  0  0  0  0  0
  -29.1391  -16.8878   21.3866 C   0  0  0  0  0  0
  -30.8065  -24.9720   20.9031 C   0  0  0  0  0  0
  -27.1163  -21.6055   19.7817 C   0  0  0  0  0  0
  -32.5675  -22.5792   21.3220 C   0  0  0  0  0  0
  -27.9254  -24.6569   20.0456 C   0  0  0  0  0  0
  -30.7230  -21.1388   20.7908 N   0  0  0  0  0  0
  -29.2589  -19.3451   20.2866 N   0  0  0  0  0  0
  -29.8677  -16.1222   20.3184 N   0  0  0  0  0  0
  -31.4642  -12.6801   19.1842 H   0  0  0  0  0  0
  -30.3893  -11.6039   20.0283 H   0  0  0  0  0  0
  -29.8199  -11.7167   17.5763 H   0  0  0  0  0  0
  -29.6127  -13.4479   17.6888 H   0  0  0  0  0  0
  -27.9296  -11.2780   18.9716 H   0  0  0  0  0  0
  -27.3824  -12.4662   17.8154 H   0  0  0  0  0  0
  -27.5944  -14.2554   19.4116 H   0  0  0  0  0  0
  -28.7466  -12.3123   21.4720 H   0  0  0  0  0  0
  -28.3829  -14.0038   21.7387 H   0  0  0  0  0  0
  -25.2778   -9.5695   22.4754 H   0  0  0  0  0  0
  -24.0010   -7.4644   22.7462 H   0  0  0  0  0  0
  -21.0844   -8.8784   19.8945 H   0  0  0  0  0  0
  -22.3713  -10.9672   19.6163 H   0  0  0  0  0  0
  -21.2012   -7.6141   23.9713 H   0  0  0  0  0  0
  -21.1482   -6.0510   25.9072 H   0  0  0  0  0  0
  -22.0602   -2.7603   23.2840 H   0  0  0  0  0  0
  -22.4071  -11.9867   22.4821 H   0  0  0  0  0  0
  -21.1069  -13.1223   22.2658 H   0  0  0  0  0  0
  -24.6527  -15.8539   20.5311 H   0  0  0  0  0  0
  -26.2696  -15.6315   20.0913 H   0  0  0  0  0  0
  -26.7264  -32.5312   23.1006 H   0  0  0  0  0  0
  -25.0096  -33.9619   25.0341 H   0  0  0  0  0  0
  -22.7458  -31.2939   21.3857 H   0  0  0  0  0  0
  -23.3760  -35.9588   23.3284 H   0  0  0  0  0  0
  -24.3586  -36.8909   22.2058 H   0  0  0  0  0  0
  -23.7250  -37.6453   23.6687 H   0  0  0  0  0  0
  -26.1547  -31.4810   20.6182 H   0  0  0  0  0  0
  -26.8702  -30.7720   22.0300 H   0  0  0  0  0  0
  -28.1251  -28.8040   21.2410 H   0  0  0  0  0  0
  -25.8972  -25.8676   18.9809 H   0  0  0  0  0  0
  -23.9735  -27.3178   18.9703 H   0  0  0  0  0  0
  -23.8050  -30.5793   19.4000 H   0  0  0  0  0  0
  -22.7831  -29.2456   19.8413 H   0  0  0  0  0  0
  -25.1312  -36.1859   25.0806 H   0  0  0  0  0  0
  -21.0010  -28.3310   24.1360 H   0  0  0  0  0  0
  -20.5695  -26.2328   23.3618 H   0  0  0  0  0  0
  -21.6658  -26.7438   22.1199 H   0  0  0  0  0  0
  -19.6928  -25.6287   21.1254 H   0  0  0  0  0  0
  -19.6702  -27.3181   20.6732 H   0  0  0  0  0  0
  -17.4215  -26.6675   21.4026 H   0  0  0  0  0  0
  -18.0348  -26.0084   22.9027 H   0  0  0  0  0  0
  -19.7953  -30.7296   24.2232 H   0  0  0  0  0  0
  -17.5027  -31.6266   24.5168 H   0  0  0  0  0  0
  -15.5365  -30.2974   23.7675 H   0  0  0  0  0  0
  -15.8691  -28.0816   22.7073 H   0  0  0  0  0  0
  -24.5899  -30.7094   25.7737 H   0  0  0  0  0  0
  -24.8909  -32.2929   26.4792 H   0  0  0  0  0  0
  -25.8004  -30.8949   27.0221 H   0  0  0  0  0  0
  -26.3000  -29.6676   24.1298 H   0  0  0  0  0  0
  -27.4007  -29.7254   25.4859 H   0  0  0  0  0  0
  -27.8913  -30.4188   23.9602 H   0  0  0  0  0  0
  -27.2651  -33.3632   26.2042 H   0  0  0  0  0  0
  -28.3896  -32.6860   25.0349 H   0  0  0  0  0  0
  -28.0706  -31.8471   26.5453 H   0  0  0  0  0  0
  -28.2580  -38.0096   24.7517 H   0  0  0  0  0  0
  -28.1089  -36.2626   24.6274 H   0  0  0  0  0  0
  -27.2297  -37.1417   25.8864 H   0  0  0  0  0  0
  -20.9457  -29.8761   21.6792 H   0  0  0  0  0  0
  -26.0154  -38.2813   24.1413 H   0  0  0  0  0  0
  -30.1625  -19.1320   18.4098 H   0  0  0  0  0  0
  -31.2150  -18.7856   19.7433 H   0  0  0  0  0  0
  -30.3003  -18.6836   21.9839 H   0  0  0  0  0  0
  -28.5968  -18.8798   22.2210 H   0  0  0  0  0  0
  -30.7815  -16.7056   18.4886 H   0  0  0  0  0  0
  -29.0695  -16.9250   18.5686 H   0  0  0  0  0  0
  -28.0785  -16.6917   21.2259 H   0  0  0  0  0  0
  -29.3673  -16.4344   22.3526 H   0  0  0  0  0  0
  -30.7321  -25.5325   19.9709 H   0  0  0  0  0  0
  -31.8482  -25.0153   21.2131 H   0  0  0  0  0  0
  -30.2334  -25.4954   21.6686 H   0  0  0  0  0  0
  -26.7900  -22.2318   18.9516 H   0  0  0  0  0  0
  -26.4391  -21.7676   20.6208 H   0  0  0  0  0  0
  -27.0125  -20.5670   19.4657 H   0  0  0  0  0  0
  -32.6537  -23.0681   22.2924 H   0  0  0  0  0  0
  -33.1094  -23.1683   20.5817 H   0  0  0  0  0  0
  -33.0678  -21.6130   21.3955 H   0  0  0  0  0  0
  -27.0297  -24.4636   20.6368 H   0  0  0  0  0  0
  -27.6258  -24.5367   19.0049 H   0  0  0  0  0  0
  1 25  1  0  0  0
  1 30  2  0  0  0
  1 86  1  0  0  0
  2  3  1  0  0  0
  2 25  1  0  0  0
  2 87  1  0  0  0
  2 88  1  0  0  0
  3  4  1  0  0  0
  3 89  1  0  0  0
  3 90  1  0  0  0
  4  5  1  0  0  0
  4 91  1  0  0  0
  4 92  1  0  0  0
  5  6  1  0  0  0
  5 26  1  0  0  0
  5 93  1  0  0  0
  6 25  1  0  0  0
  6 94  1  0  0  0
  6 95  1  0  0  0
  7  8  2  0  0  0
  7 26  1  0  0  0
  7 29  1  0  0  0
  8  9  1  0  0  0
  8 22  1  0  0  0
  9 10  1  0  0  0
  9 27  2  0  0  0
 10 11  2  0  0  0
 10 15  1  0  0  0
 11 12  1  0  0  0
 11 96  1  0  0  0
 12 13  2  0  0  0
 12 97  1  0  0  0
 13 14  1  0  0  0
 13 31  1  0  0  0
 14 15  2  0  0  0
 14 98  1  0  0  0
 15 99  1  0  0  0
 16 17  2  0  0  0
 16 21  1  0  0  0
 16 31  1  0  0  0
 17 18  1  0  0  0
 17100  1  0  0  0
 18 19  2  0  0  0
 18101  1  0  0  0
 19 20  1  0  0  0
 19 24  1  0  0  0
 20 21  2  0  0  0
 20102  1  0  0  0
 21 23  1  0  0  0
 22 28  1  0  0  0
 22 32  2  0  0  0
 26 27  1  0  0  0
 28103  1  0  0  0
 28104  1  0  0  0
 29105  1  0  0  0
 29106  1  0  0  0
 33 34  1  0  0  0
 33 66  1  0  0  0
 33 70  2  0  0  0
 34 36  1  0  0  0
 34 59  1  0  0  0
 34107  1  0  0  0
 35 44  2  0  0  0
 35 45  1  0  0  0
 35 68  1  0  0  0
 36 56  1  0  0  0
 36108  1  0  0  0
 37 39  1  0  0  0
 37 47  1  0  0  0
 37 66  1  0  0  0
 37109  1  0  0  0
 38 43  2  0  0  0
 38 46  1  0  0  0
 38 47  1  0  0  0
 39 64  1  0  0  0
 39 67  2  0  0  0
 40 52  1  0  0  0
 40 53  2  0  0  0
 40 58  1  0  0  0
 41110  1  0  0  0
 41111  1  0  0  0
 41112  1  0  0  0
 41 48  1  0  0  0
 42 43  1  0  0  0
 42 66  1  0  0  0
 42113  1  0  0  0
 42114  1  0  0  0
 43 44  1  0  0  0
 44115  1  0  0  0
 45 46  2  0  0  0
 45116  1  0  0  0
 46117  1  0  0  0
 47118  1  0  0  0
 47119  1  0  0  0
 48 56  1  0  0  0
 48 65  1  0  0  0
 48120  1  0  0  0
 49 50  1  0  0  0
 49 53  1  0  0  0
 49 64  1  0  0  0
 49121  1  0  0  0
 50 51  1  0  0  0
 50122  1  0  0  0
 50123  1  0  0  0
 51 52  1  0  0  0
 51124  1  0  0  0
 51125  1  0  0  0
 52126  1  0  0  0
 52127  1  0  0  0
 53 54  1  0  0  0
 54 55  2  0  0  0
 54128  1  0  0  0
 55 57  1  0  0  0
 55129  1  0  0  0
 56 69  2  0  0  0
 57 58  2  0  0  0
 57130  1  0  0  0
 58131  1  0  0  0
 59 60  1  0  0  0
 59 61  1  0  0  0
 59 62  1  0  0  0
 60132  1  0  0  0
 60133  1  0  0  0
 60134  1  0  0  0
 61135  1  0  0  0
 61136  1  0  0  0
 61137  1  0  0  0
 62138  1  0  0  0
 62139  1  0  0  0
 62140  1  0  0  0
 63 65  1  0  0  0
 63141  1  0  0  0
 63142  1  0  0  0
 63143  1  0  0  0
 64144  1  0  0  0
 65145  1  0  0  0
 68 83  1  0  0  0
 71 72  2  0  0  0
 71 73  1  0  0  0
 71 83  1  0  0  0
 72 74  1  0  0  0
 72 80  1  0  0  0
 73 75  2  0  0  0
 73 81  1  0  0  0
 74 82  1  0  0  0
 74 84  2  0  0  0
 75 84  1  0  0  0
 75 85  1  0  0  0
 76 78  1  0  0  0
 76 85  1  0  0  0
 76146  1  0  0  0
 76147  1  0  0  0
 77 79  1  0  0  0
 77 85  1  0  0  0
 77148  1  0  0  0
 77149  1  0  0  0
 78 86  1  0  0  0
 78150  1  0  0  0
 78151  1  0  0  0
 79 86  1  0  0  0
 79152  1  0  0  0
 79153  1  0  0  0
 80154  1  0  0  0
 80155  1  0  0  0
 80156  1  0  0  0
 81157  1  0  0  0
 81158  1  0  0  0
 81159  1  0  0  0
 82160  1  0  0  0
 82161  1  0  0  0
 82162  1  0  0  0
 83163  1  0  0  0
 83164  1  0  0  0
M  ISO  4   1 100  68 101  83 101  86 100
M  END
> <chiral flag>
0

> <version>
0

> <s_m_source_file>
/data/baiqing/PycharmProjects/Reinvent-master-3.2/result/LINK_invent/BTK/process_docking_weight1_custom_sum_contain_oxygen_bond_distance_aromatic_linkinvent_7_9_3/rearranged_h_0174.sdf

> <i_m_source_file_index>
47

> <r_mmod_Potential_Energy-OPLS-2005>
380.045227050781

> <r_mmod_Stretch_Energy-OPLS-2005>
205.970489501953

> <r_mmod_Bend_Energy-OPLS-2005>
240.927719116211

> <r_mmod_Torsional_Energy-OPLS-2005>
370.744598388672

> <r_mmod_Improper_Torsional_Energy-OPLS-2005>
21.0770416259766

> <r_mmod_Van_der_Waal_Energy-OPLS-2005>
147.820526123047

> <r_mmod_Electrostatic_Energy-OPLS-2005>
-551.428833007812

> <r_mmod_Solvation_Energy-OPLS-2005>
-224.809509277344

> <b_mmod_Minimization_Converged-OPLS-2005>
0

> <r_mmod_RMS_Derivative-OPLS-2005>
1.13800728321075

$$$$
49
                    3D
 Structure written by MMmdl.
157167  0  0  1  0            999 V2000
  -30.5018  -15.0814   20.3740 C   0  0  0  0  0  0
  -30.4410  -12.6792   19.4978 C   0  0  0  0  0  0
  -29.5240  -12.5271   18.2628 C   0  0  0  0  0  0
  -28.0599  -12.3012   18.6921 C   0  0  0  0  0  0
  -27.6187  -13.2433   19.8438 C   0  0  2  0  0  0
  -28.6692  -13.3466   20.9651 C   0  0  0  0  0  0
  -25.2427  -13.8173   20.5819 C   0  0  0  0  0  0
  -24.1721  -13.0407   20.9264 C   0  0  0  0  0  0
  -24.6332  -11.6892   20.8786 C   0  0  0  0  0  0
  -23.9023  -10.4268   21.0422 C   0  0  0  0  0  0
  -24.3581   -9.4181   21.9191 C   0  0  0  0  0  0
  -23.6265   -8.2216   22.0754 C   0  0  0  0  0  0
  -22.4246   -8.0246   21.3551 C   0  0  0  0  0  0
  -21.9875   -9.0227   20.4657 C   0  0  0  0  0  0
  -22.7201  -10.2113   20.3064 C   0  0  0  0  0  0
  -21.6838   -6.0710   22.5267 C   0  0  0  0  0  0
  -21.4012   -6.5617   23.8203 C   0  0  0  0  0  0
  -21.3667   -5.6773   24.9170 C   0  0  0  0  0  0
  -21.6042   -4.3036   24.7226 C   0  0  0  0  0  0
  -21.8819   -3.8126   23.4350 C   0  0  0  0  0  0
  -21.9184   -4.6938   22.3407 C   0  0  0  0  0  0
  -22.7736  -13.5202   21.1880 C   0  0  0  0  0  0
  -22.1651   -4.2123   21.0989 F   0  0  0  0  0  0
  -21.5645   -3.4526   25.7745 F   0  0  0  0  0  0
  -29.9083  -13.8067   20.3248 N   0  0  0  0  0  0
  -26.2833  -12.9387   20.3376 N   0  0  0  0  0  0
  -25.9269  -11.6518   20.5804 N   0  0  0  0  0  0
  -22.0349  -12.8219   22.0431 N   0  0  0  0  0  0
  -25.4116  -15.1909   20.4303 N   0  0  0  0  0  0
  -31.7315  -15.0851   20.2262 O   0  0  0  0  0  0
  -21.6620   -6.8842   21.4226 O   0  0  0  0  0  0
  -22.3440  -14.5503   20.6705 O   0  0  0  0  0  0
  -24.6505  -31.8365   23.1805 C   0  0  0  0  0  0
  -25.9243  -32.4649   23.8220 C   0  0  1  0  0  0
  -27.2164  -27.0643   20.1617 C   0  0  0  0  0  0
  -25.5965  -33.8461   24.2140 N   0  0  0  0  0  0
  -23.4570  -30.4538   21.5271 C   0  0  2  0  0  0
  -24.9073  -28.8630   20.1099 C   0  0  0  0  0  0
  -22.7599  -29.4507   22.4818 C   0  0  0  0  0  0
  -18.0313  -28.1397   22.8468 C   0  0  0  0  0  0
  -24.1498  -36.7247   23.2644 C   0  0  0  0  0  0
  -26.0175  -30.6876   21.3872 C   0  0  0  0  0  0
  -26.0864  -29.2907   20.7318 C   0  0  0  0  0  0
  -27.2409  -28.4096   20.7343 C   0  0  0  0  0  0
  -26.0095  -26.7498   19.5019 C   0  0  0  0  0  0
  -24.8856  -27.6095   19.4763 C   0  0  0  0  0  0
  -23.6876  -29.7758   20.1493 C   0  0  0  0  0  0
  -25.4129  -36.3009   24.0305 C   0  0  1  0  0  0
  -20.5927  -28.3735   23.1220 C   0  0  2  0  0  0
  -20.6795  -26.9429   22.5406 C   0  0  0  0  0  0
  -19.5773  -26.6378   21.5212 C   0  0  0  0  0  0
  -18.1951  -26.7933   22.1620 C   0  0  0  0  0  0
  -19.1569  -28.8881   23.2841 C   0  0  0  0  0  0
  -18.9483  -30.1476   23.8874 C   0  0  0  0  0  0
  -17.6478  -30.6594   24.0554 C   0  0  0  0  0  0
  -25.9080  -34.9382   23.5036 C   0  0  0  0  0  0
  -16.5371  -29.9082   23.6336 C   0  0  0  0  0  0
  -16.7295  -28.6504   23.0345 C   0  0  0  0  0  0
  -26.4540  -31.6536   25.0690 C   0  0  0  0  0  0
  -25.3705  -31.3742   26.1375 C   0  0  0  0  0  0
  -27.0399  -30.2918   24.6305 C   0  0  0  0  0  0
  -27.6059  -32.4302   25.7486 C   0  0  0  0  0  0
  -27.5571  -37.1789   24.8465 C   0  0  0  0  0  0
  -21.4279  -29.3053   22.3574 N   0  0  0  0  0  0
  -26.4292  -37.3724   23.9392 N   0  0  0  0  0  0
  -24.7288  -31.0156   22.0868 N   0  0  0  0  0  0
  -23.4217  -28.8061   23.2994 O   0  0  0  0  0  0
  -28.2592  -26.0484   20.2191 O   0  0  0  0  0  0
  -26.5678  -34.8895   22.4623 O   0  0  0  0  0  0
  -23.5610  -32.1262   23.6993 O   0  0  0  0  0  0
  -29.2315  -19.5001   18.0335 C   0  0  0  0  0  0
  -29.3834  -18.5401   19.0479 C   0  0  0  0  0  0
  -29.1247  -20.8943   18.3342 C   0  0  0  0  0  0
  -29.4278  -18.9851   20.3320 C   0  0  0  0  0  0
  -29.0500  -21.4101   19.6856 C   0  0  0  0  0  0
  -29.7518  -17.6293   21.1473 C   0  0  0  0  0  0
  -28.3185  -23.9521   18.8813 C   0  0  0  0  0  0
  -29.5643  -16.9961   18.9159 C   0  0  2  0  0  0
  -29.0295  -23.1112   19.9512 C   0  0  1  0  0  0
  -28.0025  -24.4740   20.2245 C   0  0  1  0  0  0
  -29.2067  -21.7940   17.1049 C   0  0  0  0  0  0
  -28.3692  -16.4226   18.1439 C   0  0  0  0  0  0
  -29.2466  -20.3747   20.6681 N   0  0  0  0  0  0
  -29.7459  -16.3234   20.2643 N   0  0  0  0  0  0
  -31.4659  -12.8625   19.1753 H   0  0  0  0  0  0
  -30.4722  -11.7540   20.0749 H   0  0  0  0  0  0
  -29.8661  -11.6985   17.6407 H   0  0  0  0  0  0
  -29.5961  -13.4176   17.6390 H   0  0  0  0  0  0
  -27.9734  -11.2643   19.0202 H   0  0  0  0  0  0
  -27.3908  -12.4069   17.8375 H   0  0  0  0  0  0
  -27.5445  -14.2299   19.4018 H   0  0  0  0  0  0
  -28.8065  -12.3907   21.4735 H   0  0  0  0  0  0
  -28.3523  -14.0623   21.7243 H   0  0  0  0  0  0
  -25.2721   -9.5681   22.4756 H   0  0  0  0  0  0
  -23.9983   -7.4608   22.7466 H   0  0  0  0  0  0
  -21.0810   -8.8746   19.8958 H   0  0  0  0  0  0
  -22.3650  -10.9653   19.6173 H   0  0  0  0  0  0
  -21.2000   -7.6121   23.9707 H   0  0  0  0  0  0
  -21.1497   -6.0501   25.9074 H   0  0  0  0  0  0
  -22.0594   -2.7586   23.2854 H   0  0  0  0  0  0
  -22.3955  -11.9910   22.4897 H   0  0  0  0  0  0
  -21.0964  -13.1276   22.2602 H   0  0  0  0  0  0
  -24.6487  -15.8467   20.5544 H   0  0  0  0  0  0
  -26.2766  -15.6371   20.1560 H   0  0  0  0  0  0
  -26.7300  -32.5228   23.0933 H   0  0  0  0  0  0
  -25.0071  -33.9550   25.0261 H   0  0  0  0  0  0
  -22.7626  -31.2814   21.3658 H   0  0  0  0  0  0
  -23.3751  -35.9590   23.3308 H   0  0  0  0  0  0
  -24.3577  -36.8887   22.2059 H   0  0  0  0  0  0
  -23.7274  -37.6449   23.6687 H   0  0  0  0  0  0
  -26.1748  -31.4353   20.6087 H   0  0  0  0  0  0
  -26.8877  -30.7453   22.0297 H   0  0  0  0  0  0
  -28.1392  -28.7348   21.2395 H   0  0  0  0  0  0
  -25.9138  -25.7889   19.0176 H   0  0  0  0  0  0
  -23.9866  -27.2784   18.9758 H   0  0  0  0  0  0
  -23.8311  -30.5465   19.3912 H   0  0  0  0  0  0
  -22.8009  -29.2213   19.8378 H   0  0  0  0  0  0
  -25.1327  -36.1822   25.0799 H   0  0  0  0  0  0
  -21.0024  -28.3341   24.1341 H   0  0  0  0  0  0
  -20.5683  -26.2354   23.3636 H   0  0  0  0  0  0
  -21.6661  -26.7419   22.1220 H   0  0  0  0  0  0
  -19.6936  -25.6279   21.1272 H   0  0  0  0  0  0
  -19.6715  -27.3166   20.6723 H   0  0  0  0  0  0
  -17.4222  -26.6674   21.4020 H   0  0  0  0  0  0
  -18.0351  -26.0084   22.9032 H   0  0  0  0  0  0
  -19.7955  -30.7295   24.2238 H   0  0  0  0  0  0
  -17.5028  -31.6267   24.5161 H   0  0  0  0  0  0
  -15.5372  -30.2970   23.7669 H   0  0  0  0  0  0
  -15.8700  -28.0818   22.7060 H   0  0  0  0  0  0
  -24.5897  -30.7082   25.7688 H   0  0  0  0  0  0
  -24.8881  -32.2930   26.4720 H   0  0  0  0  0  0
  -25.7982  -30.8962   27.0199 H   0  0  0  0  0  0
  -26.3014  -29.6627   24.1328 H   0  0  0  0  0  0
  -27.4001  -29.7238   25.4894 H   0  0  0  0  0  0
  -27.8932  -30.4123   23.9626 H   0  0  0  0  0  0
  -27.2649  -33.3625   26.1997 H   0  0  0  0  0  0
  -28.3917  -32.6826   25.0353 H   0  0  0  0  0  0
  -28.0677  -31.8466   26.5459 H   0  0  0  0  0  0
  -28.2598  -38.0075   24.7472 H   0  0  0  0  0  0
  -28.1059  -36.2599   24.6340 H   0  0  0  0  0  0
  -27.2286  -37.1501   25.8871 H   0  0  0  0  0  0
  -20.9495  -29.8758   21.6741 H   0  0  0  0  0  0
  -26.0152  -38.2797   24.1366 H   0  0  0  0  0  0
  -29.2578  -19.1636   17.0068 H   0  0  0  0  0  0
  -29.0248  -17.5153   21.9504 H   0  0  0  0  0  0
  -30.7296  -17.7307   21.6177 H   0  0  0  0  0  0
  -27.4495  -23.5327   18.3806 H   0  0  0  0  0  0
  -28.9534  -24.5539   18.2351 H   0  0  0  0  0  0
  -30.4676  -16.8272   18.3259 H   0  0  0  0  0  0
  -30.0702  -23.3542   20.1582 H   0  0  0  0  0  0
  -27.0318  -24.2486   20.6623 H   0  0  0  0  0  0
  -29.5623  -21.2462   16.2314 H   0  0  0  0  0  0
  -29.9222  -22.6027   17.2551 H   0  0  0  0  0  0
  -28.2347  -22.1997   16.8281 H   0  0  0  0  0  0
  -27.4454  -16.5061   18.7192 H   0  0  0  0  0  0
  -28.5256  -15.3814   17.8792 H   0  0  0  0  0  0
  -28.2140  -16.9537   17.2051 H   0  0  0  0  0  0
  1 25  1  0  0  0
  1 30  2  0  0  0
  1 84  1  0  0  0
  2  3  1  0  0  0
  2 25  1  0  0  0
  2 85  1  0  0  0
  2 86  1  0  0  0
  3  4  1  0  0  0
  3 87  1  0  0  0
  3 88  1  0  0  0
  4  5  1  0  0  0
  4 89  1  0  0  0
  4 90  1  0  0  0
  5  6  1  0  0  0
  5 26  1  0  0  0
  5 91  1  0  0  0
  6 25  1  0  0  0
  6 92  1  0  0  0
  6 93  1  0  0  0
  7  8  2  0  0  0
  7 26  1  0  0  0
  7 29  1  0  0  0
  8  9  1  0  0  0
  8 22  1  0  0  0
  9 10  1  0  0  0
  9 27  2  0  0  0
 10 11  2  0  0  0
 10 15  1  0  0  0
 11 12  1  0  0  0
 11 94  1  0  0  0
 12 13  2  0  0  0
 12 95  1  0  0  0
 13 14  1  0  0  0
 13 31  1  0  0  0
 14 15  2  0  0  0
 14 96  1  0  0  0
 15 97  1  0  0  0
 16 17  2  0  0  0
 16 21  1  0  0  0
 16 31  1  0  0  0
 17 18  1  0  0  0
 17 98  1  0  0  0
 18 19  2  0  0  0
 18 99  1  0  0  0
 19 20  1  0  0  0
 19 24  1  0  0  0
 20 21  2  0  0  0
 20100  1  0  0  0
 21 23  1  0  0  0
 22 28  1  0  0  0
 22 32  2  0  0  0
 26 27  1  0  0  0
 28101  1  0  0  0
 28102  1  0  0  0
 29103  1  0  0  0
 29104  1  0  0  0
 33 34  1  0  0  0
 33 66  1  0  0  0
 33 70  2  0  0  0
 34 36  1  0  0  0
 34 59  1  0  0  0
 34105  1  0  0  0
 35 44  2  0  0  0
 35 45  1  0  0  0
 35 68  1  0  0  0
 36 56  1  0  0  0
 36106  1  0  0  0
 37 39  1  0  0  0
 37 47  1  0  0  0
 37 66  1  0  0  0
 37107  1  0  0  0
 38 43  2  0  0  0
 38 46  1  0  0  0
 38 47  1  0  0  0
 39 64  1  0  0  0
 39 67  2  0  0  0
 40 52  1  0  0  0
 40 53  2  0  0  0
 40 58  1  0  0  0
 41108  1  0  0  0
 41109  1  0  0  0
 41110  1  0  0  0
 41 48  1  0  0  0
 42 43  1  0  0  0
 42 66  1  0  0  0
 42111  1  0  0  0
 42112  1  0  0  0
 43 44  1  0  0  0
 44113  1  0  0  0
 45 46  2  0  0  0
 45114  1  0  0  0
 46115  1  0  0  0
 47116  1  0  0  0
 47117  1  0  0  0
 48 56  1  0  0  0
 48 65  1  0  0  0
 48118  1  0  0  0
 49 50  1  0  0  0
 49 53  1  0  0  0
 49 64  1  0  0  0
 49119  1  0  0  0
 50 51  1  0  0  0
 50120  1  0  0  0
 50121  1  0  0  0
 51 52  1  0  0  0
 51122  1  0  0  0
 51123  1  0  0  0
 52124  1  0  0  0
 52125  1  0  0  0
 53 54  1  0  0  0
 54 55  2  0  0  0
 54126  1  0  0  0
 55 57  1  0  0  0
 55127  1  0  0  0
 56 69  2  0  0  0
 57 58  2  0  0  0
 57128  1  0  0  0
 58129  1  0  0  0
 59 60  1  0  0  0
 59 61  1  0  0  0
 59 62  1  0  0  0
 60130  1  0  0  0
 60131  1  0  0  0
 60132  1  0  0  0
 61133  1  0  0  0
 61134  1  0  0  0
 61135  1  0  0  0
 62136  1  0  0  0
 62137  1  0  0  0
 62138  1  0  0  0
 63 65  1  0  0  0
 63139  1  0  0  0
 63140  1  0  0  0
 63141  1  0  0  0
 64142  1  0  0  0
 65143  1  0  0  0
 68 80  1  0  0  0
 71 72  2  0  0  0
 71 73  1  0  0  0
 71144  1  0  0  0
 72 74  1  0  0  0
 72 78  1  0  0  0
 73 75  2  0  0  0
 73 81  1  0  0  0
 74 76  1  0  0  0
 74 83  2  0  0  0
 75 83  1  0  0  0
 75 79  1  0  0  0
 76 84  1  0  0  0
 76145  1  0  0  0
 76146  1  0  0  0
 77 79  1  0  0  0
 77 80  1  0  0  0
 77147  1  0  0  0
 77148  1  0  0  0
 78 82  1  0  0  0
 78 84  1  0  0  0
 78149  1  0  0  0
 79 80  1  0  0  0
 79150  1  0  0  0
 80151  1  0  0  0
 81152  1  0  0  0
 81153  1  0  0  0
 81154  1  0  0  0
 82155  1  0  0  0
 82156  1  0  0  0
 82157  1  0  0  0
M  ISO  4   1 100  68 101  80 101  84 100
M  END
> <chiral flag>
0

> <version>
0

> <s_m_source_file>
/data/baiqing/PycharmProjects/Reinvent-master-3.2/result/LINK_invent/BTK/process_docking_weight1_custom_sum_contain_oxygen_bond_distance_aromatic_linkinvent_7_9_3/rearranged_h_0174.sdf

> <i_m_source_file_index>
48

> <r_mmod_Potential_Energy-OPLS-2005>
786.563842773438

> <r_mmod_Stretch_Energy-OPLS-2005>
369.591918945312

> <r_mmod_Bend_Energy-OPLS-2005>
381.264862060547

> <r_mmod_Torsional_Energy-OPLS-2005>
304.57080078125

> <r_mmod_Improper_Torsional_Energy-OPLS-2005>
13.6278791427612

> <r_mmod_Van_der_Waal_Energy-OPLS-2005>
129.083419799805

> <r_mmod_Electrostatic_Energy-OPLS-2005>
-467.438171386719

> <r_mmod_Solvation_Energy-OPLS-2005>
-224.690887451172

> <b_mmod_Minimization_Converged-OPLS-2005>
0

> <r_mmod_RMS_Derivative-OPLS-2005>
2.47233200073242

$$$$
50
                    3D
 Structure written by MMmdl.
156165  0  0  1  0            999 V2000
  -30.5239  -14.9114   20.4613 C   0  0  0  0  0  0
  -30.4539  -12.5659   19.4997 C   0  0  0  0  0  0
  -29.5249  -12.5404   18.2607 C   0  0  0  0  0  0
  -28.0556  -12.3258   18.6703 C   0  0  0  0  0  0
  -27.6378  -13.2400   19.8506 C   0  0  2  0  0  0
  -28.6799  -13.2203   20.9920 C   0  0  0  0  0  0
  -25.2472  -13.8202   20.5637 C   0  0  0  0  0  0
  -24.1798  -13.0436   20.9210 C   0  0  0  0  0  0
  -24.6400  -11.6915   20.8742 C   0  0  0  0  0  0
  -23.9070  -10.4285   21.0398 C   0  0  0  0  0  0
  -24.3617   -9.4200   21.9176 C   0  0  0  0  0  0
  -23.6278   -8.2246   22.0753 C   0  0  0  0  0  0
  -22.4267   -8.0280   21.3528 C   0  0  0  0  0  0
  -21.9898   -9.0264   20.4645 C   0  0  0  0  0  0
  -22.7231  -10.2144   20.3053 C   0  0  0  0  0  0
  -21.6853   -6.0722   22.5255 C   0  0  0  0  0  0
  -21.4022   -6.5630   23.8189 C   0  0  0  0  0  0
  -21.3659   -5.6784   24.9151 C   0  0  0  0  0  0
  -21.6048   -4.3046   24.7205 C   0  0  0  0  0  0
  -21.8819   -3.8132   23.4328 C   0  0  0  0  0  0
  -21.9195   -4.6947   22.3381 C   0  0  0  0  0  0
  -22.7815  -13.5217   21.1871 C   0  0  0  0  0  0
  -22.1657   -4.2133   21.0958 F   0  0  0  0  0  0
  -21.5626   -3.4530   25.7719 F   0  0  0  0  0  0
  -29.9680  -13.6356   20.4144 N   0  0  0  0  0  0
  -26.2911  -12.9424   20.3252 N   0  0  0  0  0  0
  -25.9339  -11.6562   20.5772 N   0  0  0  0  0  0
  -22.0446  -12.8209   22.0426 N   0  0  0  0  0  0
  -25.4110  -15.1921   20.3901 N   0  0  0  0  0  0
  -31.7117  -15.0359   20.1342 O   0  0  0  0  0  0
  -21.6634   -6.8871   21.4224 O   0  0  0  0  0  0
  -22.3499  -14.5521   20.6710 O   0  0  0  0  0  0
  -24.6403  -31.8492   23.1906 C   0  0  0  0  0  0
  -25.9199  -32.4719   23.8288 C   0  0  1  0  0  0
  -27.2174  -27.1582   20.1678 C   0  0  0  0  0  0
  -25.5966  -33.8531   24.2217 N   0  0  0  0  0  0
  -23.4429  -30.4665   21.5368 C   0  0  2  0  0  0
  -24.8944  -28.8975   20.1144 C   0  0  0  0  0  0
  -22.7561  -29.4557   22.4880 C   0  0  0  0  0  0
  -18.0295  -28.1386   22.8457 C   0  0  0  0  0  0
  -24.1489  -36.7273   23.2631 C   0  0  0  0  0  0
  -25.9961  -30.7292   21.3868 C   0  0  0  0  0  0
  -26.0681  -29.3392   20.7402 C   0  0  0  0  0  0
  -27.2316  -28.4856   20.7498 C   0  0  0  0  0  0
  -26.0312  -26.8301   19.4777 C   0  0  0  0  0  0
  -24.8898  -27.6551   19.4645 C   0  0  0  0  0  0
  -23.6703  -29.7969   20.1549 C   0  0  0  0  0  0
  -25.4120  -36.3065   24.0307 C   0  0  1  0  0  0
  -20.5904  -28.3724   23.1229 C   0  0  2  0  0  0
  -20.6781  -26.9431   22.5393 C   0  0  0  0  0  0
  -19.5768  -26.6398   21.5179 C   0  0  0  0  0  0
  -18.1949  -26.7921   22.1597 C   0  0  0  0  0  0
  -19.1548  -28.8867   23.2842 C   0  0  0  0  0  0
  -18.9471  -30.1453   23.8890 C   0  0  0  0  0  0
  -17.6470  -30.6582   24.0549 C   0  0  0  0  0  0
  -25.9079  -34.9431   23.5080 C   0  0  0  0  0  0
  -16.5361  -29.9074   23.6314 C   0  0  0  0  0  0
  -16.7282  -28.6486   23.0342 C   0  0  0  0  0  0
  -26.4537  -31.6539   25.0697 C   0  0  0  0  0  0
  -25.3759  -31.3719   26.1417 C   0  0  0  0  0  0
  -27.0325  -30.2907   24.6236 C   0  0  0  0  0  0
  -27.6096  -32.4272   25.7476 C   0  0  0  0  0  0
  -27.5577  -37.1798   24.8460 C   0  0  0  0  0  0
  -21.4253  -29.3043   22.3613 N   0  0  0  0  0  0
  -26.4291  -37.3773   23.9408 N   0  0  0  0  0  0
  -24.7134  -31.0352   22.0941 N   0  0  0  0  0  0
  -23.4205  -28.8111   23.3032 O   0  0  0  0  0  0
  -28.2941  -26.2090   20.1583 O   0  0  0  0  0  0
  -26.5675  -34.8929   22.4663 O   0  0  0  0  0  0
  -23.5534  -32.1370   23.7139 O   0  0  0  0  0  0
  -27.9912  -19.4930   20.7272 C   0  0  0  0  0  0
  -28.2675  -18.0822   20.7193 C   0  0  0  0  0  0
  -28.9954  -20.5080   20.6660 C   0  0  0  0  0  0
  -30.2956  -19.8763   20.5843 C   0  0  0  0  0  0
  -29.5737  -17.5197   20.6370 C   0  0  0  0  0  0
  -27.0927  -22.4533   20.9257 C   0  0  0  0  0  0
  -26.8537  -23.9678   20.5710 C   0  0  0  0  0  0
  -29.1430  -23.4780   20.2207 C   0  0  0  0  0  0
  -28.6104  -22.1063   20.9235 C   0  0  2  0  0  0
  -28.1906  -24.7390   20.6611 C   0  0  1  0  0  0
  -31.5406  -20.7410   20.5850 C   0  0  0  0  0  0
  -30.5534  -18.4923   20.5551 N   0  0  0  0  0  0
  -29.6533  -15.9956   20.7172 N   0  0  0  0  0  0
  -31.4855  -12.7400   19.1888 H   0  0  0  0  0  0
  -30.4566  -11.5998   20.0086 H   0  0  0  0  0  0
  -29.8376  -11.7576   17.5682 H   0  0  0  0  0  0
  -29.6164  -13.4840   17.7202 H   0  0  0  0  0  0
  -27.9420  -11.2789   18.9557 H   0  0  0  0  0  0
  -27.3969  -12.4842   17.8157 H   0  0  0  0  0  0
  -27.6143  -14.2510   19.4435 H   0  0  0  0  0  0
  -28.7544  -12.2263   21.4356 H   0  0  0  0  0  0
  -28.3798  -13.8903   21.8004 H   0  0  0  0  0  0
  -25.2763   -9.5673   22.4745 H   0  0  0  0  0  0
  -23.9956   -7.4656   22.7501 H   0  0  0  0  0  0
  -21.0802   -8.8806   19.8975 H   0  0  0  0  0  0
  -22.3675  -10.9692   19.6167 H   0  0  0  0  0  0
  -21.2018   -7.6143   23.9690 H   0  0  0  0  0  0
  -21.1482   -6.0512   25.9058 H   0  0  0  0  0  0
  -22.0600   -2.7592   23.2833 H   0  0  0  0  0  0
  -22.4038  -11.9857   22.4815 H   0  0  0  0  0  0
  -21.1087  -13.1286   22.2661 H   0  0  0  0  0  0
  -24.6140  -15.8177   20.4334 H   0  0  0  0  0  0
  -26.1993  -15.5977   19.9032 H   0  0  0  0  0  0
  -26.7261  -32.5348   23.1016 H   0  0  0  0  0  0
  -25.0034  -33.9650   25.0309 H   0  0  0  0  0  0
  -22.7433  -31.2910   21.3843 H   0  0  0  0  0  0
  -23.3771  -35.9584   23.3277 H   0  0  0  0  0  0
  -24.3573  -36.8926   22.2048 H   0  0  0  0  0  0
  -23.7223  -37.6457   23.6675 H   0  0  0  0  0  0
  -26.1423  -31.4795   20.6083 H   0  0  0  0  0  0
  -26.8709  -30.7876   22.0226 H   0  0  0  0  0  0
  -28.1305  -28.8249   21.2464 H   0  0  0  0  0  0
  -25.9744  -25.9085   18.9226 H   0  0  0  0  0  0
  -24.0033  -27.3262   18.9380 H   0  0  0  0  0  0
  -23.8089  -30.5768   19.4050 H   0  0  0  0  0  0
  -22.7846  -29.2397   19.8403 H   0  0  0  0  0  0
  -25.1296  -36.1896   25.0796 H   0  0  0  0  0  0
  -20.9978  -28.3319   24.1356 H   0  0  0  0  0  0
  -20.5643  -26.2346   23.3615 H   0  0  0  0  0  0
  -21.6651  -26.7430   22.1209 H   0  0  0  0  0  0
  -19.6962  -25.6320   21.1178 H   0  0  0  0  0  0
  -19.6696  -27.3229   20.6723 H   0  0  0  0  0  0
  -17.4209  -26.6648   21.4012 H   0  0  0  0  0  0
  -18.0382  -26.0062   22.8998 H   0  0  0  0  0  0
  -19.7949  -30.7249   24.2290 H   0  0  0  0  0  0
  -17.5016  -31.6245   24.5185 H   0  0  0  0  0  0
  -15.5361  -30.2970   23.7641 H   0  0  0  0  0  0
  -15.8678  -28.0795   22.7079 H   0  0  0  0  0  0
  -24.5921  -30.7084   25.7735 H   0  0  0  0  0  0
  -24.8984  -32.2897   26.4852 H   0  0  0  0  0  0
  -25.8071  -30.8872   27.0183 H   0  0  0  0  0  0
  -26.2868  -29.6677   24.1271 H   0  0  0  0  0  0
  -27.3927  -29.7164   25.4782 H   0  0  0  0  0  0
  -27.8816  -30.4075   23.9500 H   0  0  0  0  0  0
  -27.2714  -33.3608   26.1978 H   0  0  0  0  0  0
  -28.3946  -32.6754   25.0322 H   0  0  0  0  0  0
  -28.0704  -31.8431   26.5451 H   0  0  0  0  0  0
  -28.2591  -38.0099   24.7501 H   0  0  0  0  0  0
  -28.1075  -36.2629   24.6277 H   0  0  0  0  0  0
  -27.2302  -37.1431   25.8868 H   0  0  0  0  0  0
  -20.9497  -29.8742   21.6759 H   0  0  0  0  0  0
  -26.0165  -38.2842   24.1434 H   0  0  0  0  0  0
  -26.9574  -19.7796   20.8432 H   0  0  0  0  0  0
  -27.4191  -17.4178   20.8091 H   0  0  0  0  0  0
  -26.5645  -21.8611   20.1782 H   0  0  0  0  0  0
  -26.6524  -22.1998   21.8923 H   0  0  0  0  0  0
  -26.0758  -24.4146   21.1938 H   0  0  0  0  0  0
  -26.4960  -23.9894   19.5428 H   0  0  0  0  0  0
  -29.0968  -23.3661   19.1367 H   0  0  0  0  0  0
  -30.1879  -23.6667   20.4664 H   0  0  0  0  0  0
  -28.9231  -22.2323   21.9614 H   0  0  0  0  0  0
  -28.3805  -24.8568   21.7294 H   0  0  0  0  0  0
  -31.3900  -21.6324   21.1927 H   0  0  0  0  0  0
  -31.7910  -21.0508   19.5700 H   0  0  0  0  0  0
  -32.3982  -20.2093   21.0011 H   0  0  0  0  0  0
  -28.7599  -15.6126   20.9766 H   0  0  0  0  0  0
  1 25  1  0  0  0
  1 30  2  0  0  0
  1 83  1  0  0  0
  2  3  1  0  0  0
  2 25  1  0  0  0
  2 84  1  0  0  0
  2 85  1  0  0  0
  3  4  1  0  0  0
  3 86  1  0  0  0
  3 87  1  0  0  0
  4  5  1  0  0  0
  4 88  1  0  0  0
  4 89  1  0  0  0
  5  6  1  0  0  0
  5 26  1  0  0  0
  5 90  1  0  0  0
  6 25  1  0  0  0
  6 91  1  0  0  0
  6 92  1  0  0  0
  7  8  2  0  0  0
  7 26  1  0  0  0
  7 29  1  0  0  0
  8  9  1  0  0  0
  8 22  1  0  0  0
  9 10  1  0  0  0
  9 27  2  0  0  0
 10 11  2  0  0  0
 10 15  1  0  0  0
 11 12  1  0  0  0
 11 93  1  0  0  0
 12 13  2  0  0  0
 12 94  1  0  0  0
 13 14  1  0  0  0
 13 31  1  0  0  0
 14 15  2  0  0  0
 14 95  1  0  0  0
 15 96  1  0  0  0
 16 17  2  0  0  0
 16 21  1  0  0  0
 16 31  1  0  0  0
 17 18  1  0  0  0
 17 97  1  0  0  0
 18 19  2  0  0  0
 18 98  1  0  0  0
 19 20  1  0  0  0
 19 24  1  0  0  0
 20 21  2  0  0  0
 20 99  1  0  0  0
 21 23  1  0  0  0
 22 28  1  0  0  0
 22 32  2  0  0  0
 26 27  1  0  0  0
 28100  1  0  0  0
 28101  1  0  0  0
 29102  1  0  0  0
 29103  1  0  0  0
 33 34  1  0  0  0
 33 66  1  0  0  0
 33 70  2  0  0  0
 34 36  1  0  0  0
 34 59  1  0  0  0
 34104  1  0  0  0
 35 44  2  0  0  0
 35 45  1  0  0  0
 35 68  1  0  0  0
 36 56  1  0  0  0
 36105  1  0  0  0
 37 39  1  0  0  0
 37 47  1  0  0  0
 37 66  1  0  0  0
 37106  1  0  0  0
 38 43  2  0  0  0
 38 46  1  0  0  0
 38 47  1  0  0  0
 39 64  1  0  0  0
 39 67  2  0  0  0
 40 52  1  0  0  0
 40 53  2  0  0  0
 40 58  1  0  0  0
 41107  1  0  0  0
 41108  1  0  0  0
 41109  1  0  0  0
 41 48  1  0  0  0
 42 43  1  0  0  0
 42 66  1  0  0  0
 42110  1  0  0  0
 42111  1  0  0  0
 43 44  1  0  0  0
 44112  1  0  0  0
 45 46  2  0  0  0
 45113  1  0  0  0
 46114  1  0  0  0
 47115  1  0  0  0
 47116  1  0  0  0
 48 56  1  0  0  0
 48 65  1  0  0  0
 48117  1  0  0  0
 49 50  1  0  0  0
 49 53  1  0  0  0
 49 64  1  0  0  0
 49118  1  0  0  0
 50 51  1  0  0  0
 50119  1  0  0  0
 50120  1  0  0  0
 51 52  1  0  0  0
 51121  1  0  0  0
 51122  1  0  0  0
 52123  1  0  0  0
 52124  1  0  0  0
 53 54  1  0  0  0
 54 55  2  0  0  0
 54125  1  0  0  0
 55 57  1  0  0  0
 55126  1  0  0  0
 56 69  2  0  0  0
 57 58  2  0  0  0
 57127  1  0  0  0
 58128  1  0  0  0
 59 60  1  0  0  0
 59 61  1  0  0  0
 59 62  1  0  0  0
 60129  1  0  0  0
 60130  1  0  0  0
 60131  1  0  0  0
 61132  1  0  0  0
 61133  1  0  0  0
 61134  1  0  0  0
 62135  1  0  0  0
 62136  1  0  0  0
 62137  1  0  0  0
 63 65  1  0  0  0
 63138  1  0  0  0
 63139  1  0  0  0
 63140  1  0  0  0
 64141  1  0  0  0
 65142  1  0  0  0
 68 80  1  0  0  0
 71 72  2  0  0  0
 71 73  1  0  0  0
 71143  1  0  0  0
 72 75  1  0  0  0
 72144  1  0  0  0
 73 74  2  0  0  0
 73 79  1  0  0  0
 74 81  1  0  0  0
 74 82  1  0  0  0
 75 82  2  0  0  0
 75 83  1  0  0  0
 76 77  1  0  0  0
 76 79  1  0  0  0
 76145  1  0  0  0
 76146  1  0  0  0
 77 80  1  0  0  0
 77147  1  0  0  0
 77148  1  0  0  0
 78 79  1  0  0  0
 78 80  1  0  0  0
 78149  1  0  0  0
 78150  1  0  0  0
 79151  1  0  0  0
 80152  1  0  0  0
 81153  1  0  0  0
 81154  1  0  0  0
 81155  1  0  0  0
 83156  1  0  0  0
M  ISO  4   1 100  68 101  80 101  83 100
M  END
> <chiral flag>
0

> <version>
0

> <s_m_source_file>
/data/baiqing/PycharmProjects/Reinvent-master-3.2/result/LINK_invent/BTK/process_docking_weight1_custom_sum_contain_oxygen_bond_distance_aromatic_linkinvent_7_9_3/rearranged_h_0174.sdf

> <i_m_source_file_index>
49

> <r_mmod_Potential_Energy-OPLS-2005>
361.749481201172

> <r_mmod_Stretch_Energy-OPLS-2005>
206.441207885742

> <r_mmod_Bend_Energy-OPLS-2005>
321.904266357422

> <r_mmod_Torsional_Energy-OPLS-2005>
265.677001953125

> <r_mmod_Improper_Torsional_Energy-OPLS-2005>
6.51673746109009

> <r_mmod_Van_der_Waal_Energy-OPLS-2005>
131.233108520508

> <r_mmod_Electrostatic_Energy-OPLS-2005>
-504.753234863281

> <r_mmod_Solvation_Energy-OPLS-2005>
-229.336242675781

> <b_mmod_Minimization_Converged-OPLS-2005>
0

> <r_mmod_RMS_Derivative-OPLS-2005>
2.68826341629028

$$$$
51
                    3D
 Structure written by MMmdl.
178187  0  0  1  0            999 V2000
  -30.7298  -14.4493   20.4473 C   0  0  0  0  0  0
  -30.4143  -12.2469   19.4361 C   0  0  0  0  0  0
  -29.4950  -12.4060   18.2075 C   0  0  0  0  0  0
  -28.0148  -12.2941   18.6192 C   0  0  0  0  0  0
  -27.6510  -13.1839   19.8389 C   0  0  2  0  0  0
  -28.6981  -13.0376   20.9681 C   0  0  0  0  0  0
  -25.2608  -13.8110   20.5706 C   0  0  0  0  0  0
  -24.1844  -13.0452   20.9199 C   0  0  0  0  0  0
  -24.6367  -11.6885   20.8739 C   0  0  0  0  0  0
  -23.9046  -10.4283   21.0390 C   0  0  0  0  0  0
  -24.3611   -9.4194   21.9153 C   0  0  0  0  0  0
  -23.6306   -8.2225   22.0726 C   0  0  0  0  0  0
  -22.4299   -8.0262   21.3531 C   0  0  0  0  0  0
  -21.9932   -9.0222   20.4621 C   0  0  0  0  0  0
  -22.7238  -10.2116   20.3013 C   0  0  0  0  0  0
  -21.6862   -6.0750   22.5309 C   0  0  0  0  0  0
  -21.4015   -6.5628   23.8247 C   0  0  0  0  0  0
  -21.3664   -5.6781   24.9205 C   0  0  0  0  0  0
  -21.6041   -4.3046   24.7240 C   0  0  0  0  0  0
  -21.8815   -3.8163   23.4354 C   0  0  0  0  0  0
  -21.9209   -4.6980   22.3412 C   0  0  0  0  0  0
  -22.7845  -13.5244   21.1800 C   0  0  0  0  0  0
  -22.1669   -4.2187   21.0984 F   0  0  0  0  0  0
  -21.5606   -3.4498   25.7723 F   0  0  0  0  0  0
  -30.0273  -13.2875   20.3946 N   0  0  0  0  0  0
  -26.2967  -12.9242   20.3203 N   0  0  0  0  0  0
  -25.9268  -11.6433   20.5699 N   0  0  0  0  0  0
  -22.0481  -12.8251   22.0312 N   0  0  0  0  0  0
  -25.4404  -15.1807   20.4084 N   0  0  0  0  0  0
  -31.9554  -14.4823   20.3302 O   0  0  0  0  0  0
  -21.6665   -6.8868   21.4252 O   0  0  0  0  0  0
  -22.3488  -14.5555   20.6667 O   0  0  0  0  0  0
  -24.6092  -31.8716   23.2173 C   0  0  0  0  0  0
  -25.9012  -32.4844   23.8441 C   0  0  1  0  0  0
  -27.2291  -27.4661   20.0940 C   0  0  0  0  0  0
  -25.5878  -33.8641   24.2370 N   0  0  0  0  0  0
  -23.3947  -30.4997   21.5540 C   0  0  2  0  0  0
  -24.8435  -28.9772   20.1157 C   0  0  0  0  0  0
  -22.7374  -29.4675   22.4981 C   0  0  0  0  0  0
  -18.0271  -28.1353   22.8498 C   0  0  0  0  0  0
  -24.1485  -36.7330   23.2638 C   0  0  0  0  0  0
  -25.9221  -30.8452   21.3721 C   0  0  0  0  0  0
  -26.0019  -29.4835   20.7210 C   0  0  0  0  0  0
  -27.1975  -28.7300   20.7203 C   0  0  0  0  0  0
  -26.0645  -26.9985   19.4531 C   0  0  0  0  0  0
  -24.8678  -27.7299   19.4762 C   0  0  0  0  0  0
  -23.6046  -29.8387   20.1662 C   0  0  0  0  0  0
  -25.4103  -36.3136   24.0348 C   0  0  1  0  0  0
  -20.5852  -28.3653   23.1308 C   0  0  2  0  0  0
  -20.6755  -26.9391   22.5404 C   0  0  0  0  0  0
  -19.5733  -26.6378   21.5199 C   0  0  0  0  0  0
  -18.1918  -26.7902   22.1624 C   0  0  0  0  0  0
  -19.1514  -28.8815   23.2907 C   0  0  0  0  0  0
  -18.9456  -30.1420   23.8925 C   0  0  0  0  0  0
  -17.6462  -30.6570   24.0564 C   0  0  0  0  0  0
  -25.9021  -34.9493   23.5158 C   0  0  0  0  0  0
  -16.5351  -29.9079   23.6317 C   0  0  0  0  0  0
  -16.7265  -28.6482   23.0362 C   0  0  0  0  0  0
  -26.4462  -31.6602   25.0746 C   0  0  0  0  0  0
  -25.3742  -31.3702   26.1509 C   0  0  0  0  0  0
  -27.0298  -30.3055   24.6085 C   0  0  0  0  0  0
  -27.6038  -32.4313   25.7505 C   0  0  0  0  0  0
  -27.5579  -37.1832   24.8467 C   0  0  0  0  0  0
  -21.4102  -29.3040   22.3730 N   0  0  0  0  0  0
  -26.4297  -37.3810   23.9406 N   0  0  0  0  0  0
  -24.6593  -31.0854   22.1061 N   0  0  0  0  0  0
  -23.4172  -28.8177   23.2969 O   0  0  0  0  0  0
  -28.3842  -26.7181   20.0838 O   0  0  0  0  0  0
  -26.5577  -34.8931   22.4720 O   0  0  0  0  0  0
  -23.5296  -32.1448   23.7601 O   0  0  0  0  0  0
  -30.1487  -24.0656   19.5511 C   0  0  0  0  0  0
  -30.7358  -23.1049   18.7061 C   0  0  0  0  0  0
  -28.7673  -24.3324   19.5188 C   0  0  0  0  0  0
  -27.9533  -23.6162   18.5974 C   0  0  0  0  0  0
  -28.5596  -22.7739   17.6285 C   0  0  0  0  0  0
  -29.9481  -22.4709   17.7099 C   0  0  0  0  0  0
  -28.5315  -17.1418   19.2666 C   0  0  0  0  0  0
  -29.0681  -16.3374   20.4569 C   0  0  0  0  0  0
  -30.5885  -16.0811   18.6267 C   0  0  0  0  0  0
  -29.7629  -17.3422   18.3759 C   0  0  1  0  0  0
  -32.2034  -22.7655   18.9310 C   0  0  0  0  0  0
  -26.4289  -23.6618   18.6470 C   0  0  0  0  0  0
  -27.6778  -22.1811   16.5251 C   0  0  0  0  0  0
  -28.0974  -17.5623   16.3505 C   0  0  0  0  0  0
  -30.5385  -21.3805   16.8150 C   0  0  0  0  0  0
  -28.2419  -25.3604   20.5256 C   0  0  0  0  0  0
  -30.2597  -18.9441   16.3763 C   0  0  0  0  0  0
  -29.5506  -17.6535   16.8542 C   0  0  1  0  0  0
  -30.0674  -15.4625   19.8531 N   0  0  0  0  0  0
  -29.9308  -20.1035   17.2216 N   0  3  0  0  0  0
  -31.4594  -12.3234   19.1388 H   0  0  0  0  0  0
  -30.3002  -11.2603   19.8919 H   0  0  0  0  0  0
  -29.7403  -11.6579   17.4527 H   0  0  0  0  0  0
  -29.6688  -13.3669   17.7330 H   0  0  0  0  0  0
  -27.8247  -11.2478   18.8610 H   0  0  0  0  0  0
  -27.3715  -12.5180   17.7683 H   0  0  0  0  0  0
  -27.6652  -14.2058   19.4703 H   0  0  0  0  0  0
  -28.6530  -12.0298   21.3850 H   0  0  0  0  0  0
  -28.4898  -13.7130   21.7967 H   0  0  0  0  0  0
  -25.2712   -9.5691   22.4801 H   0  0  0  0  0  0
  -24.0029   -7.4608   22.7441 H   0  0  0  0  0  0
  -21.0852   -8.8686   19.8962 H   0  0  0  0  0  0
  -22.3605  -10.9655   19.6170 H   0  0  0  0  0  0
  -21.1994   -7.6129   23.9750 H   0  0  0  0  0  0
  -21.1501   -6.0509   25.9113 H   0  0  0  0  0  0
  -22.0612   -2.7636   23.2841 H   0  0  0  0  0  0
  -22.4115  -11.9977   22.4774 H   0  0  0  0  0  0
  -21.1094  -13.1291   22.2518 H   0  0  0  0  0  0
  -24.6941  -15.8493   20.5573 H   0  0  0  0  0  0
  -26.2950  -15.6100   20.0830 H   0  0  0  0  0  0
  -26.7074  -32.5592   23.1205 H   0  0  0  0  0  0
  -25.0067  -33.9794   25.0545 H   0  0  0  0  0  0
  -22.6814  -31.3164   21.4188 H   0  0  0  0  0  0
  -23.3737  -35.9673   23.3327 H   0  0  0  0  0  0
  -24.3581  -36.8912   22.2045 H   0  0  0  0  0  0
  -23.7248  -37.6554   23.6626 H   0  0  0  0  0  0
  -26.0325  -31.6106   20.6042 H   0  0  0  0  0  0
  -26.8103  -30.8981   21.9885 H   0  0  0  0  0  0
  -28.0867  -29.1114   21.2044 H   0  0  0  0  0  0
  -26.0870  -26.0876   18.8945 H   0  0  0  0  0  0
  -23.9893  -27.3434   18.9778 H   0  0  0  0  0  0
  -23.7088  -30.6162   19.4073 H   0  0  0  0  0  0
  -22.7314  -29.2532   19.8711 H   0  0  0  0  0  0
  -25.1281  -36.2014   25.0838 H   0  0  0  0  0  0
  -20.9962  -28.3221   24.1421 H   0  0  0  0  0  0
  -20.5638  -26.2270   23.3599 H   0  0  0  0  0  0
  -21.6633  -26.7425   22.1214 H   0  0  0  0  0  0
  -19.6904  -25.6297   21.1214 H   0  0  0  0  0  0
  -19.6660  -27.3201   20.6738 H   0  0  0  0  0  0
  -17.4188  -26.6655   21.4029 H   0  0  0  0  0  0
  -18.0331  -26.0022   22.8998 H   0  0  0  0  0  0
  -19.7941  -30.7209   24.2318 H   0  0  0  0  0  0
  -17.5036  -31.6260   24.5149 H   0  0  0  0  0  0
  -15.5358  -30.3007   23.7608 H   0  0  0  0  0  0
  -15.8665  -28.0806   22.7084 H   0  0  0  0  0  0
  -24.5915  -30.7029   25.7877 H   0  0  0  0  0  0
  -24.8928  -32.2857   26.4952 H   0  0  0  0  0  0
  -25.8111  -30.8896   27.0272 H   0  0  0  0  0  0
  -26.2844  -29.6820   24.1127 H   0  0  0  0  0  0
  -27.4092  -29.7264   25.4515 H   0  0  0  0  0  0
  -27.8665  -30.4400   23.9224 H   0  0  0  0  0  0
  -27.2651  -33.3595   26.2121 H   0  0  0  0  0  0
  -28.3835  -32.6898   25.0329 H   0  0  0  0  0  0
  -28.0722  -31.8417   26.5397 H   0  0  0  0  0  0
  -28.2626  -38.0101   24.7499 H   0  0  0  0  0  0
  -28.1043  -36.2639   24.6315 H   0  0  0  0  0  0
  -27.2293  -37.1520   25.8868 H   0  0  0  0  0  0
  -20.9237  -29.8819   21.7019 H   0  0  0  0  0  0
  -26.0194  -38.2894   24.1391 H   0  0  0  0  0  0
  -30.7559  -24.5714   20.2894 H   0  0  0  0  0  0
  -28.0721  -18.0821   19.5680 H   0  0  0  0  0  0
  -27.7718  -16.5419   18.7632 H   0  0  0  0  0  0
  -29.5635  -16.9973   21.1735 H   0  0  0  0  0  0
  -28.2778  -15.8154   20.9922 H   0  0  0  0  0  0
  -31.6473  -16.3340   18.7136 H   0  0  0  0  0  0
  -30.4977  -15.3751   17.8034 H   0  0  0  0  0  0
  -30.3352  -18.1450   18.8426 H   0  0  0  0  0  0
  -32.6507  -23.4306   19.6729 H   0  0  0  0  0  0
  -32.7876  -22.8606   18.0159 H   0  0  0  0  0  0
  -32.3035  -21.7476   19.3128 H   0  0  0  0  0  0
  -26.0293  -24.0443   19.5808 H   0  0  0  0  0  0
  -26.0127  -22.6569   18.5700 H   0  0  0  0  0  0
  -26.0278  -24.2440   17.8167 H   0  0  0  0  0  0
  -27.0639  -21.3630   16.9000 H   0  0  0  0  0  0
  -28.2228  -21.8311   15.6527 H   0  0  0  0  0  0
  -27.0068  -22.9443   16.1309 H   0  0  0  0  0  0
  -27.4521  -18.3219   16.7910 H   0  0  0  0  0  0
  -27.6719  -16.5818   16.5626 H   0  0  0  0  0  0
  -28.0455  -17.6765   15.2676 H   0  0  0  0  0  0
  -31.6216  -21.3043   16.9025 H   0  0  0  0  0  0
  -30.3624  -21.6005   15.7606 H   0  0  0  0  0  0
  -28.8534  -25.2766   21.4243 H   0  0  0  0  0  0
  -27.2442  -25.1266   20.8886 H   0  0  0  0  0  0
  -29.9894  -19.1641   15.3417 H   0  0  0  0  0  0
  -31.3428  -18.8043   16.3845 H   0  0  0  0  0  0
  -30.0430  -16.8641   16.2857 H   0  0  0  0  0  0
  -28.9329  -20.2324   17.2441 H   0  0  0  0  0  0
  -30.2391  -19.9136   18.1604 H   0  0  0  0  0  0
  1 25  1  0  0  0
  1 30  2  0  0  0
  1 89  1  0  0  0
  2  3  1  0  0  0
  2 25  1  0  0  0
  2 91  1  0  0  0
  2 92  1  0  0  0
  3  4  1  0  0  0
  3 93  1  0  0  0
  3 94  1  0  0  0
  4  5  1  0  0  0
  4 95  1  0  0  0
  4 96  1  0  0  0
  5  6  1  0  0  0
  5 26  1  0  0  0
  5 97  1  0  0  0
  6 25  1  0  0  0
  6 98  1  0  0  0
  6 99  1  0  0  0
  7  8  2  0  0  0
  7 26  1  0  0  0
  7 29  1  0  0  0
  8  9  1  0  0  0
  8 22  1  0  0  0
  9 10  1  0  0  0
  9 27  2  0  0  0
 10 11  2  0  0  0
 10 15  1  0  0  0
 11 12  1  0  0  0
 11100  1  0  0  0
 12 13  2  0  0  0
 12101  1  0  0  0
 13 14  1  0  0  0
 13 31  1  0  0  0
 14 15  2  0  0  0
 14102  1  0  0  0
 15103  1  0  0  0
 16 17  2  0  0  0
 16 21  1  0  0  0
 16 31  1  0  0  0
 17 18  1  0  0  0
 17104  1  0  0  0
 18 19  2  0  0  0
 18105  1  0  0  0
 19 20  1  0  0  0
 19 24  1  0  0  0
 20 21  2  0  0  0
 20106  1  0  0  0
 21 23  1  0  0  0
 22 28  1  0  0  0
 22 32  2  0  0  0
 26 27  1  0  0  0
 28107  1  0  0  0
 28108  1  0  0  0
 29109  1  0  0  0
 29110  1  0  0  0
 33 34  1  0  0  0
 33 66  1  0  0  0
 33 70  2  0  0  0
 34 36  1  0  0  0
 34 59  1  0  0  0
 34111  1  0  0  0
 35 44  2  0  0  0
 35 45  1  0  0  0
 35 68  1  0  0  0
 36 56  1  0  0  0
 36112  1  0  0  0
 37 39  1  0  0  0
 37 47  1  0  0  0
 37 66  1  0  0  0
 37113  1  0  0  0
 38 43  2  0  0  0
 38 46  1  0  0  0
 38 47  1  0  0  0
 39 64  1  0  0  0
 39 67  2  0  0  0
 40 52  1  0  0  0
 40 53  2  0  0  0
 40 58  1  0  0  0
 41114  1  0  0  0
 41115  1  0  0  0
 41116  1  0  0  0
 41 48  1  0  0  0
 42 43  1  0  0  0
 42 66  1  0  0  0
 42117  1  0  0  0
 42118  1  0  0  0
 43 44  1  0  0  0
 44119  1  0  0  0
 45 46  2  0  0  0
 45120  1  0  0  0
 46121  1  0  0  0
 47122  1  0  0  0
 47123  1  0  0  0
 48 56  1  0  0  0
 48 65  1  0  0  0
 48124  1  0  0  0
 49 50  1  0  0  0
 49 53  1  0  0  0
 49 64  1  0  0  0
 49125  1  0  0  0
 50 51  1  0  0  0
 50126  1  0  0  0
 50127  1  0  0  0
 51 52  1  0  0  0
 51128  1  0  0  0
 51129  1  0  0  0
 52130  1  0  0  0
 52131  1  0  0  0
 53 54  1  0  0  0
 54 55  2  0  0  0
 54132  1  0  0  0
 55 57  1  0  0  0
 55133  1  0  0  0
 56 69  2  0  0  0
 57 58  2  0  0  0
 57134  1  0  0  0
 58135  1  0  0  0
 59 60  1  0  0  0
 59 61  1  0  0  0
 59 62  1  0  0  0
 60136  1  0  0  0
 60137  1  0  0  0
 60138  1  0  0  0
 61139  1  0  0  0
 61140  1  0  0  0
 61141  1  0  0  0
 62142  1  0  0  0
 62143  1  0  0  0
 62144  1  0  0  0
 63 65  1  0  0  0
 63145  1  0  0  0
 63146  1  0  0  0
 63147  1  0  0  0
 64148  1  0  0  0
 65149  1  0  0  0
 68 86  1  0  0  0
 71 72  2  0  0  0
 71 73  1  0  0  0
 71150  1  0  0  0
 72 76  1  0  0  0
 72 81  1  0  0  0
 73 74  2  0  0  0
 73 86  1  0  0  0
 74 75  1  0  0  0
 74 82  1  0  0  0
 75 76  2  0  0  0
 75 83  1  0  0  0
 76 85  1  0  0  0
 77 78  1  0  0  0
 77151  1  0  0  0
 77152  1  0  0  0
 77 80  1  0  0  0
 78 89  1  0  0  0
 78153  1  0  0  0
 78154  1  0  0  0
 79 80  1  0  0  0
 79 89  1  0  0  0
 79155  1  0  0  0
 79156  1  0  0  0
 80 88  1  0  0  0
 80157  1  0  0  0
 81158  1  0  0  0
 81159  1  0  0  0
 81160  1  0  0  0
 82161  1  0  0  0
 82162  1  0  0  0
 82163  1  0  0  0
 83164  1  0  0  0
 83165  1  0  0  0
 83166  1  0  0  0
 84167  1  0  0  0
 84168  1  0  0  0
 84169  1  0  0  0
 84 88  1  0  0  0
 85 90  1  0  0  0
 85170  1  0  0  0
 85171  1  0  0  0
 86172  1  0  0  0
 86173  1  0  0  0
 87 88  1  0  0  0
 87 90  1  0  0  0
 87174  1  0  0  0
 87175  1  0  0  0
 88176  1  0  0  0
 90177  1  0  0  0
 90178  1  0  0  0
M  CHG  1  90   1
M  ISO  4   1 100  68 101  86 101  89 100
M  END
> <chiral flag>
0

> <version>
0

> <s_m_source_file>
/data/baiqing/PycharmProjects/Reinvent-master-3.2/result/LINK_invent/BTK/process_docking_weight1_custom_sum_contain_oxygen_bond_distance_aromatic_linkinvent_7_9_3/rearranged_h_0174.sdf

> <i_m_source_file_index>
50

> <r_mmod_Potential_Energy-OPLS-2005>
146.120300292969

> <r_mmod_Stretch_Energy-OPLS-2005>
38.2983741760254

> <r_mmod_Bend_Energy-OPLS-2005>
141.016540527344

> <r_mmod_Torsional_Energy-OPLS-2005>
404.127258300781

> <r_mmod_Improper_Torsional_Energy-OPLS-2005>
31.5727558135986

> <r_mmod_Van_der_Waal_Energy-OPLS-2005>
168.48030090332

> <r_mmod_Electrostatic_Energy-OPLS-2005>
-233.707565307617

> <r_mmod_Solvation_Energy-OPLS-2005>
-435.901824951172

> <b_mmod_Minimization_Converged-OPLS-2005>
0

> <r_mmod_RMS_Derivative-OPLS-2005>
5.09343194961548

$$$$
52
                    3D
 Structure written by MMmdl.
155163  0  0  1  0            999 V2000
  -30.5712  -14.8696   20.4201 C   0  0  0  0  0  0
  -30.4360  -12.5322   19.4858 C   0  0  0  0  0  0
  -29.5116  -12.5065   18.2458 C   0  0  0  0  0  0
  -28.0480  -12.2983   18.6744 C   0  0  0  0  0  0
  -27.6344  -13.2338   19.8408 C   0  0  2  0  0  0
  -28.6786  -13.2383   20.9774 C   0  0  0  0  0  0
  -25.2509  -13.8171   20.5717 C   0  0  0  0  0  0
  -24.1803  -13.0424   20.9221 C   0  0  0  0  0  0
  -24.6396  -11.6900   20.8757 C   0  0  0  0  0  0
  -23.9079  -10.4287   21.0419 C   0  0  0  0  0  0
  -24.3627   -9.4214   21.9206 C   0  0  0  0  0  0
  -23.6300   -8.2249   22.0775 C   0  0  0  0  0  0
  -22.4288   -8.0285   21.3555 C   0  0  0  0  0  0
  -21.9923   -9.0255   20.4659 C   0  0  0  0  0  0
  -22.7243  -10.2138   20.3074 C   0  0  0  0  0  0
  -21.6858   -6.0755   22.5280 C   0  0  0  0  0  0
  -21.4007   -6.5656   23.8211 C   0  0  0  0  0  0
  -21.3655   -5.6808   24.9174 C   0  0  0  0  0  0
  -21.6039   -4.3069   24.7223 C   0  0  0  0  0  0
  -21.8816   -3.8167   23.4339 C   0  0  0  0  0  0
  -21.9195   -4.6986   22.3400 C   0  0  0  0  0  0
  -22.7834  -13.5224   21.1857 C   0  0  0  0  0  0
  -22.1666   -4.2183   21.0975 F   0  0  0  0  0  0
  -21.5626   -3.4547   25.7735 F   0  0  0  0  0  0
  -29.9651  -13.6220   20.3820 N   0  0  0  0  0  0
  -26.2919  -12.9379   20.3260 N   0  0  0  0  0  0
  -25.9327  -11.6521   20.5757 N   0  0  0  0  0  0
  -22.0474  -12.8223   22.0409 N   0  0  0  0  0  0
  -25.4189  -15.1893   20.4132 N   0  0  0  0  0  0
  -31.7687  -14.9465   20.1328 O   0  0  0  0  0  0
  -21.6640   -6.8893   21.4243 O   0  0  0  0  0  0
  -22.3543  -14.5543   20.6710 O   0  0  0  0  0  0
  -24.6402  -31.8490   23.1919 C   0  0  0  0  0  0
  -25.9192  -32.4724   23.8298 C   0  0  1  0  0  0
  -27.2126  -27.1726   20.1485 C   0  0  0  0  0  0
  -25.5950  -33.8520   24.2207 N   0  0  0  0  0  0
  -23.4421  -30.4713   21.5370 C   0  0  2  0  0  0
  -24.8922  -28.9056   20.1100 C   0  0  0  0  0  0
  -22.7557  -29.4573   22.4865 C   0  0  0  0  0  0
  -18.0299  -28.1392   22.8476 C   0  0  0  0  0  0
  -24.1488  -36.7267   23.2639 C   0  0  0  0  0  0
  -25.9965  -30.7333   21.3868 C   0  0  0  0  0  0
  -26.0693  -29.3465   20.7317 C   0  0  0  0  0  0
  -27.2334  -28.4940   20.7401 C   0  0  0  0  0  0
  -26.0214  -26.8374   19.4692 C   0  0  0  0  0  0
  -24.8787  -27.6612   19.4653 C   0  0  0  0  0  0
  -23.6680  -29.8047   20.1552 C   0  0  0  0  0  0
  -25.4114  -36.3040   24.0318 C   0  0  1  0  0  0
  -20.5909  -28.3722   23.1241 C   0  0  2  0  0  0
  -20.6789  -26.9433   22.5397 C   0  0  0  0  0  0
  -19.5764  -26.6386   21.5210 C   0  0  0  0  0  0
  -18.1939  -26.7925   22.1626 C   0  0  0  0  0  0
  -19.1556  -28.8872   23.2844 C   0  0  0  0  0  0
  -18.9487  -30.1459   23.8883 C   0  0  0  0  0  0
  -17.6491  -30.6592   24.0563 C   0  0  0  0  0  0
  -25.9072  -34.9422   23.5071 C   0  0  0  0  0  0
  -16.5377  -29.9092   23.6347 C   0  0  0  0  0  0
  -16.7286  -28.6508   23.0365 C   0  0  0  0  0  0
  -26.4518  -31.6576   25.0727 C   0  0  0  0  0  0
  -25.3705  -31.3747   26.1425 C   0  0  0  0  0  0
  -27.0392  -30.2994   24.6256 C   0  0  0  0  0  0
  -27.6057  -32.4344   25.7502 C   0  0  0  0  0  0
  -27.5562  -37.1779   24.8463 C   0  0  0  0  0  0
  -21.4247  -29.3065   22.3628 N   0  0  0  0  0  0
  -26.4269  -37.3758   23.9416 N   0  0  0  0  0  0
  -24.7129  -31.0375   22.0947 N   0  0  0  0  0  0
  -23.4214  -28.8116   23.2996 O   0  0  0  0  0  0
  -28.2444  -26.1757   20.1898 O   0  0  0  0  0  0
  -26.5651  -34.8908   22.4643 O   0  0  0  0  0  0
  -23.5532  -32.1351   23.7164 O   0  0  0  0  0  0
  -29.1929  -21.2385   21.5258 C   0  0  0  0  0  0
  -29.0583  -20.3507   20.4161 C   0  0  0  0  0  0
  -28.7151  -21.0735   19.2226 C   0  0  0  0  0  0
  -28.4740  -22.5149   19.2245 C   0  0  0  0  0  0
  -28.5604  -23.3060   20.4212 C   0  0  0  0  0  0
  -28.4888  -20.2612   17.9533 C   0  0  0  0  0  0
  -28.0165  -23.2086   17.9457 C   0  0  0  0  0  0
  -28.9751  -18.7190   20.6028 C   0  0  0  0  0  0
  -27.8437  -24.7670   20.6679 C   0  0  0  0  0  0
  -30.1269  -17.5521   20.3591 C   0  0  0  0  0  0
  -28.9563  -22.6028   21.5307 N   0  0  0  0  0  0
  -29.7927  -16.0356   20.5607 N   0  0  0  0  0  0
  -31.4724  -12.6734   19.1750 H   0  0  0  0  0  0
  -30.4089  -11.5725   20.0047 H   0  0  0  0  0  0
  -29.8165  -11.7090   17.5661 H   0  0  0  0  0  0
  -29.6054  -13.4386   17.6858 H   0  0  0  0  0  0
  -27.9489  -11.2581   18.9873 H   0  0  0  0  0  0
  -27.3777  -12.4225   17.8238 H   0  0  0  0  0  0
  -27.6072  -14.2384   19.4178 H   0  0  0  0  0  0
  -28.7484  -12.2586   21.4528 H   0  0  0  0  0  0
  -28.3898  -13.9419   21.7600 H   0  0  0  0  0  0
  -25.2769   -9.5698   22.4790 H   0  0  0  0  0  0
  -24.0017   -7.4646   22.7493 H   0  0  0  0  0  0
  -21.0865   -8.8754   19.8961 H   0  0  0  0  0  0
  -22.3691  -10.9679   19.6192 H   0  0  0  0  0  0
  -21.1998   -7.6162   23.9727 H   0  0  0  0  0  0
  -21.1471   -6.0537   25.9079 H   0  0  0  0  0  0
  -22.0600   -2.7633   23.2821 H   0  0  0  0  0  0
  -22.4097  -11.9872   22.4768 H   0  0  0  0  0  0
  -21.1101  -13.1253   22.2616 H   0  0  0  0  0  0
  -24.6413  -15.8327   20.5195 H   0  0  0  0  0  0
  -26.2556  -15.6313   20.0556 H   0  0  0  0  0  0
  -26.7266  -32.5345   23.1036 H   0  0  0  0  0  0
  -25.0088  -33.9654   25.0347 H   0  0  0  0  0  0
  -22.7424  -31.2955   21.3839 H   0  0  0  0  0  0
  -23.3759  -35.9590   23.3280 H   0  0  0  0  0  0
  -24.3579  -36.8915   22.2057 H   0  0  0  0  0  0
  -23.7240  -37.6454   23.6692 H   0  0  0  0  0  0
  -26.1432  -31.4868   20.6121 H   0  0  0  0  0  0
  -26.8725  -30.7882   22.0221 H   0  0  0  0  0  0
  -28.1277  -28.8236   21.2525 H   0  0  0  0  0  0
  -25.9494  -25.8976   18.9420 H   0  0  0  0  0  0
  -23.9858  -27.3211   18.9594 H   0  0  0  0  0  0
  -23.8007  -30.5820   19.4017 H   0  0  0  0  0  0
  -22.7839  -29.2458   19.8430 H   0  0  0  0  0  0
  -25.1292  -36.1870   25.0810 H   0  0  0  0  0  0
  -21.0003  -28.3309   24.1361 H   0  0  0  0  0  0
  -20.5713  -26.2332   23.3604 H   0  0  0  0  0  0
  -21.6647  -26.7453   22.1172 H   0  0  0  0  0  0
  -19.6931  -25.6298   21.1237 H   0  0  0  0  0  0
  -19.6689  -27.3200   20.6738 H   0  0  0  0  0  0
  -17.4205  -26.6680   21.4027 H   0  0  0  0  0  0
  -18.0332  -26.0058   22.9018 H   0  0  0  0  0  0
  -19.7966  -30.7269   24.2243 H   0  0  0  0  0  0
  -17.5050  -31.6273   24.5164 H   0  0  0  0  0  0
  -15.5378  -30.3000   23.7663 H   0  0  0  0  0  0
  -15.8679  -28.0822   22.7102 H   0  0  0  0  0  0
  -24.5892  -30.7093   25.7737 H   0  0  0  0  0  0
  -24.8886  -32.2919   26.4824 H   0  0  0  0  0  0
  -25.7982  -30.8938   27.0227 H   0  0  0  0  0  0
  -26.3012  -29.6718   24.1254 H   0  0  0  0  0  0
  -27.4040  -29.7278   25.4794 H   0  0  0  0  0  0
  -27.8882  -30.4267   23.9541 H   0  0  0  0  0  0
  -27.2663  -33.3668   26.2022 H   0  0  0  0  0  0
  -28.3882  -32.6870   25.0335 H   0  0  0  0  0  0
  -28.0702  -31.8507   26.5456 H   0  0  0  0  0  0
  -28.2563  -38.0091   24.7528 H   0  0  0  0  0  0
  -28.1067  -36.2621   24.6263 H   0  0  0  0  0  0
  -27.2275  -37.1392   25.8862 H   0  0  0  0  0  0
  -20.9451  -29.8802   21.6833 H   0  0  0  0  0  0
  -26.0133  -38.2816   24.1458 H   0  0  0  0  0  0
  -29.4052  -20.8200   22.4985 H   0  0  0  0  0  0
  -29.1502  -19.3951   17.9198 H   0  0  0  0  0  0
  -28.6772  -20.8228   17.0402 H   0  0  0  0  0  0
  -27.4587  -19.9030   17.9247 H   0  0  0  0  0  0
  -28.7095  -23.0202   17.1251 H   0  0  0  0  0  0
  -27.9651  -24.2915   18.0586 H   0  0  0  0  0  0
  -27.0277  -22.8578   17.6493 H   0  0  0  0  0  0
  -28.1046  -18.4108   20.0222 H   0  0  0  0  0  0
  -28.6500  -18.5869   21.6350 H   0  0  0  0  0  0
  -27.8047  -24.8777   21.7517 H   0  0  0  0  0  0
  -26.8046  -24.5768   20.4096 H   0  0  0  0  0  0
  -30.9809  -17.7736   21.0009 H   0  0  0  0  0  0
  -30.5032  -17.6544   19.3396 H   0  0  0  0  0  0
  -28.8208  -15.8476   20.7543 H   0  0  0  0  0  0
  1 25  1  0  0  0
  1 30  2  0  0  0
  1 82  1  0  0  0
  2  3  1  0  0  0
  2 25  1  0  0  0
  2 83  1  0  0  0
  2 84  1  0  0  0
  3  4  1  0  0  0
  3 85  1  0  0  0
  3 86  1  0  0  0
  4  5  1  0  0  0
  4 87  1  0  0  0
  4 88  1  0  0  0
  5  6  1  0  0  0
  5 26  1  0  0  0
  5 89  1  0  0  0
  6 25  1  0  0  0
  6 90  1  0  0  0
  6 91  1  0  0  0
  7  8  2  0  0  0
  7 26  1  0  0  0
  7 29  1  0  0  0
  8  9  1  0  0  0
  8 22  1  0  0  0
  9 10  1  0  0  0
  9 27  2  0  0  0
 10 11  2  0  0  0
 10 15  1  0  0  0
 11 12  1  0  0  0
 11 92  1  0  0  0
 12 13  2  0  0  0
 12 93  1  0  0  0
 13 14  1  0  0  0
 13 31  1  0  0  0
 14 15  2  0  0  0
 14 94  1  0  0  0
 15 95  1  0  0  0
 16 17  2  0  0  0
 16 21  1  0  0  0
 16 31  1  0  0  0
 17 18  1  0  0  0
 17 96  1  0  0  0
 18 19  2  0  0  0
 18 97  1  0  0  0
 19 20  1  0  0  0
 19 24  1  0  0  0
 20 21  2  0  0  0
 20 98  1  0  0  0
 21 23  1  0  0  0
 22 28  1  0  0  0
 22 32  2  0  0  0
 26 27  1  0  0  0
 28 99  1  0  0  0
 28100  1  0  0  0
 29101  1  0  0  0
 29102  1  0  0  0
 33 34  1  0  0  0
 33 66  1  0  0  0
 33 70  2  0  0  0
 34 36  1  0  0  0
 34 59  1  0  0  0
 34103  1  0  0  0
 35 44  2  0  0  0
 35 45  1  0  0  0
 35 68  1  0  0  0
 36 56  1  0  0  0
 36104  1  0  0  0
 37 39  1  0  0  0
 37 47  1  0  0  0
 37 66  1  0  0  0
 37105  1  0  0  0
 38 43  2  0  0  0
 38 46  1  0  0  0
 38 47  1  0  0  0
 39 64  1  0  0  0
 39 67  2  0  0  0
 40 52  1  0  0  0
 40 53  2  0  0  0
 40 58  1  0  0  0
 41106  1  0  0  0
 41107  1  0  0  0
 41108  1  0  0  0
 41 48  1  0  0  0
 42 43  1  0  0  0
 42 66  1  0  0  0
 42109  1  0  0  0
 42110  1  0  0  0
 43 44  1  0  0  0
 44111  1  0  0  0
 45 46  2  0  0  0
 45112  1  0  0  0
 46113  1  0  0  0
 47114  1  0  0  0
 47115  1  0  0  0
 48 56  1  0  0  0
 48 65  1  0  0  0
 48116  1  0  0  0
 49 50  1  0  0  0
 49 53  1  0  0  0
 49 64  1  0  0  0
 49117  1  0  0  0
 50 51  1  0  0  0
 50118  1  0  0  0
 50119  1  0  0  0
 51 52  1  0  0  0
 51120  1  0  0  0
 51121  1  0  0  0
 52122  1  0  0  0
 52123  1  0  0  0
 53 54  1  0  0  0
 54 55  2  0  0  0
 54124  1  0  0  0
 55 57  1  0  0  0
 55125  1  0  0  0
 56 69  2  0  0  0
 57 58  2  0  0  0
 57126  1  0  0  0
 58127  1  0  0  0
 59 60  1  0  0  0
 59 61  1  0  0  0
 59 62  1  0  0  0
 60128  1  0  0  0
 60129  1  0  0  0
 60130  1  0  0  0
 61131  1  0  0  0
 61132  1  0  0  0
 61133  1  0  0  0
 62134  1  0  0  0
 62135  1  0  0  0
 62136  1  0  0  0
 63 65  1  0  0  0
 63137  1  0  0  0
 63138  1  0  0  0
 63139  1  0  0  0
 64140  1  0  0  0
 65141  1  0  0  0
 68 79  1  0  0  0
 71 72  2  0  0  0
 71 81  1  0  0  0
 71142  1  0  0  0
 72 73  1  0  0  0
 72 78  1  0  0  0
 73 74  2  0  0  0
 73 76  1  0  0  0
 74 75  1  0  0  0
 74 77  1  0  0  0
 75 79  1  0  0  0
 75 81  2  0  0  0
 76143  1  0  0  0
 76144  1  0  0  0
 76145  1  0  0  0
 77146  1  0  0  0
 77147  1  0  0  0
 77148  1  0  0  0
 78 80  1  0  0  0
 78149  1  0  0  0
 78150  1  0  0  0
 79151  1  0  0  0
 79152  1  0  0  0
 80 82  1  0  0  0
 80153  1  0  0  0
 80154  1  0  0  0
 82155  1  0  0  0
M  ISO  4   1 100  68 101  79 101  82 100
M  END
> <chiral flag>
0

> <version>
0

> <s_m_source_file>
/data/baiqing/PycharmProjects/Reinvent-master-3.2/result/LINK_invent/BTK/process_docking_weight1_custom_sum_contain_oxygen_bond_distance_aromatic_linkinvent_7_9_3/rearranged_h_0174.sdf

> <i_m_source_file_index>
51

> <r_mmod_Potential_Energy-OPLS-2005>
233.384582519531

> <r_mmod_Stretch_Energy-OPLS-2005>
196.278533935547

> <r_mmod_Bend_Energy-OPLS-2005>
232.653533935547

> <r_mmod_Torsional_Energy-OPLS-2005>
241.284332275391

> <r_mmod_Improper_Torsional_Energy-OPLS-2005>
10.4654932022095

> <r_mmod_Van_der_Waal_Energy-OPLS-2005>
139.33757019043

> <r_mmod_Electrostatic_Energy-OPLS-2005>
-508.363525390625

> <r_mmod_Solvation_Energy-OPLS-2005>
-233.350494384766

> <b_mmod_Minimization_Converged-OPLS-2005>
0

> <r_mmod_RMS_Derivative-OPLS-2005>
2.17157244682312

$$$$
53
                    3D
 Structure written by MMmdl.
161170  0  0  1  0            999 V2000
  -30.5988  -14.6738   20.5027 C   0  0  0  0  0  0
  -30.4415  -12.4130   19.4576 C   0  0  0  0  0  0
  -29.5090  -12.5115   18.2285 C   0  0  0  0  0  0
  -28.0332  -12.3372   18.6412 C   0  0  0  0  0  0
  -27.6511  -13.2144   19.8630 C   0  0  2  0  0  0
  -28.6945  -13.0766   20.9943 C   0  0  0  0  0  0
  -25.2553  -13.8165   20.5689 C   0  0  0  0  0  0
  -24.1819  -13.0433   20.9182 C   0  0  0  0  0  0
  -24.6385  -11.6899   20.8735 C   0  0  0  0  0  0
  -23.9053  -10.4283   21.0399 C   0  0  0  0  0  0
  -24.3603   -9.4200   21.9179 C   0  0  0  0  0  0
  -23.6279   -8.2237   22.0752 C   0  0  0  0  0  0
  -22.4263   -8.0274   21.3542 C   0  0  0  0  0  0
  -21.9897   -9.0245   20.4642 C   0  0  0  0  0  0
  -22.7225  -10.2126   20.3051 C   0  0  0  0  0  0
  -21.6849   -6.0725   22.5275 C   0  0  0  0  0  0
  -21.4010   -6.5628   23.8207 C   0  0  0  0  0  0
  -21.3658   -5.6782   24.9169 C   0  0  0  0  0  0
  -21.6049   -4.3048   24.7224 C   0  0  0  0  0  0
  -21.8822   -3.8139   23.4345 C   0  0  0  0  0  0
  -21.9191   -4.6953   22.3400 C   0  0  0  0  0  0
  -22.7842  -13.5225   21.1854 C   0  0  0  0  0  0
  -22.1660   -4.2135   21.0978 F   0  0  0  0  0  0
  -21.5629   -3.4537   25.7740 F   0  0  0  0  0  0
  -30.0065  -13.4352   20.4334 N   0  0  0  0  0  0
  -26.2971  -12.9341   20.3314 N   0  0  0  0  0  0
  -25.9311  -11.6496   20.5743 N   0  0  0  0  0  0
  -22.0489  -12.8214   22.0410 N   0  0  0  0  0  0
  -25.4280  -15.1893   20.4116 N   0  0  0  0  0  0
  -31.7642  -14.8298   20.1195 O   0  0  0  0  0  0
  -21.6636   -6.8871   21.4237 O   0  0  0  0  0  0
  -22.3523  -14.5529   20.6701 O   0  0  0  0  0  0
  -24.6258  -31.8576   23.1982 C   0  0  0  0  0  0
  -25.9098  -32.4762   23.8320 C   0  0  1  0  0  0
  -27.2261  -27.3018   20.1333 C   0  0  0  0  0  0
  -25.5889  -33.8560   24.2231 N   0  0  0  0  0  0
  -23.4202  -30.4801   21.5411 C   0  0  2  0  0  0
  -24.8700  -28.9337   20.1088 C   0  0  0  0  0  0
  -22.7477  -29.4606   22.4917 C   0  0  0  0  0  0
  -18.0284  -28.1380   22.8493 C   0  0  0  0  0  0
  -24.1479  -36.7289   23.2643 C   0  0  0  0  0  0
  -25.9613  -30.7898   21.3670 C   0  0  0  0  0  0
  -26.0382  -29.4139   20.7128 C   0  0  0  0  0  0
  -27.2194  -28.6108   20.7121 C   0  0  0  0  0  0
  -26.0350  -26.8797   19.4994 C   0  0  0  0  0  0
  -24.8720  -27.6742   19.4902 C   0  0  0  0  0  0
  -23.6352  -29.8126   20.1571 C   0  0  0  0  0  0
  -25.4099  -36.3060   24.0325 C   0  0  1  0  0  0
  -20.5892  -28.3675   23.1281 C   0  0  2  0  0  0
  -20.6760  -26.9394   22.5412 C   0  0  0  0  0  0
  -19.5720  -26.6373   21.5226 C   0  0  0  0  0  0
  -18.1908  -26.7921   22.1649 C   0  0  0  0  0  0
  -19.1543  -28.8847   23.2881 C   0  0  0  0  0  0
  -18.9475  -30.1458   23.8884 C   0  0  0  0  0  0
  -17.6475  -30.6589   24.0566 C   0  0  0  0  0  0
  -25.9046  -34.9441   23.5084 C   0  0  0  0  0  0
  -16.5362  -29.9086   23.6347 C   0  0  0  0  0  0
  -16.7275  -28.6508   23.0358 C   0  0  0  0  0  0
  -26.4467  -31.6574   25.0698 C   0  0  0  0  0  0
  -25.3689  -31.3755   26.1419 C   0  0  0  0  0  0
  -27.0292  -30.2988   24.6153 C   0  0  0  0  0  0
  -27.5998  -32.4329   25.7492 C   0  0  0  0  0  0
  -27.5561  -37.1785   24.8461 C   0  0  0  0  0  0
  -21.4190  -29.3028   22.3678 N   0  0  0  0  0  0
  -26.4263  -37.3762   23.9427 N   0  0  0  0  0  0
  -24.6880  -31.0589   22.0931 N   0  0  0  0  0  0
  -23.4206  -28.8149   23.2997 O   0  0  0  0  0  0
  -28.3364  -26.4395   20.2094 O   0  0  0  0  0  0
  -26.5646  -34.8919   22.4670 O   0  0  0  0  0  0
  -23.5422  -32.1368   23.7321 O   0  0  0  0  0  0
  -31.2096  -23.4100   21.9620 C   0  0  0  0  0  0
  -31.0046  -22.0513   21.6991 C   0  0  0  0  0  0
  -28.7759  -17.9037   21.3874 C   0  0  0  0  0  0
  -29.7567  -20.1040   20.7670 C   0  0  0  0  0  0
  -30.3051  -24.3665   21.4681 C   0  0  0  0  0  0
  -28.7350  -19.3345   21.3949 C   0  0  0  0  0  0
  -29.9069  -21.6230   20.9375 C   0  0  0  0  0  0
  -30.7531  -19.2825   20.1420 C   0  0  0  0  0  0
  -29.1981  -23.9353   20.6929 C   0  0  0  0  0  0
  -29.8332  -17.1726   20.7856 C   0  0  0  0  0  0
  -30.5491  -25.8236   21.8286 C   0  0  0  0  0  0
  -27.6095  -20.0289   22.1437 C   0  0  0  0  0  0
  -31.9225  -19.9064   19.4014 C   0  0  0  0  0  0
  -28.1069  -24.9632   20.1680 C   0  0  0  0  0  0
  -29.0195  -22.5723   20.4500 N   0  0  0  0  0  0
  -30.7878  -17.9066   20.1556 N   0  0  0  0  0  0
  -29.7740  -15.7093   20.8819 N   0  0  0  0  0  0
  -31.4810  -12.5480   19.1539 H   0  0  0  0  0  0
  -30.3879  -11.4172   19.9011 H   0  0  0  0  0  0
  -29.7801  -11.7589   17.4869 H   0  0  0  0  0  0
  -29.6418  -13.4802   17.7433 H   0  0  0  0  0  0
  -27.8810  -11.2838   18.8822 H   0  0  0  0  0  0
  -27.3751  -12.5528   17.7985 H   0  0  0  0  0  0
  -27.6667  -14.2475   19.5150 H   0  0  0  0  0  0
  -28.7146  -12.0529   21.3714 H   0  0  0  0  0  0
  -28.4310  -13.7005   21.8497 H   0  0  0  0  0  0
  -25.2752   -9.5674   22.4746 H   0  0  0  0  0  0
  -23.9987   -7.4631   22.7474 H   0  0  0  0  0  0
  -21.0828   -8.8758   19.8948 H   0  0  0  0  0  0
  -22.3683  -10.9656   19.6153 H   0  0  0  0  0  0
  -21.2001   -7.6137   23.9704 H   0  0  0  0  0  0
  -21.1476   -6.0516   25.9071 H   0  0  0  0  0  0
  -22.0604   -2.7599   23.2853 H   0  0  0  0  0  0
  -22.4099  -11.9872   22.4791 H   0  0  0  0  0  0
  -21.1109  -13.1237   22.2626 H   0  0  0  0  0  0
  -24.6595  -15.8422   20.5217 H   0  0  0  0  0  0
  -26.2696  -15.6292   20.0620 H   0  0  0  0  0  0
  -26.7180  -32.5441   23.1083 H   0  0  0  0  0  0
  -24.9955  -33.9702   25.0319 H   0  0  0  0  0  0
  -22.7129  -31.3003   21.3971 H   0  0  0  0  0  0
  -23.3732  -35.9631   23.3293 H   0  0  0  0  0  0
  -24.3575  -36.8926   22.2060 H   0  0  0  0  0  0
  -23.7249  -37.6490   23.6689 H   0  0  0  0  0  0
  -26.0847  -31.5507   20.5950 H   0  0  0  0  0  0
  -26.8442  -30.8464   21.9918 H   0  0  0  0  0  0
  -28.1132  -28.9731   21.2009 H   0  0  0  0  0  0
  -25.9735  -25.9144   19.0203 H   0  0  0  0  0  0
  -23.9769  -27.3014   19.0125 H   0  0  0  0  0  0
  -23.7483  -30.5869   19.3974 H   0  0  0  0  0  0
  -22.7572  -29.2375   19.8579 H   0  0  0  0  0  0
  -25.1282  -36.1882   25.0815 H   0  0  0  0  0  0
  -20.9992  -28.3242   24.1399 H   0  0  0  0  0  0
  -20.5661  -26.2283   23.3615 H   0  0  0  0  0  0
  -21.6620  -26.7396   22.1199 H   0  0  0  0  0  0
  -19.6868  -25.6287   21.1246 H   0  0  0  0  0  0
  -19.6646  -27.3194   20.6768 H   0  0  0  0  0  0
  -17.4167  -26.6682   21.4061 H   0  0  0  0  0  0
  -18.0296  -26.0064   22.9047 H   0  0  0  0  0  0
  -19.7955  -30.7281   24.2224 H   0  0  0  0  0  0
  -17.5036  -31.6272   24.5158 H   0  0  0  0  0  0
  -15.5364  -30.2988   23.7679 H   0  0  0  0  0  0
  -15.8672  -28.0837   22.7063 H   0  0  0  0  0  0
  -24.5865  -30.7090   25.7768 H   0  0  0  0  0  0
  -24.8884  -32.2947   26.4783 H   0  0  0  0  0  0
  -25.7991  -30.8982   27.0230 H   0  0  0  0  0  0
  -26.2853  -29.6771   24.1150 H   0  0  0  0  0  0
  -27.3947  -29.7210   25.4652 H   0  0  0  0  0  0
  -27.8743  -30.4254   23.9383 H   0  0  0  0  0  0
  -27.2555  -33.3627   26.2039 H   0  0  0  0  0  0
  -28.3825  -32.6895   25.0342 H   0  0  0  0  0  0
  -28.0638  -31.8481   26.5443 H   0  0  0  0  0  0
  -28.2547  -38.0107   24.7516 H   0  0  0  0  0  0
  -28.1079  -36.2634   24.6258 H   0  0  0  0  0  0
  -27.2295  -37.1398   25.8867 H   0  0  0  0  0  0
  -20.9364  -29.8768   21.6903 H   0  0  0  0  0  0
  -26.0128  -38.2823   24.1456 H   0  0  0  0  0  0
  -32.0562  -23.7083   22.5640 H   0  0  0  0  0  0
  -31.6960  -21.3286   22.1086 H   0  0  0  0  0  0
  -27.9851  -17.3627   21.8900 H   0  0  0  0  0  0
  -31.4460  -25.9427   22.4371 H   0  0  0  0  0  0
  -29.7134  -26.2214   22.4049 H   0  0  0  0  0  0
  -30.6895  -26.4309   20.9348 H   0  0  0  0  0  0
  -26.8987  -19.3138   22.5582 H   0  0  0  0  0  0
  -27.0606  -20.6944   21.4775 H   0  0  0  0  0  0
  -28.0031  -20.6216   22.9703 H   0  0  0  0  0  0
  -31.5954  -20.7599   18.8082 H   0  0  0  0  0  0
  -32.3835  -19.1916   18.7183 H   0  0  0  0  0  0
  -32.6898  -20.2432   20.0986 H   0  0  0  0  0  0
  -27.2077  -24.7454   20.7460 H   0  0  0  0  0  0
  -27.8875  -24.6906   19.1359 H   0  0  0  0  0  0
  -28.8937  -15.3701   21.2334 H   0  0  0  0  0  0
  1 25  1  0  0  0
  1 30  2  0  0  0
  1 87  1  0  0  0
  2  3  1  0  0  0
  2 25  1  0  0  0
  2 88  1  0  0  0
  2 89  1  0  0  0
  3  4  1  0  0  0
  3 90  1  0  0  0
  3 91  1  0  0  0
  4  5  1  0  0  0
  4 92  1  0  0  0
  4 93  1  0  0  0
  5  6  1  0  0  0
  5 26  1  0  0  0
  5 94  1  0  0  0
  6 25  1  0  0  0
  6 95  1  0  0  0
  6 96  1  0  0  0
  7  8  2  0  0  0
  7 26  1  0  0  0
  7 29  1  0  0  0
  8  9  1  0  0  0
  8 22  1  0  0  0
  9 10  1  0  0  0
  9 27  2  0  0  0
 10 11  2  0  0  0
 10 15  1  0  0  0
 11 12  1  0  0  0
 11 97  1  0  0  0
 12 13  2  0  0  0
 12 98  1  0  0  0
 13 14  1  0  0  0
 13 31  1  0  0  0
 14 15  2  0  0  0
 14 99  1  0  0  0
 15100  1  0  0  0
 16 17  2  0  0  0
 16 21  1  0  0  0
 16 31  1  0  0  0
 17 18  1  0  0  0
 17101  1  0  0  0
 18 19  2  0  0  0
 18102  1  0  0  0
 19 20  1  0  0  0
 19 24  1  0  0  0
 20 21  2  0  0  0
 20103  1  0  0  0
 21 23  1  0  0  0
 22 28  1  0  0  0
 22 32  2  0  0  0
 26 27  1  0  0  0
 28104  1  0  0  0
 28105  1  0  0  0
 29106  1  0  0  0
 29107  1  0  0  0
 33 34  1  0  0  0
 33 66  1  0  0  0
 33 70  2  0  0  0
 34 36  1  0  0  0
 34 59  1  0  0  0
 34108  1  0  0  0
 35 44  2  0  0  0
 35 45  1  0  0  0
 35 68  1  0  0  0
 36 56  1  0  0  0
 36109  1  0  0  0
 37 39  1  0  0  0
 37 47  1  0  0  0
 37 66  1  0  0  0
 37110  1  0  0  0
 38 43  2  0  0  0
 38 46  1  0  0  0
 38 47  1  0  0  0
 39 64  1  0  0  0
 39 67  2  0  0  0
 40 52  1  0  0  0
 40 53  2  0  0  0
 40 58  1  0  0  0
 41111  1  0  0  0
 41112  1  0  0  0
 41113  1  0  0  0
 41 48  1  0  0  0
 42 43  1  0  0  0
 42 66  1  0  0  0
 42114  1  0  0  0
 42115  1  0  0  0
 43 44  1  0  0  0
 44116  1  0  0  0
 45 46  2  0  0  0
 45117  1  0  0  0
 46118  1  0  0  0
 47119  1  0  0  0
 47120  1  0  0  0
 48 56  1  0  0  0
 48 65  1  0  0  0
 48121  1  0  0  0
 49 50  1  0  0  0
 49 53  1  0  0  0
 49 64  1  0  0  0
 49122  1  0  0  0
 50 51  1  0  0  0
 50123  1  0  0  0
 50124  1  0  0  0
 51 52  1  0  0  0
 51125  1  0  0  0
 51126  1  0  0  0
 52127  1  0  0  0
 52128  1  0  0  0
 53 54  1  0  0  0
 54 55  2  0  0  0
 54129  1  0  0  0
 55 57  1  0  0  0
 55130  1  0  0  0
 56 69  2  0  0  0
 57 58  2  0  0  0
 57131  1  0  0  0
 58132  1  0  0  0
 59 60  1  0  0  0
 59 61  1  0  0  0
 59 62  1  0  0  0
 60133  1  0  0  0
 60134  1  0  0  0
 60135  1  0  0  0
 61136  1  0  0  0
 61137  1  0  0  0
 61138  1  0  0  0
 62139  1  0  0  0
 62140  1  0  0  0
 62141  1  0  0  0
 63 65  1  0  0  0
 63142  1  0  0  0
 63143  1  0  0  0
 63144  1  0  0  0
 64145  1  0  0  0
 65146  1  0  0  0
 68 84  1  0  0  0
 71 72  2  0  0  0
 71 75  1  0  0  0
 71147  1  0  0  0
 72 77  1  0  0  0
 72148  1  0  0  0
 73 76  2  0  0  0
 73 80  1  0  0  0
 73149  1  0  0  0
 74 76  1  0  0  0
 74 77  1  0  0  0
 74 78  2  0  0  0
 75 79  2  0  0  0
 75 81  1  0  0  0
 76 82  1  0  0  0
 77 85  2  0  0  0
 78 83  1  0  0  0
 78 86  1  0  0  0
 79 84  1  0  0  0
 79 85  1  0  0  0
 80 86  2  0  0  0
 80 87  1  0  0  0
 81150  1  0  0  0
 81151  1  0  0  0
 81152  1  0  0  0
 82153  1  0  0  0
 82154  1  0  0  0
 82155  1  0  0  0
 83156  1  0  0  0
 83157  1  0  0  0
 83158  1  0  0  0
 84159  1  0  0  0
 84160  1  0  0  0
 87161  1  0  0  0
M  ISO  4   1 100  68 101  84 101  87 100
M  END
> <chiral flag>
0

> <version>
0

> <s_m_source_file>
/data/baiqing/PycharmProjects/Reinvent-master-3.2/result/LINK_invent/BTK/process_docking_weight1_custom_sum_contain_oxygen_bond_distance_aromatic_linkinvent_7_9_3/rearranged_h_0174.sdf

> <i_m_source_file_index>
52

> <r_mmod_Potential_Energy-OPLS-2005>
-105.75887298584

> <r_mmod_Stretch_Energy-OPLS-2005>
97.4142150878906

> <r_mmod_Bend_Energy-OPLS-2005>
151.991134643555

> <r_mmod_Torsional_Energy-OPLS-2005>
229.263320922852

> <r_mmod_Improper_Torsional_Energy-OPLS-2005>
4.73723888397217

> <r_mmod_Van_der_Waal_Energy-OPLS-2005>
164.585388183594

> <r_mmod_Electrostatic_Energy-OPLS-2005>
-575.022766113281

> <r_mmod_Solvation_Energy-OPLS-2005>
-237.559356689453

> <b_mmod_Minimization_Converged-OPLS-2005>
0

> <r_mmod_RMS_Derivative-OPLS-2005>
1.46796059608459

$$$$
54
                    3D
 Structure written by MMmdl.
162171  0  0  1  0            999 V2000
  -30.6004  -14.8729   20.4687 C   0  0  0  0  0  0
  -30.4301  -12.5363   19.5063 C   0  0  0  0  0  0
  -29.5183  -12.5340   18.2594 C   0  0  0  0  0  0
  -28.0516  -12.3258   18.6777 C   0  0  0  0  0  0
  -27.6368  -13.2496   19.8542 C   0  0  2  0  0  0
  -28.6773  -13.2493   20.9962 C   0  0  0  0  0  0
  -25.2476  -13.8235   20.5735 C   0  0  0  0  0  0
  -24.1775  -13.0461   20.9203 C   0  0  0  0  0  0
  -24.6389  -11.6948   20.8749 C   0  0  0  0  0  0
  -23.9090  -10.4302   21.0394 C   0  0  0  0  0  0
  -24.3635   -9.4205   21.9172 C   0  0  0  0  0  0
  -23.6302   -8.2241   22.0745 C   0  0  0  0  0  0
  -22.4287   -8.0275   21.3545 C   0  0  0  0  0  0
  -21.9931   -9.0252   20.4655 C   0  0  0  0  0  0
  -22.7259  -10.2123   20.3054 C   0  0  0  0  0  0
  -21.6846   -6.0714   22.5272 C   0  0  0  0  0  0
  -21.4013   -6.5635   23.8199 C   0  0  0  0  0  0
  -21.3667   -5.6801   24.9174 C   0  0  0  0  0  0
  -21.6050   -4.3062   24.7235 C   0  0  0  0  0  0
  -21.8820   -3.8135   23.4362 C   0  0  0  0  0  0
  -21.9201   -4.6942   22.3408 C   0  0  0  0  0  0
  -22.7790  -13.5203   21.1897 C   0  0  0  0  0  0
  -22.1667   -4.2124   21.0983 F   0  0  0  0  0  0
  -21.5643   -3.4558   25.7750 F   0  0  0  0  0  0
  -29.9694  -13.6322   20.4099 N   0  0  0  0  0  0
  -26.2916  -12.9471   20.3331 N   0  0  0  0  0  0
  -25.9328  -11.6598   20.5770 N   0  0  0  0  0  0
  -22.0477  -12.8139   22.0441 N   0  0  0  0  0  0
  -25.4236  -15.1951   20.4211 N   0  0  0  0  0  0
  -31.7645  -14.9380   20.0566 O   0  0  0  0  0  0
  -21.6663   -6.8857   21.4230 O   0  0  0  0  0  0
  -22.3463  -14.5525   20.6778 O   0  0  0  0  0  0
  -24.6417  -31.8462   23.1936 C   0  0  0  0  0  0
  -25.9197  -32.4711   23.8306 C   0  0  1  0  0  0
  -27.2004  -27.1346   20.1451 C   0  0  0  0  0  0
  -25.5940  -33.8514   24.2218 N   0  0  0  0  0  0
  -23.4440  -30.4689   21.5392 C   0  0  2  0  0  0
  -24.8914  -28.9057   20.1036 C   0  0  0  0  0  0
  -22.7577  -29.4571   22.4893 C   0  0  0  0  0  0
  -18.0325  -28.1371   22.8528 C   0  0  0  0  0  0
  -24.1491  -36.7262   23.2652 C   0  0  0  0  0  0
  -26.0023  -30.7104   21.4026 C   0  0  0  0  0  0
  -26.0654  -29.3251   20.7421 C   0  0  0  0  0  0
  -27.2160  -28.4498   20.7625 C   0  0  0  0  0  0
  -26.0165  -26.8457   19.4246 C   0  0  0  0  0  0
  -24.8827  -27.6802   19.4259 C   0  0  0  0  0  0
  -23.6666  -29.8056   20.1534 C   0  0  0  0  0  0
  -25.4123  -36.3048   24.0331 C   0  0  1  0  0  0
  -20.5928  -28.3746   23.1290 C   0  0  2  0  0  0
  -20.6814  -26.9426   22.5492 C   0  0  0  0  0  0
  -19.5794  -26.6295   21.5331 C   0  0  0  0  0  0
  -18.1971  -26.7898   22.1725 C   0  0  0  0  0  0
  -19.1568  -28.8878   23.2868 C   0  0  0  0  0  0
  -18.9482  -30.1485   23.8852 C   0  0  0  0  0  0
  -17.6476  -30.6613   24.0531 C   0  0  0  0  0  0
  -25.9076  -34.9419   23.5088 C   0  0  0  0  0  0
  -16.5373  -29.9091   23.6321 C   0  0  0  0  0  0
  -16.7299  -28.6482   23.0407 C   0  0  0  0  0  0
  -26.4507  -31.6571   25.0747 C   0  0  0  0  0  0
  -25.3690  -31.3763   26.1452 C   0  0  0  0  0  0
  -27.0383  -30.2961   24.6345 C   0  0  0  0  0  0
  -27.6033  -32.4345   25.7520 C   0  0  0  0  0  0
  -27.5573  -37.1786   24.8466 C   0  0  0  0  0  0
  -21.4274  -29.3080   22.3661 N   0  0  0  0  0  0
  -26.4284  -37.3751   23.9412 N   0  0  0  0  0  0
  -24.7150  -31.0320   22.0983 N   0  0  0  0  0  0
  -23.4224  -28.8095   23.3025 O   0  0  0  0  0  0
  -28.2162  -26.1141   20.2673 O   0  0  0  0  0  0
  -26.5673  -34.8908   22.4669 O   0  0  0  0  0  0
  -23.5529  -32.1359   23.7142 O   0  0  0  0  0  0
  -29.0594  -20.2492   20.7835 C   0  0  0  0  0  0
  -28.2755  -21.0636   21.6900 C   0  0  0  0  0  0
  -28.0360  -22.4897   21.4877 C   0  0  0  0  0  0
  -29.5675  -21.0690   19.7175 C   0  0  0  0  0  0
  -28.5399  -23.2076   20.3567 C   0  0  0  0  0  0
  -29.8566  -18.0667   22.2698 C   0  0  0  0  0  0
  -29.8041  -16.5015   22.1802 C   0  0  0  0  0  0
  -29.8384  -17.4300   20.0379 C   0  0  0  0  0  0
  -29.2088  -18.5978   20.9812 C   0  0  2  0  0  0
  -27.6396  -20.4094   22.9164 C   0  0  0  0  0  0
  -27.1490  -23.2543   22.4680 C   0  0  0  0  0  0
  -30.4582  -20.4449   18.6657 C   0  0  0  0  0  0
  -27.9236  -24.6517   19.8270 C   0  0  0  0  0  0
  -29.3074  -22.4280   19.5189 N   0  0  0  0  0  0
  -29.8883  -16.0651   20.7720 N   0  0  0  0  0  0
  -31.4741  -12.6534   19.2101 H   0  0  0  0  0  0
  -30.3750  -11.5745   20.0186 H   0  0  0  0  0  0
  -29.8251  -11.7559   17.5578 H   0  0  0  0  0  0
  -29.6133  -13.4819   17.7255 H   0  0  0  0  0  0
  -27.9369  -11.2823   18.9742 H   0  0  0  0  0  0
  -27.3899  -12.4750   17.8247 H   0  0  0  0  0  0
  -27.6137  -14.2617   19.4497 H   0  0  0  0  0  0
  -28.3828  -13.9549   21.7722 H   0  0  0  0  0  0
  -28.7392  -12.2732   21.4793 H   0  0  0  0  0  0
  -25.2768   -9.5685   22.4763 H   0  0  0  0  0  0
  -24.0023   -7.4636   22.7448 H   0  0  0  0  0  0
  -21.0871   -8.8759   19.8956 H   0  0  0  0  0  0
  -22.3704  -10.9663   19.6176 H   0  0  0  0  0  0
  -21.1994   -7.6146   23.9687 H   0  0  0  0  0  0
  -21.1497   -6.0544   25.9075 H   0  0  0  0  0  0
  -22.0598   -2.7596   23.2875 H   0  0  0  0  0  0
  -22.4152  -11.9782   22.4754 H   0  0  0  0  0  0
  -21.1108  -13.1105   22.2746 H   0  0  0  0  0  0
  -24.6717  -15.8657   20.5382 H   0  0  0  0  0  0
  -26.2966  -15.6254   20.1445 H   0  0  0  0  0  0
  -26.7282  -32.5293   23.1037 H   0  0  0  0  0  0
  -25.0006  -33.9634   25.0310 H   0  0  0  0  0  0
  -22.7451  -31.2938   21.3901 H   0  0  0  0  0  0
  -23.3751  -35.9590   23.3313 H   0  0  0  0  0  0
  -24.3574  -36.8885   22.2064 H   0  0  0  0  0  0
  -23.7236  -37.6460   23.6680 H   0  0  0  0  0  0
  -26.1729  -31.4631   20.6318 H   0  0  0  0  0  0
  -26.8678  -30.7515   22.0500 H   0  0  0  0  0  0
  -28.0938  -28.7481   21.3189 H   0  0  0  0  0  0
  -25.9147  -25.9334   18.8573 H   0  0  0  0  0  0
  -23.9988  -27.3660   18.8891 H   0  0  0  0  0  0
  -23.7991  -30.5834   19.4002 H   0  0  0  0  0  0
  -22.7803  -29.2468   19.8467 H   0  0  0  0  0  0
  -25.1305  -36.1893   25.0821 H   0  0  0  0  0  0
  -21.0008  -28.3385   24.1416 H   0  0  0  0  0  0
  -20.5757  -26.2346   23.3754 H   0  0  0  0  0  0
  -21.6673  -26.7464   22.1282 H   0  0  0  0  0  0
  -19.6974  -25.6176   21.1455 H   0  0  0  0  0  0
  -19.6725  -27.3022   20.6799 H   0  0  0  0  0  0
  -17.4223  -26.6588   21.4157 H   0  0  0  0  0  0
  -18.0354  -26.0086   22.9167 H   0  0  0  0  0  0
  -19.7954  -30.7318   24.2194 H   0  0  0  0  0  0
  -17.5059  -31.6297   24.5120 H   0  0  0  0  0  0
  -15.5370  -30.2996   23.7680 H   0  0  0  0  0  0
  -15.8707  -28.0750   22.7186 H   0  0  0  0  0  0
  -24.5858  -30.7126   25.7773 H   0  0  0  0  0  0
  -24.8893  -32.2955   26.4834 H   0  0  0  0  0  0
  -25.7978  -30.8955   27.0260 H   0  0  0  0  0  0
  -26.3024  -29.6675   24.1331 H   0  0  0  0  0  0
  -27.3971  -29.7266   25.4930 H   0  0  0  0  0  0
  -27.8946  -30.4200   23.9710 H   0  0  0  0  0  0
  -27.2620  -33.3652   26.2066 H   0  0  0  0  0  0
  -28.3850  -32.6902   25.0354 H   0  0  0  0  0  0
  -28.0711  -31.8503   26.5456 H   0  0  0  0  0  0
  -28.2599  -38.0077   24.7500 H   0  0  0  0  0  0
  -28.1064  -36.2604   24.6312 H   0  0  0  0  0  0
  -27.2295  -37.1464   25.8872 H   0  0  0  0  0  0
  -20.9486  -29.8824   21.6864 H   0  0  0  0  0  0
  -26.0166  -38.2831   24.1366 H   0  0  0  0  0  0
  -29.3838  -18.4130   23.1852 H   0  0  0  0  0  0
  -30.8941  -18.4005   22.3133 H   0  0  0  0  0  0
  -28.8613  -16.1383   22.5901 H   0  0  0  0  0  0
  -30.5980  -16.0622   22.7877 H   0  0  0  0  0  0
  -29.2564  -17.3249   19.1209 H   0  0  0  0  0  0
  -30.8576  -17.6847   19.7372 H   0  0  0  0  0  0
  -28.1605  -18.2987   21.0261 H   0  0  0  0  0  0
  -27.4121  -19.3543   22.7837 H   0  0  0  0  0  0
  -26.6835  -20.8548   23.1840 H   0  0  0  0  0  0
  -28.3112  -20.5158   23.7690 H   0  0  0  0  0  0
  -27.4226  -23.0333   23.4991 H   0  0  0  0  0  0
  -26.0995  -22.9891   22.3241 H   0  0  0  0  0  0
  -27.2371  -24.3346   22.3560 H   0  0  0  0  0  0
  -29.9068  -19.6961   18.0986 H   0  0  0  0  0  0
  -31.3142  -19.9629   19.1380 H   0  0  0  0  0  0
  -30.8407  -21.1884   17.9663 H   0  0  0  0  0  0
  -26.8611  -24.4813   19.9889 H   0  0  0  0  0  0
  -28.0360  -24.6448   18.7432 H   0  0  0  0  0  0
  1 25  1  0  0  0
  1 30  2  0  0  0
  1 85  1  0  0  0
  2  3  1  0  0  0
  2 25  1  0  0  0
  2 86  1  0  0  0
  2 87  1  0  0  0
  3  4  1  0  0  0
  3 88  1  0  0  0
  3 89  1  0  0  0
  4  5  1  0  0  0
  4 90  1  0  0  0
  4 91  1  0  0  0
  5  6  1  0  0  0
  5 26  1  0  0  0
  5 92  1  0  0  0
  6 25  1  0  0  0
  6 93  1  0  0  0
  6 94  1  0  0  0
  7  8  2  0  0  0
  7 26  1  0  0  0
  7 29  1  0  0  0
  8  9  1  0  0  0
  8 22  1  0  0  0
  9 10  1  0  0  0
  9 27  2  0  0  0
 10 11  2  0  0  0
 10 15  1  0  0  0
 11 12  1  0  0  0
 11 95  1  0  0  0
 12 13  2  0  0  0
 12 96  1  0  0  0
 13 14  1  0  0  0
 13 31  1  0  0  0
 14 15  2  0  0  0
 14 97  1  0  0  0
 15 98  1  0  0  0
 16 17  2  0  0  0
 16 21  1  0  0  0
 16 31  1  0  0  0
 17 18  1  0  0  0
 17 99  1  0  0  0
 18 19  2  0  0  0
 18100  1  0  0  0
 19 20  1  0  0  0
 19 24  1  0  0  0
 20 21  2  0  0  0
 20101  1  0  0  0
 21 23  1  0  0  0
 22 28  1  0  0  0
 22 32  2  0  0  0
 26 27  1  0  0  0
 28102  1  0  0  0
 28103  1  0  0  0
 29104  1  0  0  0
 29105  1  0  0  0
 33 34  1  0  0  0
 33 66  1  0  0  0
 33 70  2  0  0  0
 34 36  1  0  0  0
 34 59  1  0  0  0
 34106  1  0  0  0
 35 44  2  0  0  0
 35 45  1  0  0  0
 35 68  1  0  0  0
 36 56  1  0  0  0
 36107  1  0  0  0
 37 39  1  0  0  0
 37 47  1  0  0  0
 37 66  1  0  0  0
 37108  1  0  0  0
 38 43  2  0  0  0
 38 46  1  0  0  0
 38 47  1  0  0  0
 39 64  1  0  0  0
 39 67  2  0  0  0
 40 52  1  0  0  0
 40 53  2  0  0  0
 40 58  1  0  0  0
 41109  1  0  0  0
 41110  1  0  0  0
 41111  1  0  0  0
 41 48  1  0  0  0
 42 43  1  0  0  0
 42 66  1  0  0  0
 42112  1  0  0  0
 42113  1  0  0  0
 43 44  1  0  0  0
 44114  1  0  0  0
 45 46  2  0  0  0
 45115  1  0  0  0
 46116  1  0  0  0
 47117  1  0  0  0
 47118  1  0  0  0
 48 56  1  0  0  0
 48 65  1  0  0  0
 48119  1  0  0  0
 49 50  1  0  0  0
 49 53  1  0  0  0
 49 64  1  0  0  0
 49120  1  0  0  0
 50 51  1  0  0  0
 50121  1  0  0  0
 50122  1  0  0  0
 51 52  1  0  0  0
 51123  1  0  0  0
 51124  1  0  0  0
 52125  1  0  0  0
 52126  1  0  0  0
 53 54  1  0  0  0
 54 55  2  0  0  0
 54127  1  0  0  0
 55 57  1  0  0  0
 55128  1  0  0  0
 56 69  2  0  0  0
 57 58  2  0  0  0
 57129  1  0  0  0
 58130  1  0  0  0
 59 60  1  0  0  0
 59 61  1  0  0  0
 59 62  1  0  0  0
 60131  1  0  0  0
 60132  1  0  0  0
 60133  1  0  0  0
 61134  1  0  0  0
 61135  1  0  0  0
 61136  1  0  0  0
 62137  1  0  0  0
 62138  1  0  0  0
 62139  1  0  0  0
 63 65  1  0  0  0
 63140  1  0  0  0
 63141  1  0  0  0
 63142  1  0  0  0
 64143  1  0  0  0
 65144  1  0  0  0
 68 83  1  0  0  0
 71 72  2  0  0  0
 71 74  1  0  0  0
 71 79  1  0  0  0
 72 73  1  0  0  0
 72 80  1  0  0  0
 73 75  2  0  0  0
 73 81  1  0  0  0
 74 82  1  0  0  0
 74 84  2  0  0  0
 75 83  1  0  0  0
 75 84  1  0  0  0
 76 77  1  0  0  0
 76 79  1  0  0  0
 76145  1  0  0  0
 76146  1  0  0  0
 77 85  1  0  0  0
 77147  1  0  0  0
 77148  1  0  0  0
 78 79  1  0  0  0
 78 85  1  0  0  0
 78149  1  0  0  0
 78150  1  0  0  0
 79151  1  0  0  0
 80152  1  0  0  0
 80153  1  0  0  0
 80154  1  0  0  0
 81155  1  0  0  0
 81156  1  0  0  0
 81157  1  0  0  0
 82158  1  0  0  0
 82159  1  0  0  0
 82160  1  0  0  0
 83161  1  0  0  0
 83162  1  0  0  0
M  ISO  4   1 100  68 101  83 101  85 100
M  END
> <chiral flag>
0

> <version>
0

> <s_m_source_file>
/data/baiqing/PycharmProjects/Reinvent-master-3.2/result/LINK_invent/BTK/process_docking_weight1_custom_sum_contain_oxygen_bond_distance_aromatic_linkinvent_7_9_3/rearranged_h_0174.sdf

> <i_m_source_file_index>
53

> <r_mmod_Potential_Energy-OPLS-2005>
540.965576171875

> <r_mmod_Stretch_Energy-OPLS-2005>
223.692230224609

> <r_mmod_Bend_Energy-OPLS-2005>
304.389190673828

> <r_mmod_Torsional_Energy-OPLS-2005>
331.556335449219

> <r_mmod_Improper_Torsional_Energy-OPLS-2005>
11.4247074127197

> <r_mmod_Van_der_Waal_Energy-OPLS-2005>
145.677505493164

> <r_mmod_Electrostatic_Energy-OPLS-2005>
-432.889007568359

> <r_mmod_Solvation_Energy-OPLS-2005>
-215.531600952148

> <b_mmod_Minimization_Converged-OPLS-2005>
0

> <r_mmod_RMS_Derivative-OPLS-2005>
3.7388858795166

$$$$
55
                    3D
 Structure written by MMmdl.
159168  0  0  1  0            999 V2000
  -30.6389  -14.7524   20.4495 C   0  0  0  0  0  0
  -30.4210  -12.4600   19.4779 C   0  0  0  0  0  0
  -29.5058  -12.4982   18.2366 C   0  0  0  0  0  0
  -28.0337  -12.3233   18.6546 C   0  0  0  0  0  0
  -27.6352  -13.2369   19.8448 C   0  0  2  0  0  0
  -28.6797  -13.2072   20.9797 C   0  0  0  0  0  0
  -25.2494  -13.8213   20.5724 C   0  0  0  0  0  0
  -24.1784  -13.0447   20.9209 C   0  0  0  0  0  0
  -24.6383  -11.6927   20.8750 C   0  0  0  0  0  0
  -23.9065  -10.4300   21.0408 C   0  0  0  0  0  0
  -24.3618   -9.4212   21.9184 C   0  0  0  0  0  0
  -23.6296   -8.2245   22.0754 C   0  0  0  0  0  0
  -22.4275   -8.0283   21.3546 C   0  0  0  0  0  0
  -21.9907   -9.0256   20.4651 C   0  0  0  0  0  0
  -22.7233  -10.2137   20.3059 C   0  0  0  0  0  0
  -21.6854   -6.0737   22.5278 C   0  0  0  0  0  0
  -21.4017   -6.5641   23.8211 C   0  0  0  0  0  0
  -21.3661   -5.6793   24.9173 C   0  0  0  0  0  0
  -21.6043   -4.3055   24.7225 C   0  0  0  0  0  0
  -21.8819   -3.8147   23.4346 C   0  0  0  0  0  0
  -21.9194   -4.6964   22.3401 C   0  0  0  0  0  0
  -22.7807  -13.5224   21.1871 C   0  0  0  0  0  0
  -22.1664   -4.2150   21.0976 F   0  0  0  0  0  0
  -21.5626   -3.4539   25.7738 F   0  0  0  0  0  0
  -29.9754  -13.5454   20.3836 N   0  0  0  0  0  0
  -26.2909  -12.9423   20.3286 N   0  0  0  0  0  0
  -25.9312  -11.6562   20.5761 N   0  0  0  0  0  0
  -22.0461  -12.8214   22.0432 N   0  0  0  0  0  0
  -25.4222  -15.1938   20.4185 N   0  0  0  0  0  0
  -31.8429  -14.7840   20.1724 O   0  0  0  0  0  0
  -21.6641   -6.8880   21.4242 O   0  0  0  0  0  0
  -22.3487  -14.5525   20.6714 O   0  0  0  0  0  0
  -24.6329  -31.8538   23.1970 C   0  0  0  0  0  0
  -25.9150  -32.4743   23.8318 C   0  0  1  0  0  0
  -27.2178  -27.2433   20.1192 C   0  0  0  0  0  0
  -25.5941  -33.8546   24.2244 N   0  0  0  0  0  0
  -23.4300  -30.4771   21.5408 C   0  0  2  0  0  0
  -24.8753  -28.9237   20.1070 C   0  0  0  0  0  0
  -22.7512  -29.4594   22.4899 C   0  0  0  0  0  0
  -18.0295  -28.1385   22.8482 C   0  0  0  0  0  0
  -24.1492  -36.7279   23.2640 C   0  0  0  0  0  0
  -25.9780  -30.7603   21.3799 C   0  0  0  0  0  0
  -26.0480  -29.3826   20.7181 C   0  0  0  0  0  0
  -27.2175  -28.5535   20.7159 C   0  0  0  0  0  0
  -26.0102  -26.8504   19.4963 C   0  0  0  0  0  0
  -24.8626  -27.6663   19.4874 C   0  0  0  0  0  0
  -23.6478  -29.8131   20.1560 C   0  0  0  0  0  0
  -25.4119  -36.3062   24.0322 C   0  0  1  0  0  0
  -20.5901  -28.3701   23.1264 C   0  0  2  0  0  0
  -20.6781  -26.9414   22.5414 C   0  0  0  0  0  0
  -19.5759  -26.6379   21.5214 C   0  0  0  0  0  0
  -18.1937  -26.7928   22.1619 C   0  0  0  0  0  0
  -19.1549  -28.8860   23.2868 C   0  0  0  0  0  0
  -18.9468  -30.1458   23.8892 C   0  0  0  0  0  0
  -17.6467  -30.6585   24.0561 C   0  0  0  0  0  0
  -25.9062  -34.9433   23.5087 C   0  0  0  0  0  0
  -16.5358  -29.9079   23.6329 C   0  0  0  0  0  0
  -16.7281  -28.6495   23.0356 C   0  0  0  0  0  0
  -26.4509  -31.6576   25.0719 C   0  0  0  0  0  0
  -25.3727  -31.3748   26.1440 C   0  0  0  0  0  0
  -27.0353  -30.2981   24.6232 C   0  0  0  0  0  0
  -27.6058  -32.4326   25.7491 C   0  0  0  0  0  0
  -27.5583  -37.1792   24.8462 C   0  0  0  0  0  0
  -21.4219  -29.3043   22.3647 N   0  0  0  0  0  0
  -26.4291  -37.3765   23.9409 N   0  0  0  0  0  0
  -24.6995  -31.0490   22.0951 N   0  0  0  0  0  0
  -23.4206  -28.8136   23.3004 O   0  0  0  0  0  0
  -28.3161  -26.3487   20.2139 O   0  0  0  0  0  0
  -26.5637  -34.8912   22.4658 O   0  0  0  0  0  0
  -23.5475  -32.1367   23.7256 O   0  0  0  0  0  0
  -27.9343  -21.1802   19.9995 C   0  0  0  0  0  0
  -27.6293  -22.5738   19.8460 C   0  0  0  0  0  0
  -29.2469  -20.7307   20.3179 C   0  0  0  0  0  0
  -28.6145  -23.5880   20.0060 C   0  0  0  0  0  0
  -30.1560  -21.8199   20.5330 C   0  0  0  0  0  0
  -29.7848  -18.4048   21.6726 C   0  0  0  0  0  0
  -28.9237  -18.1487   19.4461 C   0  0  0  0  0  0
  -30.4552  -16.9621   21.5862 C   0  0  0  0  0  0
  -29.5923  -16.7081   19.3383 C   0  0  0  0  0  0
  -29.6990  -19.1772   20.3241 C   0  0  0  0  0  0
  -31.5960  -21.5529   20.9307 C   0  0  0  0  0  0
  -28.4221  -25.0748   19.4153 C   0  0  0  0  0  0
  -29.8577  -23.1587   20.3749 N   0  0  0  0  0  0
  -29.9378  -15.9604   20.5932 N   0  0  0  0  0  0
  -31.4647  -12.5653   19.1772 H   0  0  0  0  0  0
  -30.3539  -11.4935   19.9796 H   0  0  0  0  0  0
  -29.7903  -11.7151   17.5322 H   0  0  0  0  0  0
  -29.6328  -13.4456   17.7110 H   0  0  0  0  0  0
  -27.8983  -11.2776   18.9334 H   0  0  0  0  0  0
  -27.3735  -12.4986   17.8046 H   0  0  0  0  0  0
  -27.6178  -14.2515   19.4483 H   0  0  0  0  0  0
  -28.7167  -12.2258   21.4551 H   0  0  0  0  0  0
  -28.4169  -13.9231   21.7602 H   0  0  0  0  0  0
  -25.2769   -9.5689   22.4755 H   0  0  0  0  0  0
  -24.0012   -7.4634   22.7462 H   0  0  0  0  0  0
  -21.0842   -8.8768   19.8956 H   0  0  0  0  0  0
  -22.3690  -10.9672   19.6166 H   0  0  0  0  0  0
  -21.2013   -7.6151   23.9714 H   0  0  0  0  0  0
  -21.1482   -6.0526   25.9076 H   0  0  0  0  0  0
  -22.0598   -2.7611   23.2842 H   0  0  0  0  0  0
  -22.4086  -11.9882   22.4824 H   0  0  0  0  0  0
  -21.1078  -13.1230   22.2645 H   0  0  0  0  0  0
  -24.6643  -15.8554   20.5444 H   0  0  0  0  0  0
  -26.2902  -15.6327   20.1385 H   0  0  0  0  0  0
  -26.7215  -32.5382   23.1054 H   0  0  0  0  0  0
  -25.0084  -33.9680   25.0385 H   0  0  0  0  0  0
  -22.7269  -31.2998   21.3957 H   0  0  0  0  0  0
  -23.3755  -35.9609   23.3297 H   0  0  0  0  0  0
  -24.3583  -36.8909   22.2056 H   0  0  0  0  0  0
  -23.7244  -37.6476   23.6673 H   0  0  0  0  0  0
  -26.1234  -31.5224   20.6128 H   0  0  0  0  0  0
  -26.8529  -30.8052   22.0167 H   0  0  0  0  0  0
  -28.1135  -28.8995   21.2120 H   0  0  0  0  0  0
  -25.8885  -25.8778   19.0492 H   0  0  0  0  0  0
  -23.9590  -27.3029   19.0174 H   0  0  0  0  0  0
  -23.7745  -30.5905   19.4015 H   0  0  0  0  0  0
  -22.7651  -29.2487   19.8500 H   0  0  0  0  0  0
  -25.1302  -36.1905   25.0814 H   0  0  0  0  0  0
  -20.9994  -28.3287   24.1384 H   0  0  0  0  0  0
  -20.5670  -26.2315   23.3627 H   0  0  0  0  0  0
  -21.6652  -26.7429   22.1220 H   0  0  0  0  0  0
  -19.6922  -25.6287   21.1252 H   0  0  0  0  0  0
  -19.6697  -27.3182   20.6738 H   0  0  0  0  0  0
  -17.4212  -26.6684   21.4014 H   0  0  0  0  0  0
  -18.0325  -26.0068   22.9009 H   0  0  0  0  0  0
  -19.7945  -30.7273   24.2261 H   0  0  0  0  0  0
  -17.5020  -31.6264   24.5163 H   0  0  0  0  0  0
  -15.5358  -30.2977   23.7654 H   0  0  0  0  0  0
  -15.8684  -28.0805   22.7080 H   0  0  0  0  0  0
  -24.5907  -30.7085   25.7783 H   0  0  0  0  0  0
  -24.8912  -32.2924   26.4829 H   0  0  0  0  0  0
  -25.8038  -30.8960   27.0240 H   0  0  0  0  0  0
  -26.2938  -29.6727   24.1246 H   0  0  0  0  0  0
  -27.4004  -29.7252   25.4767 H   0  0  0  0  0  0
  -27.8833  -30.4236   23.9496 H   0  0  0  0  0  0
  -27.2658  -33.3630   26.2052 H   0  0  0  0  0  0
  -28.3871  -32.6882   25.0321 H   0  0  0  0  0  0
  -28.0725  -31.8467   26.5421 H   0  0  0  0  0  0
  -28.2596  -38.0093   24.7511 H   0  0  0  0  0  0
  -28.1082  -36.2624   24.6280 H   0  0  0  0  0  0
  -27.2307  -37.1436   25.8866 H   0  0  0  0  0  0
  -20.9406  -29.8764   21.6850 H   0  0  0  0  0  0
  -26.0168  -38.2837   24.1410 H   0  0  0  0  0  0
  -27.1583  -20.4529   19.8096 H   0  0  0  0  0  0
  -26.6387  -22.8554   19.5156 H   0  0  0  0  0  0
  -30.3530  -18.9996   22.3876 H   0  0  0  0  0  0
  -28.7865  -18.3128   22.1024 H   0  0  0  0  0  0
  -27.9047  -18.0422   19.8215 H   0  0  0  0  0  0
  -28.8240  -18.5528   18.4377 H   0  0  0  0  0  0
  -30.4081  -16.5015   22.5743 H   0  0  0  0  0  0
  -31.5183  -17.1106   21.3879 H   0  0  0  0  0  0
  -30.5096  -16.8142   18.7556 H   0  0  0  0  0  0
  -28.9438  -16.0737   18.7327 H   0  0  0  0  0  0
  -30.7087  -19.1932   19.9136 H   0  0  0  0  0  0
  -31.6380  -20.9628   21.8459 H   0  0  0  0  0  0
  -32.1405  -22.4797   21.1130 H   0  0  0  0  0  0
  -32.1223  -21.0125   20.1447 H   0  0  0  0  0  0
  -27.6746  -25.0132   18.6301 H   0  0  0  0  0  0
  -29.3301  -25.2365   18.8343 H   0  0  0  0  0  0
  1 25  1  0  0  0
  1 30  2  0  0  0
  1 84  1  0  0  0
  2  3  1  0  0  0
  2 25  1  0  0  0
  2 85  1  0  0  0
  2 86  1  0  0  0
  3  4  1  0  0  0
  3 87  1  0  0  0
  3 88  1  0  0  0
  4  5  1  0  0  0
  4 89  1  0  0  0
  4 90  1  0  0  0
  5  6  1  0  0  0
  5 26  1  0  0  0
  5 91  1  0  0  0
  6 25  1  0  0  0
  6 92  1  0  0  0
  6 93  1  0  0  0
  7  8  2  0  0  0
  7 26  1  0  0  0
  7 29  1  0  0  0
  8  9  1  0  0  0
  8 22  1  0  0  0
  9 10  1  0  0  0
  9 27  2  0  0  0
 10 11  2  0  0  0
 10 15  1  0  0  0
 11 12  1  0  0  0
 11 94  1  0  0  0
 12 13  2  0  0  0
 12 95  1  0  0  0
 13 14  1  0  0  0
 13 31  1  0  0  0
 14 15  2  0  0  0
 14 96  1  0  0  0
 15 97  1  0  0  0
 16 17  2  0  0  0
 16 21  1  0  0  0
 16 31  1  0  0  0
 17 18  1  0  0  0
 17 98  1  0  0  0
 18 19  2  0  0  0
 18 99  1  0  0  0
 19 20  1  0  0  0
 19 24  1  0  0  0
 20 21  2  0  0  0
 20100  1  0  0  0
 21 23  1  0  0  0
 22 28  1  0  0  0
 22 32  2  0  0  0
 26 27  1  0  0  0
 28101  1  0  0  0
 28102  1  0  0  0
 29103  1  0  0  0
 29104  1  0  0  0
 33 34  1  0  0  0
 33 66  1  0  0  0
 33 70  2  0  0  0
 34 36  1  0  0  0
 34 59  1  0  0  0
 34105  1  0  0  0
 35 44  2  0  0  0
 35 45  1  0  0  0
 35 68  1  0  0  0
 36 56  1  0  0  0
 36106  1  0  0  0
 37 39  1  0  0  0
 37 47  1  0  0  0
 37 66  1  0  0  0
 37107  1  0  0  0
 38 43  2  0  0  0
 38 46  1  0  0  0
 38 47  1  0  0  0
 39 64  1  0  0  0
 39 67  2  0  0  0
 40 52  1  0  0  0
 40 53  2  0  0  0
 40 58  1  0  0  0
 41108  1  0  0  0
 41109  1  0  0  0
 41110  1  0  0  0
 41 48  1  0  0  0
 42 43  1  0  0  0
 42 66  1  0  0  0
 42111  1  0  0  0
 42112  1  0  0  0
 43 44  1  0  0  0
 44113  1  0  0  0
 45 46  2  0  0  0
 45114  1  0  0  0
 46115  1  0  0  0
 47116  1  0  0  0
 47117  1  0  0  0
 48 56  1  0  0  0
 48 65  1  0  0  0
 48118  1  0  0  0
 49 50  1  0  0  0
 49 53  1  0  0  0
 49 64  1  0  0  0
 49119  1  0  0  0
 50 51  1  0  0  0
 50120  1  0  0  0
 50121  1  0  0  0
 51 52  1  0  0  0
 51122  1  0  0  0
 51123  1  0  0  0
 52124  1  0  0  0
 52125  1  0  0  0
 53 54  1  0  0  0
 54 55  2  0  0  0
 54126  1  0  0  0
 55 57  1  0  0  0
 55127  1  0  0  0
 56 69  2  0  0  0
 57 58  2  0  0  0
 57128  1  0  0  0
 58129  1  0  0  0
 59 60  1  0  0  0
 59 61  1  0  0  0
 59 62  1  0  0  0
 60130  1  0  0  0
 60131  1  0  0  0
 60132  1  0  0  0
 61133  1  0  0  0
 61134  1  0  0  0
 61135  1  0  0  0
 62136  1  0  0  0
 62137  1  0  0  0
 62138  1  0  0  0
 63 65  1  0  0  0
 63139  1  0  0  0
 63140  1  0  0  0
 63141  1  0  0  0
 64142  1  0  0  0
 65143  1  0  0  0
 68 82  1  0  0  0
 71 72  2  0  0  0
 71 73  1  0  0  0
 71144  1  0  0  0
 72 74  1  0  0  0
 72145  1  0  0  0
 73 75  2  0  0  0
 73 80  1  0  0  0
 74 82  1  0  0  0
 74 83  2  0  0  0
 75 81  1  0  0  0
 75 83  1  0  0  0
 76 78  1  0  0  0
 76 80  1  0  0  0
 76146  1  0  0  0
 76147  1  0  0  0
 77 79  1  0  0  0
 77 80  1  0  0  0
 77148  1  0  0  0
 77149  1  0  0  0
 78 84  1  0  0  0
 78150  1  0  0  0
 78151  1  0  0  0
 79 84  1  0  0  0
 79152  1  0  0  0
 79153  1  0  0  0
 80154  1  0  0  0
 81155  1  0  0  0
 81156  1  0  0  0
 81157  1  0  0  0
 82158  1  0  0  0
 82159  1  0  0  0
M  ISO  4   1 100  68 101  82 101  84 100
M  END
> <chiral flag>
0

> <version>
0

> <s_m_source_file>
/data/baiqing/PycharmProjects/Reinvent-master-3.2/result/LINK_invent/BTK/process_docking_weight1_custom_sum_contain_oxygen_bond_distance_aromatic_linkinvent_7_9_3/rearranged_h_0174.sdf

> <i_m_source_file_index>
54

> <r_mmod_Potential_Energy-OPLS-2005>
311.954803466797

> <r_mmod_Stretch_Energy-OPLS-2005>
127.127151489258

> <r_mmod_Bend_Energy-OPLS-2005>
211.47492980957

> <r_mmod_Torsional_Energy-OPLS-2005>
338.107116699219

> <r_mmod_Improper_Torsional_Energy-OPLS-2005>
12.5779695510864

> <r_mmod_Van_der_Waal_Energy-OPLS-2005>
142.490341186523

> <r_mmod_Electrostatic_Energy-OPLS-2005>
-402.995819091797

> <r_mmod_Solvation_Energy-OPLS-2005>
-211.911102294922

> <b_mmod_Minimization_Converged-OPLS-2005>
0

> <r_mmod_RMS_Derivative-OPLS-2005>
0.80046409368515

$$$$
56
                    3D
 Structure written by MMmdl.
170179  0  0  1  0            999 V2000
  -30.6624  -14.5912   20.5050 C   0  0  0  0  0  0
  -30.4255  -12.3651   19.4459 C   0  0  0  0  0  0
  -29.5009  -12.5002   18.2171 C   0  0  0  0  0  0
  -28.0215  -12.3517   18.6275 C   0  0  0  0  0  0
  -27.6510  -13.2151   19.8637 C   0  0  2  0  0  0
  -28.6957  -13.0522   20.9886 C   0  0  0  0  0  0
  -25.2548  -13.8166   20.5689 C   0  0  0  0  0  0
  -24.1813  -13.0437   20.9190 C   0  0  0  0  0  0
  -24.6379  -11.6906   20.8740 C   0  0  0  0  0  0
  -23.9047  -10.4293   21.0409 C   0  0  0  0  0  0
  -24.3601   -9.4209   21.9188 C   0  0  0  0  0  0
  -23.6282   -8.2240   22.0756 C   0  0  0  0  0  0
  -22.4266   -8.0274   21.3542 C   0  0  0  0  0  0
  -21.9894   -9.0250   20.4653 C   0  0  0  0  0  0
  -22.7219  -10.2133   20.3062 C   0  0  0  0  0  0
  -21.6851   -6.0724   22.5273 C   0  0  0  0  0  0
  -21.4018   -6.5630   23.8206 C   0  0  0  0  0  0
  -21.3665   -5.6786   24.9170 C   0  0  0  0  0  0
  -21.6047   -4.3047   24.7225 C   0  0  0  0  0  0
  -21.8821   -3.8137   23.4347 C   0  0  0  0  0  0
  -21.9193   -4.6952   22.3401 C   0  0  0  0  0  0
  -22.7837  -13.5234   21.1849 C   0  0  0  0  0  0
  -22.1663   -4.2139   21.0978 F   0  0  0  0  0  0
  -21.5629   -3.4533   25.7739 F   0  0  0  0  0  0
  -30.0076  -13.3909   20.4214 N   0  0  0  0  0  0
  -26.2974  -12.9347   20.3329 N   0  0  0  0  0  0
  -25.9307  -11.6502   20.5751 N   0  0  0  0  0  0
  -22.0477  -12.8237   22.0416 N   0  0  0  0  0  0
  -25.4257  -15.1883   20.4094 N   0  0  0  0  0  0
  -31.8403  -14.6885   20.1455 O   0  0  0  0  0  0
  -21.6636   -6.8866   21.4235 O   0  0  0  0  0  0
  -22.3528  -14.5540   20.6694 O   0  0  0  0  0  0
  -24.6216  -31.8625   23.2055 C   0  0  0  0  0  0
  -25.9082  -32.4790   23.8367 C   0  0  1  0  0  0
  -27.2269  -27.3601   20.0971 C   0  0  0  0  0  0
  -25.5914  -33.8591   24.2294 N   0  0  0  0  0  0
  -23.4116  -30.4868   21.5480 C   0  0  2  0  0  0
  -24.8552  -28.9456   20.1119 C   0  0  0  0  0  0
  -22.7443  -29.4633   22.4961 C   0  0  0  0  0  0
  -18.0279  -28.1380   22.8483 C   0  0  0  0  0  0
  -24.1488  -36.7302   23.2638 C   0  0  0  0  0  0
  -25.9486  -30.8043   21.3701 C   0  0  0  0  0  0
  -26.0209  -29.4348   20.7122 C   0  0  0  0  0  0
  -27.2050  -28.6493   20.7019 C   0  0  0  0  0  0
  -26.0283  -26.8986   19.5039 C   0  0  0  0  0  0
  -24.8573  -27.6797   19.5060 C   0  0  0  0  0  0
  -23.6224  -29.8224   20.1620 C   0  0  0  0  0  0
  -25.4110  -36.3089   24.0332 C   0  0  1  0  0  0
  -20.5875  -28.3673   23.1301 C   0  0  2  0  0  0
  -20.6768  -26.9400   22.5420 C   0  0  0  0  0  0
  -19.5752  -26.6380   21.5212 C   0  0  0  0  0  0
  -18.1926  -26.7925   22.1615 C   0  0  0  0  0  0
  -19.1529  -28.8844   23.2890 C   0  0  0  0  0  0
  -18.9456  -30.1447   23.8903 C   0  0  0  0  0  0
  -17.6454  -30.6583   24.0564 C   0  0  0  0  0  0
  -25.9042  -34.9458   23.5112 C   0  0  0  0  0  0
  -16.5346  -29.9079   23.6329 C   0  0  0  0  0  0
  -16.7268  -28.6500   23.0345 C   0  0  0  0  0  0
  -26.4484  -31.6591   25.0725 C   0  0  0  0  0  0
  -25.3733  -31.3735   26.1470 C   0  0  0  0  0  0
  -27.0311  -30.3013   24.6157 C   0  0  0  0  0  0
  -27.6057  -32.4319   25.7481 C   0  0  0  0  0  0
  -27.5584  -37.1799   24.8460 C   0  0  0  0  0  0
  -21.4163  -29.3029   22.3701 N   0  0  0  0  0  0
  -26.4290  -37.3781   23.9411 N   0  0  0  0  0  0
  -24.6791  -31.0673   22.0986 N   0  0  0  0  0  0
  -23.4187  -28.8176   23.3028 O   0  0  0  0  0  0
  -28.3843  -26.5825   20.1528 O   0  0  0  0  0  0
  -26.5606  -34.8922   22.4674 O   0  0  0  0  0  0
  -23.5393  -32.1407   23.7415 O   0  0  0  0  0  0
  -30.1490  -22.4925   21.4117 C   0  0  0  0  0  0
  -29.8624  -23.8119   20.9685 C   0  0  0  0  0  0
  -28.8467  -24.0062   19.9900 C   0  0  0  0  0  0
  -28.2073  -22.8123   19.5274 C   0  0  0  0  0  0
  -29.4859  -21.3752   20.8715 C   0  0  0  0  0  0
  -29.4320  -17.7183   22.0257 C   0  0  0  0  0  0
  -30.2958  -18.1473   19.7556 C   0  0  0  0  0  0
  -29.0963  -16.2428   21.6370 C   0  0  0  0  0  0
  -29.9144  -16.6860   19.3683 C   0  0  0  0  0  0
  -29.3971  -18.7469   20.8605 C   0  0  0  0  0  0
  -27.1203  -22.8516   18.4683 C   0  0  0  0  0  0
  -32.1933  -24.7163   21.4801 C   0  0  0  0  0  0
  -30.2217  -25.2904   22.9803 C   0  0  0  0  0  0
  -28.5731  -25.3990   19.3160 C   0  0  0  0  0  0
  -30.6772  -24.9705   21.5496 C   0  0  0  0  0  0
  -28.5185  -21.5484   19.9487 N   0  0  0  0  0  0
  -29.8785  -15.7232   20.4971 N   0  0  0  0  0  0
  -29.8586  -20.0806   21.3195 N   0  0  0  0  0  0
  -31.4689  -12.4708   19.1436 H   0  0  0  0  0  0
  -30.3441  -11.3687   19.8825 H   0  0  0  0  0  0
  -29.7574  -11.7500   17.4678 H   0  0  0  0  0  0
  -29.6562  -13.4708   17.7430 H   0  0  0  0  0  0
  -27.8472  -11.2978   18.8482 H   0  0  0  0  0  0
  -27.3700  -12.5979   17.7882 H   0  0  0  0  0  0
  -27.6735  -14.2537   19.5344 H   0  0  0  0  0  0
  -28.7014  -12.0257   21.3581 H   0  0  0  0  0  0
  -28.4444  -13.6687   21.8489 H   0  0  0  0  0  0
  -25.2752   -9.5686   22.4756 H   0  0  0  0  0  0
  -23.9996   -7.4632   22.7473 H   0  0  0  0  0  0
  -21.0824   -8.8768   19.8961 H   0  0  0  0  0  0
  -22.3679  -10.9666   19.6165 H   0  0  0  0  0  0
  -21.2014   -7.6140   23.9703 H   0  0  0  0  0  0
  -21.1487   -6.0519   25.9070 H   0  0  0  0  0  0
  -22.0598   -2.7600   23.2849 H   0  0  0  0  0  0
  -22.4081  -11.9901   22.4814 H   0  0  0  0  0  0
  -21.1100  -13.1274   22.2623 H   0  0  0  0  0  0
  -24.6607  -15.8444   20.5227 H   0  0  0  0  0  0
  -26.2783  -15.6247   20.0833 H   0  0  0  0  0  0
  -26.7147  -32.5466   23.1115 H   0  0  0  0  0  0
  -25.0067  -33.9740   25.0443 H   0  0  0  0  0  0
  -22.7027  -31.3059   21.4085 H   0  0  0  0  0  0
  -23.3750  -35.9634   23.3299 H   0  0  0  0  0  0
  -24.3585  -36.8921   22.2054 H   0  0  0  0  0  0
  -23.7244  -37.6506   23.6659 H   0  0  0  0  0  0
  -26.0760  -31.5699   20.6035 H   0  0  0  0  0  0
  -26.8307  -30.8509   21.9969 H   0  0  0  0  0  0
  -28.1026  -29.0220   21.1753 H   0  0  0  0  0  0
  -25.9496  -25.9177   19.0639 H   0  0  0  0  0  0
  -23.9559  -27.2897   19.0534 H   0  0  0  0  0  0
  -23.7391  -30.5993   19.4056 H   0  0  0  0  0  0
  -22.7426  -29.2501   19.8620 H   0  0  0  0  0  0
  -25.1288  -36.1944   25.0825 H   0  0  0  0  0  0
  -20.9963  -28.3248   24.1425 H   0  0  0  0  0  0
  -20.5662  -26.2281   23.3614 H   0  0  0  0  0  0
  -21.6643  -26.7433   22.1224 H   0  0  0  0  0  0
  -19.6913  -25.6290   21.1241 H   0  0  0  0  0  0
  -19.6699  -27.3193   20.6745 H   0  0  0  0  0  0
  -17.4202  -26.6680   21.4010 H   0  0  0  0  0  0
  -18.0317  -26.0063   22.9005 H   0  0  0  0  0  0
  -19.7932  -30.7260   24.2275 H   0  0  0  0  0  0
  -17.5011  -31.6262   24.5162 H   0  0  0  0  0  0
  -15.5346  -30.2980   23.7654 H   0  0  0  0  0  0
  -15.8670  -28.0821   22.7052 H   0  0  0  0  0  0
  -24.5907  -30.7072   25.7826 H   0  0  0  0  0  0
  -24.8922  -32.2902   26.4890 H   0  0  0  0  0  0
  -25.8073  -30.8934   27.0250 H   0  0  0  0  0  0
  -26.2868  -29.6777   24.1190 H   0  0  0  0  0  0
  -27.4022  -29.7258   25.4649 H   0  0  0  0  0  0
  -27.8736  -30.4303   23.9359 H   0  0  0  0  0  0
  -27.2676  -33.3611   26.2082 H   0  0  0  0  0  0
  -28.3846  -32.6892   25.0290 H   0  0  0  0  0  0
  -28.0751  -31.8431   26.5374 H   0  0  0  0  0  0
  -28.2601  -38.0096   24.7507 H   0  0  0  0  0  0
  -28.1075  -36.2628   24.6270 H   0  0  0  0  0  0
  -27.2310  -37.1443   25.8866 H   0  0  0  0  0  0
  -20.9329  -29.8750   21.6920 H   0  0  0  0  0  0
  -26.0175  -38.2856   24.1415 H   0  0  0  0  0  0
  -30.9115  -22.3418   22.1627 H   0  0  0  0  0  0
  -30.4249  -17.7246   22.4790 H   0  0  0  0  0  0
  -28.7468  -18.0389   22.8117 H   0  0  0  0  0  0
  -30.2480  -18.7791   18.8678 H   0  0  0  0  0  0
  -31.3376  -18.1612   20.0803 H   0  0  0  0  0  0
  -28.0385  -16.1661   21.3857 H   0  0  0  0  0  0
  -29.2517  -15.6166   22.5163 H   0  0  0  0  0  0
  -30.5915  -16.3378   18.5855 H   0  0  0  0  0  0
  -28.9245  -16.6868   18.9107 H   0  0  0  0  0  0
  -28.3747  -18.8358   20.4898 H   0  0  0  0  0  0
  -26.3125  -23.5175   18.7705 H   0  0  0  0  0  0
  -26.6839  -21.8660   18.3008 H   0  0  0  0  0  0
  -27.5241  -23.1987   17.5172 H   0  0  0  0  0  0
  -32.5021  -24.4915   20.4589 H   0  0  0  0  0  0
  -32.5073  -23.8876   22.1138 H   0  0  0  0  0  0
  -32.7502  -25.5962   21.8024 H   0  0  0  0  0  0
  -29.1589  -25.5338   23.0027 H   0  0  0  0  0  0
  -30.7636  -26.1445   23.3866 H   0  0  0  0  0  0
  -30.3825  -24.4441   23.6486 H   0  0  0  0  0  0
  -27.8421  -25.3242   18.5179 H   0  0  0  0  0  0
  -29.4866  -25.6108   18.7600 H   0  0  0  0  0  0
  -30.5200  -25.8653   20.9537 H   0  0  0  0  0  0
  -30.5715  -20.0614   22.0398 H   0  0  0  0  0  0
  1 25  1  0  0  0
  1 30  2  0  0  0
  1 87  1  0  0  0
  2  3  1  0  0  0
  2 25  1  0  0  0
  2 89  1  0  0  0
  2 90  1  0  0  0
  3  4  1  0  0  0
  3 91  1  0  0  0
  3 92  1  0  0  0
  4  5  1  0  0  0
  4 93  1  0  0  0
  4 94  1  0  0  0
  5  6  1  0  0  0
  5 26  1  0  0  0
  5 95  1  0  0  0
  6 25  1  0  0  0
  6 96  1  0  0  0
  6 97  1  0  0  0
  7  8  2  0  0  0
  7 26  1  0  0  0
  7 29  1  0  0  0
  8  9  1  0  0  0
  8 22  1  0  0  0
  9 10  1  0  0  0
  9 27  2  0  0  0
 10 11  2  0  0  0
 10 15  1  0  0  0
 11 12  1  0  0  0
 11 98  1  0  0  0
 12 13  2  0  0  0
 12 99  1  0  0  0
 13 14  1  0  0  0
 13 31  1  0  0  0
 14 15  2  0  0  0
 14100  1  0  0  0
 15101  1  0  0  0
 16 17  2  0  0  0
 16 21  1  0  0  0
 16 31  1  0  0  0
 17 18  1  0  0  0
 17102  1  0  0  0
 18 19  2  0  0  0
 18103  1  0  0  0
 19 20  1  0  0  0
 19 24  1  0  0  0
 20 21  2  0  0  0
 20104  1  0  0  0
 21 23  1  0  0  0
 22 28  1  0  0  0
 22 32  2  0  0  0
 26 27  1  0  0  0
 28105  1  0  0  0
 28106  1  0  0  0
 29107  1  0  0  0
 29108  1  0  0  0
 33 34  1  0  0  0
 33 66  1  0  0  0
 33 70  2  0  0  0
 34 36  1  0  0  0
 34 59  1  0  0  0
 34109  1  0  0  0
 35 44  2  0  0  0
 35 45  1  0  0  0
 35 68  1  0  0  0
 36 56  1  0  0  0
 36110  1  0  0  0
 37 39  1  0  0  0
 37 47  1  0  0  0
 37 66  1  0  0  0
 37111  1  0  0  0
 38 43  2  0  0  0
 38 46  1  0  0  0
 38 47  1  0  0  0
 39 64  1  0  0  0
 39 67  2  0  0  0
 40 52  1  0  0  0
 40 53  2  0  0  0
 40 58  1  0  0  0
 41112  1  0  0  0
 41113  1  0  0  0
 41114  1  0  0  0
 41 48  1  0  0  0
 42 43  1  0  0  0
 42 66  1  0  0  0
 42115  1  0  0  0
 42116  1  0  0  0
 43 44  1  0  0  0
 44117  1  0  0  0
 45 46  2  0  0  0
 45118  1  0  0  0
 46119  1  0  0  0
 47120  1  0  0  0
 47121  1  0  0  0
 48 56  1  0  0  0
 48 65  1  0  0  0
 48122  1  0  0  0
 49 50  1  0  0  0
 49 53  1  0  0  0
 49 64  1  0  0  0
 49123  1  0  0  0
 50 51  1  0  0  0
 50124  1  0  0  0
 50125  1  0  0  0
 51 52  1  0  0  0
 51126  1  0  0  0
 51127  1  0  0  0
 52128  1  0  0  0
 52129  1  0  0  0
 53 54  1  0  0  0
 54 55  2  0  0  0
 54130  1  0  0  0
 55 57  1  0  0  0
 55131  1  0  0  0
 56 69  2  0  0  0
 57 58  2  0  0  0
 57132  1  0  0  0
 58133  1  0  0  0
 59 60  1  0  0  0
 59 61  1  0  0  0
 59 62  1  0  0  0
 60134  1  0  0  0
 60135  1  0  0  0
 60136  1  0  0  0
 61137  1  0  0  0
 61138  1  0  0  0
 61139  1  0  0  0
 62140  1  0  0  0
 62141  1  0  0  0
 62142  1  0  0  0
 63 65  1  0  0  0
 63143  1  0  0  0
 63144  1  0  0  0
 63145  1  0  0  0
 64146  1  0  0  0
 65147  1  0  0  0
 68 84  1  0  0  0
 71 72  2  0  0  0
 71 75  1  0  0  0
 71148  1  0  0  0
 72 73  1  0  0  0
 72 85  1  0  0  0
 73 74  2  0  0  0
 73 84  1  0  0  0
 74 81  1  0  0  0
 74 86  1  0  0  0
 75 86  2  0  0  0
 75 88  1  0  0  0
 76 78  1  0  0  0
 76 80  1  0  0  0
 76149  1  0  0  0
 76150  1  0  0  0
 77 79  1  0  0  0
 77 80  1  0  0  0
 77151  1  0  0  0
 77152  1  0  0  0
 78 87  1  0  0  0
 78153  1  0  0  0
 78154  1  0  0  0
 79 87  1  0  0  0
 79155  1  0  0  0
 79156  1  0  0  0
 80 88  1  0  0  0
 80157  1  0  0  0
 81158  1  0  0  0
 81159  1  0  0  0
 81160  1  0  0  0
 82161  1  0  0  0
 82162  1  0  0  0
 82163  1  0  0  0
 82 85  1  0  0  0
 83 85  1  0  0  0
 83164  1  0  0  0
 83165  1  0  0  0
 83166  1  0  0  0
 84167  1  0  0  0
 84168  1  0  0  0
 85169  1  0  0  0
 88170  1  0  0  0
M  ISO  4   1 100  68 101  84 101  87 100
M  END
> <chiral flag>
0

> <version>
0

> <s_m_source_file>
/data/baiqing/PycharmProjects/Reinvent-master-3.2/result/LINK_invent/BTK/process_docking_weight1_custom_sum_contain_oxygen_bond_distance_aromatic_linkinvent_7_9_3/rearranged_h_0174.sdf

> <i_m_source_file_index>
55

> <r_mmod_Potential_Energy-OPLS-2005>
12.4365882873535

> <r_mmod_Stretch_Energy-OPLS-2005>
62.8572158813477

> <r_mmod_Bend_Energy-OPLS-2005>
158.703643798828

> <r_mmod_Torsional_Energy-OPLS-2005>
320.768341064453

> <r_mmod_Improper_Torsional_Energy-OPLS-2005>
16.9927730560303

> <r_mmod_Van_der_Waal_Energy-OPLS-2005>
150.652130126953

> <r_mmod_Electrostatic_Energy-OPLS-2005>
-513.307861328125

> <r_mmod_Solvation_Energy-OPLS-2005>
-217.462829589844

> <b_mmod_Minimization_Converged-OPLS-2005>
0

> <r_mmod_RMS_Derivative-OPLS-2005>
0.825533747673035

$$$$
57
                    3D
 Structure written by MMmdl.
164173  0  0  1  0            999 V2000
  -30.5949  -14.7660   20.4747 C   0  0  0  0  0  0
  -30.4407  -12.4715   19.4722 C   0  0  0  0  0  0
  -29.5178  -12.5237   18.2371 C   0  0  0  0  0  0
  -28.0404  -12.3548   18.6419 C   0  0  0  0  0  0
  -27.6460  -13.2283   19.8648 C   0  0  2  0  0  0
  -28.6946  -13.1187   20.9902 C   0  0  0  0  0  0
  -25.2513  -13.8165   20.5696 C   0  0  0  0  0  0
  -24.1799  -13.0439   20.9198 C   0  0  0  0  0  0
  -24.6370  -11.6904   20.8699 C   0  0  0  0  0  0
  -23.9020  -10.4296   21.0378 C   0  0  0  0  0  0
  -24.3556   -9.4206   21.9170 C   0  0  0  0  0  0
  -23.6231   -8.2242   22.0743 C   0  0  0  0  0  0
  -22.4219   -8.0267   21.3538 C   0  0  0  0  0  0
  -21.9860   -9.0231   20.4631 C   0  0  0  0  0  0
  -22.7181  -10.2119   20.3036 C   0  0  0  0  0  0
  -21.6854   -6.0710   22.5276 C   0  0  0  0  0  0
  -21.4031   -6.5612   23.8207 C   0  0  0  0  0  0
  -21.3668   -5.6768   24.9168 C   0  0  0  0  0  0
  -21.6027   -4.3030   24.7222 C   0  0  0  0  0  0
  -21.8811   -3.8120   23.4348 C   0  0  0  0  0  0
  -21.9199   -4.6937   22.3402 C   0  0  0  0  0  0
  -22.7804  -13.5207   21.1844 C   0  0  0  0  0  0
  -22.1656   -4.2109   21.0977 F   0  0  0  0  0  0
  -21.5613   -3.4516   25.7741 F   0  0  0  0  0  0
  -29.9828  -13.5240   20.4126 N   0  0  0  0  0  0
  -26.2953  -12.9371   20.3341 N   0  0  0  0  0  0
  -25.9310  -11.6515   20.5747 N   0  0  0  0  0  0
  -22.0442  -12.8223   22.0395 N   0  0  0  0  0  0
  -25.4192  -15.1889   20.4029 N   0  0  0  0  0  0
  -31.7718  -14.8582   20.1040 O   0  0  0  0  0  0
  -21.6624   -6.8846   21.4231 O   0  0  0  0  0  0
  -22.3494  -14.5511   20.6685 O   0  0  0  0  0  0
  -24.6286  -31.8521   23.1989 C   0  0  0  0  0  0
  -25.9083  -32.4759   23.8321 C   0  0  1  0  0  0
  -27.2291  -27.2615   20.1109 C   0  0  0  0  0  0
  -25.5855  -33.8566   24.2237 N   0  0  0  0  0  0
  -23.4317  -30.4708   21.5380 C   0  0  2  0  0  0
  -24.8801  -28.9180   20.1037 C   0  0  0  0  0  0
  -22.7496  -29.4582   22.4900 C   0  0  0  0  0  0
  -18.0288  -28.1354   22.8490 C   0  0  0  0  0  0
  -24.1482  -36.7333   23.2642 C   0  0  0  0  0  0
  -25.9757  -30.7643   21.3786 C   0  0  0  0  0  0
  -26.0490  -29.3876   20.7151 C   0  0  0  0  0  0
  -27.2225  -28.5685   20.7068 C   0  0  0  0  0  0
  -26.0413  -26.8626   19.4577 C   0  0  0  0  0  0
  -24.8834  -27.6701   19.4599 C   0  0  0  0  0  0
  -23.6493  -29.8021   20.1537 C   0  0  0  0  0  0
  -25.4105  -36.3088   24.0314 C   0  0  1  0  0  0
  -20.5887  -28.3664   23.1297 C   0  0  2  0  0  0
  -20.6769  -26.9386   22.5403 C   0  0  0  0  0  0
  -19.5752  -26.6369   21.5197 C   0  0  0  0  0  0
  -18.1934  -26.7911   22.1604 C   0  0  0  0  0  0
  -19.1530  -28.8829   23.2887 C   0  0  0  0  0  0
  -18.9443  -30.1433   23.8900 C   0  0  0  0  0  0
  -17.6437  -30.6571   24.0554 C   0  0  0  0  0  0
  -25.9023  -34.9446   23.5094 C   0  0  0  0  0  0
  -16.5336  -29.9071   23.6323 C   0  0  0  0  0  0
  -16.7273  -28.6471   23.0373 C   0  0  0  0  0  0
  -26.4460  -31.6604   25.0714 C   0  0  0  0  0  0
  -25.3679  -31.3729   26.1426 C   0  0  0  0  0  0
  -27.0337  -30.3013   24.6264 C   0  0  0  0  0  0
  -27.6008  -32.4380   25.7456 C   0  0  0  0  0  0
  -27.5610  -37.1815   24.8465 C   0  0  0  0  0  0
  -21.4188  -29.3038   22.3665 N   0  0  0  0  0  0
  -26.4320  -37.3761   23.9402 N   0  0  0  0  0  0
  -24.6977  -31.0485   22.0951 N   0  0  0  0  0  0
  -23.4194  -28.8156   23.3020 O   0  0  0  0  0  0
  -28.3369  -26.3918   20.2301 O   0  0  0  0  0  0
  -26.5630  -34.8916   22.4686 O   0  0  0  0  0  0
  -23.5429  -32.1338   23.7284 O   0  0  0  0  0  0
  -26.8265  -23.4026   20.3912 C   0  0  0  0  0  0
  -28.1705  -23.6420   20.0936 C   0  0  0  0  0  0
  -29.0318  -22.4531   20.1627 C   0  0  0  0  0  0
  -28.5124  -21.0907   20.4056 C   0  0  0  0  0  0
  -27.0935  -21.0771   20.5965 C   0  0  0  0  0  0
  -28.9215  -17.7874   21.9125 C   0  0  0  0  0  0
  -28.9397  -16.2468   21.7315 C   0  0  0  0  0  0
  -30.0757  -17.2936   19.9669 C   0  0  0  0  0  0
  -29.0308  -18.3836   20.5017 C   0  0  2  0  0  0
  -26.2524  -19.8320   20.7966 C   0  0  0  0  0  0
  -30.5324  -22.6289   19.9603 C   0  0  0  0  0  0
  -28.5245  -25.0927   19.5046 C   0  0  0  0  0  0
  -26.3176  -22.1819   20.6237 N   0  0  0  0  0  0
  -29.8170  -15.9304   20.5960 N   0  0  0  0  0  0
  -29.3600  -19.8824   20.4442 N   0  0  0  0  0  0
  -30.9284  -22.2603   18.5956 N   0  3  0  0  0  0
  -31.4789  -12.6100   19.1628 H   0  0  0  0  0  0
  -30.4043  -11.4851   19.9381 H   0  0  0  0  0  0
  -29.7966  -11.7470   17.5255 H   0  0  0  0  0  0
  -29.6534  -13.4784   17.7296 H   0  0  0  0  0  0
  -27.8888  -11.2997   18.8703 H   0  0  0  0  0  0
  -27.3896  -12.5795   17.7963 H   0  0  0  0  0  0
  -27.6512  -14.2614   19.5194 H   0  0  0  0  0  0
  -28.7447  -12.0941   21.3618 H   0  0  0  0  0  0
  -28.4253  -13.7245   21.8512 H   0  0  0  0  0  0
  -25.2708   -9.5667   22.4736 H   0  0  0  0  0  0
  -23.9934   -7.4626   22.7446 H   0  0  0  0  0  0
  -21.0806   -8.8716   19.8924 H   0  0  0  0  0  0
  -22.3624  -10.9628   19.6117 H   0  0  0  0  0  0
  -21.2052   -7.6115   23.9694 H   0  0  0  0  0  0
  -21.1495   -6.0513   25.9064 H   0  0  0  0  0  0
  -22.0591   -2.7579   23.2871 H   0  0  0  0  0  0
  -22.4059  -11.9900   22.4840 H   0  0  0  0  0  0
  -21.1046  -13.1226   22.2523 H   0  0  0  0  0  0
  -24.6536  -15.8461   20.5050 H   0  0  0  0  0  0
  -26.2669  -15.6179   20.0549 H   0  0  0  0  0  0
  -26.7163  -32.5396   23.1065 H   0  0  0  0  0  0
  -24.9937  -33.9720   25.0331 H   0  0  0  0  0  0
  -22.7278  -31.2919   21.3898 H   0  0  0  0  0  0
  -23.3758  -35.9659   23.3277 H   0  0  0  0  0  0
  -24.3574  -36.9008   22.2081 H   0  0  0  0  0  0
  -23.7262  -37.6521   23.6690 H   0  0  0  0  0  0
  -26.1129  -31.5297   20.6135 H   0  0  0  0  0  0
  -26.8530  -30.8127   22.0147 H   0  0  0  0  0  0
  -28.1240  -28.9222   21.1906 H   0  0  0  0  0  0
  -25.9822  -25.9087   18.9571 H   0  0  0  0  0  0
  -23.9872  -27.3216   18.9652 H   0  0  0  0  0  0
  -23.7735  -30.5721   19.3902 H   0  0  0  0  0  0
  -22.7702  -29.2278   19.8564 H   0  0  0  0  0  0
  -25.1291  -36.1943   25.0813 H   0  0  0  0  0  0
  -20.9928  -28.3218   24.1443 H   0  0  0  0  0  0
  -20.5638  -26.2237   23.3559 H   0  0  0  0  0  0
  -21.6643  -26.7394   22.1217 H   0  0  0  0  0  0
  -19.6873  -25.6272   21.1256 H   0  0  0  0  0  0
  -19.6732  -27.3138   20.6699 H   0  0  0  0  0  0
  -17.4185  -26.6654   21.4021 H   0  0  0  0  0  0
  -18.0345  -26.0037   22.8982 H   0  0  0  0  0  0
  -19.7923  -30.7244   24.2282 H   0  0  0  0  0  0
  -17.5008  -31.6265   24.5128 H   0  0  0  0  0  0
  -15.5341  -30.2986   23.7674 H   0  0  0  0  0  0
  -15.8651  -28.0812   22.7117 H   0  0  0  0  0  0
  -24.5838  -30.7089   25.7752 H   0  0  0  0  0  0
  -24.8859  -32.2877   26.4872 H   0  0  0  0  0  0
  -25.7989  -30.8879   27.0190 H   0  0  0  0  0  0
  -26.2924  -29.6727   24.1300 H   0  0  0  0  0  0
  -27.3996  -29.7329   25.4833 H   0  0  0  0  0  0
  -27.8803  -30.4316   23.9518 H   0  0  0  0  0  0
  -27.2602  -33.3712   26.1959 H   0  0  0  0  0  0
  -28.3805  -32.6924   25.0254 H   0  0  0  0  0  0
  -28.0639  -31.8542   26.5419 H   0  0  0  0  0  0
  -28.2592  -38.0151   24.7535 H   0  0  0  0  0  0
  -28.1147  -36.2675   24.6260 H   0  0  0  0  0  0
  -27.2292  -37.1434   25.8856 H   0  0  0  0  0  0
  -20.9325  -29.8793   21.6939 H   0  0  0  0  0  0
  -26.0211  -38.2836   24.1402 H   0  0  0  0  0  0
  -26.1043  -24.2043   20.3784 H   0  0  0  0  0  0
  -29.7992  -18.0700   22.4936 H   0  0  0  0  0  0
  -28.0635  -18.1072   22.4957 H   0  0  0  0  0  0
  -27.9272  -15.9144   21.5027 H   0  0  0  0  0  0
  -29.2694  -15.7504   22.6462 H   0  0  0  0  0  0
  -31.0923  -17.5857   20.2328 H   0  0  0  0  0  0
  -30.0400  -17.2185   18.8777 H   0  0  0  0  0  0
  -28.1146  -18.1927   19.9458 H   0  0  0  0  0  0
  -26.2827  -19.1840   19.9240 H   0  0  0  0  0  0
  -25.2019  -20.0957   20.9298 H   0  0  0  0  0  0
  -26.5539  -19.2922   21.6863 H   0  0  0  0  0  0
  -31.0503  -21.9966   20.6778 H   0  0  0  0  0  0
  -30.8567  -23.6429   20.1964 H   0  0  0  0  0  0
  -28.0178  -25.1678   18.5433 H   0  0  0  0  0  0
  -29.5714  -25.0932   19.2166 H   0  0  0  0  0  0
  -30.3223  -20.0487   20.7222 H   0  0  0  0  0  0
  -30.5910  -21.3345   18.3983 H   0  0  0  0  0  0
  -31.9289  -22.2755   18.5215 H   0  0  0  0  0  0
  -30.5336  -22.8982   17.9299 H   0  0  0  0  0  0
  1 25  1  0  0  0
  1 30  2  0  0  0
  1 84  1  0  0  0
  2  3  1  0  0  0
  2 25  1  0  0  0
  2 87  1  0  0  0
  2 88  1  0  0  0
  3  4  1  0  0  0
  3 89  1  0  0  0
  3 90  1  0  0  0
  4  5  1  0  0  0
  4 91  1  0  0  0
  4 92  1  0  0  0
  5  6  1  0  0  0
  5 26  1  0  0  0
  5 93  1  0  0  0
  6 25  1  0  0  0
  6 94  1  0  0  0
  6 95  1  0  0  0
  7  8  2  0  0  0
  7 26  1  0  0  0
  7 29  1  0  0  0
  8  9  1  0  0  0
  8 22  1  0  0  0
  9 10  1  0  0  0
  9 27  2  0  0  0
 10 11  2  0  0  0
 10 15  1  0  0  0
 11 12  1  0  0  0
 11 96  1  0  0  0
 12 13  2  0  0  0
 12 97  1  0  0  0
 13 14  1  0  0  0
 13 31  1  0  0  0
 14 15  2  0  0  0
 14 98  1  0  0  0
 15 99  1  0  0  0
 16 17  2  0  0  0
 16 21  1  0  0  0
 16 31  1  0  0  0
 17 18  1  0  0  0
 17100  1  0  0  0
 18 19  2  0  0  0
 18101  1  0  0  0
 19 20  1  0  0  0
 19 24  1  0  0  0
 20 21  2  0  0  0
 20102  1  0  0  0
 21 23  1  0  0  0
 22 28  1  0  0  0
 22 32  2  0  0  0
 26 27  1  0  0  0
 28103  1  0  0  0
 28104  1  0  0  0
 29105  1  0  0  0
 29106  1  0  0  0
 33 34  1  0  0  0
 33 66  1  0  0  0
 33 70  2  0  0  0
 34 36  1  0  0  0
 34 59  1  0  0  0
 34107  1  0  0  0
 35 44  2  0  0  0
 35 45  1  0  0  0
 35 68  1  0  0  0
 36 56  1  0  0  0
 36108  1  0  0  0
 37 39  1  0  0  0
 37 47  1  0  0  0
 37 66  1  0  0  0
 37109  1  0  0  0
 38 43  2  0  0  0
 38 46  1  0  0  0
 38 47  1  0  0  0
 39 64  1  0  0  0
 39 67  2  0  0  0
 40 52  1  0  0  0
 40 53  2  0  0  0
 40 58  1  0  0  0
 41110  1  0  0  0
 41111  1  0  0  0
 41112  1  0  0  0
 41 48  1  0  0  0
 42 43  1  0  0  0
 42 66  1  0  0  0
 42113  1  0  0  0
 42114  1  0  0  0
 43 44  1  0  0  0
 44115  1  0  0  0
 45 46  2  0  0  0
 45116  1  0  0  0
 46117  1  0  0  0
 47118  1  0  0  0
 47119  1  0  0  0
 48 56  1  0  0  0
 48 65  1  0  0  0
 48120  1  0  0  0
 49 50  1  0  0  0
 49 53  1  0  0  0
 49 64  1  0  0  0
 49121  1  0  0  0
 50 51  1  0  0  0
 50122  1  0  0  0
 50123  1  0  0  0
 51 52  1  0  0  0
 51124  1  0  0  0
 51125  1  0  0  0
 52126  1  0  0  0
 52127  1  0  0  0
 53 54  1  0  0  0
 54 55  2  0  0  0
 54128  1  0  0  0
 55 57  1  0  0  0
 55129  1  0  0  0
 56 69  2  0  0  0
 57 58  2  0  0  0
 57130  1  0  0  0
 58131  1  0  0  0
 59 60  1  0  0  0
 59 61  1  0  0  0
 59 62  1  0  0  0
 60132  1  0  0  0
 60133  1  0  0  0
 60134  1  0  0  0
 61135  1  0  0  0
 61136  1  0  0  0
 61137  1  0  0  0
 62138  1  0  0  0
 62139  1  0  0  0
 62140  1  0  0  0
 63 65  1  0  0  0
 63141  1  0  0  0
 63142  1  0  0  0
 63143  1  0  0  0
 64144  1  0  0  0
 65145  1  0  0  0
 68 82  1  0  0  0
 71 72  2  0  0  0
 71 83  1  0  0  0
 71146  1  0  0  0
 72 73  1  0  0  0
 72 82  1  0  0  0
 73 74  2  0  0  0
 73 81  1  0  0  0
 74 75  1  0  0  0
 74 85  1  0  0  0
 75 80  1  0  0  0
 75 83  2  0  0  0
 76 77  1  0  0  0
 76 79  1  0  0  0
 76147  1  0  0  0
 76148  1  0  0  0
 77 84  1  0  0  0
 77149  1  0  0  0
 77150  1  0  0  0
 78 79  1  0  0  0
 78 84  1  0  0  0
 78151  1  0  0  0
 78152  1  0  0  0
 79 85  1  0  0  0
 79153  1  0  0  0
 80154  1  0  0  0
 80155  1  0  0  0
 80156  1  0  0  0
 81 86  1  0  0  0
 81157  1  0  0  0
 81158  1  0  0  0
 82159  1  0  0  0
 82160  1  0  0  0
 85161  1  0  0  0
 86162  1  0  0  0
 86163  1  0  0  0
 86164  1  0  0  0
M  CHG  1  86   1
M  ISO  4   1 100  68 101  82 101  84 100
M  END
> <chiral flag>
0

> <version>
0

> <s_m_source_file>
/data/baiqing/PycharmProjects/Reinvent-master-3.2/result/LINK_invent/BTK/process_docking_weight1_custom_sum_contain_oxygen_bond_distance_aromatic_linkinvent_7_9_3/rearranged_h_0174.sdf

> <i_m_source_file_index>
56

> <r_mmod_Potential_Energy-OPLS-2005>
-77.3799667358398

> <r_mmod_Stretch_Energy-OPLS-2005>
143.839004516602

> <r_mmod_Bend_Energy-OPLS-2005>
255.505935668945

> <r_mmod_Torsional_Energy-OPLS-2005>
303.792419433594

> <r_mmod_Improper_Torsional_Energy-OPLS-2005>
13.4337615966797

> <r_mmod_Van_der_Waal_Energy-OPLS-2005>
138.115264892578

> <r_mmod_Electrostatic_Energy-OPLS-2005>
-491.107604980469

> <r_mmod_Solvation_Energy-OPLS-2005>
-527.525329589844

> <b_mmod_Minimization_Converged-OPLS-2005>
0

> <r_mmod_RMS_Derivative-OPLS-2005>
4.87258815765381

$$$$
58
                    3D
 Structure written by MMmdl.
163172  0  0  1  0            999 V2000
  -30.6665  -14.5948   20.5046 C   0  0  0  0  0  0
  -30.4249  -12.3680   19.4466 C   0  0  0  0  0  0
  -29.5012  -12.5025   18.2171 C   0  0  0  0  0  0
  -28.0218  -12.3535   18.6267 C   0  0  0  0  0  0
  -27.6508  -13.2170   19.8629 C   0  0  2  0  0  0
  -28.6959  -13.0566   20.9878 C   0  0  0  0  0  0
  -25.2543  -13.8175   20.5685 C   0  0  0  0  0  0
  -24.1815  -13.0438   20.9190 C   0  0  0  0  0  0
  -24.6387  -11.6910   20.8739 C   0  0  0  0  0  0
  -23.9056  -10.4294   21.0408 C   0  0  0  0  0  0
  -24.3610   -9.4210   21.9185 C   0  0  0  0  0  0
  -23.6287   -8.2243   22.0755 C   0  0  0  0  0  0
  -22.4269   -8.0279   21.3544 C   0  0  0  0  0  0
  -21.9902   -9.0255   20.4649 C   0  0  0  0  0  0
  -22.7228  -10.2135   20.3057 C   0  0  0  0  0  0
  -21.6853   -6.0731   22.5278 C   0  0  0  0  0  0
  -21.4017   -6.5634   23.8210 C   0  0  0  0  0  0
  -21.3661   -5.6787   24.9173 C   0  0  0  0  0  0
  -21.6044   -4.3051   24.7224 C   0  0  0  0  0  0
  -21.8821   -3.8143   23.4346 C   0  0  0  0  0  0
  -21.9194   -4.6959   22.3403 C   0  0  0  0  0  0
  -22.7837  -13.5231   21.1849 C   0  0  0  0  0  0
  -22.1663   -4.2146   21.0979 F   0  0  0  0  0  0
  -21.5629   -3.4534   25.7737 F   0  0  0  0  0  0
  -30.0073  -13.3965   20.4198 N   0  0  0  0  0  0
  -26.2976  -12.9359   20.3324 N   0  0  0  0  0  0
  -25.9311  -11.6512   20.5754 N   0  0  0  0  0  0
  -22.0476  -12.8233   22.0412 N   0  0  0  0  0  0
  -25.4238  -15.1892   20.4087 N   0  0  0  0  0  0
  -31.8467  -14.6844   20.1506 O   0  0  0  0  0  0
  -21.6637   -6.8873   21.4239 O   0  0  0  0  0  0
  -22.3523  -14.5536   20.6694 O   0  0  0  0  0  0
  -24.6215  -31.8628   23.2048 C   0  0  0  0  0  0
  -25.9083  -32.4793   23.8362 C   0  0  1  0  0  0
  -27.2285  -27.3633   20.0954 C   0  0  0  0  0  0
  -25.5913  -33.8592   24.2292 N   0  0  0  0  0  0
  -23.4117  -30.4872   21.5473 C   0  0  2  0  0  0
  -24.8554  -28.9457   20.1120 C   0  0  0  0  0  0
  -22.7442  -29.4637   22.4957 C   0  0  0  0  0  0
  -18.0280  -28.1379   22.8487 C   0  0  0  0  0  0
  -24.1489  -36.7303   23.2639 C   0  0  0  0  0  0
  -25.9483  -30.8055   21.3687 C   0  0  0  0  0  0
  -26.0210  -29.4357   20.7121 C   0  0  0  0  0  0
  -27.2057  -28.6518   20.7010 C   0  0  0  0  0  0
  -26.0293  -26.8984   19.5067 C   0  0  0  0  0  0
  -24.8579  -27.6787   19.5078 C   0  0  0  0  0  0
  -23.6224  -29.8219   20.1618 C   0  0  0  0  0  0
  -25.4111  -36.3092   24.0332 C   0  0  1  0  0  0
  -20.5874  -28.3673   23.1300 C   0  0  2  0  0  0
  -20.6771  -26.9402   22.5413 C   0  0  0  0  0  0
  -19.5747  -26.6382   21.5209 C   0  0  0  0  0  0
  -18.1926  -26.7922   22.1623 C   0  0  0  0  0  0
  -19.1530  -28.8844   23.2890 C   0  0  0  0  0  0
  -18.9457  -30.1447   23.8905 C   0  0  0  0  0  0
  -17.6456  -30.6584   24.0565 C   0  0  0  0  0  0
  -25.9043  -34.9460   23.5111 C   0  0  0  0  0  0
  -16.5347  -29.9085   23.6329 C   0  0  0  0  0  0
  -16.7268  -28.6502   23.0349 C   0  0  0  0  0  0
  -26.4483  -31.6593   25.0720 C   0  0  0  0  0  0
  -25.3733  -31.3723   26.1461 C   0  0  0  0  0  0
  -27.0315  -30.3021   24.6145 C   0  0  0  0  0  0
  -27.6053  -32.4319   25.7487 C   0  0  0  0  0  0
  -27.5580  -37.1804   24.8462 C   0  0  0  0  0  0
  -21.4163  -29.3035   22.3699 N   0  0  0  0  0  0
  -26.4291  -37.3782   23.9408 N   0  0  0  0  0  0
  -24.6793  -31.0677   22.0979 N   0  0  0  0  0  0
  -23.4187  -28.8179   23.3022 O   0  0  0  0  0  0
  -28.3902  -26.5910   20.1400 O   0  0  0  0  0  0
  -26.5609  -34.8922   22.4676 O   0  0  0  0  0  0
  -23.5394  -32.1409   23.7409 O   0  0  0  0  0  0
  -29.9282  -22.5136   21.5433 C   0  0  0  0  0  0
  -29.6253  -23.8268   21.0973 C   0  0  0  0  0  0
  -28.7854  -24.0049   19.9660 C   0  0  0  0  0  0
  -29.4213  -21.3836   20.8696 C   0  0  0  0  0  0
  -28.3049  -22.7981   19.3735 C   0  0  0  0  0  0
  -29.3797  -17.7264   22.0060 C   0  0  0  0  0  0
  -30.3311  -18.1647   19.7754 C   0  0  0  0  0  0
  -29.0764  -16.2461   21.6088 C   0  0  0  0  0  0
  -29.9645  -16.7052   19.3672 C   0  0  0  0  0  0
  -29.3823  -18.7554   20.8416 C   0  0  0  0  0  0
  -30.2482  -25.0085   21.8195 C   0  0  0  0  0  0
  -28.5669  -25.4080   19.3001 C   0  0  0  0  0  0
  -28.6032  -21.5417   19.8052 N   0  0  0  0  0  0
  -29.8912  -15.7334   20.4874 N   0  0  0  0  0  0
  -27.4972  -22.8037   18.2454 N   0  0  0  0  0  0
  -29.8059  -20.0935   21.3234 N   0  0  0  0  0  0
  -31.4687  -12.4714   19.1450 H   0  0  0  0  0  0
  -30.3414  -11.3726   19.8851 H   0  0  0  0  0  0
  -29.7587  -11.7531   17.4673 H   0  0  0  0  0  0
  -29.6563  -13.4734   17.7440 H   0  0  0  0  0  0
  -27.8473  -11.2995   18.8467 H   0  0  0  0  0  0
  -27.3710  -12.5998   17.7870 H   0  0  0  0  0  0
  -27.6724  -14.2554   19.5324 H   0  0  0  0  0  0
  -28.7032  -12.0303   21.3578 H   0  0  0  0  0  0
  -28.4438  -13.6723   21.8478 H   0  0  0  0  0  0
  -25.2760   -9.5687   22.4750 H   0  0  0  0  0  0
  -24.0000   -7.4636   22.7474 H   0  0  0  0  0  0
  -21.0832   -8.8772   19.8956 H   0  0  0  0  0  0
  -22.3690  -10.9669   19.6159 H   0  0  0  0  0  0
  -21.2008   -7.6142   23.9711 H   0  0  0  0  0  0
  -21.1481   -6.0518   25.9075 H   0  0  0  0  0  0
  -22.0599   -2.7604   23.2846 H   0  0  0  0  0  0
  -22.4086  -11.9895   22.4808 H   0  0  0  0  0  0
  -21.1096  -13.1264   22.2617 H   0  0  0  0  0  0
  -24.6571  -15.8435   20.5196 H   0  0  0  0  0  0
  -26.2756  -15.6275   20.0829 H   0  0  0  0  0  0
  -26.7150  -32.5472   23.1112 H   0  0  0  0  0  0
  -25.0060  -33.9742   25.0437 H   0  0  0  0  0  0
  -22.7033  -31.3062   21.4068 H   0  0  0  0  0  0
  -23.3747  -35.9640   23.3303 H   0  0  0  0  0  0
  -24.3585  -36.8921   22.2053 H   0  0  0  0  0  0
  -23.7246  -37.6509   23.6657 H   0  0  0  0  0  0
  -26.0735  -31.5704   20.6011 H   0  0  0  0  0  0
  -26.8316  -30.8544   21.9938 H   0  0  0  0  0  0
  -28.1036  -29.0267   21.1723 H   0  0  0  0  0  0
  -25.9517  -25.9161   19.0688 H   0  0  0  0  0  0
  -23.9567  -27.2883   19.0555 H   0  0  0  0  0  0
  -23.7380  -30.5979   19.4043 H   0  0  0  0  0  0
  -22.7432  -29.2485   19.8622 H   0  0  0  0  0  0
  -25.1289  -36.1948   25.0824 H   0  0  0  0  0  0
  -20.9966  -28.3246   24.1420 H   0  0  0  0  0  0
  -20.5670  -26.2280   23.3605 H   0  0  0  0  0  0
  -21.6642  -26.7441   22.1205 H   0  0  0  0  0  0
  -19.6908  -25.6293   21.1236 H   0  0  0  0  0  0
  -19.6687  -27.3199   20.6742 H   0  0  0  0  0  0
  -17.4193  -26.6668   21.4026 H   0  0  0  0  0  0
  -18.0331  -26.0064   22.9022 H   0  0  0  0  0  0
  -19.7934  -30.7259   24.2277 H   0  0  0  0  0  0
  -17.5015  -31.6268   24.5160 H   0  0  0  0  0  0
  -15.5347  -30.2988   23.7650 H   0  0  0  0  0  0
  -15.8669  -28.0824   22.7058 H   0  0  0  0  0  0
  -24.5896  -30.7082   25.7800 H   0  0  0  0  0  0
  -24.8938  -32.2890   26.4906 H   0  0  0  0  0  0
  -25.8072  -30.8890   27.0224 H   0  0  0  0  0  0
  -26.2875  -29.6779   24.1183 H   0  0  0  0  0  0
  -27.4042  -29.7266   25.4628 H   0  0  0  0  0  0
  -27.8732  -30.4315   23.9336 H   0  0  0  0  0  0
  -27.2667  -33.3615   26.2075 H   0  0  0  0  0  0
  -28.3857  -32.6884   25.0309 H   0  0  0  0  0  0
  -28.0726  -31.8435   26.5394 H   0  0  0  0  0  0
  -28.2596  -38.0102   24.7512 H   0  0  0  0  0  0
  -28.1075  -36.2634   24.6280 H   0  0  0  0  0  0
  -27.2302  -37.1451   25.8867 H   0  0  0  0  0  0
  -20.9325  -29.8762   21.6925 H   0  0  0  0  0  0
  -26.0175  -38.2858   24.1408 H   0  0  0  0  0  0
  -30.5806  -22.3824   22.3965 H   0  0  0  0  0  0
  -30.3533  -17.7447   22.4985 H   0  0  0  0  0  0
  -28.6603  -18.0407   22.7638 H   0  0  0  0  0  0
  -30.3213  -18.8001   18.8886 H   0  0  0  0  0  0
  -31.3574  -18.1789   20.1450 H   0  0  0  0  0  0
  -28.0258  -16.1525   21.3346 H   0  0  0  0  0  0
  -29.2226  -15.6250   22.4933 H   0  0  0  0  0  0
  -30.6655  -16.3647   18.6026 H   0  0  0  0  0  0
  -28.9899  -16.7088   18.8773 H   0  0  0  0  0  0
  -28.3755  -18.8343   20.4272 H   0  0  0  0  0  0
  -30.9733  -24.6839   22.5662 H   0  0  0  0  0  0
  -29.4819  -25.5904   22.3320 H   0  0  0  0  0  0
  -30.7692  -25.6621   21.1197 H   0  0  0  0  0  0
  -27.8454  -25.3522   18.4903 H   0  0  0  0  0  0
  -29.4992  -25.5972   18.7673 H   0  0  0  0  0  0
  -27.1251  -23.6549   17.8453 H   0  0  0  0  0  0
  -27.1197  -21.9408   17.8736 H   0  0  0  0  0  0
  -30.4226  -20.0830   22.1282 H   0  0  0  0  0  0
  1 25  1  0  0  0
  1 30  2  0  0  0
  1 84  1  0  0  0
  2  3  1  0  0  0
  2 25  1  0  0  0
  2 87  1  0  0  0
  2 88  1  0  0  0
  3  4  1  0  0  0
  3 89  1  0  0  0
  3 90  1  0  0  0
  4  5  1  0  0  0
  4 91  1  0  0  0
  4 92  1  0  0  0
  5  6  1  0  0  0
  5 26  1  0  0  0
  5 93  1  0  0  0
  6 25  1  0  0  0
  6 94  1  0  0  0
  6 95  1  0  0  0
  7  8  2  0  0  0
  7 26  1  0  0  0
  7 29  1  0  0  0
  8  9  1  0  0  0
  8 22  1  0  0  0
  9 10  1  0  0  0
  9 27  2  0  0  0
 10 11  2  0  0  0
 10 15  1  0  0  0
 11 12  1  0  0  0
 11 96  1  0  0  0
 12 13  2  0  0  0
 12 97  1  0  0  0
 13 14  1  0  0  0
 13 31  1  0  0  0
 14 15  2  0  0  0
 14 98  1  0  0  0
 15 99  1  0  0  0
 16 17  2  0  0  0
 16 21  1  0  0  0
 16 31  1  0  0  0
 17 18  1  0  0  0
 17100  1  0  0  0
 18 19  2  0  0  0
 18101  1  0  0  0
 19 20  1  0  0  0
 19 24  1  0  0  0
 20 21  2  0  0  0
 20102  1  0  0  0
 21 23  1  0  0  0
 22 28  1  0  0  0
 22 32  2  0  0  0
 26 27  1  0  0  0
 28103  1  0  0  0
 28104  1  0  0  0
 29105  1  0  0  0
 29106  1  0  0  0
 33 34  1  0  0  0
 33 66  1  0  0  0
 33 70  2  0  0  0
 34 36  1  0  0  0
 34 59  1  0  0  0
 34107  1  0  0  0
 35 44  2  0  0  0
 35 45  1  0  0  0
 35 68  1  0  0  0
 36 56  1  0  0  0
 36108  1  0  0  0
 37 39  1  0  0  0
 37 47  1  0  0  0
 37 66  1  0  0  0
 37109  1  0  0  0
 38 43  2  0  0  0
 38 46  1  0  0  0
 38 47  1  0  0  0
 39 64  1  0  0  0
 39 67  2  0  0  0
 40 52  1  0  0  0
 40 53  2  0  0  0
 40 58  1  0  0  0
 41110  1  0  0  0
 41111  1  0  0  0
 41112  1  0  0  0
 41 48  1  0  0  0
 42 43  1  0  0  0
 42 66  1  0  0  0
 42113  1  0  0  0
 42114  1  0  0  0
 43 44  1  0  0  0
 44115  1  0  0  0
 45 46  2  0  0  0
 45116  1  0  0  0
 46117  1  0  0  0
 47118  1  0  0  0
 47119  1  0  0  0
 48 56  1  0  0  0
 48 65  1  0  0  0
 48120  1  0  0  0
 49 50  1  0  0  0
 49 53  1  0  0  0
 49 64  1  0  0  0
 49121  1  0  0  0
 50 51  1  0  0  0
 50122  1  0  0  0
 50123  1  0  0  0
 51 52  1  0  0  0
 51124  1  0  0  0
 51125  1  0  0  0
 52126  1  0  0  0
 52127  1  0  0  0
 53 54  1  0  0  0
 54 55  2  0  0  0
 54128  1  0  0  0
 55 57  1  0  0  0
 55129  1  0  0  0
 56 69  2  0  0  0
 57 58  2  0  0  0
 57130  1  0  0  0
 58131  1  0  0  0
 59 60  1  0  0  0
 59 61  1  0  0  0
 59 62  1  0  0  0
 60132  1  0  0  0
 60133  1  0  0  0
 60134  1  0  0  0
 61135  1  0  0  0
 61136  1  0  0  0
 61137  1  0  0  0
 62138  1  0  0  0
 62139  1  0  0  0
 62140  1  0  0  0
 63 65  1  0  0  0
 63141  1  0  0  0
 63142  1  0  0  0
 63143  1  0  0  0
 64144  1  0  0  0
 65145  1  0  0  0
 68 82  1  0  0  0
 71 72  2  0  0  0
 71 74  1  0  0  0
 71146  1  0  0  0
 72 73  1  0  0  0
 72 81  1  0  0  0
 73 75  2  0  0  0
 73 82  1  0  0  0
 74 83  2  0  0  0
 74 86  1  0  0  0
 75 83  1  0  0  0
 75 85  1  0  0  0
 76 78  1  0  0  0
 76 80  1  0  0  0
 76147  1  0  0  0
 76148  1  0  0  0
 77 79  1  0  0  0
 77 80  1  0  0  0
 77149  1  0  0  0
 77150  1  0  0  0
 78 84  1  0  0  0
 78151  1  0  0  0
 78152  1  0  0  0
 79 84  1  0  0  0
 79153  1  0  0  0
 79154  1  0  0  0
 80 86  1  0  0  0
 80155  1  0  0  0
 81156  1  0  0  0
 81157  1  0  0  0
 81158  1  0  0  0
 82159  1  0  0  0
 82160  1  0  0  0
 85161  1  0  0  0
 85162  1  0  0  0
 86163  1  0  0  0
M  ISO  4   1 100  68 101  82 101  84 100
M  END
> <chiral flag>
0

> <version>
0

> <s_m_source_file>
/data/baiqing/PycharmProjects/Reinvent-master-3.2/result/LINK_invent/BTK/process_docking_weight1_custom_sum_contain_oxygen_bond_distance_aromatic_linkinvent_7_9_3/rearranged_h_0174.sdf

> <i_m_source_file_index>
57

> <r_mmod_Potential_Energy-OPLS-2005>
-3.07875871658325

> <r_mmod_Stretch_Energy-OPLS-2005>
60.8145027160645

> <r_mmod_Bend_Energy-OPLS-2005>
165.197509765625

> <r_mmod_Torsional_Energy-OPLS-2005>
318.148254394531

> <r_mmod_Improper_Torsional_Energy-OPLS-2005>
17.491361618042

> <r_mmod_Van_der_Waal_Energy-OPLS-2005>
150.051040649414

> <r_mmod_Electrostatic_Energy-OPLS-2005>
-518.576965332031

> <r_mmod_Solvation_Energy-OPLS-2005>
-229.18359375

> <b_mmod_Minimization_Converged-OPLS-2005>
0

> <r_mmod_RMS_Derivative-OPLS-2005>
0.688159883022308

$$$$
59
                    3D
 Structure written by MMmdl.
164173  0  0  1  0            999 V2000
  -30.6647  -14.5950   20.5051 C   0  0  0  0  0  0
  -30.4247  -12.3677   19.4471 C   0  0  0  0  0  0
  -29.5013  -12.5022   18.2172 C   0  0  0  0  0  0
  -28.0220  -12.3526   18.6266 C   0  0  0  0  0  0
  -27.6506  -13.2164   19.8624 C   0  0  2  0  0  0
  -28.6953  -13.0555   20.9878 C   0  0  0  0  0  0
  -25.2543  -13.8172   20.5677 C   0  0  0  0  0  0
  -24.1814  -13.0436   20.9186 C   0  0  0  0  0  0
  -24.6384  -11.6908   20.8737 C   0  0  0  0  0  0
  -23.9053  -10.4294   21.0406 C   0  0  0  0  0  0
  -24.3608   -9.4211   21.9184 C   0  0  0  0  0  0
  -23.6286   -8.2243   22.0754 C   0  0  0  0  0  0
  -22.4269   -8.0278   21.3543 C   0  0  0  0  0  0
  -21.9900   -9.0253   20.4649 C   0  0  0  0  0  0
  -22.7225  -10.2134   20.3057 C   0  0  0  0  0  0
  -21.6852   -6.0729   22.5276 C   0  0  0  0  0  0
  -21.4016   -6.5634   23.8208 C   0  0  0  0  0  0
  -21.3663   -5.6787   24.9172 C   0  0  0  0  0  0
  -21.6046   -4.3049   24.7225 C   0  0  0  0  0  0
  -21.8821   -3.8141   23.4345 C   0  0  0  0  0  0
  -21.9194   -4.6957   22.3401 C   0  0  0  0  0  0
  -22.7837  -13.5230   21.1851 C   0  0  0  0  0  0
  -22.1663   -4.2144   21.0979 F   0  0  0  0  0  0
  -21.5630   -3.4534   25.7737 F   0  0  0  0  0  0
  -30.0067  -13.3962   20.4202 N   0  0  0  0  0  0
  -26.2972  -12.9356   20.3319 N   0  0  0  0  0  0
  -25.9312  -11.6509   20.5749 N   0  0  0  0  0  0
  -22.0480  -12.8228   22.0412 N   0  0  0  0  0  0
  -25.4237  -15.1889   20.4076 N   0  0  0  0  0  0
  -31.8448  -14.6851   20.1498 O   0  0  0  0  0  0
  -21.6637   -6.8872   21.4237 O   0  0  0  0  0  0
  -22.3523  -14.5537   20.6697 O   0  0  0  0  0  0
  -24.6211  -31.8630   23.2053 C   0  0  0  0  0  0
  -25.9078  -32.4793   23.8365 C   0  0  1  0  0  0
  -27.2283  -27.3636   20.0954 C   0  0  0  0  0  0
  -25.5910  -33.8593   24.2294 N   0  0  0  0  0  0
  -23.4111  -30.4872   21.5479 C   0  0  2  0  0  0
  -24.8548  -28.9460   20.1118 C   0  0  0  0  0  0
  -22.7442  -29.4636   22.4963 C   0  0  0  0  0  0
  -18.0279  -28.1379   22.8489 C   0  0  0  0  0  0
  -24.1488  -36.7302   23.2639 C   0  0  0  0  0  0
  -25.9477  -30.8058   21.3690 C   0  0  0  0  0  0
  -26.0203  -29.4361   20.7119 C   0  0  0  0  0  0
  -27.2052  -28.6522   20.7009 C   0  0  0  0  0  0
  -26.0294  -26.8993   19.5047 C   0  0  0  0  0  0
  -24.8579  -27.6797   19.5063 C   0  0  0  0  0  0
  -23.6214  -29.8221   20.1622 C   0  0  0  0  0  0
  -25.4110  -36.3092   24.0333 C   0  0  1  0  0  0
  -20.5874  -28.3672   23.1303 C   0  0  2  0  0  0
  -20.6769  -26.9401   22.5414 C   0  0  0  0  0  0
  -19.5746  -26.6383   21.5212 C   0  0  0  0  0  0
  -18.1925  -26.7923   22.1626 C   0  0  0  0  0  0
  -19.1529  -28.8843   23.2893 C   0  0  0  0  0  0
  -18.9456  -30.1449   23.8904 C   0  0  0  0  0  0
  -17.6456  -30.6584   24.0564 C   0  0  0  0  0  0
  -25.9043  -34.9460   23.5114 C   0  0  0  0  0  0
  -16.5347  -29.9082   23.6329 C   0  0  0  0  0  0
  -16.7267  -28.6503   23.0348 C   0  0  0  0  0  0
  -26.4480  -31.6591   25.0721 C   0  0  0  0  0  0
  -25.3729  -31.3720   26.1461 C   0  0  0  0  0  0
  -27.0315  -30.3022   24.6142 C   0  0  0  0  0  0
  -27.6052  -32.4317   25.7484 C   0  0  0  0  0  0
  -27.5580  -37.1802   24.8463 C   0  0  0  0  0  0
  -21.4162  -29.3031   22.3704 N   0  0  0  0  0  0
  -26.4290  -37.3782   23.9410 N   0  0  0  0  0  0
  -24.6787  -31.0677   22.0983 N   0  0  0  0  0  0
  -23.4188  -28.8178   23.3027 O   0  0  0  0  0  0
  -28.3895  -26.5911   20.1420 O   0  0  0  0  0  0
  -26.5612  -34.8922   22.4681 O   0  0  0  0  0  0
  -23.5389  -32.1412   23.7413 O   0  0  0  0  0  0
  -29.9284  -22.5140   21.5497 C   0  0  0  0  0  0
  -29.6282  -23.8277   21.1051 C   0  0  0  0  0  0
  -28.7845  -24.0066   19.9783 C   0  0  0  0  0  0
  -28.2884  -22.8017   19.3882 C   0  0  0  0  0  0
  -29.4146  -21.3836   20.8829 C   0  0  0  0  0  0
  -29.3733  -17.7234   22.0127 C   0  0  0  0  0  0
  -30.3228  -18.1678   19.7830 C   0  0  0  0  0  0
  -29.0728  -16.2430   21.6123 C   0  0  0  0  0  0
  -29.9609  -16.7076   19.3723 C   0  0  0  0  0  0
  -29.3732  -18.7552   20.8504 C   0  0  0  0  0  0
  -30.2548  -25.0090   21.8243 C   0  0  0  0  0  0
  -27.3900  -22.8296   18.1652 C   0  0  0  0  0  0
  -28.5675  -25.4076   19.3056 C   0  0  0  0  0  0
  -28.5900  -21.5412   19.8272 N   0  0  0  0  0  0
  -29.8891  -15.7335   20.4908 N   0  0  0  0  0  0
  -29.7956  -20.0930   21.3350 N   0  0  0  0  0  0
  -31.4688  -12.4708   19.1463 H   0  0  0  0  0  0
  -30.3407  -11.3721   19.8854 H   0  0  0  0  0  0
  -29.7593  -11.7531   17.4672 H   0  0  0  0  0  0
  -29.6561  -13.4735   17.7443 H   0  0  0  0  0  0
  -27.8479  -11.2986   18.8470 H   0  0  0  0  0  0
  -27.3711  -12.5982   17.7869 H   0  0  0  0  0  0
  -27.6724  -14.2546   19.5319 H   0  0  0  0  0  0
  -28.7024  -12.0290   21.3571 H   0  0  0  0  0  0
  -28.4426  -13.6703   21.8484 H   0  0  0  0  0  0
  -25.2759   -9.5689   22.4749 H   0  0  0  0  0  0
  -24.0001   -7.4636   22.7472 H   0  0  0  0  0  0
  -21.0831   -8.8771   19.8955 H   0  0  0  0  0  0
  -22.3688  -10.9668   19.6159 H   0  0  0  0  0  0
  -21.2008   -7.6141   23.9708 H   0  0  0  0  0  0
  -21.1483   -6.0519   25.9073 H   0  0  0  0  0  0
  -22.0599   -2.7603   23.2846 H   0  0  0  0  0  0
  -22.4089  -11.9893   22.4810 H   0  0  0  0  0  0
  -21.1097  -13.1258   22.2616 H   0  0  0  0  0  0
  -24.6564  -15.8428   20.5179 H   0  0  0  0  0  0
  -26.2753  -15.6273   20.0818 H   0  0  0  0  0  0
  -26.7143  -32.5472   23.1115 H   0  0  0  0  0  0
  -25.0050  -33.9742   25.0434 H   0  0  0  0  0  0
  -22.7025  -31.3063   21.4084 H   0  0  0  0  0  0
  -23.3749  -35.9636   23.3302 H   0  0  0  0  0  0
  -24.3583  -36.8919   22.2054 H   0  0  0  0  0  0
  -23.7243  -37.6506   23.6658 H   0  0  0  0  0  0
  -26.0729  -31.5711   20.6017 H   0  0  0  0  0  0
  -26.8307  -30.8542   21.9944 H   0  0  0  0  0  0
  -28.1027  -29.0269   21.1726 H   0  0  0  0  0  0
  -25.9525  -25.9178   19.0648 H   0  0  0  0  0  0
  -23.9568  -27.2898   19.0529 H   0  0  0  0  0  0
  -23.7359  -30.5985   19.4049 H   0  0  0  0  0  0
  -22.7419  -29.2487   19.8636 H   0  0  0  0  0  0
  -25.1287  -36.1949   25.0826 H   0  0  0  0  0  0
  -20.9966  -28.3241   24.1425 H   0  0  0  0  0  0
  -20.5673  -26.2277   23.3605 H   0  0  0  0  0  0
  -21.6640  -26.7441   22.1206 H   0  0  0  0  0  0
  -19.6906  -25.6295   21.1237 H   0  0  0  0  0  0
  -19.6684  -27.3201   20.6747 H   0  0  0  0  0  0
  -17.4192  -26.6670   21.4029 H   0  0  0  0  0  0
  -18.0328  -26.0065   22.9025 H   0  0  0  0  0  0
  -19.7931  -30.7264   24.2274 H   0  0  0  0  0  0
  -17.5011  -31.6265   24.5162 H   0  0  0  0  0  0
  -15.5346  -30.2986   23.7651 H   0  0  0  0  0  0
  -15.8668  -28.0824   22.7056 H   0  0  0  0  0  0
  -24.5894  -30.7077   25.7797 H   0  0  0  0  0  0
  -24.8930  -32.2884   26.4906 H   0  0  0  0  0  0
  -25.8065  -30.8884   27.0224 H   0  0  0  0  0  0
  -26.2873  -29.6779   24.1181 H   0  0  0  0  0  0
  -27.4045  -29.7267   25.4625 H   0  0  0  0  0  0
  -27.8728  -30.4321   23.9332 H   0  0  0  0  0  0
  -27.2673  -33.3616   26.2069 H   0  0  0  0  0  0
  -28.3854  -32.6874   25.0302 H   0  0  0  0  0  0
  -28.0727  -31.8434   26.5391 H   0  0  0  0  0  0
  -28.2596  -38.0101   24.7514 H   0  0  0  0  0  0
  -28.1076  -36.2633   24.6280 H   0  0  0  0  0  0
  -27.2302  -37.1446   25.8867 H   0  0  0  0  0  0
  -20.9328  -29.8754   21.6924 H   0  0  0  0  0  0
  -26.0175  -38.2858   24.1410 H   0  0  0  0  0  0
  -30.5848  -22.3828   22.4000 H   0  0  0  0  0  0
  -30.3469  -17.7421   22.5055 H   0  0  0  0  0  0
  -28.6531  -18.0344   22.7711 H   0  0  0  0  0  0
  -30.3111  -18.8048   18.8975 H   0  0  0  0  0  0
  -31.3493  -18.1838   20.1527 H   0  0  0  0  0  0
  -28.0221  -16.1493   21.3372 H   0  0  0  0  0  0
  -29.2189  -15.6207   22.4959 H   0  0  0  0  0  0
  -30.6639  -16.3698   18.6081 H   0  0  0  0  0  0
  -28.9866  -16.7095   18.8819 H   0  0  0  0  0  0
  -28.3662  -18.8337   20.4371 H   0  0  0  0  0  0
  -30.9731  -24.6839   22.5772 H   0  0  0  0  0  0
  -29.4887  -25.5974   22.3294 H   0  0  0  0  0  0
  -30.7829  -25.6561   21.1239 H   0  0  0  0  0  0
  -26.4933  -23.4175   18.3607 H   0  0  0  0  0  0
  -27.0685  -21.8276   17.8786 H   0  0  0  0  0  0
  -27.9138  -23.2643   17.3138 H   0  0  0  0  0  0
  -27.8508  -25.3571   18.4917 H   0  0  0  0  0  0
  -29.5018  -25.5967   18.7763 H   0  0  0  0  0  0
  -30.4154  -20.0813   22.1370 H   0  0  0  0  0  0
  1 25  1  0  0  0
  1 30  2  0  0  0
  1 85  1  0  0  0
  2  3  1  0  0  0
  2 25  1  0  0  0
  2 87  1  0  0  0
  2 88  1  0  0  0
  3  4  1  0  0  0
  3 89  1  0  0  0
  3 90  1  0  0  0
  4  5  1  0  0  0
  4 91  1  0  0  0
  4 92  1  0  0  0
  5  6  1  0  0  0
  5 26  1  0  0  0
  5 93  1  0  0  0
  6 25  1  0  0  0
  6 94  1  0  0  0
  6 95  1  0  0  0
  7  8  2  0  0  0
  7 26  1  0  0  0
  7 29  1  0  0  0
  8  9  1  0  0  0
  8 22  1  0  0  0
  9 10  1  0  0  0
  9 27  2  0  0  0
 10 11  2  0  0  0
 10 15  1  0  0  0
 11 12  1  0  0  0
 11 96  1  0  0  0
 12 13  2  0  0  0
 12 97  1  0  0  0
 13 14  1  0  0  0
 13 31  1  0  0  0
 14 15  2  0  0  0
 14 98  1  0  0  0
 15 99  1  0  0  0
 16 17  2  0  0  0
 16 21  1  0  0  0
 16 31  1  0  0  0
 17 18  1  0  0  0
 17100  1  0  0  0
 18 19  2  0  0  0
 18101  1  0  0  0
 19 20  1  0  0  0
 19 24  1  0  0  0
 20 21  2  0  0  0
 20102  1  0  0  0
 21 23  1  0  0  0
 22 28  1  0  0  0
 22 32  2  0  0  0
 26 27  1  0  0  0
 28103  1  0  0  0
 28104  1  0  0  0
 29105  1  0  0  0
 29106  1  0  0  0
 33 34  1  0  0  0
 33 66  1  0  0  0
 33 70  2  0  0  0
 34 36  1  0  0  0
 34 59  1  0  0  0
 34107  1  0  0  0
 35 44  2  0  0  0
 35 45  1  0  0  0
 35 68  1  0  0  0
 36 56  1  0  0  0
 36108  1  0  0  0
 37 39  1  0  0  0
 37 47  1  0  0  0
 37 66  1  0  0  0
 37109  1  0  0  0
 38 43  2  0  0  0
 38 46  1  0  0  0
 38 47  1  0  0  0
 39 64  1  0  0  0
 39 67  2  0  0  0
 40 52  1  0  0  0
 40 53  2  0  0  0
 40 58  1  0  0  0
 41110  1  0  0  0
 41111  1  0  0  0
 41112  1  0  0  0
 41 48  1  0  0  0
 42 43  1  0  0  0
 42 66  1  0  0  0
 42113  1  0  0  0
 42114  1  0  0  0
 43 44  1  0  0  0
 44115  1  0  0  0
 45 46  2  0  0  0
 45116  1  0  0  0
 46117  1  0  0  0
 47118  1  0  0  0
 47119  1  0  0  0
 48 56  1  0  0  0
 48 65  1  0  0  0
 48120  1  0  0  0
 49 50  1  0  0  0
 49 53  1  0  0  0
 49 64  1  0  0  0
 49121  1  0  0  0
 50 51  1  0  0  0
 50122  1  0  0  0
 50123  1  0  0  0
 51 52  1  0  0  0
 51124  1  0  0  0
 51125  1  0  0  0
 52126  1  0  0  0
 52127  1  0  0  0
 53 54  1  0  0  0
 54 55  2  0  0  0
 54128  1  0  0  0
 55 57  1  0  0  0
 55129  1  0  0  0
 56 69  2  0  0  0
 57 58  2  0  0  0
 57130  1  0  0  0
 58131  1  0  0  0
 59 60  1  0  0  0
 59 61  1  0  0  0
 59 62  1  0  0  0
 60132  1  0  0  0
 60133  1  0  0  0
 60134  1  0  0  0
 61135  1  0  0  0
 61136  1  0  0  0
 61137  1  0  0  0
 62138  1  0  0  0
 62139  1  0  0  0
 62140  1  0  0  0
 63 65  1  0  0  0
 63141  1  0  0  0
 63142  1  0  0  0
 63143  1  0  0  0
 64144  1  0  0  0
 65145  1  0  0  0
 68 83  1  0  0  0
 71 72  2  0  0  0
 71 75  1  0  0  0
 71146  1  0  0  0
 72 73  1  0  0  0
 72 81  1  0  0  0
 73 74  2  0  0  0
 73 83  1  0  0  0
 74 82  1  0  0  0
 74 84  1  0  0  0
 75 84  2  0  0  0
 75 86  1  0  0  0
 76 78  1  0  0  0
 76 80  1  0  0  0
 76147  1  0  0  0
 76148  1  0  0  0
 77 79  1  0  0  0
 77 80  1  0  0  0
 77149  1  0  0  0
 77150  1  0  0  0
 78 85  1  0  0  0
 78151  1  0  0  0
 78152  1  0  0  0
 79 85  1  0  0  0
 79153  1  0  0  0
 79154  1  0  0  0
 80 86  1  0  0  0
 80155  1  0  0  0
 81156  1  0  0  0
 81157  1  0  0  0
 81158  1  0  0  0
 82159  1  0  0  0
 82160  1  0  0  0
 82161  1  0  0  0
 83162  1  0  0  0
 83163  1  0  0  0
 86164  1  0  0  0
M  ISO  4   1 100  68 101  83 101  85 100
M  END
> <chiral flag>
0

> <version>
0

> <s_m_source_file>
/data/baiqing/PycharmProjects/Reinvent-master-3.2/result/LINK_invent/BTK/process_docking_weight1_custom_sum_contain_oxygen_bond_distance_aromatic_linkinvent_7_9_3/rearranged_h_0174.sdf

> <i_m_source_file_index>
58

> <r_mmod_Potential_Energy-OPLS-2005>
41.9357986450195

> <r_mmod_Stretch_Energy-OPLS-2005>
61.4678039550781

> <r_mmod_Bend_Energy-OPLS-2005>
155.718002319336

> <r_mmod_Torsional_Energy-OPLS-2005>
317.707885742188

> <r_mmod_Improper_Torsional_Energy-OPLS-2005>
17.0965538024902

> <r_mmod_Van_der_Waal_Energy-OPLS-2005>
150.113143920898

> <r_mmod_Electrostatic_Energy-OPLS-2005>
-471.01708984375

> <r_mmod_Solvation_Energy-OPLS-2005>
-222.095809936523

> <b_mmod_Minimization_Converged-OPLS-2005>
0

> <r_mmod_RMS_Derivative-OPLS-2005>
0.619611978530884

$$$$
60
                    3D
 Structure written by MMmdl.
156164  0  0  1  0            999 V2000
  -30.4323  -15.2562   20.3645 C   0  0  0  0  0  0
  -30.4379  -12.7962   19.5386 C   0  0  0  0  0  0
  -29.5385  -12.5811   18.2946 C   0  0  0  0  0  0
  -28.0846  -12.3075   18.7157 C   0  0  0  0  0  0
  -27.6138  -13.2764   19.8288 C   0  0  2  0  0  0
  -28.6442  -13.4406   20.9677 C   0  0  0  0  0  0
  -25.2390  -13.8250   20.5743 C   0  0  0  0  0  0
  -24.1743  -13.0437   20.9252 C   0  0  0  0  0  0
  -24.6397  -11.6934   20.8755 C   0  0  0  0  0  0
  -23.9091  -10.4293   21.0401 C   0  0  0  0  0  0
  -24.3636   -9.4208   21.9184 C   0  0  0  0  0  0
  -23.6303   -8.2247   22.0755 C   0  0  0  0  0  0
  -22.4284   -8.0285   21.3547 C   0  0  0  0  0  0
  -21.9924   -9.0259   20.4645 C   0  0  0  0  0  0
  -22.7258  -10.2134   20.3054 C   0  0  0  0  0  0
  -21.6857   -6.0736   22.5278 C   0  0  0  0  0  0
  -21.4018   -6.5640   23.8211 C   0  0  0  0  0  0
  -21.3661   -5.6793   24.9173 C   0  0  0  0  0  0
  -21.6044   -4.3055   24.7224 C   0  0  0  0  0  0
  -21.8820   -3.8147   23.4345 C   0  0  0  0  0  0
  -21.9196   -4.6964   22.3401 C   0  0  0  0  0  0
  -22.7761  -13.5190   21.1900 C   0  0  0  0  0  0
  -22.1663   -4.2150   21.0978 F   0  0  0  0  0  0
  -21.5627   -3.4539   25.7736 F   0  0  0  0  0  0
  -29.8830  -13.9420   20.3519 N   0  0  0  0  0  0
  -26.2821  -12.9526   20.3229 N   0  0  0  0  0  0
  -25.9336  -11.6627   20.5722 N   0  0  0  0  0  0
  -22.0421  -12.8169   22.0453 N   0  0  0  0  0  0
  -25.4023  -15.1984   20.4179 N   0  0  0  0  0  0
  -31.6408  -15.2714   20.0897 O   0  0  0  0  0  0
  -21.6645   -6.8884   21.4242 O   0  0  0  0  0  0
  -22.3438  -14.5491   20.6742 O   0  0  0  0  0  0
  -24.6610  -31.8231   23.1695 C   0  0  0  0  0  0
  -25.9297  -32.4583   23.8159 C   0  0  1  0  0  0
  -27.2222  -26.9326   20.1858 C   0  0  0  0  0  0
  -25.5968  -33.8398   24.2065 N   0  0  0  0  0  0
  -23.4757  -30.4324   21.5181 C   0  0  2  0  0  0
  -24.9300  -28.8177   20.1083 C   0  0  0  0  0  0
  -22.7654  -29.4431   22.4782 C   0  0  0  0  0  0
  -18.0316  -28.1410   22.8466 C   0  0  0  0  0  0
  -24.1494  -36.7204   23.2647 C   0  0  0  0  0  0
  -26.0425  -30.6308   21.3989 C   0  0  0  0  0  0
  -26.1100  -29.2208   20.7439 C   0  0  0  0  0  0
  -27.2468  -28.2973   20.7595 C   0  0  0  0  0  0
  -26.0161  -26.6780   19.4960 C   0  0  0  0  0  0
  -24.9080  -27.5678   19.4643 C   0  0  0  0  0  0
  -23.7148  -29.7446   20.1443 C   0  0  0  0  0  0
  -25.4138  -36.2965   24.0295 C   0  0  1  0  0  0
  -20.5939  -28.3751   23.1192 C   0  0  2  0  0  0
  -20.6795  -26.9434   22.5406 C   0  0  0  0  0  0
  -19.5772  -26.6378   21.5216 C   0  0  0  0  0  0
  -18.1951  -26.7944   22.1619 C   0  0  0  0  0  0
  -19.1577  -28.8901   23.2816 C   0  0  0  0  0  0
  -18.9490  -30.1492   23.8851 C   0  0  0  0  0  0
  -17.6485  -30.6601   24.0554 C   0  0  0  0  0  0
  -25.9102  -34.9346   23.5005 C   0  0  0  0  0  0
  -16.5375  -29.9089   23.6345 C   0  0  0  0  0  0
  -16.7299  -28.6509   23.0365 C   0  0  0  0  0  0
  -26.4558  -31.6530   25.0687 C   0  0  0  0  0  0
  -25.3689  -31.3781   26.1346 C   0  0  0  0  0  0
  -27.0457  -30.2898   24.6420 C   0  0  0  0  0  0
  -27.6048  -32.4344   25.7492 C   0  0  0  0  0  0
  -27.5572  -37.1758   24.8465 C   0  0  0  0  0  0
  -21.4325  -29.3037   22.3537 N   0  0  0  0  0  0
  -26.4283  -37.3703   23.9406 N   0  0  0  0  0  0
  -24.7474  -30.9894   22.0827 N   0  0  0  0  0  0
  -23.4204  -28.8012   23.3031 O   0  0  0  0  0  0
  -28.2468  -25.8580   20.3134 O   0  0  0  0  0  0
  -26.5719  -34.8881   22.4605 O   0  0  0  0  0  0
  -23.5683  -32.1202   23.6793 O   0  0  0  0  0  0
  -30.0341  -22.2162   19.5972 C   0  0  0  0  0  0
  -28.1140  -22.7401   20.7140 C   0  0  0  0  0  0
  -29.6683  -23.7698   19.3117 C   0  0  1  0  0  0
  -28.2863  -24.2506   19.9154 C   0  0  2  0  0  0
  -28.8082  -21.3340   19.9948 C   0  0  1  0  0  0
  -30.8281  -24.6713   19.7623 C   0  0  0  0  0  0
  -27.9816  -21.0545   18.7274 C   0  0  0  0  0  0
  -29.0770  -19.6689   20.6679 C   0  0  0  0  0  0
  -29.8029  -18.1316   20.0581 C   0  0  0  0  0  0
  -29.6565  -16.5173   20.4840 N   0  0  0  0  0  0
  -31.4607  -12.9911   19.2133 H   0  0  0  0  0  0
  -30.4940  -11.8858   20.1378 H   0  0  0  0  0  0
  -29.9158  -11.7571   17.6877 H   0  0  0  0  0  0
  -29.5748  -13.4706   17.6638 H   0  0  0  0  0  0
  -28.0345  -11.2805   19.0791 H   0  0  0  0  0  0
  -27.4191  -12.3604   17.8534 H   0  0  0  0  0  0
  -27.5328  -14.2464   19.3370 H   0  0  0  0  0  0
  -28.8045  -12.5026   21.5013 H   0  0  0  0  0  0
  -28.2841  -14.1601   21.7050 H   0  0  0  0  0  0
  -25.2778   -9.5682   22.4760 H   0  0  0  0  0  0
  -24.0009   -7.4638   22.7476 H   0  0  0  0  0  0
  -21.0859   -8.8779   19.8949 H   0  0  0  0  0  0
  -22.3717  -10.9675   19.6164 H   0  0  0  0  0  0
  -21.2012   -7.6149   23.9714 H   0  0  0  0  0  0
  -21.1482   -6.0523   25.9076 H   0  0  0  0  0  0
  -22.0598   -2.7608   23.2842 H   0  0  0  0  0  0
  -22.4055  -11.9842   22.4842 H   0  0  0  0  0  0
  -21.1034  -13.1176   22.2661 H   0  0  0  0  0  0
  -24.6303  -15.8468   20.5306 H   0  0  0  0  0  0
  -26.2395  -15.6404   20.0614 H   0  0  0  0  0  0
  -26.7360  -32.5122   23.0867 H   0  0  0  0  0  0
  -25.0063  -33.9483   25.0180 H   0  0  0  0  0  0
  -22.7882  -31.2633   21.3466 H   0  0  0  0  0  0
  -23.3769  -35.9520   23.3280 H   0  0  0  0  0  0
  -24.3568  -36.8884   22.2067 H   0  0  0  0  0  0
  -23.7235  -37.6374   23.6727 H   0  0  0  0  0  0
  -26.2217  -31.3716   20.6185 H   0  0  0  0  0  0
  -26.9028  -30.6885   22.0539 H   0  0  0  0  0  0
  -28.1383  -28.6012   21.2900 H   0  0  0  0  0  0
  -25.8918  -25.7204   19.0118 H   0  0  0  0  0  0
  -24.0102  -27.2544   18.9493 H   0  0  0  0  0  0
  -23.8662  -30.5120   19.3843 H   0  0  0  0  0  0
  -22.8250  -29.1966   19.8299 H   0  0  0  0  0  0
  -25.1337  -36.1762   25.0786 H   0  0  0  0  0  0
  -21.0024  -28.3364   24.1316 H   0  0  0  0  0  0
  -20.5676  -26.2371   23.3647 H   0  0  0  0  0  0
  -21.6660  -26.7412   22.1213 H   0  0  0  0  0  0
  -19.6933  -25.6276   21.1278 H   0  0  0  0  0  0
  -19.6715  -27.3162   20.6725 H   0  0  0  0  0  0
  -17.4221  -26.6684   21.4021 H   0  0  0  0  0  0
  -18.0342  -26.0099   22.9026 H   0  0  0  0  0  0
  -19.7966  -30.7319   24.2200 H   0  0  0  0  0  0
  -17.5037  -31.6276   24.5164 H   0  0  0  0  0  0
  -15.5375  -30.2978   23.7697 H   0  0  0  0  0  0
  -15.8697  -28.0814   22.7111 H   0  0  0  0  0  0
  -24.5883  -30.7118   25.7654 H   0  0  0  0  0  0
  -24.8866  -32.2984   26.4652 H   0  0  0  0  0  0
  -25.7922  -30.9025   27.0202 H   0  0  0  0  0  0
  -26.3123  -29.6570   24.1410 H   0  0  0  0  0  0
  -27.3972  -29.7267   25.5076 H   0  0  0  0  0  0
  -27.9069  -30.4079   23.9841 H   0  0  0  0  0  0
  -27.2611  -33.3685   26.1950 H   0  0  0  0  0  0
  -28.3921  -32.6843   25.0367 H   0  0  0  0  0  0
  -28.0648  -31.8553   26.5510 H   0  0  0  0  0  0
  -28.2567  -38.0074   24.7516 H   0  0  0  0  0  0
  -28.1089  -36.2597   24.6291 H   0  0  0  0  0  0
  -27.2284  -37.1397   25.8867 H   0  0  0  0  0  0
  -20.9580  -29.8714   21.6654 H   0  0  0  0  0  0
  -26.0128  -38.2758   24.1424 H   0  0  0  0  0  0
  -30.7395  -22.1732   20.4288 H   0  0  0  0  0  0
  -30.5686  -21.7861   18.7490 H   0  0  0  0  0  0
  -27.0574  -22.5640   20.9179 H   0  0  0  0  0  0
  -28.5695  -22.8516   21.6996 H   0  0  0  0  0  0
  -29.5876  -23.8836   18.2293 H   0  0  0  0  0  0
  -27.5655  -24.1912   19.1004 H   0  0  0  0  0  0
  -30.9274  -24.6723   20.8483 H   0  0  0  0  0  0
  -30.6774  -25.7022   19.4407 H   0  0  0  0  0  0
  -31.7754  -24.3345   19.3400 H   0  0  0  0  0  0
  -27.7880  -21.9556   18.1450 H   0  0  0  0  0  0
  -27.0146  -20.6189   18.9814 H   0  0  0  0  0  0
  -28.4954  -20.3505   18.0716 H   0  0  0  0  0  0
  -28.0746  -19.3632   20.9691 H   0  0  0  0  0  0
  -29.5788  -19.8408   21.6206 H   0  0  0  0  0  0
  -30.8792  -18.3084   20.0364 H   0  0  0  0  0  0
  -29.5289  -18.1136   19.0027 H   0  0  0  0  0  0
  -28.7104  -16.3035   20.7661 H   0  0  0  0  0  0
  1 25  1  0  0  0
  1 30  2  0  0  0
  1 80  1  0  0  0
  2  3  1  0  0  0
  2 25  1  0  0  0
  2 81  1  0  0  0
  2 82  1  0  0  0
  3  4  1  0  0  0
  3 83  1  0  0  0
  3 84  1  0  0  0
  4  5  1  0  0  0
  4 85  1  0  0  0
  4 86  1  0  0  0
  5  6  1  0  0  0
  5 26  1  0  0  0
  5 87  1  0  0  0
  6 25  1  0  0  0
  6 88  1  0  0  0
  6 89  1  0  0  0
  7  8  2  0  0  0
  7 26  1  0  0  0
  7 29  1  0  0  0
  8  9  1  0  0  0
  8 22  1  0  0  0
  9 10  1  0  0  0
  9 27  2  0  0  0
 10 11  2  0  0  0
 10 15  1  0  0  0
 11 12  1  0  0  0
 11 90  1  0  0  0
 12 13  2  0  0  0
 12 91  1  0  0  0
 13 14  1  0  0  0
 13 31  1  0  0  0
 14 15  2  0  0  0
 14 92  1  0  0  0
 15 93  1  0  0  0
 16 17  2  0  0  0
 16 21  1  0  0  0
 16 31  1  0  0  0
 17 18  1  0  0  0
 17 94  1  0  0  0
 18 19  2  0  0  0
 18 95  1  0  0  0
 19 20  1  0  0  0
 19 24  1  0  0  0
 20 21  2  0  0  0
 20 96  1  0  0  0
 21 23  1  0  0  0
 22 28  1  0  0  0
 22 32  2  0  0  0
 26 27  1  0  0  0
 28 97  1  0  0  0
 28 98  1  0  0  0
 29 99  1  0  0  0
 29100  1  0  0  0
 33 34  1  0  0  0
 33 66  1  0  0  0
 33 70  2  0  0  0
 34 36  1  0  0  0
 34 59  1  0  0  0
 34101  1  0  0  0
 35 44  2  0  0  0
 35 45  1  0  0  0
 35 68  1  0  0  0
 36 56  1  0  0  0
 36102  1  0  0  0
 37 39  1  0  0  0
 37 47  1  0  0  0
 37 66  1  0  0  0
 37103  1  0  0  0
 38 43  2  0  0  0
 38 46  1  0  0  0
 38 47  1  0  0  0
 39 64  1  0  0  0
 39 67  2  0  0  0
 40 52  1  0  0  0
 40 53  2  0  0  0
 40 58  1  0  0  0
 41104  1  0  0  0
 41105  1  0  0  0
 41106  1  0  0  0
 41 48  1  0  0  0
 42 43  1  0  0  0
 42 66  1  0  0  0
 42107  1  0  0  0
 42108  1  0  0  0
 43 44  1  0  0  0
 44109  1  0  0  0
 45 46  2  0  0  0
 45110  1  0  0  0
 46111  1  0  0  0
 47112  1  0  0  0
 47113  1  0  0  0
 48 56  1  0  0  0
 48 65  1  0  0  0
 48114  1  0  0  0
 49 50  1  0  0  0
 49 53  1  0  0  0
 49 64  1  0  0  0
 49115  1  0  0  0
 50 51  1  0  0  0
 50116  1  0  0  0
 50117  1  0  0  0
 51 52  1  0  0  0
 51118  1  0  0  0
 51119  1  0  0  0
 52120  1  0  0  0
 52121  1  0  0  0
 53 54  1  0  0  0
 54 55  2  0  0  0
 54122  1  0  0  0
 55 57  1  0  0  0
 55123  1  0  0  0
 56 69  2  0  0  0
 57 58  2  0  0  0
 57124  1  0  0  0
 58125  1  0  0  0
 59 60  1  0  0  0
 59 61  1  0  0  0
 59 62  1  0  0  0
 60126  1  0  0  0
 60127  1  0  0  0
 60128  1  0  0  0
 61129  1  0  0  0
 61130  1  0  0  0
 61131  1  0  0  0
 62132  1  0  0  0
 62133  1  0  0  0
 62134  1  0  0  0
 63 65  1  0  0  0
 63135  1  0  0  0
 63136  1  0  0  0
 63137  1  0  0  0
 64138  1  0  0  0
 65139  1  0  0  0
 68 74  1  0  0  0
 71 73  1  0  0  0
 71 75  1  0  0  0
 71140  1  0  0  0
 71141  1  0  0  0
 72 74  1  0  0  0
 72 75  1  0  0  0
 72142  1  0  0  0
 72143  1  0  0  0
 73 74  1  0  0  0
 73 76  1  0  0  0
 73144  1  0  0  0
 74145  1  0  0  0
 75 77  1  0  0  0
 75 78  1  0  0  0
 76146  1  0  0  0
 76147  1  0  0  0
 76148  1  0  0  0
 77149  1  0  0  0
 77150  1  0  0  0
 77151  1  0  0  0
 78 79  1  0  0  0
 78152  1  0  0  0
 78153  1  0  0  0
 79 80  1  0  0  0
 79154  1  0  0  0
 79155  1  0  0  0
 80156  1  0  0  0
M  ISO  4   1 100  68 101  74 101  80 100
M  END
> <chiral flag>
0

> <version>
0

> <s_m_source_file>
/data/baiqing/PycharmProjects/Reinvent-master-3.2/result/LINK_invent/BTK/process_docking_weight1_custom_sum_contain_oxygen_bond_distance_aromatic_linkinvent_7_9_3/rearranged_h_0174.sdf

> <i_m_source_file_index>
59

> <r_mmod_Potential_Energy-OPLS-2005>
1368.84692382812

> <r_mmod_Stretch_Energy-OPLS-2005>
585.181091308594

> <r_mmod_Bend_Energy-OPLS-2005>
516.339599609375

> <r_mmod_Torsional_Energy-OPLS-2005>
269.493743896484

> <r_mmod_Improper_Torsional_Energy-OPLS-2005>
4.45450973510742

> <r_mmod_Van_der_Waal_Energy-OPLS-2005>
106.512107849121

> <r_mmod_Electrostatic_Energy-OPLS-2005>
-356.685455322266

> <r_mmod_Solvation_Energy-OPLS-2005>
-203.760467529297

> <b_mmod_Minimization_Converged-OPLS-2005>
0

> <r_mmod_RMS_Derivative-OPLS-2005>
0.468339651823044

$$$$
61
                    3D
 Structure written by MMmdl.
164173  0  0  1  0            999 V2000
  -30.6847  -14.5982   20.4909 C   0  0  0  0  0  0
  -30.4137  -12.3675   19.4522 C   0  0  0  0  0  0
  -29.4962  -12.4968   18.2198 C   0  0  0  0  0  0
  -28.0200  -12.3472   18.6339 C   0  0  0  0  0  0
  -27.6461  -13.2263   19.8586 C   0  0  2  0  0  0
  -28.6914  -13.1149   20.9895 C   0  0  0  0  0  0
  -25.2531  -13.8202   20.5710 C   0  0  0  0  0  0
  -24.1808  -13.0447   20.9193 C   0  0  0  0  0  0
  -24.6393  -11.6922   20.8745 C   0  0  0  0  0  0
  -23.9071  -10.4298   21.0409 C   0  0  0  0  0  0
  -24.3621   -9.4213   21.9188 C   0  0  0  0  0  0
  -23.6295   -8.2249   22.0759 C   0  0  0  0  0  0
  -22.4279   -8.0285   21.3546 C   0  0  0  0  0  0
  -21.9914   -9.0260   20.4648 C   0  0  0  0  0  0
  -22.7243  -10.2139   20.3058 C   0  0  0  0  0  0
  -21.6857   -6.0739   22.5281 C   0  0  0  0  0  0
  -21.4015   -6.5645   23.8213 C   0  0  0  0  0  0
  -21.3661   -5.6799   24.9176 C   0  0  0  0  0  0
  -21.6046   -4.3061   24.7229 C   0  0  0  0  0  0
  -21.8821   -3.8150   23.4350 C   0  0  0  0  0  0
  -21.9193   -4.6965   22.3405 C   0  0  0  0  0  0
  -22.7829  -13.5227   21.1855 C   0  0  0  0  0  0
  -22.1661   -4.2149   21.0984 F   0  0  0  0  0  0
  -21.5629   -3.4545   25.7742 F   0  0  0  0  0  0
  -30.0043  -13.4149   20.4075 N   0  0  0  0  0  0
  -26.2961  -12.9400   20.3335 N   0  0  0  0  0  0
  -25.9324  -11.6542   20.5772 N   0  0  0  0  0  0
  -22.0482  -12.8211   22.0411 N   0  0  0  0  0  0
  -25.4247  -15.1923   20.4159 N   0  0  0  0  0  0
  -31.8712  -14.6710   20.1544 O   0  0  0  0  0  0
  -21.6644   -6.8880   21.4242 O   0  0  0  0  0  0
  -22.3508  -14.5534   20.6709 O   0  0  0  0  0  0
  -24.6227  -31.8619   23.2043 C   0  0  0  0  0  0
  -25.9086  -32.4790   23.8365 C   0  0  1  0  0  0
  -27.2219  -27.3536   20.1192 C   0  0  0  0  0  0
  -25.5917  -33.8591   24.2297 N   0  0  0  0  0  0
  -23.4151  -30.4850   21.5460 C   0  0  2  0  0  0
  -24.8627  -28.9433   20.1110 C   0  0  0  0  0  0
  -22.7458  -29.4632   22.4952 C   0  0  0  0  0  0
  -18.0282  -28.1378   22.8483 C   0  0  0  0  0  0
  -24.1488  -36.7300   23.2640 C   0  0  0  0  0  0
  -25.9524  -30.8045   21.3691 C   0  0  0  0  0  0
  -26.0296  -29.4340   20.7131 C   0  0  0  0  0  0
  -27.2173  -28.6507   20.7061 C   0  0  0  0  0  0
  -26.0416  -26.9065   19.4899 C   0  0  0  0  0  0
  -24.8684  -27.6836   19.4900 C   0  0  0  0  0  0
  -23.6282  -29.8183   20.1613 C   0  0  0  0  0  0
  -25.4112  -36.3091   24.0333 C   0  0  1  0  0  0
  -20.5879  -28.3678   23.1292 C   0  0  2  0  0  0
  -20.6769  -26.9403   22.5411 C   0  0  0  0  0  0
  -19.5751  -26.6381   21.5207 C   0  0  0  0  0  0
  -18.1928  -26.7924   22.1615 C   0  0  0  0  0  0
  -19.1532  -28.8845   23.2882 C   0  0  0  0  0  0
  -18.9458  -30.1450   23.8896 C   0  0  0  0  0  0
  -17.6459  -30.6584   24.0561 C   0  0  0  0  0  0
  -25.9045  -34.9458   23.5113 C   0  0  0  0  0  0
  -16.5351  -29.9081   23.6329 C   0  0  0  0  0  0
  -16.7270  -28.6497   23.0350 C   0  0  0  0  0  0
  -26.4491  -31.6588   25.0718 C   0  0  0  0  0  0
  -25.3737  -31.3700   26.1450 C   0  0  0  0  0  0
  -27.0340  -30.3024   24.6141 C   0  0  0  0  0  0
  -27.6055  -32.4316   25.7491 C   0  0  0  0  0  0
  -27.5581  -37.1804   24.8465 C   0  0  0  0  0  0
  -21.4174  -29.3039   22.3693 N   0  0  0  0  0  0
  -26.4294  -37.3781   23.9409 N   0  0  0  0  0  0
  -24.6821  -31.0660   22.0976 N   0  0  0  0  0  0
  -23.4195  -28.8170   23.3021 O   0  0  0  0  0  0
  -28.3264  -26.5053   20.1427 O   0  0  0  0  0  0
  -26.5611  -34.8920   22.4678 O   0  0  0  0  0  0
  -23.5399  -32.1404   23.7390 O   0  0  0  0  0  0
  -29.8200  -21.5111   19.2160 C   0  0  0  0  0  0
  -28.4912  -22.6184   20.9005 C   0  0  0  0  0  0
  -28.7230  -23.8783   20.2369 C   0  0  0  0  0  0
  -29.0416  -21.3891   20.3868 C   0  0  0  0  0  0
  -29.5157  -23.8255   19.0634 C   0  0  0  0  0  0
  -28.9366  -17.9260   19.6896 C   0  0  0  0  0  0
  -29.6571  -17.9676   22.0149 C   0  0  0  0  0  0
  -29.7278  -16.5888   19.4861 C   0  0  0  0  0  0
  -30.4453  -16.6336   21.8052 C   0  0  0  0  0  0
  -29.5677  -18.8541   20.7510 C   0  0  0  0  0  0
  -27.6430  -22.5973   22.1686 C   0  0  0  0  0  0
  -29.8377  -25.0527   18.2308 C   0  0  0  0  0  0
  -28.1140  -25.2122   20.8096 C   0  0  0  0  0  0
  -30.0463  -22.6794   18.5789 N   0  0  0  0  0  0
  -29.9724  -15.7599   20.7008 N   0  0  0  0  0  0
  -28.8111  -20.1154   21.0019 N   0  0  0  0  0  0
  -31.4596  -12.4544   19.1533 H   0  0  0  0  0  0
  -30.3138  -11.3805   19.9068 H   0  0  0  0  0  0
  -29.7531  -11.7428   17.4747 H   0  0  0  0  0  0
  -29.6499  -13.4657   17.7417 H   0  0  0  0  0  0
  -27.8502  -11.2957   18.8680 H   0  0  0  0  0  0
  -27.3667  -12.5787   17.7918 H   0  0  0  0  0  0
  -27.6547  -14.2576   19.5076 H   0  0  0  0  0  0
  -28.6910  -12.1147   21.4245 H   0  0  0  0  0  0
  -28.4544  -13.8049   21.8014 H   0  0  0  0  0  0
  -25.2767   -9.5694   22.4763 H   0  0  0  0  0  0
  -24.0007   -7.4644   22.7483 H   0  0  0  0  0  0
  -21.0845   -8.8779   19.8950 H   0  0  0  0  0  0
  -22.3702  -10.9680   19.6168 H   0  0  0  0  0  0
  -21.2009   -7.6153   23.9714 H   0  0  0  0  0  0
  -21.1481   -6.0532   25.9078 H   0  0  0  0  0  0
  -22.0597   -2.7610   23.2857 H   0  0  0  0  0  0
  -22.4105  -11.9868   22.4784 H   0  0  0  0  0  0
  -21.1102  -13.1230   22.2628 H   0  0  0  0  0  0
  -24.6651  -15.8526   20.5404 H   0  0  0  0  0  0
  -26.2935  -15.6329   20.1404 H   0  0  0  0  0  0
  -26.7156  -32.5480   23.1122 H   0  0  0  0  0  0
  -25.0071  -33.9739   25.0445 H   0  0  0  0  0  0
  -22.7069  -31.3041   21.4038 H   0  0  0  0  0  0
  -23.3751  -35.9631   23.3303 H   0  0  0  0  0  0
  -24.3578  -36.8923   22.2055 H   0  0  0  0  0  0
  -23.7239  -37.6500   23.6664 H   0  0  0  0  0  0
  -26.0770  -31.5689   20.6008 H   0  0  0  0  0  0
  -26.8354  -30.8555   21.9946 H   0  0  0  0  0  0
  -28.1156  -29.0205   21.1806 H   0  0  0  0  0  0
  -26.0231  -25.9379   19.0102 H   0  0  0  0  0  0
  -23.9750  -27.3035   19.0141 H   0  0  0  0  0  0
  -23.7428  -30.5941   19.4036 H   0  0  0  0  0  0
  -22.7499  -29.2436   19.8614 H   0  0  0  0  0  0
  -25.1289  -36.1948   25.0826 H   0  0  0  0  0  0
  -20.9971  -28.3251   24.1412 H   0  0  0  0  0  0
  -20.5665  -26.2286   23.3605 H   0  0  0  0  0  0
  -21.6640  -26.7430   22.1212 H   0  0  0  0  0  0
  -19.6912  -25.6292   21.1235 H   0  0  0  0  0  0
  -19.6693  -27.3190   20.6736 H   0  0  0  0  0  0
  -17.4198  -26.6674   21.4015 H   0  0  0  0  0  0
  -18.0327  -26.0064   22.9008 H   0  0  0  0  0  0
  -19.7935  -30.7263   24.2269 H   0  0  0  0  0  0
  -17.5017  -31.6264   24.5160 H   0  0  0  0  0  0
  -15.5352  -30.2984   23.7655 H   0  0  0  0  0  0
  -15.8670  -28.0818   22.7067 H   0  0  0  0  0  0
  -24.5921  -30.7039   25.7779 H   0  0  0  0  0  0
  -24.8913  -32.2852   26.4890 H   0  0  0  0  0  0
  -25.8077  -30.8873   27.0215 H   0  0  0  0  0  0
  -26.2905  -29.6766   24.1191 H   0  0  0  0  0  0
  -27.4092  -29.7282   25.4621 H   0  0  0  0  0  0
  -27.8746  -30.4332   23.9323 H   0  0  0  0  0  0
  -27.2670  -33.3613   26.2074 H   0  0  0  0  0  0
  -28.3863  -32.6879   25.0319 H   0  0  0  0  0  0
  -28.0724  -31.8435   26.5401 H   0  0  0  0  0  0
  -28.2596  -38.0104   24.7516 H   0  0  0  0  0  0
  -28.1081  -36.2634   24.6288 H   0  0  0  0  0  0
  -27.2297  -37.1448   25.8868 H   0  0  0  0  0  0
  -20.9347  -29.8768   21.6911 H   0  0  0  0  0  0
  -26.0178  -38.2859   24.1409 H   0  0  0  0  0  0
  -30.2685  -20.6435   18.7556 H   0  0  0  0  0  0
  -27.9085  -17.6908   19.9693 H   0  0  0  0  0  0
  -28.8735  -18.4494   18.7348 H   0  0  0  0  0  0
  -30.1313  -18.5305   22.8203 H   0  0  0  0  0  0
  -28.6529  -17.7288   22.3690 H   0  0  0  0  0  0
  -30.6912  -16.8319   19.0323 H   0  0  0  0  0  0
  -29.2010  -15.9817   18.7477 H   0  0  0  0  0  0
  -30.4187  -16.0624   22.7350 H   0  0  0  0  0  0
  -31.4961  -16.8790   21.6363 H   0  0  0  0  0  0
  -30.5834  -19.1103   20.4436 H   0  0  0  0  0  0
  -26.6066  -22.8386   21.9331 H   0  0  0  0  0  0
  -28.0109  -23.3263   22.8899 H   0  0  0  0  0  0
  -27.6462  -21.6345   22.6760 H   0  0  0  0  0  0
  -30.3952  -25.7811   18.8192 H   0  0  0  0  0  0
  -28.9223  -25.5191   17.8666 H   0  0  0  0  0  0
  -30.4431  -24.8018   17.3589 H   0  0  0  0  0  0
  -28.5361  -25.3399   21.8068 H   0  0  0  0  0  0
  -27.0521  -25.0317   20.9782 H   0  0  0  0  0  0
  -28.2096  -20.1075   21.8203 H   0  0  0  0  0  0
  1 25  1  0  0  0
  1 30  2  0  0  0
  1 85  1  0  0  0
  2  3  1  0  0  0
  2 25  1  0  0  0
  2 87  1  0  0  0
  2 88  1  0  0  0
  3  4  1  0  0  0
  3 89  1  0  0  0
  3 90  1  0  0  0
  4  5  1  0  0  0
  4 91  1  0  0  0
  4 92  1  0  0  0
  5  6  1  0  0  0
  5 26  1  0  0  0
  5 93  1  0  0  0
  6 25  1  0  0  0
  6 94  1  0  0  0
  6 95  1  0  0  0
  7  8  2  0  0  0
  7 26  1  0  0  0
  7 29  1  0  0  0
  8  9  1  0  0  0
  8 22  1  0  0  0
  9 10  1  0  0  0
  9 27  2  0  0  0
 10 11  2  0  0  0
 10 15  1  0  0  0
 11 12  1  0  0  0
 11 96  1  0  0  0
 12 13  2  0  0  0
 12 97  1  0  0  0
 13 14  1  0  0  0
 13 31  1  0  0  0
 14 15  2  0  0  0
 14 98  1  0  0  0
 15 99  1  0  0  0
 16 17  2  0  0  0
 16 21  1  0  0  0
 16 31  1  0  0  0
 17 18  1  0  0  0
 17100  1  0  0  0
 18 19  2  0  0  0
 18101  1  0  0  0
 19 20  1  0  0  0
 19 24  1  0  0  0
 20 21  2  0  0  0
 20102  1  0  0  0
 21 23  1  0  0  0
 22 28  1  0  0  0
 22 32  2  0  0  0
 26 27  1  0  0  0
 28103  1  0  0  0
 28104  1  0  0  0
 29105  1  0  0  0
 29106  1  0  0  0
 33 34  1  0  0  0
 33 66  1  0  0  0
 33 70  2  0  0  0
 34 36  1  0  0  0
 34 59  1  0  0  0
 34107  1  0  0  0
 35 44  2  0  0  0
 35 45  1  0  0  0
 35 68  1  0  0  0
 36 56  1  0  0  0
 36108  1  0  0  0
 37 39  1  0  0  0
 37 47  1  0  0  0
 37 66  1  0  0  0
 37109  1  0  0  0
 38 43  2  0  0  0
 38 46  1  0  0  0
 38 47  1  0  0  0
 39 64  1  0  0  0
 39 67  2  0  0  0
 40 52  1  0  0  0
 40 53  2  0  0  0
 40 58  1  0  0  0
 41110  1  0  0  0
 41111  1  0  0  0
 41112  1  0  0  0
 41 48  1  0  0  0
 42 43  1  0  0  0
 42 66  1  0  0  0
 42113  1  0  0  0
 42114  1  0  0  0
 43 44  1  0  0  0
 44115  1  0  0  0
 45 46  2  0  0  0
 45116  1  0  0  0
 46117  1  0  0  0
 47118  1  0  0  0
 47119  1  0  0  0
 48 56  1  0  0  0
 48 65  1  0  0  0
 48120  1  0  0  0
 49 50  1  0  0  0
 49 53  1  0  0  0
 49 64  1  0  0  0
 49121  1  0  0  0
 50 51  1  0  0  0
 50122  1  0  0  0
 50123  1  0  0  0
 51 52  1  0  0  0
 51124  1  0  0  0
 51125  1  0  0  0
 52126  1  0  0  0
 52127  1  0  0  0
 53 54  1  0  0  0
 54 55  2  0  0  0
 54128  1  0  0  0
 55 57  1  0  0  0
 55129  1  0  0  0
 56 69  2  0  0  0
 57 58  2  0  0  0
 57130  1  0  0  0
 58131  1  0  0  0
 59 60  1  0  0  0
 59 61  1  0  0  0
 59 62  1  0  0  0
 60132  1  0  0  0
 60133  1  0  0  0
 60134  1  0  0  0
 61135  1  0  0  0
 61136  1  0  0  0
 61137  1  0  0  0
 62138  1  0  0  0
 62139  1  0  0  0
 62140  1  0  0  0
 63 65  1  0  0  0
 63141  1  0  0  0
 63142  1  0  0  0
 63143  1  0  0  0
 64144  1  0  0  0
 65145  1  0  0  0
 68 83  1  0  0  0
 71 74  2  0  0  0
 71 84  1  0  0  0
 71146  1  0  0  0
 72 73  2  0  0  0
 72 74  1  0  0  0
 72 81  1  0  0  0
 73 75  1  0  0  0
 73 83  1  0  0  0
 74 86  1  0  0  0
 75 82  1  0  0  0
 75 84  2  0  0  0
 76 78  1  0  0  0
 76 80  1  0  0  0
 76147  1  0  0  0
 76148  1  0  0  0
 77 79  1  0  0  0
 77 80  1  0  0  0
 77149  1  0  0  0
 77150  1  0  0  0
 78 85  1  0  0  0
 78151  1  0  0  0
 78152  1  0  0  0
 79 85  1  0  0  0
 79153  1  0  0  0
 79154  1  0  0  0
 80 86  1  0  0  0
 80155  1  0  0  0
 81156  1  0  0  0
 81157  1  0  0  0
 81158  1  0  0  0
 82159  1  0  0  0
 82160  1  0  0  0
 82161  1  0  0  0
 83162  1  0  0  0
 83163  1  0  0  0
 86164  1  0  0  0
M  ISO  4   1 100  68 101  83 101  85 100
M  END
> <chiral flag>
0

> <version>
0

> <s_m_source_file>
/data/baiqing/PycharmProjects/Reinvent-master-3.2/result/LINK_invent/BTK/process_docking_weight1_custom_sum_contain_oxygen_bond_distance_aromatic_linkinvent_7_9_3/rearranged_h_0174.sdf

> <i_m_source_file_index>
60

> <r_mmod_Potential_Energy-OPLS-2005>
164.353897094727

> <r_mmod_Stretch_Energy-OPLS-2005>
70.9878540039062

> <r_mmod_Bend_Energy-OPLS-2005>
150.621078491211

> <r_mmod_Torsional_Energy-OPLS-2005>
341.539215087891

> <r_mmod_Improper_Torsional_Energy-OPLS-2005>
10.9884395599365

> <r_mmod_Van_der_Waal_Energy-OPLS-2005>
153.004730224609

> <r_mmod_Electrostatic_Energy-OPLS-2005>
-396.18212890625

> <r_mmod_Solvation_Energy-OPLS-2005>
-206.970443725586

> <b_mmod_Minimization_Converged-OPLS-2005>
0

> <r_mmod_RMS_Derivative-OPLS-2005>
0.572582483291626

$$$$
62
                    3D
 Structure written by MMmdl.
165174  0  0  1  0            999 V2000
  -30.6164  -14.7149   20.5046 C   0  0  0  0  0  0
  -30.4391  -12.4511   19.4525 C   0  0  0  0  0  0
  -29.5065  -12.5124   18.2228 C   0  0  0  0  0  0
  -28.0320  -12.3390   18.6405 C   0  0  0  0  0  0
  -27.6453  -13.2250   19.8543 C   0  0  2  0  0  0
  -28.6938  -13.1300   20.9830 C   0  0  0  0  0  0
  -25.2537  -13.8191   20.5697 C   0  0  0  0  0  0
  -24.1824  -13.0437   20.9214 C   0  0  0  0  0  0
  -24.6403  -11.6913   20.8761 C   0  0  0  0  0  0
  -23.9074  -10.4295   21.0411 C   0  0  0  0  0  0
  -24.3626   -9.4206   21.9183 C   0  0  0  0  0  0
  -23.6301   -8.2241   22.0752 C   0  0  0  0  0  0
  -22.4280   -8.0288   21.3541 C   0  0  0  0  0  0
  -21.9921   -9.0264   20.4643 C   0  0  0  0  0  0
  -22.7254  -10.2137   20.3058 C   0  0  0  0  0  0
  -21.6853   -6.0744   22.5281 C   0  0  0  0  0  0
  -21.4009   -6.5643   23.8214 C   0  0  0  0  0  0
  -21.3654   -5.6795   24.9177 C   0  0  0  0  0  0
  -21.6044   -4.3061   24.7226 C   0  0  0  0  0  0
  -21.8819   -3.8154   23.4345 C   0  0  0  0  0  0
  -21.9191   -4.6973   22.3402 C   0  0  0  0  0  0
  -22.7845  -13.5223   21.1871 C   0  0  0  0  0  0
  -22.1664   -4.2162   21.0977 F   0  0  0  0  0  0
  -21.5624   -3.4545   25.7734 F   0  0  0  0  0  0
  -29.9917  -13.4948   20.3999 N   0  0  0  0  0  0
  -26.2958  -12.9376   20.3310 N   0  0  0  0  0  0
  -25.9330  -11.6519   20.5756 N   0  0  0  0  0  0
  -22.0490  -12.8208   22.0427 N   0  0  0  0  0  0
  -25.4232  -15.1911   20.4094 N   0  0  0  0  0  0
  -31.8036  -14.8424   20.1962 O   0  0  0  0  0  0
  -21.6634   -6.8887   21.4241 O   0  0  0  0  0  0
  -22.3533  -14.5532   20.6734 O   0  0  0  0  0  0
  -24.6311  -31.8531   23.1955 C   0  0  0  0  0  0
  -25.9121  -32.4736   23.8316 C   0  0  1  0  0  0
  -27.2277  -27.2521   20.1381 C   0  0  0  0  0  0
  -25.5889  -33.8545   24.2222 N   0  0  0  0  0  0
  -23.4293  -30.4729   21.5409 C   0  0  2  0  0  0
  -24.8787  -28.9159   20.1157 C   0  0  0  0  0  0
  -22.7512  -29.4562   22.4918 C   0  0  0  0  0  0
  -18.0280  -28.1391   22.8469 C   0  0  0  0  0  0
  -24.1481  -36.7314   23.2641 C   0  0  0  0  0  0
  -25.9750  -30.7648   21.3735 C   0  0  0  0  0  0
  -26.0504  -29.3836   20.7233 C   0  0  0  0  0  0
  -27.2283  -28.5658   20.7214 C   0  0  0  0  0  0
  -26.0353  -26.8593   19.4900 C   0  0  0  0  0  0
  -24.8758  -27.6615   19.4870 C   0  0  0  0  0  0
  -23.6478  -29.8026   20.1601 C   0  0  0  0  0  0
  -25.4109  -36.3065   24.0306 C   0  0  1  0  0  0
  -20.5878  -28.3696   23.1278 C   0  0  2  0  0  0
  -20.6776  -26.9407   22.5430 C   0  0  0  0  0  0
  -19.5765  -26.6374   21.5218 C   0  0  0  0  0  0
  -18.1932  -26.7923   22.1607 C   0  0  0  0  0  0
  -19.1535  -28.8866   23.2855 C   0  0  0  0  0  0
  -18.9461  -30.1458   23.8879 C   0  0  0  0  0  0
  -17.6467  -30.6596   24.0555 C   0  0  0  0  0  0
  -25.9046  -34.9427   23.5080 C   0  0  0  0  0  0
  -16.5353  -29.9084   23.6336 C   0  0  0  0  0  0
  -16.7267  -28.6504   23.0344 C   0  0  0  0  0  0
  -26.4471  -31.6568   25.0732 C   0  0  0  0  0  0
  -25.3688  -31.3730   26.1462 C   0  0  0  0  0  0
  -27.0300  -30.2964   24.6217 C   0  0  0  0  0  0
  -27.6046  -32.4308   25.7486 C   0  0  0  0  0  0
  -27.5569  -37.1798   24.8448 C   0  0  0  0  0  0
  -21.4219  -29.3036   22.3681 N   0  0  0  0  0  0
  -26.4277  -37.3764   23.9400 N   0  0  0  0  0  0
  -24.6983  -31.0474   22.0940 N   0  0  0  0  0  0
  -23.4214  -28.8099   23.3013 O   0  0  0  0  0  0
  -28.3296  -26.3629   20.1669 O   0  0  0  0  0  0
  -26.5665  -34.8904   22.4677 O   0  0  0  0  0  0
  -23.5463  -32.1338   23.7256 O   0  0  0  0  0  0
  -30.3649  -20.9258   18.8918 C   0  0  0  0  0  0
  -29.4712  -19.8325   20.8886 C   0  0  0  0  0  0
  -29.6233  -21.0692   20.1172 C   0  0  0  0  0  0
  -30.7092  -19.6119   18.4374 C   0  0  0  0  0  0
  -29.9963  -18.5487   20.4367 C   0  0  0  0  0  0
  -32.2788  -22.1678   17.5578 C   0  0  0  0  0  0
  -31.8043  -23.1481   18.5840 C   0  0  0  0  0  0
  -30.8395  -22.0952   18.0544 C   0  0  0  0  0  0
  -28.7607  -19.8636   22.2357 C   0  0  0  0  0  0
  -31.3362  -19.3058   17.0855 C   0  0  0  0  0  0
  -30.2063  -17.2119   21.2721 C   0  0  0  0  0  0
  -29.2052  -23.7722   20.0842 C   0  0  0  0  0  0
  -28.1077  -24.9014   20.4764 C   0  0  0  0  0  0
  -30.5384  -18.5248   19.2157 N   0  3  0  0  0  0
  -29.0578  -22.3378   20.5871 N   0  0  0  0  0  0
  -29.8336  -15.8186   20.7841 N   0  0  0  0  0  0
  -31.4765  -12.5898   19.1447 H   0  0  0  0  0  0
  -30.3951  -11.4668   19.9196 H   0  0  0  0  0  0
  -29.7805  -11.7422   17.5001 H   0  0  0  0  0  0
  -29.6325  -13.4683   17.7116 H   0  0  0  0  0  0
  -27.8806  -11.2878   18.8878 H   0  0  0  0  0  0
  -27.3728  -12.5494   17.7969 H   0  0  0  0  0  0
  -27.6477  -14.2530   19.4907 H   0  0  0  0  0  0
  -28.7313  -12.1202   21.3948 H   0  0  0  0  0  0
  -28.4336  -13.7841   21.8171 H   0  0  0  0  0  0
  -25.2772   -9.5682   22.4760 H   0  0  0  0  0  0
  -24.0016   -7.4629   22.7469 H   0  0  0  0  0  0
  -21.0857   -8.8785   19.8946 H   0  0  0  0  0  0
  -22.3719  -10.9679   19.6172 H   0  0  0  0  0  0
  -21.2002   -7.6150   23.9724 H   0  0  0  0  0  0
  -21.1469   -6.0521   25.9077 H   0  0  0  0  0  0
  -22.0601   -2.7620   23.2839 H   0  0  0  0  0  0
  -22.4122  -11.9861   22.4792 H   0  0  0  0  0  0
  -21.1101  -13.1204   22.2630 H   0  0  0  0  0  0
  -24.6503  -15.8400   20.5092 H   0  0  0  0  0  0
  -26.2589  -15.6273   20.0426 H   0  0  0  0  0  0
  -26.7192  -32.5383   23.1073 H   0  0  0  0  0  0
  -24.9953  -33.9674   25.0310 H   0  0  0  0  0  0
  -22.7241  -31.2936   21.3916 H   0  0  0  0  0  0
  -23.3722  -35.9657   23.3282 H   0  0  0  0  0  0
  -24.3578  -36.8993   22.2059 H   0  0  0  0  0  0
  -23.7258  -37.6510   23.6713 H   0  0  0  0  0  0
  -26.1050  -31.5164   20.5939 H   0  0  0  0  0  0
  -26.8559  -30.8242   22.0015 H   0  0  0  0  0  0
  -28.1285  -28.9200   21.2058 H   0  0  0  0  0  0
  -25.9782  -25.9140   18.9718 H   0  0  0  0  0  0
  -23.9811  -27.3024   18.9976 H   0  0  0  0  0  0
  -23.7673  -30.5762   19.4005 H   0  0  0  0  0  0
  -22.7669  -29.2321   19.8585 H   0  0  0  0  0  0
  -25.1271  -36.1904   25.0791 H   0  0  0  0  0  0
  -20.9941  -28.3278   24.1405 H   0  0  0  0  0  0
  -20.5678  -26.2296   23.3624 H   0  0  0  0  0  0
  -21.6652  -26.7435   22.1226 H   0  0  0  0  0  0
  -19.6944  -25.6283   21.1255 H   0  0  0  0  0  0
  -19.6723  -27.3177   20.6745 H   0  0  0  0  0  0
  -17.4207  -26.6666   21.3994 H   0  0  0  0  0  0
  -18.0327  -26.0050   22.8997 H   0  0  0  0  0  0
  -19.7942  -30.7266   24.2241 H   0  0  0  0  0  0
  -17.5022  -31.6268   24.5171 H   0  0  0  0  0  0
  -15.5352  -30.2984   23.7681 H   0  0  0  0  0  0
  -15.8659  -28.0827   22.7067 H   0  0  0  0  0  0
  -24.5891  -30.7021   25.7836 H   0  0  0  0  0  0
  -24.8832  -32.2885   26.4838 H   0  0  0  0  0  0
  -25.8011  -30.8983   27.0280 H   0  0  0  0  0  0
  -26.2877  -29.6725   24.1230 H   0  0  0  0  0  0
  -27.3949  -29.7213   25.4737 H   0  0  0  0  0  0
  -27.8750  -30.4210   23.9456 H   0  0  0  0  0  0
  -27.2689  -33.3666   26.1961 H   0  0  0  0  0  0
  -28.3893  -32.6777   25.0327 H   0  0  0  0  0  0
  -28.0629  -31.8481   26.5476 H   0  0  0  0  0  0
  -28.2569  -38.0106   24.7506 H   0  0  0  0  0  0
  -28.1090  -36.2649   24.6253 H   0  0  0  0  0  0
  -27.2312  -37.1429   25.8857 H   0  0  0  0  0  0
  -20.9422  -29.8758   21.6875 H   0  0  0  0  0  0
  -26.0151  -38.2837   24.1421 H   0  0  0  0  0  0
  -32.9979  -21.4280   17.9051 H   0  0  0  0  0  0
  -32.4484  -22.5424   16.5502 H   0  0  0  0  0  0
  -31.6987  -24.1764   18.2416 H   0  0  0  0  0  0
  -32.1879  -23.0314   19.5961 H   0  0  0  0  0  0
  -30.0692  -22.3993   17.3482 H   0  0  0  0  0  0
  -28.1543  -20.7558   22.3834 H   0  0  0  0  0  0
  -29.4870  -19.8068   23.0466 H   0  0  0  0  0  0
  -28.0814  -19.0155   22.3256 H   0  0  0  0  0  0
  -31.1434  -20.0836   16.3484 H   0  0  0  0  0  0
  -30.9278  -18.3797   16.6761 H   0  0  0  0  0  0
  -32.4138  -19.1767   17.1871 H   0  0  0  0  0  0
  -29.7259  -17.3334   22.2414 H   0  0  0  0  0  0
  -31.2708  -17.1859   21.5129 H   0  0  0  0  0  0
  -30.1684  -24.1292   20.4518 H   0  0  0  0  0  0
  -29.2533  -23.7771   18.9985 H   0  0  0  0  0  0
  -27.9481  -24.8514   21.5535 H   0  0  0  0  0  0
  -27.1710  -24.5557   20.0445 H   0  0  0  0  0  0
  -30.9004  -17.6306   18.8814 H   0  0  0  0  0  0
  -28.6787  -22.2738   21.5252 H   0  0  0  0  0  0
  -28.8558  -15.5997   20.8961 H   0  0  0  0  0  0
  1 25  1  0  0  0
  1 30  2  0  0  0
  1 86  1  0  0  0
  2  3  1  0  0  0
  2 25  1  0  0  0
  2 87  1  0  0  0
  2 88  1  0  0  0
  3  4  1  0  0  0
  3 89  1  0  0  0
  3 90  1  0  0  0
  4  5  1  0  0  0
  4 91  1  0  0  0
  4 92  1  0  0  0
  5  6  1  0  0  0
  5 26  1  0  0  0
  5 93  1  0  0  0
  6 25  1  0  0  0
  6 94  1  0  0  0
  6 95  1  0  0  0
  7  8  2  0  0  0
  7 26  1  0  0  0
  7 29  1  0  0  0
  8  9  1  0  0  0
  8 22  1  0  0  0
  9 10  1  0  0  0
  9 27  2  0  0  0
 10 11  2  0  0  0
 10 15  1  0  0  0
 11 12  1  0  0  0
 11 96  1  0  0  0
 12 13  2  0  0  0
 12 97  1  0  0  0
 13 14  1  0  0  0
 13 31  1  0  0  0
 14 15  2  0  0  0
 14 98  1  0  0  0
 15 99  1  0  0  0
 16 17  2  0  0  0
 16 21  1  0  0  0
 16 31  1  0  0  0
 17 18  1  0  0  0
 17100  1  0  0  0
 18 19  2  0  0  0
 18101  1  0  0  0
 19 20  1  0  0  0
 19 24  1  0  0  0
 20 21  2  0  0  0
 20102  1  0  0  0
 21 23  1  0  0  0
 22 28  1  0  0  0
 22 32  2  0  0  0
 26 27  1  0  0  0
 28103  1  0  0  0
 28104  1  0  0  0
 29105  1  0  0  0
 29106  1  0  0  0
 33 34  1  0  0  0
 33 66  1  0  0  0
 33 70  2  0  0  0
 34 36  1  0  0  0
 34 59  1  0  0  0
 34107  1  0  0  0
 35 44  2  0  0  0
 35 45  1  0  0  0
 35 68  1  0  0  0
 36 56  1  0  0  0
 36108  1  0  0  0
 37 39  1  0  0  0
 37 47  1  0  0  0
 37 66  1  0  0  0
 37109  1  0  0  0
 38 43  2  0  0  0
 38 46  1  0  0  0
 38 47  1  0  0  0
 39 64  1  0  0  0
 39 67  2  0  0  0
 40 52  1  0  0  0
 40 53  2  0  0  0
 40 58  1  0  0  0
 41110  1  0  0  0
 41111  1  0  0  0
 41112  1  0  0  0
 41 48  1  0  0  0
 42 43  1  0  0  0
 42 66  1  0  0  0
 42113  1  0  0  0
 42114  1  0  0  0
 43 44  1  0  0  0
 44115  1  0  0  0
 45 46  2  0  0  0
 45116  1  0  0  0
 46117  1  0  0  0
 47118  1  0  0  0
 47119  1  0  0  0
 48 56  1  0  0  0
 48 65  1  0  0  0
 48120  1  0  0  0
 49 50  1  0  0  0
 49 53  1  0  0  0
 49 64  1  0  0  0
 49121  1  0  0  0
 50 51  1  0  0  0
 50122  1  0  0  0
 50123  1  0  0  0
 51 52  1  0  0  0
 51124  1  0  0  0
 51125  1  0  0  0
 52126  1  0  0  0
 52127  1  0  0  0
 53 54  1  0  0  0
 54 55  2  0  0  0
 54128  1  0  0  0
 55 57  1  0  0  0
 55129  1  0  0  0
 56 69  2  0  0  0
 57 58  2  0  0  0
 57130  1  0  0  0
 58131  1  0  0  0
 59 60  1  0  0  0
 59 61  1  0  0  0
 59 62  1  0  0  0
 60132  1  0  0  0
 60133  1  0  0  0
 60134  1  0  0  0
 61135  1  0  0  0
 61136  1  0  0  0
 61137  1  0  0  0
 62138  1  0  0  0
 62139  1  0  0  0
 62140  1  0  0  0
 63 65  1  0  0  0
 63141  1  0  0  0
 63142  1  0  0  0
 63143  1  0  0  0
 64144  1  0  0  0
 65145  1  0  0  0
 68 83  1  0  0  0
 71 73  1  0  0  0
 71 74  2  0  0  0
 71 78  1  0  0  0
 72 73  2  0  0  0
 72 75  1  0  0  0
 72 79  1  0  0  0
 73 85  1  0  0  0
 74 80  1  0  0  0
 74 84  1  0  0  0
 75 81  1  0  0  0
 75 84  2  0  0  0
 76 77  1  0  0  0
 76 78  1  0  0  0
 76146  1  0  0  0
 76147  1  0  0  0
 77 78  1  0  0  0
 77148  1  0  0  0
 77149  1  0  0  0
 78150  1  0  0  0
 79151  1  0  0  0
 79152  1  0  0  0
 79153  1  0  0  0
 80154  1  0  0  0
 80155  1  0  0  0
 80156  1  0  0  0
 81 86  1  0  0  0
 81157  1  0  0  0
 81158  1  0  0  0
 82 83  1  0  0  0
 82 85  1  0  0  0
 82159  1  0  0  0
 82160  1  0  0  0
 83161  1  0  0  0
 83162  1  0  0  0
 84163  1  0  0  0
 85164  1  0  0  0
 86165  1  0  0  0
M  CHG  1  84   1
M  ISO  4   1 100  68 101  83 101  86 100
M  END
> <chiral flag>
0

> <version>
0

> <s_m_source_file>
/data/baiqing/PycharmProjects/Reinvent-master-3.2/result/LINK_invent/BTK/process_docking_weight1_custom_sum_contain_oxygen_bond_distance_aromatic_linkinvent_7_9_3/rearranged_h_0174.sdf

> <i_m_source_file_index>
61

> <r_mmod_Potential_Energy-OPLS-2005>
87.5815811157227

> <r_mmod_Stretch_Energy-OPLS-2005>
130.164215087891

> <r_mmod_Bend_Energy-OPLS-2005>
193.478118896484

> <r_mmod_Torsional_Energy-OPLS-2005>
249.847869873047

> <r_mmod_Improper_Torsional_Energy-OPLS-2005>
5.97257709503174

> <r_mmod_Van_der_Waal_Energy-OPLS-2005>
149.512161254883

> <r_mmod_Electrostatic_Energy-OPLS-2005>
-321.023529052734

> <r_mmod_Solvation_Energy-OPLS-2005>
-399.963897705078

> <b_mmod_Minimization_Converged-OPLS-2005>
0

> <r_mmod_RMS_Derivative-OPLS-2005>
2.90075135231018

$$$$
63
                    3D
 Structure written by MMmdl.
157166  0  0  1  0            999 V2000
  -30.4781  -15.0821   20.3830 C   0  0  0  0  0  0
  -30.4412  -12.6693   19.5301 C   0  0  0  0  0  0
  -29.5350  -12.5552   18.2799 C   0  0  0  0  0  0
  -28.0691  -12.3219   18.6884 C   0  0  0  0  0  0
  -27.6264  -13.2609   19.8402 C   0  0  2  0  0  0
  -28.6615  -13.3344   20.9839 C   0  0  0  0  0  0
  -25.2439  -13.8239   20.5713 C   0  0  0  0  0  0
  -24.1772  -13.0443   20.9228 C   0  0  0  0  0  0
  -24.6400  -11.6933   20.8749 C   0  0  0  0  0  0
  -23.9085  -10.4296   21.0397 C   0  0  0  0  0  0
  -24.3636   -9.4214   21.9176 C   0  0  0  0  0  0
  -23.6304   -8.2249   22.0750 C   0  0  0  0  0  0
  -22.4286   -8.0286   21.3541 C   0  0  0  0  0  0
  -21.9924   -9.0257   20.4641 C   0  0  0  0  0  0
  -22.7256  -10.2136   20.3048 C   0  0  0  0  0  0
  -21.6862   -6.0734   22.5274 C   0  0  0  0  0  0
  -21.4018   -6.5638   23.8207 C   0  0  0  0  0  0
  -21.3665   -5.6793   24.9172 C   0  0  0  0  0  0
  -21.6045   -4.3052   24.7224 C   0  0  0  0  0  0
  -21.8819   -3.8144   23.4341 C   0  0  0  0  0  0
  -21.9196   -4.6960   22.3399 C   0  0  0  0  0  0
  -22.7788  -13.5207   21.1883 C   0  0  0  0  0  0
  -22.1661   -4.2143   21.0973 F   0  0  0  0  0  0
  -21.5638   -3.4539   25.7737 F   0  0  0  0  0  0
  -29.9270  -13.7863   20.3898 N   0  0  0  0  0  0
  -26.2866  -12.9488   20.3240 N   0  0  0  0  0  0
  -25.9334  -11.6604   20.5729 N   0  0  0  0  0  0
  -22.0440  -12.8195   22.0439 N   0  0  0  0  0  0
  -25.4102  -15.1974   20.4137 N   0  0  0  0  0  0
  -31.6682  -15.1416   20.0485 O   0  0  0  0  0  0
  -21.6651   -6.8879   21.4236 O   0  0  0  0  0  0
  -22.3467  -14.5502   20.6714 O   0  0  0  0  0  0
  -24.6495  -31.8335   23.1775 C   0  0  0  0  0  0
  -25.9232  -32.4634   23.8204 C   0  0  1  0  0  0
  -27.2277  -27.0446   20.1671 C   0  0  0  0  0  0
  -25.5947  -33.8447   24.2118 N   0  0  0  0  0  0
  -23.4593  -30.4454   21.5232 C   0  0  2  0  0  0
  -24.9125  -28.8501   20.1031 C   0  0  0  0  0  0
  -22.7600  -29.4483   22.4816 C   0  0  0  0  0  0
  -18.0305  -28.1402   22.8475 C   0  0  0  0  0  0
  -24.1489  -36.7228   23.2647 C   0  0  0  0  0  0
  -26.0177  -30.6767   21.3896 C   0  0  0  0  0  0
  -26.0865  -29.2782   20.7321 C   0  0  0  0  0  0
  -27.2350  -28.3908   20.7463 C   0  0  0  0  0  0
  -26.0274  -26.7318   19.4934 C   0  0  0  0  0  0
  -24.9013  -27.5952   19.4670 C   0  0  0  0  0  0
  -23.6912  -29.7627   20.1456 C   0  0  0  0  0  0
  -25.4129  -36.3000   24.0306 C   0  0  1  0  0  0
  -20.5925  -28.3734   23.1222 C   0  0  2  0  0  0
  -20.6789  -26.9426   22.5415 C   0  0  0  0  0  0
  -19.5766  -26.6378   21.5222 C   0  0  0  0  0  0
  -18.1945  -26.7938   22.1624 C   0  0  0  0  0  0
  -19.1566  -28.8887   23.2838 C   0  0  0  0  0  0
  -18.9481  -30.1480   23.8866 C   0  0  0  0  0  0
  -17.6477  -30.6598   24.0557 C   0  0  0  0  0  0
  -25.9086  -34.9377   23.5033 C   0  0  0  0  0  0
  -16.5366  -29.9090   23.6339 C   0  0  0  0  0  0
  -16.7289  -28.6509   23.0360 C   0  0  0  0  0  0
  -26.4530  -31.6550   25.0693 C   0  0  0  0  0  0
  -25.3688  -31.3770   26.1372 C   0  0  0  0  0  0
  -27.0417  -30.2935   24.6350 C   0  0  0  0  0  0
  -27.6040  -32.4345   25.7487 C   0  0  0  0  0  0
  -27.5573  -37.1768   24.8463 C   0  0  0  0  0  0
  -21.4282  -29.3035   22.3574 N   0  0  0  0  0  0
  -26.4282  -37.3727   23.9409 N   0  0  0  0  0  0
  -24.7291  -31.0101   22.0845 N   0  0  0  0  0  0
  -23.4203  -28.8055   23.3018 O   0  0  0  0  0  0
  -28.2930  -26.0567   20.3319 O   0  0  0  0  0  0
  -26.5695  -34.8897   22.4627 O   0  0  0  0  0  0
  -23.5597  -32.1253   23.6946 O   0  0  0  0  0  0
  -31.3141  -18.6489   19.0657 C   0  0  0  0  0  0
  -30.1361  -17.8174   18.5251 C   0  0  0  0  0  0
  -28.4230  -18.8627   20.4719 C   0  0  0  0  0  0
  -30.4182  -19.1116   20.2167 C   0  0  1  0  0  0
  -29.1995  -20.1735   19.9297 C   0  0  2  0  0  0
  -29.5368  -17.7875   19.9491 C   0  0  2  0  0  0
  -28.4992  -24.6257   18.2941 C   0  0  0  0  0  0
  -28.1775  -22.9375   20.3167 C   0  0  0  0  0  0
  -28.5737  -24.5583   19.8240 C   0  0  2  0  0  0
  -29.6714  -16.2774   20.5568 N   0  0  0  0  0  0
  -29.1979  -21.6879   20.5324 N   0  3  0  0  0  0
  -31.4731  -12.8371   19.2200 H   0  0  0  0  0  0
  -30.4520  -11.7293   20.0845 H   0  0  0  0  0  0
  -29.8779  -11.7465   17.6328 H   0  0  0  0  0  0
  -29.6099  -13.4720   17.6934 H   0  0  0  0  0  0
  -27.9780  -11.2825   19.0059 H   0  0  0  0  0  0
  -27.4108  -12.4380   17.8266 H   0  0  0  0  0  0
  -27.5763  -14.2555   19.3957 H   0  0  0  0  0  0
  -28.7754  -12.3679   21.4770 H   0  0  0  0  0  0
  -28.3333  -14.0364   21.7518 H   0  0  0  0  0  0
  -25.2775   -9.5698   22.4759 H   0  0  0  0  0  0
  -24.0013   -7.4647   22.7474 H   0  0  0  0  0  0
  -21.0855   -8.8774   19.8949 H   0  0  0  0  0  0
  -22.3703  -10.9675   19.6166 H   0  0  0  0  0  0
  -21.2002   -7.6144   23.9706 H   0  0  0  0  0  0
  -21.1493   -6.0524   25.9077 H   0  0  0  0  0  0
  -22.0591   -2.7604   23.2846 H   0  0  0  0  0  0
  -22.4062  -11.9871   22.4853 H   0  0  0  0  0  0
  -21.1039  -13.1192   22.2609 H   0  0  0  0  0  0
  -24.6396  -15.8479   20.5206 H   0  0  0  0  0  0
  -26.2492  -15.6349   20.0557 H   0  0  0  0  0  0
  -26.7293  -32.5210   23.0922 H   0  0  0  0  0  0
  -25.0036  -33.9546   25.0227 H   0  0  0  0  0  0
  -22.7662  -31.2734   21.3592 H   0  0  0  0  0  0
  -23.3767  -35.9544   23.3280 H   0  0  0  0  0  0
  -24.3567  -36.8899   22.2068 H   0  0  0  0  0  0
  -23.7228  -37.6403   23.6714 H   0  0  0  0  0  0
  -26.1861  -31.4258   20.6150 H   0  0  0  0  0  0
  -26.8823  -30.7289   22.0394 H   0  0  0  0  0  0
  -28.1234  -28.7106   21.2723 H   0  0  0  0  0  0
  -25.9213  -25.7627   19.0298 H   0  0  0  0  0  0
  -24.0030  -27.2609   18.9663 H   0  0  0  0  0  0
  -23.8319  -30.5326   19.3860 H   0  0  0  0  0  0
  -22.8043  -29.2074   19.8357 H   0  0  0  0  0  0
  -25.1324  -36.1809   25.0799 H   0  0  0  0  0  0
  -21.0012  -28.3334   24.1346 H   0  0  0  0  0  0
  -20.5676  -26.2348   23.3644 H   0  0  0  0  0  0
  -21.6654  -26.7419   22.1215 H   0  0  0  0  0  0
  -19.6925  -25.6280   21.1275 H   0  0  0  0  0  0
  -19.6709  -27.3170   20.6738 H   0  0  0  0  0  0
  -17.4216  -26.6683   21.4023 H   0  0  0  0  0  0
  -18.0333  -26.0087   22.9026 H   0  0  0  0  0  0
  -19.7959  -30.7304   24.2222 H   0  0  0  0  0  0
  -17.5031  -31.6274   24.5164 H   0  0  0  0  0  0
  -15.5367  -30.2983   23.7681 H   0  0  0  0  0  0
  -15.8688  -28.0817   22.7095 H   0  0  0  0  0  0
  -24.5874  -30.7114   25.7684 H   0  0  0  0  0  0
  -24.8872  -32.2962   26.4717 H   0  0  0  0  0  0
  -25.7946  -30.8988   27.0203 H   0  0  0  0  0  0
  -26.3059  -29.6627   24.1351 H   0  0  0  0  0  0
  -27.3985  -29.7277   25.4968 H   0  0  0  0  0  0
  -27.8982  -30.4147   23.9715 H   0  0  0  0  0  0
  -27.2614  -33.3673   26.1978 H   0  0  0  0  0  0
  -28.3894  -32.6862   25.0346 H   0  0  0  0  0  0
  -28.0660  -31.8529   26.5476 H   0  0  0  0  0  0
  -28.2571  -38.0084   24.7526 H   0  0  0  0  0  0
  -28.1089  -36.2612   24.6272 H   0  0  0  0  0  0
  -27.2289  -37.1387   25.8865 H   0  0  0  0  0  0
  -20.9512  -29.8718   21.6716 H   0  0  0  0  0  0
  -26.0137  -38.2788   24.1427 H   0  0  0  0  0  0
  -31.6544  -19.4427   18.3997 H   0  0  0  0  0  0
  -32.1456  -18.0315   19.4090 H   0  0  0  0  0  0
  -30.4431  -16.8550   18.1150 H   0  0  0  0  0  0
  -29.5158  -18.3475   17.8012 H   0  0  0  0  0  0
  -27.4438  -18.7299   20.0103 H   0  0  0  0  0  0
  -28.3160  -18.8556   21.5588 H   0  0  0  0  0  0
  -30.8739  -19.1506   21.2090 H   0  0  0  0  0  0
  -29.0357  -20.2774   18.8571 H   0  0  0  0  0  0
  -29.0415  -23.7948   17.8428 H   0  0  0  0  0  0
  -28.9397  -25.5488   17.9179 H   0  0  0  0  0  0
  -27.4712  -24.5727   17.9397 H   0  0  0  0  0  0
  -27.3854  -22.5767   19.6607 H   0  0  0  0  0  0
  -27.6811  -23.0399   21.2813 H   0  0  0  0  0  0
  -29.6425  -24.5526   20.0391 H   0  0  0  0  0  0
  -28.7974  -16.0061   20.9829 H   0  0  0  0  0  0
  -30.0882  -22.0602   20.2420 H   0  0  0  0  0  0
  -29.2913  -21.5925   21.5309 H   0  0  0  0  0  0
  1 25  1  0  0  0
  1 30  2  0  0  0
  1 80  1  0  0  0
  2  3  1  0  0  0
  2 25  1  0  0  0
  2 82  1  0  0  0
  2 83  1  0  0  0
  3  4  1  0  0  0
  3 84  1  0  0  0
  3 85  1  0  0  0
  4  5  1  0  0  0
  4 86  1  0  0  0
  4 87  1  0  0  0
  5  6  1  0  0  0
  5 26  1  0  0  0
  5 88  1  0  0  0
  6 25  1  0  0  0
  6 89  1  0  0  0
  6 90  1  0  0  0
  7  8  2  0  0  0
  7 26  1  0  0  0
  7 29  1  0  0  0
  8  9  1  0  0  0
  8 22  1  0  0  0
  9 10  1  0  0  0
  9 27  2  0  0  0
 10 11  2  0  0  0
 10 15  1  0  0  0
 11 12  1  0  0  0
 11 91  1  0  0  0
 12 13  2  0  0  0
 12 92  1  0  0  0
 13 14  1  0  0  0
 13 31  1  0  0  0
 14 15  2  0  0  0
 14 93  1  0  0  0
 15 94  1  0  0  0
 16 17  2  0  0  0
 16 21  1  0  0  0
 16 31  1  0  0  0
 17 18  1  0  0  0
 17 95  1  0  0  0
 18 19  2  0  0  0
 18 96  1  0  0  0
 19 20  1  0  0  0
 19 24  1  0  0  0
 20 21  2  0  0  0
 20 97  1  0  0  0
 21 23  1  0  0  0
 22 28  1  0  0  0
 22 32  2  0  0  0
 26 27  1  0  0  0
 28 98  1  0  0  0
 28 99  1  0  0  0
 29100  1  0  0  0
 29101  1  0  0  0
 33 34  1  0  0  0
 33 66  1  0  0  0
 33 70  2  0  0  0
 34 36  1  0  0  0
 34 59  1  0  0  0
 34102  1  0  0  0
 35 44  2  0  0  0
 35 45  1  0  0  0
 35 68  1  0  0  0
 36 56  1  0  0  0
 36103  1  0  0  0
 37 39  1  0  0  0
 37 47  1  0  0  0
 37 66  1  0  0  0
 37104  1  0  0  0
 38 43  2  0  0  0
 38 46  1  0  0  0
 38 47  1  0  0  0
 39 64  1  0  0  0
 39 67  2  0  0  0
 40 52  1  0  0  0
 40 53  2  0  0  0
 40 58  1  0  0  0
 41105  1  0  0  0
 41106  1  0  0  0
 41107  1  0  0  0
 41 48  1  0  0  0
 42 43  1  0  0  0
 42 66  1  0  0  0
 42108  1  0  0  0
 42109  1  0  0  0
 43 44  1  0  0  0
 44110  1  0  0  0
 45 46  2  0  0  0
 45111  1  0  0  0
 46112  1  0  0  0
 47113  1  0  0  0
 47114  1  0  0  0
 48 56  1  0  0  0
 48 65  1  0  0  0
 48115  1  0  0  0
 49 50  1  0  0  0
 49 53  1  0  0  0
 49 64  1  0  0  0
 49116  1  0  0  0
 50 51  1  0  0  0
 50117  1  0  0  0
 50118  1  0  0  0
 51 52  1  0  0  0
 51119  1  0  0  0
 51120  1  0  0  0
 52121  1  0  0  0
 52122  1  0  0  0
 53 54  1  0  0  0
 54 55  2  0  0  0
 54123  1  0  0  0
 55 57  1  0  0  0
 55124  1  0  0  0
 56 69  2  0  0  0
 57 58  2  0  0  0
 57125  1  0  0  0
 58126  1  0  0  0
 59 60  1  0  0  0
 59 61  1  0  0  0
 59 62  1  0  0  0
 60127  1  0  0  0
 60128  1  0  0  0
 60129  1  0  0  0
 61130  1  0  0  0
 61131  1  0  0  0
 61132  1  0  0  0
 62133  1  0  0  0
 62134  1  0  0  0
 62135  1  0  0  0
 63 65  1  0  0  0
 63136  1  0  0  0
 63137  1  0  0  0
 63138  1  0  0  0
 64139  1  0  0  0
 65140  1  0  0  0
 68 79  1  0  0  0
 71 72  1  0  0  0
 71141  1  0  0  0
 71142  1  0  0  0
 71 74  1  0  0  0
 72 76  1  0  0  0
 72143  1  0  0  0
 72144  1  0  0  0
 73 75  1  0  0  0
 73 76  1  0  0  0
 73145  1  0  0  0
 73146  1  0  0  0
 74 75  1  0  0  0
 74 76  1  0  0  0
 74147  1  0  0  0
 75 81  1  0  0  0
 75148  1  0  0  0
 76 80  1  0  0  0
 77149  1  0  0  0
 77150  1  0  0  0
 77151  1  0  0  0
 77 79  1  0  0  0
 78 79  1  0  0  0
 78 81  1  0  0  0
 78152  1  0  0  0
 78153  1  0  0  0
 79154  1  0  0  0
 80155  1  0  0  0
 81156  1  0  0  0
 81157  1  0  0  0
M  CHG  1  81   1
M  ISO  4   1 100  68 101  79 101  80 100
M  END
> <chiral flag>
0

> <version>
0

> <s_m_source_file>
/data/baiqing/PycharmProjects/Reinvent-master-3.2/result/LINK_invent/BTK/process_docking_weight1_custom_sum_contain_oxygen_bond_distance_aromatic_linkinvent_7_9_3/rearranged_h_0174.sdf

> <i_m_source_file_index>
62

> <r_mmod_Potential_Energy-OPLS-2005>
824.929443359375

> <r_mmod_Stretch_Energy-OPLS-2005>
377.932708740234

> <r_mmod_Bend_Energy-OPLS-2005>
506.034027099609

> <r_mmod_Torsional_Energy-OPLS-2005>
276.542083740234

> <r_mmod_Improper_Torsional_Energy-OPLS-2005>
5.60542058944702

> <r_mmod_Van_der_Waal_Energy-OPLS-2005>
110.406631469727

> <r_mmod_Electrostatic_Energy-OPLS-2005>
-270.217071533203

> <r_mmod_Solvation_Energy-OPLS-2005>
-470.91845703125

> <b_mmod_Minimization_Converged-OPLS-2005>
0

> <r_mmod_RMS_Derivative-OPLS-2005>
0.862593829631805

$$$$
64
                    3D
 Structure written by MMmdl.
163171  0  0  1  0            999 V2000
  -30.5994  -14.7347   20.4655 C   0  0  0  0  0  0
  -30.4438  -12.4531   19.4511 C   0  0  0  0  0  0
  -29.5092  -12.5067   18.2229 C   0  0  0  0  0  0
  -28.0342  -12.3337   18.6396 C   0  0  0  0  0  0
  -27.6441  -13.2251   19.8476 C   0  0  2  0  0  0
  -28.6946  -13.1430   20.9754 C   0  0  0  0  0  0
  -25.2539  -13.8186   20.5703 C   0  0  0  0  0  0
  -24.1815  -13.0444   20.9216 C   0  0  0  0  0  0
  -24.6389  -11.6914   20.8757 C   0  0  0  0  0  0
  -23.9059  -10.4294   21.0416 C   0  0  0  0  0  0
  -24.3606   -9.4202   21.9189 C   0  0  0  0  0  0
  -23.6281   -8.2235   22.0752 C   0  0  0  0  0  0
  -22.4265   -8.0280   21.3538 C   0  0  0  0  0  0
  -21.9906   -9.0255   20.4649 C   0  0  0  0  0  0
  -22.7233  -10.2136   20.3056 C   0  0  0  0  0  0
  -21.6865   -6.0731   22.5267 C   0  0  0  0  0  0
  -21.4027   -6.5631   23.8196 C   0  0  0  0  0  0
  -21.3659   -5.6785   24.9161 C   0  0  0  0  0  0
  -21.6044   -4.3044   24.7212 C   0  0  0  0  0  0
  -21.8821   -3.8142   23.4335 C   0  0  0  0  0  0
  -21.9199   -4.6959   22.3391 C   0  0  0  0  0  0
  -22.7829  -13.5234   21.1868 C   0  0  0  0  0  0
  -22.1663   -4.2149   21.0971 F   0  0  0  0  0  0
  -21.5625   -3.4522   25.7722 F   0  0  0  0  0  0
  -29.9934  -13.5026   20.3868 N   0  0  0  0  0  0
  -26.2957  -12.9374   20.3277 N   0  0  0  0  0  0
  -25.9321  -11.6521   20.5746 N   0  0  0  0  0  0
  -22.0467  -12.8234   22.0425 N   0  0  0  0  0  0
  -25.4236  -15.1912   20.4112 N   0  0  0  0  0  0
  -31.8010  -14.8644   20.2175 O   0  0  0  0  0  0
  -21.6636   -6.8874   21.4227 O   0  0  0  0  0  0
  -22.3516  -14.5542   20.6718 O   0  0  0  0  0  0
  -24.6315  -31.8549   23.1985 C   0  0  0  0  0  0
  -25.9140  -32.4754   23.8331 C   0  0  1  0  0  0
  -27.2255  -27.2641   20.1197 C   0  0  0  0  0  0
  -25.5936  -33.8555   24.2255 N   0  0  0  0  0  0
  -23.4281  -30.4786   21.5419 C   0  0  2  0  0  0
  -24.8749  -28.9243   20.1145 C   0  0  0  0  0  0
  -22.7494  -29.4608   22.4904 C   0  0  0  0  0  0
  -18.0292  -28.1386   22.8481 C   0  0  0  0  0  0
  -24.1488  -36.7285   23.2638 C   0  0  0  0  0  0
  -25.9746  -30.7696   21.3764 C   0  0  0  0  0  0
  -26.0490  -29.3923   20.7176 C   0  0  0  0  0  0
  -27.2268  -28.5768   20.7053 C   0  0  0  0  0  0
  -26.0210  -26.8624   19.4965 C   0  0  0  0  0  0
  -24.8657  -27.6666   19.4953 C   0  0  0  0  0  0
  -23.6470  -29.8124   20.1590 C   0  0  0  0  0  0
  -25.4112  -36.3070   24.0326 C   0  0  1  0  0  0
  -20.5894  -28.3701   23.1260 C   0  0  2  0  0  0
  -20.6777  -26.9417   22.5402 C   0  0  0  0  0  0
  -19.5755  -26.6382   21.5204 C   0  0  0  0  0  0
  -18.1939  -26.7931   22.1622 C   0  0  0  0  0  0
  -19.1544  -28.8860   23.2874 C   0  0  0  0  0  0
  -18.9469  -30.1456   23.8893 C   0  0  0  0  0  0
  -17.6468  -30.6594   24.0558 C   0  0  0  0  0  0
  -25.9056  -34.9439   23.5094 C   0  0  0  0  0  0
  -16.5360  -29.9090   23.6329 C   0  0  0  0  0  0
  -16.7277  -28.6508   23.0358 C   0  0  0  0  0  0
  -26.4505  -31.6577   25.0719 C   0  0  0  0  0  0
  -25.3729  -31.3731   26.1442 C   0  0  0  0  0  0
  -27.0355  -30.2995   24.6207 C   0  0  0  0  0  0
  -27.6060  -32.4313   25.7494 C   0  0  0  0  0  0
  -27.5582  -37.1790   24.8459 C   0  0  0  0  0  0
  -21.4202  -29.3056   22.3648 N   0  0  0  0  0  0
  -26.4286  -37.3772   23.9414 N   0  0  0  0  0  0
  -24.6973  -31.0520   22.0954 N   0  0  0  0  0  0
  -23.4194  -28.8141   23.3004 O   0  0  0  0  0  0
  -28.3325  -26.3803   20.1513 O   0  0  0  0  0  0
  -26.5630  -34.8912   22.4664 O   0  0  0  0  0  0
  -23.5463  -32.1366   23.7281 O   0  0  0  0  0  0
  -28.2133  -20.4050   17.7292 C   0  0  0  0  0  0
  -29.1771  -21.2436   18.3274 C   0  0  0  0  0  0
  -29.3054  -21.1528   19.7386 C   0  0  0  0  0  0
  -27.4639  -19.5508   18.5631 C   0  0  0  0  0  0
  -29.0122  -19.8021   20.2369 C   0  0  0  0  0  0
  -29.8660  -22.2904   17.4765 C   0  0  0  0  0  0
  -26.2743  -18.7857   18.0245 C   0  0  0  0  0  0
  -30.2903  -24.2885   21.3331 C   0  0  0  0  0  0
  -29.9881  -18.5463   20.0332 C   0  0  0  0  0  0
  -29.9755  -17.2863   21.0531 C   0  0  0  0  0  0
  -28.0914  -24.8924   20.1621 C   0  0  0  0  0  0
  -29.3095  -23.8276   20.2494 C   0  0  2  0  0  0
  -27.8032  -19.3266   19.8551 N   0  0  0  0  0  0
  -28.9839  -22.3558   20.4958 N   0  0  0  0  0  0
  -29.7687  -15.8282   20.6265 N   0  0  0  0  0  0
  -31.4806  -12.5973   19.1420 H   0  0  0  0  0  0
  -30.4040  -11.4733   19.9288 H   0  0  0  0  0  0
  -29.7861  -11.7322   17.5061 H   0  0  0  0  0  0
  -29.6346  -13.4608   17.7079 H   0  0  0  0  0  0
  -27.8876  -11.2847   18.8958 H   0  0  0  0  0  0
  -27.3746  -12.5374   17.7951 H   0  0  0  0  0  0
  -27.6415  -14.2494   19.4754 H   0  0  0  0  0  0
  -28.7297  -12.1421   21.4083 H   0  0  0  0  0  0
  -28.4329  -13.8169   21.7927 H   0  0  0  0  0  0
  -25.2754   -9.5678   22.4759 H   0  0  0  0  0  0
  -23.9996   -7.4633   22.7466 H   0  0  0  0  0  0
  -21.0837   -8.8776   19.8956 H   0  0  0  0  0  0
  -22.3698  -10.9670   19.6156 H   0  0  0  0  0  0
  -21.2025   -7.6142   23.9703 H   0  0  0  0  0  0
  -21.1482   -6.0510   25.9064 H   0  0  0  0  0  0
  -22.0609   -2.7606   23.2825 H   0  0  0  0  0  0
  -22.4072  -11.9896   22.4829 H   0  0  0  0  0  0
  -21.1087  -13.1261   22.2623 H   0  0  0  0  0  0
  -24.6583  -15.8458   20.5327 H   0  0  0  0  0  0
  -26.2691  -15.6343   20.0772 H   0  0  0  0  0  0
  -26.7202  -32.5401   23.1071 H   0  0  0  0  0  0
  -25.0072  -33.9685   25.0392 H   0  0  0  0  0  0
  -22.7257  -31.3018   21.3952 H   0  0  0  0  0  0
  -23.3753  -35.9615   23.3283 H   0  0  0  0  0  0
  -24.3589  -36.8923   22.2058 H   0  0  0  0  0  0
  -23.7232  -37.6476   23.6672 H   0  0  0  0  0  0
  -26.1127  -31.5308   20.6069 H   0  0  0  0  0  0
  -26.8522  -30.8200   22.0096 H   0  0  0  0  0  0
  -28.1269  -28.9340   21.1859 H   0  0  0  0  0  0
  -25.9353  -25.9067   19.0053 H   0  0  0  0  0  0
  -23.9648  -27.3023   19.0206 H   0  0  0  0  0  0
  -23.7742  -30.5883   19.4027 H   0  0  0  0  0  0
  -22.7652  -29.2476   19.8520 H   0  0  0  0  0  0
  -25.1290  -36.1916   25.0818 H   0  0  0  0  0  0
  -21.0001  -28.3284   24.1374 H   0  0  0  0  0  0
  -20.5667  -26.2312   23.3608 H   0  0  0  0  0  0
  -21.6645  -26.7435   22.1202 H   0  0  0  0  0  0
  -19.6916  -25.6288   21.1244 H   0  0  0  0  0  0
  -19.6696  -27.3175   20.6720 H   0  0  0  0  0  0
  -17.4202  -26.6665   21.4033 H   0  0  0  0  0  0
  -18.0359  -26.0080   22.9028 H   0  0  0  0  0  0
  -19.7945  -30.7269   24.2272 H   0  0  0  0  0  0
  -17.5027  -31.6275   24.5157 H   0  0  0  0  0  0
  -15.5359  -30.2996   23.7656 H   0  0  0  0  0  0
  -15.8679  -28.0820   22.7085 H   0  0  0  0  0  0
  -24.5908  -30.7078   25.7767 H   0  0  0  0  0  0
  -24.8919  -32.2903   26.4851 H   0  0  0  0  0  0
  -25.8047  -30.8917   27.0227 H   0  0  0  0  0  0
  -26.2942  -29.6741   24.1226 H   0  0  0  0  0  0
  -27.4029  -29.7264   25.4729 H   0  0  0  0  0  0
  -27.8819  -30.4265   23.9457 H   0  0  0  0  0  0
  -27.2678  -33.3622   26.2059 H   0  0  0  0  0  0
  -28.3884  -32.6859   25.0331 H   0  0  0  0  0  0
  -28.0720  -31.8448   26.5424 H   0  0  0  0  0  0
  -28.2572  -38.0114   24.7544 H   0  0  0  0  0  0
  -28.1108  -36.2648   24.6235 H   0  0  0  0  0  0
  -27.2314  -37.1374   25.8864 H   0  0  0  0  0  0
  -20.9378  -29.8789   21.6860 H   0  0  0  0  0  0
  -26.0164  -38.2838   24.1443 H   0  0  0  0  0  0
  -27.9794  -20.5008   16.6777 H   0  0  0  0  0  0
  -30.0955  -21.8912   16.4886 H   0  0  0  0  0  0
  -30.8094  -22.5950   17.9294 H   0  0  0  0  0  0
  -29.2248  -23.1623   17.3448 H   0  0  0  0  0  0
  -26.4263  -18.5228   16.9769 H   0  0  0  0  0  0
  -25.3713  -19.3909   18.0944 H   0  0  0  0  0  0
  -26.1133  -17.8626   18.5811 H   0  0  0  0  0  0
  -30.5914  -25.3238   21.1648 H   0  0  0  0  0  0
  -31.2001  -23.6866   21.3339 H   0  0  0  0  0  0
  -29.8467  -24.2361   22.3273 H   0  0  0  0  0  0
  -31.0004  -18.9514   20.0354 H   0  0  0  0  0  0
  -29.8659  -18.1662   19.0186 H   0  0  0  0  0  0
  -29.1746  -17.4832   21.7661 H   0  0  0  0  0  0
  -30.8837  -17.3290   21.6554 H   0  0  0  0  0  0
  -27.4105  -24.6931   20.9904 H   0  0  0  0  0  0
  -27.5558  -24.6206   19.2547 H   0  0  0  0  0  0
  -29.8610  -23.9310   19.3224 H   0  0  0  0  0  0
  -28.5699  -22.1736   21.4062 H   0  0  0  0  0  0
  -28.7981  -15.5557   20.6395 H   0  0  0  0  0  0
  1 25  1  0  0  0
  1 30  2  0  0  0
  1 85  1  0  0  0
  2  3  1  0  0  0
  2 25  1  0  0  0
  2 86  1  0  0  0
  2 87  1  0  0  0
  3  4  1  0  0  0
  3 88  1  0  0  0
  3 89  1  0  0  0
  4  5  1  0  0  0
  4 90  1  0  0  0
  4 91  1  0  0  0
  5  6  1  0  0  0
  5 26  1  0  0  0
  5 92  1  0  0  0
  6 25  1  0  0  0
  6 93  1  0  0  0
  6 94  1  0  0  0
  7  8  2  0  0  0
  7 26  1  0  0  0
  7 29  1  0  0  0
  8  9  1  0  0  0
  8 22  1  0  0  0
  9 10  1  0  0  0
  9 27  2  0  0  0
 10 11  2  0  0  0
 10 15  1  0  0  0
 11 12  1  0  0  0
 11 95  1  0  0  0
 12 13  2  0  0  0
 12 96  1  0  0  0
 13 14  1  0  0  0
 13 31  1  0  0  0
 14 15  2  0  0  0
 14 97  1  0  0  0
 15 98  1  0  0  0
 16 17  2  0  0  0
 16 21  1  0  0  0
 16 31  1  0  0  0
 17 18  1  0  0  0
 17 99  1  0  0  0
 18 19  2  0  0  0
 18100  1  0  0  0
 19 20  1  0  0  0
 19 24  1  0  0  0
 20 21  2  0  0  0
 20101  1  0  0  0
 21 23  1  0  0  0
 22 28  1  0  0  0
 22 32  2  0  0  0
 26 27  1  0  0  0
 28102  1  0  0  0
 28103  1  0  0  0
 29104  1  0  0  0
 29105  1  0  0  0
 33 34  1  0  0  0
 33 66  1  0  0  0
 33 70  2  0  0  0
 34 36  1  0  0  0
 34 59  1  0  0  0
 34106  1  0  0  0
 35 44  2  0  0  0
 35 45  1  0  0  0
 35 68  1  0  0  0
 36 56  1  0  0  0
 36107  1  0  0  0
 37 39  1  0  0  0
 37 47  1  0  0  0
 37 66  1  0  0  0
 37108  1  0  0  0
 38 43  2  0  0  0
 38 46  1  0  0  0
 38 47  1  0  0  0
 39 64  1  0  0  0
 39 67  2  0  0  0
 40 52  1  0  0  0
 40 53  2  0  0  0
 40 58  1  0  0  0
 41109  1  0  0  0
 41110  1  0  0  0
 41111  1  0  0  0
 41 48  1  0  0  0
 42 43  1  0  0  0
 42 66  1  0  0  0
 42112  1  0  0  0
 42113  1  0  0  0
 43 44  1  0  0  0
 44114  1  0  0  0
 45 46  2  0  0  0
 45115  1  0  0  0
 46116  1  0  0  0
 47117  1  0  0  0
 47118  1  0  0  0
 48 56  1  0  0  0
 48 65  1  0  0  0
 48119  1  0  0  0
 49 50  1  0  0  0
 49 53  1  0  0  0
 49 64  1  0  0  0
 49120  1  0  0  0
 50 51  1  0  0  0
 50121  1  0  0  0
 50122  1  0  0  0
 51 52  1  0  0  0
 51123  1  0  0  0
 51124  1  0  0  0
 52125  1  0  0  0
 52126  1  0  0  0
 53 54  1  0  0  0
 54 55  2  0  0  0
 54127  1  0  0  0
 55 57  1  0  0  0
 55128  1  0  0  0
 56 69  2  0  0  0
 57 58  2  0  0  0
 57129  1  0  0  0
 58130  1  0  0  0
 59 60  1  0  0  0
 59 61  1  0  0  0
 59 62  1  0  0  0
 60131  1  0  0  0
 60132  1  0  0  0
 60133  1  0  0  0
 61134  1  0  0  0
 61135  1  0  0  0
 61136  1  0  0  0
 62137  1  0  0  0
 62138  1  0  0  0
 62139  1  0  0  0
 63 65  1  0  0  0
 63140  1  0  0  0
 63141  1  0  0  0
 63142  1  0  0  0
 64143  1  0  0  0
 65144  1  0  0  0
 68 81  1  0  0  0
 71 72  2  0  0  0
 71 74  1  0  0  0
 71145  1  0  0  0
 72 73  1  0  0  0
 72 76  1  0  0  0
 73 75  2  0  0  0
 73 84  1  0  0  0
 74 77  1  0  0  0
 74 83  2  0  0  0
 75 79  1  0  0  0
 75 83  1  0  0  0
 76146  1  0  0  0
 76147  1  0  0  0
 76148  1  0  0  0
 77149  1  0  0  0
 77150  1  0  0  0
 77151  1  0  0  0
 78152  1  0  0  0
 78153  1  0  0  0
 78154  1  0  0  0
 78 82  1  0  0  0
 79 80  1  0  0  0
 79155  1  0  0  0
 79156  1  0  0  0
 80 85  1  0  0  0
 80157  1  0  0  0
 80158  1  0  0  0
 81 82  1  0  0  0
 81159  1  0  0  0
 81160  1  0  0  0
 82 84  1  0  0  0
 82161  1  0  0  0
 84162  1  0  0  0
 85163  1  0  0  0
M  ISO  4   1 100  68 101  81 101  85 100
M  END
> <chiral flag>
0

> <version>
0

> <s_m_source_file>
/data/baiqing/PycharmProjects/Reinvent-master-3.2/result/LINK_invent/BTK/process_docking_weight1_custom_sum_contain_oxygen_bond_distance_aromatic_linkinvent_7_9_3/rearranged_h_0174.sdf

> <i_m_source_file_index>
63

> <r_mmod_Potential_Energy-OPLS-2005>
301.285034179688

> <r_mmod_Stretch_Energy-OPLS-2005>
130.734527587891

> <r_mmod_Bend_Energy-OPLS-2005>
224.133590698242

> <r_mmod_Torsional_Energy-OPLS-2005>
422.046417236328

> <r_mmod_Improper_Torsional_Energy-OPLS-2005>
32.6655693054199

> <r_mmod_Van_der_Waal_Energy-OPLS-2005>
147.393493652344

> <r_mmod_Electrostatic_Energy-OPLS-2005>
-514.150329589844

> <r_mmod_Solvation_Energy-OPLS-2005>
-224.220901489258

> <b_mmod_Minimization_Converged-OPLS-2005>
0

> <r_mmod_RMS_Derivative-OPLS-2005>
1.77525091171265

$$$$
65
                    3D
 Structure written by MMmdl.
158167  0  0  1  0            999 V2000
  -30.5868  -14.8942   20.4148 C   0  0  0  0  0  0
  -30.4268  -12.5523   19.4934 C   0  0  0  0  0  0
  -29.5159  -12.5135   18.2480 C   0  0  0  0  0  0
  -28.0466  -12.3186   18.6667 C   0  0  0  0  0  0
  -27.6280  -13.2513   19.8359 C   0  0  2  0  0  0
  -28.6707  -13.2794   20.9720 C   0  0  0  0  0  0
  -25.2451  -13.8241   20.5730 C   0  0  0  0  0  0
  -24.1758  -13.0454   20.9220 C   0  0  0  0  0  0
  -24.6378  -11.6939   20.8749 C   0  0  0  0  0  0
  -23.9075  -10.4301   21.0409 C   0  0  0  0  0  0
  -24.3635   -9.4213   21.9185 C   0  0  0  0  0  0
  -23.6300   -8.2251   22.0757 C   0  0  0  0  0  0
  -22.4275   -8.0290   21.3550 C   0  0  0  0  0  0
  -21.9905   -9.0269   20.4655 C   0  0  0  0  0  0
  -22.7245  -10.2138   20.3060 C   0  0  0  0  0  0
  -21.6849   -6.0734   22.5277 C   0  0  0  0  0  0
  -21.4017   -6.5634   23.8213 C   0  0  0  0  0  0
  -21.3663   -5.6791   24.9179 C   0  0  0  0  0  0
  -21.6043   -4.3053   24.7225 C   0  0  0  0  0  0
  -21.8815   -3.8145   23.4343 C   0  0  0  0  0  0
  -21.9190   -4.6961   22.3400 C   0  0  0  0  0  0
  -22.7778  -13.5224   21.1879 C   0  0  0  0  0  0
  -22.1657   -4.2152   21.0974 F   0  0  0  0  0  0
  -21.5635   -3.4540   25.7740 F   0  0  0  0  0  0
  -29.9477  -13.6617   20.3627 N   0  0  0  0  0  0
  -26.2877  -12.9478   20.3253 N   0  0  0  0  0  0
  -25.9316  -11.6604   20.5739 N   0  0  0  0  0  0
  -22.0427  -12.8215   22.0441 N   0  0  0  0  0  0
  -25.4159  -15.1974   20.4211 N   0  0  0  0  0  0
  -31.7967  -14.9090   20.1601 O   0  0  0  0  0  0
  -21.6644   -6.8880   21.4239 O   0  0  0  0  0  0
  -22.3456  -14.5532   20.6734 O   0  0  0  0  0  0
  -24.6422  -31.8459   23.1902 C   0  0  0  0  0  0
  -25.9201  -32.4698   23.8287 C   0  0  1  0  0  0
  -27.2087  -27.1539   20.1362 C   0  0  0  0  0  0
  -25.5951  -33.8510   24.2186 N   0  0  0  0  0  0
  -23.4438  -30.4680   21.5358 C   0  0  2  0  0  0
  -24.8901  -28.9008   20.1080 C   0  0  0  0  0  0
  -22.7558  -29.4559   22.4861 C   0  0  0  0  0  0
  -18.0307  -28.1390   22.8477 C   0  0  0  0  0  0
  -24.1491  -36.7262   23.2641 C   0  0  0  0  0  0
  -26.0004  -30.7233   21.3887 C   0  0  0  0  0  0
  -26.0690  -29.3389   20.7242 C   0  0  0  0  0  0
  -27.2311  -28.4823   20.7197 C   0  0  0  0  0  0
  -26.0012  -26.8131   19.4865 C   0  0  0  0  0  0
  -24.8679  -27.6507   19.4746 C   0  0  0  0  0  0
  -23.6676  -29.8017   20.1540 C   0  0  0  0  0  0
  -25.4123  -36.3035   24.0312 C   0  0  1  0  0  0
  -20.5918  -28.3714   23.1236 C   0  0  2  0  0  0
  -20.6787  -26.9417   22.5404 C   0  0  0  0  0  0
  -19.5762  -26.6375   21.5209 C   0  0  0  0  0  0
  -18.1945  -26.7929   22.1619 C   0  0  0  0  0  0
  -19.1563  -28.8870   23.2848 C   0  0  0  0  0  0
  -18.9481  -30.1467   23.8873 C   0  0  0  0  0  0
  -17.6475  -30.6586   24.0560 C   0  0  0  0  0  0
  -25.9072  -34.9408   23.5056 C   0  0  0  0  0  0
  -16.5366  -29.9077   23.6337 C   0  0  0  0  0  0
  -16.7292  -28.6497   23.0356 C   0  0  0  0  0  0
  -26.4512  -31.6579   25.0738 C   0  0  0  0  0  0
  -25.3693  -31.3802   26.1437 C   0  0  0  0  0  0
  -27.0370  -30.2961   24.6352 C   0  0  0  0  0  0
  -27.6027  -32.4364   25.7523 C   0  0  0  0  0  0
  -27.5576  -37.1789   24.8459 C   0  0  0  0  0  0
  -21.4252  -29.3043   22.3603 N   0  0  0  0  0  0
  -26.4286  -37.3747   23.9403 N   0  0  0  0  0  0
  -24.7150  -31.0340   22.0926 N   0  0  0  0  0  0
  -23.4211  -28.8099   23.2999 O   0  0  0  0  0  0
  -28.2597  -26.1747   20.1999 O   0  0  0  0  0  0
  -26.5657  -34.8906   22.4633 O   0  0  0  0  0  0
  -23.5545  -32.1327   23.7131 O   0  0  0  0  0  0
  -31.0695  -21.6560   20.6141 C   0  0  0  0  0  0
  -29.7964  -21.1058   20.3797 C   0  0  0  0  0  0
  -31.2589  -23.0417   20.6689 C   0  0  0  0  0  0
  -29.0282  -23.4524   20.2849 C   0  0  0  0  0  0
  -29.5108  -18.5751   21.6423 C   0  0  0  0  0  0
  -29.2201  -18.5161   19.2497 C   0  0  0  0  0  0
  -30.1084  -17.0741   21.6319 C   0  0  0  0  0  0
  -29.7799  -16.9924   19.2265 C   0  0  0  0  0  0
  -29.7833  -19.4447   20.3733 C   0  0  0  0  0  0
  -32.6284  -23.6380   20.9176 C   0  0  0  0  0  0
  -27.9461  -24.6582   20.0510 C   0  0  0  0  0  0
  -28.7656  -22.0678   20.2327 N   0  0  0  0  0  0
  -30.2540  -23.9134   20.5020 N   0  0  0  0  0  0
  -29.8742  -16.1320   20.4742 N   0  0  0  0  0  0
  -31.4681  -12.6786   19.1907 H   0  0  0  0  0  0
  -30.3910  -11.6037   20.0302 H   0  0  0  0  0  0
  -29.8248  -11.7113   17.5769 H   0  0  0  0  0  0
  -29.6223  -13.4414   17.6834 H   0  0  0  0  0  0
  -27.9294  -11.2770   18.9680 H   0  0  0  0  0  0
  -27.3865  -12.4641   17.8112 H   0  0  0  0  0  0
  -27.5938  -14.2547   19.4096 H   0  0  0  0  0  0
  -28.7439  -12.3114   21.4704 H   0  0  0  0  0  0
  -28.3832  -14.0052   21.7354 H   0  0  0  0  0  0
  -25.2783   -9.5696   22.4755 H   0  0  0  0  0  0
  -24.0019   -7.4635   22.7463 H   0  0  0  0  0  0
  -21.0839   -8.8789   19.8953 H   0  0  0  0  0  0
  -22.3710  -10.9685   19.6171 H   0  0  0  0  0  0
  -21.2013   -7.6140   23.9719 H   0  0  0  0  0  0
  -21.1491   -6.0518   25.9083 H   0  0  0  0  0  0
  -22.0592   -2.7606   23.2841 H   0  0  0  0  0  0
  -22.4056  -11.9900   22.4863 H   0  0  0  0  0  0
  -21.1047  -13.1240   22.2653 H   0  0  0  0  0  0
  -24.6563  -15.8566   20.5494 H   0  0  0  0  0  0
  -26.2799  -15.6402   20.1339 H   0  0  0  0  0  0
  -26.7269  -32.5295   23.1020 H   0  0  0  0  0  0
  -25.0064  -33.9620   25.0311 H   0  0  0  0  0  0
  -22.7452  -31.2940   21.3853 H   0  0  0  0  0  0
  -23.3751  -35.9596   23.3294 H   0  0  0  0  0  0
  -24.3574  -36.8906   22.2058 H   0  0  0  0  0  0
  -23.7251  -37.6458   23.6689 H   0  0  0  0  0  0
  -26.1653  -31.4827   20.6235 H   0  0  0  0  0  0
  -26.8668  -30.7630   22.0379 H   0  0  0  0  0  0
  -28.1303  -28.8137   21.2197 H   0  0  0  0  0  0
  -25.8900  -25.8600   18.9938 H   0  0  0  0  0  0
  -23.9670  -27.3118   18.9824 H   0  0  0  0  0  0
  -23.8031  -30.5777   19.3997 H   0  0  0  0  0  0
  -22.7817  -29.2450   19.8423 H   0  0  0  0  0  0
  -25.1313  -36.1862   25.0804 H   0  0  0  0  0  0
  -21.0017  -28.3308   24.1355 H   0  0  0  0  0  0
  -20.5675  -26.2329   23.3624 H   0  0  0  0  0  0
  -21.6656  -26.7414   22.1208 H   0  0  0  0  0  0
  -19.6918  -25.6278   21.1258 H   0  0  0  0  0  0
  -19.6696  -27.3169   20.6727 H   0  0  0  0  0  0
  -17.4209  -26.6675   21.4025 H   0  0  0  0  0  0
  -18.0340  -26.0079   22.9025 H   0  0  0  0  0  0
  -19.7958  -30.7294   24.2227 H   0  0  0  0  0  0
  -17.5029  -31.6263   24.5162 H   0  0  0  0  0  0
  -15.5367  -30.2967   23.7676 H   0  0  0  0  0  0
  -15.8695  -28.0805   22.7084 H   0  0  0  0  0  0
  -24.5846  -30.7173   25.7771 H   0  0  0  0  0  0
  -24.8917  -32.3007   26.4810 H   0  0  0  0  0  0
  -25.7968  -30.9007   27.0254 H   0  0  0  0  0  0
  -26.2996  -29.6693   24.1325 H   0  0  0  0  0  0
  -27.3908  -29.7264   25.4957 H   0  0  0  0  0  0
  -27.8942  -30.4161   23.9722 H   0  0  0  0  0  0
  -27.2582  -33.3661   26.2069 H   0  0  0  0  0  0
  -28.3852  -32.6947   25.0373 H   0  0  0  0  0  0
  -28.0691  -31.8535   26.5477 H   0  0  0  0  0  0
  -28.2588  -38.0089   24.7499 H   0  0  0  0  0  0
  -28.1078  -36.2620   24.6289 H   0  0  0  0  0  0
  -27.2300  -37.1445   25.8864 H   0  0  0  0  0  0
  -20.9456  -29.8760   21.6789 H   0  0  0  0  0  0
  -26.0152  -38.2818   24.1401 H   0  0  0  0  0  0
  -31.9279  -21.0126   20.7622 H   0  0  0  0  0  0
  -29.9331  -19.0950   22.5024 H   0  0  0  0  0  0
  -28.4363  -18.5460   21.8260 H   0  0  0  0  0  0
  -28.1312  -18.5091   19.3127 H   0  0  0  0  0  0
  -29.4470  -18.9735   18.2868 H   0  0  0  0  0  0
  -29.7584  -16.5685   22.5340 H   0  0  0  0  0  0
  -31.1904  -17.1564   21.7549 H   0  0  0  0  0  0
  -30.7822  -17.0300   18.7952 H   0  0  0  0  0  0
  -29.1883  -16.4332   18.4998 H   0  0  0  0  0  0
  -30.8471  -19.2666   20.2185 H   0  0  0  0  0  0
  -33.3752  -22.8625   21.0860 H   0  0  0  0  0  0
  -32.6105  -24.2831   21.7957 H   0  0  0  0  0  0
  -32.9468  -24.2323   20.0607 H   0  0  0  0  0  0
  -27.0959  -24.4360   20.6961 H   0  0  0  0  0  0
  -27.5969  -24.5063   19.0299 H   0  0  0  0  0  0
  1 25  1  0  0  0
  1 30  2  0  0  0
  1 84  1  0  0  0
  2  3  1  0  0  0
  2 25  1  0  0  0
  2 85  1  0  0  0
  2 86  1  0  0  0
  3  4  1  0  0  0
  3 87  1  0  0  0
  3 88  1  0  0  0
  4  5  1  0  0  0
  4 89  1  0  0  0
  4 90  1  0  0  0
  5  6  1  0  0  0
  5 26  1  0  0  0
  5 91  1  0  0  0
  6 25  1  0  0  0
  6 92  1  0  0  0
  6 93  1  0  0  0
  7  8  2  0  0  0
  7 26  1  0  0  0
  7 29  1  0  0  0
  8  9  1  0  0  0
  8 22  1  0  0  0
  9 10  1  0  0  0
  9 27  2  0  0  0
 10 11  2  0  0  0
 10 15  1  0  0  0
 11 12  1  0  0  0
 11 94  1  0  0  0
 12 13  2  0  0  0
 12 95  1  0  0  0
 13 14  1  0  0  0
 13 31  1  0  0  0
 14 15  2  0  0  0
 14 96  1  0  0  0
 15 97  1  0  0  0
 16 17  2  0  0  0
 16 21  1  0  0  0
 16 31  1  0  0  0
 17 18  1  0  0  0
 17 98  1  0  0  0
 18 19  2  0  0  0
 18 99  1  0  0  0
 19 20  1  0  0  0
 19 24  1  0  0  0
 20 21  2  0  0  0
 20100  1  0  0  0
 21 23  1  0  0  0
 22 28  1  0  0  0
 22 32  2  0  0  0
 26 27  1  0  0  0
 28101  1  0  0  0
 28102  1  0  0  0
 29103  1  0  0  0
 29104  1  0  0  0
 33 34  1  0  0  0
 33 66  1  0  0  0
 33 70  2  0  0  0
 34 36  1  0  0  0
 34 59  1  0  0  0
 34105  1  0  0  0
 35 44  2  0  0  0
 35 45  1  0  0  0
 35 68  1  0  0  0
 36 56  1  0  0  0
 36106  1  0  0  0
 37 39  1  0  0  0
 37 47  1  0  0  0
 37 66  1  0  0  0
 37107  1  0  0  0
 38 43  2  0  0  0
 38 46  1  0  0  0
 38 47  1  0  0  0
 39 64  1  0  0  0
 39 67  2  0  0  0
 40 52  1  0  0  0
 40 53  2  0  0  0
 40 58  1  0  0  0
 41108  1  0  0  0
 41109  1  0  0  0
 41110  1  0  0  0
 41 48  1  0  0  0
 42 43  1  0  0  0
 42 66  1  0  0  0
 42111  1  0  0  0
 42112  1  0  0  0
 43 44  1  0  0  0
 44113  1  0  0  0
 45 46  2  0  0  0
 45114  1  0  0  0
 46115  1  0  0  0
 47116  1  0  0  0
 47117  1  0  0  0
 48 56  1  0  0  0
 48 65  1  0  0  0
 48118  1  0  0  0
 49 50  1  0  0  0
 49 53  1  0  0  0
 49 64  1  0  0  0
 49119  1  0  0  0
 50 51  1  0  0  0
 50120  1  0  0  0
 50121  1  0  0  0
 51 52  1  0  0  0
 51122  1  0  0  0
 51123  1  0  0  0
 52124  1  0  0  0
 52125  1  0  0  0
 53 54  1  0  0  0
 54 55  2  0  0  0
 54126  1  0  0  0
 55 57  1  0  0  0
 55127  1  0  0  0
 56 69  2  0  0  0
 57 58  2  0  0  0
 57128  1  0  0  0
 58129  1  0  0  0
 59 60  1  0  0  0
 59 61  1  0  0  0
 59 62  1  0  0  0
 60130  1  0  0  0
 60131  1  0  0  0
 60132  1  0  0  0
 61133  1  0  0  0
 61134  1  0  0  0
 61135  1  0  0  0
 62136  1  0  0  0
 62137  1  0  0  0
 62138  1  0  0  0
 63 65  1  0  0  0
 63139  1  0  0  0
 63140  1  0  0  0
 63141  1  0  0  0
 64142  1  0  0  0
 65143  1  0  0  0
 68 81  1  0  0  0
 71 72  2  0  0  0
 71 73  1  0  0  0
 71144  1  0  0  0
 72 82  1  0  0  0
 72 79  1  0  0  0
 73 80  1  0  0  0
 73 83  2  0  0  0
 74 81  1  0  0  0
 74 82  2  0  0  0
 74 83  1  0  0  0
 75 77  1  0  0  0
 75 79  1  0  0  0
 75145  1  0  0  0
 75146  1  0  0  0
 76 78  1  0  0  0
 76 79  1  0  0  0
 76147  1  0  0  0
 76148  1  0  0  0
 77 84  1  0  0  0
 77149  1  0  0  0
 77150  1  0  0  0
 78 84  1  0  0  0
 78151  1  0  0  0
 78152  1  0  0  0
 79153  1  0  0  0
 80154  1  0  0  0
 80155  1  0  0  0
 80156  1  0  0  0
 81157  1  0  0  0
 81158  1  0  0  0
M  ISO  4   1 100  68 101  81 101  84 100
M  END
> <chiral flag>
0

> <version>
0

> <s_m_source_file>
/data/baiqing/PycharmProjects/Reinvent-master-3.2/result/LINK_invent/BTK/process_docking_weight1_custom_sum_contain_oxygen_bond_distance_aromatic_linkinvent_7_9_3/rearranged_h_0174.sdf

> <i_m_source_file_index>
64

> <r_mmod_Potential_Energy-OPLS-2005>
278.320159912109

> <r_mmod_Stretch_Energy-OPLS-2005>
217.085098266602

> <r_mmod_Bend_Energy-OPLS-2005>
294.225433349609

> <r_mmod_Torsional_Energy-OPLS-2005>
317.886016845703

> <r_mmod_Improper_Torsional_Energy-OPLS-2005>
10.4369173049927

> <r_mmod_Van_der_Waal_Energy-OPLS-2005>
142.816543579102

> <r_mmod_Electrostatic_Energy-OPLS-2005>
-641.882751464844

> <r_mmod_Solvation_Energy-OPLS-2005>
-230.087997436523

> <b_mmod_Minimization_Converged-OPLS-2005>
0

> <r_mmod_RMS_Derivative-OPLS-2005>
1.73494935035706

$$$$
66
                    3D
 Structure written by MMmdl.
165175  0  0  1  0            999 V2000
  -30.6267  -14.8450   20.4597 C   0  0  0  0  0  0
  -30.4608  -12.5713   19.4361 C   0  0  0  0  0  0
  -29.5086  -12.5186   18.2243 C   0  0  0  0  0  0
  -28.0230  -12.3835   18.6253 C   0  0  0  0  0  0
  -27.6340  -13.2707   19.8354 C   0  0  2  0  0  0
  -28.7015  -13.1889   20.9415 C   0  0  0  0  0  0
  -25.2261  -13.8163   20.5415 C   0  0  0  0  0  0
  -24.1678  -13.0365   20.9242 C   0  0  0  0  0  0
  -24.6402  -11.6934   20.8749 C   0  0  0  0  0  0
  -23.9063  -10.4288   21.0363 C   0  0  0  0  0  0
  -24.3633   -9.4210   21.9156 C   0  0  0  0  0  0
  -23.6299   -8.2238   22.0754 C   0  0  0  0  0  0
  -22.4273   -8.0227   21.3506 C   0  0  0  0  0  0
  -21.9859   -9.0217   20.4613 C   0  0  0  0  0  0
  -22.7233  -10.2108   20.2987 C   0  0  0  0  0  0
  -21.6860   -6.0658   22.5267 C   0  0  0  0  0  0
  -21.4020   -6.5576   23.8189 C   0  0  0  0  0  0
  -21.3631   -5.6730   24.9147 C   0  0  0  0  0  0
  -21.6065   -4.2985   24.7217 C   0  0  0  0  0  0
  -21.8840   -3.8079   23.4341 C   0  0  0  0  0  0
  -21.9208   -4.6866   22.3406 C   0  0  0  0  0  0
  -22.7675  -13.5076   21.1965 C   0  0  0  0  0  0
  -22.1655   -4.2040   21.0971 F   0  0  0  0  0  0
  -21.5619   -3.4521   25.7741 F   0  0  0  0  0  0
  -29.9682  -13.6248   20.3513 N   0  0  0  0  0  0
  -26.2878  -12.9611   20.3224 N   0  0  0  0  0  0
  -25.9371  -11.6705   20.5854 N   0  0  0  0  0  0
  -22.0366  -12.8038   22.0484 N   0  0  0  0  0  0
  -25.3457  -15.1860   20.3269 N   0  0  0  0  0  0
  -31.8525  -14.8482   20.3372 O   0  0  0  0  0  0
  -21.6609   -6.8839   21.4227 O   0  0  0  0  0  0
  -22.3350  -14.5364   20.6757 O   0  0  0  0  0  0
  -24.6220  -31.8558   23.1957 C   0  0  0  0  0  0
  -25.9031  -32.4761   23.8296 C   0  0  1  0  0  0
  -27.2522  -27.2948   20.1868 C   0  0  0  0  0  0
  -25.5812  -33.8550   24.2173 N   0  0  0  0  0  0
  -23.4168  -30.4817   21.5296 C   0  0  2  0  0  0
  -24.8725  -28.9124   20.1151 C   0  0  0  0  0  0
  -22.7427  -29.4704   22.4880 C   0  0  0  0  0  0
  -18.0310  -28.1457   22.8490 C   0  0  0  0  0  0
  -24.1485  -36.7320   23.2657 C   0  0  0  0  0  0
  -25.9541  -30.7928   21.3661 C   0  0  0  0  0  0
  -26.0356  -29.4125   20.7159 C   0  0  0  0  0  0
  -27.2190  -28.6160   20.7347 C   0  0  0  0  0  0
  -26.0663  -26.8481   19.5556 C   0  0  0  0  0  0
  -24.8922  -27.6342   19.5305 C   0  0  0  0  0  0
  -23.6371  -29.7944   20.1555 C   0  0  0  0  0  0
  -25.4126  -36.3093   24.0329 C   0  0  1  0  0  0
  -20.5905  -28.3686   23.1236 C   0  0  2  0  0  0
  -20.6711  -26.9382   22.5502 C   0  0  0  0  0  0
  -19.5808  -26.6538   21.5110 C   0  0  0  0  0  0
  -18.1941  -26.8055   22.1494 C   0  0  0  0  0  0
  -19.1591  -28.8825   23.2941 C   0  0  0  0  0  0
  -18.9531  -30.1389   23.9006 C   0  0  0  0  0  0
  -17.6562  -30.6550   24.0808 C   0  0  0  0  0  0
  -25.9036  -34.9452   23.5096 C   0  0  0  0  0  0
  -16.5411  -29.9119   23.6477 C   0  0  0  0  0  0
  -16.7285  -28.6604   23.0315 C   0  0  0  0  0  0
  -26.4436  -31.6566   25.0667 C   0  0  0  0  0  0
  -25.3669  -31.3728   26.1420 C   0  0  0  0  0  0
  -27.0325  -30.2964   24.6220 C   0  0  0  0  0  0
  -27.5942  -32.4377   25.7445 C   0  0  0  0  0  0
  -27.5596  -37.1812   24.8468 C   0  0  0  0  0  0
  -21.4137  -29.3074   22.3531 N   0  0  0  0  0  0
  -26.4312  -37.3756   23.9369 N   0  0  0  0  0  0
  -24.6804  -31.0668   22.0867 N   0  0  0  0  0  0
  -23.4156  -28.8372   23.3095 O   0  0  0  0  0  0
  -28.4053  -26.4866   20.3226 O   0  0  0  0  0  0
  -26.5651  -34.8959   22.4689 O   0  0  0  0  0  0
  -23.5352  -32.1356   23.7296 O   0  0  0  0  0  0
  -27.6409  -20.9900   21.4327 C   0  0  0  0  0  0
  -28.0546  -18.5741   21.5628 C   0  0  0  0  0  0
  -27.1916  -19.6970   21.7456 C   0  0  0  0  0  0
  -29.3221  -18.7650   20.9421 C   0  0  0  0  0  0
  -28.9070  -21.1862   20.8811 C   0  0  0  0  0  0
  -28.3411  -16.4612   23.0985 C   0  0  0  0  0  0
  -26.9937  -17.0505   23.4077 C   0  0  0  0  0  0
  -30.9196  -17.5960   19.2068 C   0  0  0  0  0  0
  -29.9242  -16.4919   18.8555 C   0  0  0  0  0  0
  -27.5921  -17.2242   22.0300 C   0  0  0  0  0  0
  -30.3349  -17.5355   20.6160 C   0  0  2  0  0  0
  -25.7334  -19.5852   22.1894 C   0  0  0  0  0  0
  -28.7392  -23.8505   20.9690 C   0  0  0  0  0  0
  -28.5404  -25.0577   19.9151 C   0  0  0  0  0  0
  -29.7121  -20.0784   20.6388 N   0  0  0  0  0  0
  -29.9283  -16.0544   20.2725 N   0  0  0  0  0  0
  -29.2727  -22.5189   20.4621 N   0  0  0  0  0  0
  -31.4647  -12.7978   19.0642 H   0  0  0  0  0  0
  -30.5233  -11.6079   19.9415 H   0  0  0  0  0  0
  -29.8022  -11.6740   17.5903 H   0  0  0  0  0  0
  -29.6430  -13.4232   17.6234 H   0  0  0  0  0  0
  -27.8501  -11.3366   18.8714 H   0  0  0  0  0  0
  -27.3897  -12.6119   17.7668 H   0  0  0  0  0  0
  -27.6061  -14.2981   19.4691 H   0  0  0  0  0  0
  -28.7877  -12.1583   21.2834 H   0  0  0  0  0  0
  -28.4445  -13.7748   21.8136 H   0  0  0  0  0  0
  -25.2784   -9.5608   22.4742 H   0  0  0  0  0  0
  -23.9927   -7.4606   22.7457 H   0  0  0  0  0  0
  -21.0789   -8.8757   19.8954 H   0  0  0  0  0  0
  -22.3700  -10.9611   19.6056 H   0  0  0  0  0  0
  -21.2028   -7.6100   23.9649 H   0  0  0  0  0  0
  -21.1417   -6.0477   25.9050 H   0  0  0  0  0  0
  -22.0659   -2.7543   23.2902 H   0  0  0  0  0  0
  -22.4032  -11.9756   22.4952 H   0  0  0  0  0  0
  -21.0983  -13.0982   22.2693 H   0  0  0  0  0  0
  -24.5255  -15.7780   20.3101 H   0  0  0  0  0  0
  -26.1272  -15.5946   19.8393 H   0  0  0  0  0  0
  -26.7104  -32.5513   23.1020 H   0  0  0  0  0  0
  -24.9835  -33.9639   25.0261 H   0  0  0  0  0  0
  -22.7078  -31.2974   21.3750 H   0  0  0  0  0  0
  -23.3723  -35.9664   23.3316 H   0  0  0  0  0  0
  -24.3567  -36.8972   22.2078 H   0  0  0  0  0  0
  -23.7286  -37.6541   23.6684 H   0  0  0  0  0  0
  -26.0790  -31.5510   20.5942 H   0  0  0  0  0  0
  -26.8270  -30.8483   22.0066 H   0  0  0  0  0  0
  -28.0963  -29.0082   21.2350 H   0  0  0  0  0  0
  -26.0110  -25.8660   19.1170 H   0  0  0  0  0  0
  -23.9952  -27.2241   19.0932 H   0  0  0  0  0  0
  -23.7285  -30.5515   19.3809 H   0  0  0  0  0  0
  -22.7665  -29.1964   19.8961 H   0  0  0  0  0  0
  -25.1308  -36.1941   25.0815 H   0  0  0  0  0  0
  -21.0022  -28.3324   24.1375 H   0  0  0  0  0  0
  -20.5222  -26.2366   23.3672 H   0  0  0  0  0  0
  -21.6647  -26.7303   22.1560 H   0  0  0  0  0  0
  -19.7108  -25.6584   21.0852 H   0  0  0  0  0  0
  -19.6824  -27.3617   20.6900 H   0  0  0  0  0  0
  -17.4216  -26.6786   21.3898 H   0  0  0  0  0  0
  -18.0389  -26.0231   22.8926 H   0  0  0  0  0  0
  -19.8027  -30.7110   24.2372 H   0  0  0  0  0  0
  -17.5180  -31.6212   24.5519 H   0  0  0  0  0  0
  -15.5422  -30.3054   23.7829 H   0  0  0  0  0  0
  -15.8659  -28.1009   22.6911 H   0  0  0  0  0  0
  -24.5797  -30.7121   25.7724 H   0  0  0  0  0  0
  -24.8959  -32.2953   26.4848 H   0  0  0  0  0  0
  -25.8043  -30.8882   27.0171 H   0  0  0  0  0  0
  -26.2939  -29.6636   24.1283 H   0  0  0  0  0  0
  -27.3968  -29.7316   25.4824 H   0  0  0  0  0  0
  -27.8812  -30.4146   23.9465 H   0  0  0  0  0  0
  -27.2385  -33.3625   26.1984 H   0  0  0  0  0  0
  -28.3715  -32.7034   25.0258 H   0  0  0  0  0  0
  -28.0598  -31.8557   26.5414 H   0  0  0  0  0  0
  -28.2615  -38.0095   24.7480 H   0  0  0  0  0  0
  -28.1070  -36.2650   24.6299 H   0  0  0  0  0  0
  -27.2302  -37.1483   25.8856 H   0  0  0  0  0  0
  -20.9186  -29.8563   21.6618 H   0  0  0  0  0  0
  -26.0230  -38.2835   24.1298 H   0  0  0  0  0  0
  -26.9609  -21.8199   21.5417 H   0  0  0  0  0  0
  -28.3462  -15.3779   23.1712 H   0  0  0  0  0  0
  -29.2260  -16.9571   23.4742 H   0  0  0  0  0  0
  -26.9769  -17.8848   24.1011 H   0  0  0  0  0  0
  -26.1129  -16.4038   23.4306 H   0  0  0  0  0  0
  -30.7971  -18.5286   18.6496 H   0  0  0  0  0  0
  -31.9709  -17.2972   19.1506 H   0  0  0  0  0  0
  -30.3445  -15.7936   18.1246 H   0  0  0  0  0  0
  -28.9534  -16.8486   18.5033 H   0  0  0  0  0  0
  -27.1258  -16.6882   21.2091 H   0  0  0  0  0  0
  -31.1366  -17.5606   21.3612 H   0  0  0  0  0  0
  -25.1635  -20.4718   21.9060 H   0  0  0  0  0  0
  -25.6454  -19.4775   23.2707 H   0  0  0  0  0  0
  -25.2537  -18.7348   21.7013 H   0  0  0  0  0  0
  -27.8100  -23.7355   21.5179 H   0  0  0  0  0  0
  -29.4679  -24.1700   21.7182 H   0  0  0  0  0  0
  -27.7712  -24.7801   19.2030 H   0  0  0  0  0  0
  -29.4580  -25.0601   19.3308 H   0  0  0  0  0  0
  -30.1412  -22.6169   19.9549 H   0  0  0  0  0  0
  1 25  1  0  0  0
  1 30  2  0  0  0
  1 86  1  0  0  0
  2  3  1  0  0  0
  2 25  1  0  0  0
  2 88  1  0  0  0
  2 89  1  0  0  0
  3  4  1  0  0  0
  3 90  1  0  0  0
  3 91  1  0  0  0
  4  5  1  0  0  0
  4 92  1  0  0  0
  4 93  1  0  0  0
  5  6  1  0  0  0
  5 26  1  0  0  0
  5 94  1  0  0  0
  6 25  1  0  0  0
  6 95  1  0  0  0
  6 96  1  0  0  0
  7  8  2  0  0  0
  7 26  1  0  0  0
  7 29  1  0  0  0
  8  9  1  0  0  0
  8 22  1  0  0  0
  9 10  1  0  0  0
  9 27  2  0  0  0
 10 11  2  0  0  0
 10 15  1  0  0  0
 11 12  1  0  0  0
 11 97  1  0  0  0
 12 13  2  0  0  0
 12 98  1  0  0  0
 13 14  1  0  0  0
 13 31  1  0  0  0
 14 15  2  0  0  0
 14 99  1  0  0  0
 15100  1  0  0  0
 16 17  2  0  0  0
 16 21  1  0  0  0
 16 31  1  0  0  0
 17 18  1  0  0  0
 17101  1  0  0  0
 18 19  2  0  0  0
 18102  1  0  0  0
 19 20  1  0  0  0
 19 24  1  0  0  0
 20 21  2  0  0  0
 20103  1  0  0  0
 21 23  1  0  0  0
 22 28  1  0  0  0
 22 32  2  0  0  0
 26 27  1  0  0  0
 28104  1  0  0  0
 28105  1  0  0  0
 29106  1  0  0  0
 29107  1  0  0  0
 33 34  1  0  0  0
 33 66  1  0  0  0
 33 70  2  0  0  0
 34 36  1  0  0  0
 34 59  1  0  0  0
 34108  1  0  0  0
 35 44  2  0  0  0
 35 45  1  0  0  0
 35 68  1  0  0  0
 36 56  1  0  0  0
 36109  1  0  0  0
 37 39  1  0  0  0
 37 47  1  0  0  0
 37 66  1  0  0  0
 37110  1  0  0  0
 38 43  2  0  0  0
 38 46  1  0  0  0
 38 47  1  0  0  0
 39 64  1  0  0  0
 39 67  2  0  0  0
 40 52  1  0  0  0
 40 53  2  0  0  0
 40 58  1  0  0  0
 41111  1  0  0  0
 41112  1  0  0  0
 41113  1  0  0  0
 41 48  1  0  0  0
 42 43  1  0  0  0
 42 66  1  0  0  0
 42114  1  0  0  0
 42115  1  0  0  0
 43 44  1  0  0  0
 44116  1  0  0  0
 45 46  2  0  0  0
 45117  1  0  0  0
 46118  1  0  0  0
 47119  1  0  0  0
 47120  1  0  0  0
 48 56  1  0  0  0
 48 65  1  0  0  0
 48121  1  0  0  0
 49 50  1  0  0  0
 49 53  1  0  0  0
 49 64  1  0  0  0
 49122  1  0  0  0
 50 51  1  0  0  0
 50123  1  0  0  0
 50124  1  0  0  0
 51 52  1  0  0  0
 51125  1  0  0  0
 51126  1  0  0  0
 52127  1  0  0  0
 52128  1  0  0  0
 53 54  1  0  0  0
 54 55  2  0  0  0
 54129  1  0  0  0
 55 57  1  0  0  0
 55130  1  0  0  0
 56 69  2  0  0  0
 57 58  2  0  0  0
 57131  1  0  0  0
 58132  1  0  0  0
 59 60  1  0  0  0
 59 61  1  0  0  0
 59 62  1  0  0  0
 60133  1  0  0  0
 60134  1  0  0  0
 60135  1  0  0  0
 61136  1  0  0  0
 61137  1  0  0  0
 61138  1  0  0  0
 62139  1  0  0  0
 62140  1  0  0  0
 62141  1  0  0  0
 63 65  1  0  0  0
 63142  1  0  0  0
 63143  1  0  0  0
 63144  1  0  0  0
 64145  1  0  0  0
 65146  1  0  0  0
 68 84  1  0  0  0
 71 73  2  0  0  0
 71 75  1  0  0  0
 71147  1  0  0  0
 72 73  1  0  0  0
 72 74  2  0  0  0
 72 80  1  0  0  0
 73 82  1  0  0  0
 74 85  1  0  0  0
 74 81  1  0  0  0
 75 85  2  0  0  0
 75 87  1  0  0  0
 76 77  1  0  0  0
 76 80  1  0  0  0
 76148  1  0  0  0
 76149  1  0  0  0
 77 80  1  0  0  0
 77150  1  0  0  0
 77151  1  0  0  0
 78 79  1  0  0  0
 78 81  1  0  0  0
 78152  1  0  0  0
 78153  1  0  0  0
 79 86  1  0  0  0
 79154  1  0  0  0
 79155  1  0  0  0
 80156  1  0  0  0
 81 86  1  0  0  0
 81157  1  0  0  0
 82158  1  0  0  0
 82159  1  0  0  0
 82160  1  0  0  0
 83 84  1  0  0  0
 83 87  1  0  0  0
 83161  1  0  0  0
 83162  1  0  0  0
 84163  1  0  0  0
 84164  1  0  0  0
 87165  1  0  0  0
M  ISO  4   1 100  68 101  84 101  86 100
M  END
> <chiral flag>
0

> <version>
0

> <s_m_source_file>
/data/baiqing/PycharmProjects/Reinvent-master-3.2/result/LINK_invent/BTK/process_docking_weight1_custom_sum_contain_oxygen_bond_distance_aromatic_linkinvent_7_9_3/rearranged_h_0174.sdf

> <i_m_source_file_index>
65

> <r_mmod_Potential_Energy-OPLS-2005>
128.895690917969

> <r_mmod_Stretch_Energy-OPLS-2005>
146.266723632812

> <r_mmod_Bend_Energy-OPLS-2005>
233.558044433594

> <r_mmod_Torsional_Energy-OPLS-2005>
298.066436767578

> <r_mmod_Improper_Torsional_Energy-OPLS-2005>
23.1429214477539

> <r_mmod_Van_der_Waal_Energy-OPLS-2005>
140.265975952148

> <r_mmod_Electrostatic_Energy-OPLS-2005>
-611.648132324219

> <r_mmod_Solvation_Energy-OPLS-2005>
-214.906707763672

> <b_mmod_Minimization_Converged-OPLS-2005>
0

> <r_mmod_RMS_Derivative-OPLS-2005>
15.0215978622437

$$$$
67
                    3D
 Structure written by MMmdl.
170180  0  0  1  0            999 V2000
  -30.5206  -15.0430   20.4354 C   0  0  0  0  0  0
  -30.4427  -12.6602   19.5248 C   0  0  0  0  0  0
  -29.5338  -12.5464   18.2797 C   0  0  0  0  0  0
  -28.0777  -12.2922   18.7078 C   0  0  0  0  0  0
  -27.6273  -13.2504   19.8399 C   0  0  2  0  0  0
  -28.6580  -13.3225   20.9849 C   0  0  0  0  0  0
  -25.2454  -13.8203   20.5714 C   0  0  0  0  0  0
  -24.1755  -13.0425   20.9201 C   0  0  0  0  0  0
  -24.6364  -11.6900   20.8724 C   0  0  0  0  0  0
  -23.9047  -10.4276   21.0410 C   0  0  0  0  0  0
  -24.3599   -9.4208   21.9208 C   0  0  0  0  0  0
  -23.6274   -8.2251   22.0772 C   0  0  0  0  0  0
  -22.4264   -8.0288   21.3558 C   0  0  0  0  0  0
  -21.9888   -9.0253   20.4665 C   0  0  0  0  0  0
  -22.7205  -10.2137   20.3067 C   0  0  0  0  0  0
  -21.6843   -6.0732   22.5281 C   0  0  0  0  0  0
  -21.4013   -6.5627   23.8222 C   0  0  0  0  0  0
  -21.3667   -5.6776   24.9184 C   0  0  0  0  0  0
  -21.6040   -4.3046   24.7221 C   0  0  0  0  0  0
  -21.8808   -3.8134   23.4340 C   0  0  0  0  0  0
  -21.9180   -4.6955   22.3401 C   0  0  0  0  0  0
  -22.7798  -13.5240   21.1848 C   0  0  0  0  0  0
  -22.1656   -4.2150   21.0973 F   0  0  0  0  0  0
  -21.5636   -3.4524   25.7731 F   0  0  0  0  0  0
  -29.9252  -13.7704   20.3879 N   0  0  0  0  0  0
  -26.2866  -12.9421   20.3232 N   0  0  0  0  0  0
  -25.9301  -11.6559   20.5708 N   0  0  0  0  0  0
  -22.0429  -12.8256   22.0415 N   0  0  0  0  0  0
  -25.4131  -15.1929   20.4239 N   0  0  0  0  0  0
  -31.7145  -15.0734   20.1032 O   0  0  0  0  0  0
  -21.6622   -6.8889   21.4254 O   0  0  0  0  0  0
  -22.3507  -14.5548   20.6679 O   0  0  0  0  0  0
  -24.6406  -31.8408   23.1909 C   0  0  0  0  0  0
  -25.9154  -32.4691   23.8317 C   0  0  1  0  0  0
  -27.2270  -27.1034   20.1515 C   0  0  0  0  0  0
  -25.5844  -33.8509   24.2186 N   0  0  0  0  0  0
  -23.4497  -30.4583   21.5364 C   0  0  2  0  0  0
  -24.9043  -28.8785   20.1169 C   0  0  0  0  0  0
  -22.7595  -29.4505   22.4854 C   0  0  0  0  0  0
  -18.0317  -28.1308   22.8480 C   0  0  0  0  0  0
  -24.1500  -36.7311   23.2658 C   0  0  0  0  0  0
  -26.0083  -30.7014   21.4010 C   0  0  0  0  0  0
  -26.0844  -29.3108   20.7381 C   0  0  0  0  0  0
  -27.2470  -28.4451   20.7294 C   0  0  0  0  0  0
  -26.0203  -26.7892   19.4886 C   0  0  0  0  0  0
  -24.8884  -27.6314   19.4754 C   0  0  0  0  0  0
  -23.6827  -29.7865   20.1587 C   0  0  0  0  0  0
  -25.4119  -36.3029   24.0308 C   0  0  1  0  0  0
  -20.5933  -28.3666   23.1203 C   0  0  2  0  0  0
  -20.6799  -26.9347   22.5393 C   0  0  0  0  0  0
  -19.5764  -26.6320   21.5193 C   0  0  0  0  0  0
  -18.1948  -26.7852   22.1593 C   0  0  0  0  0  0
  -19.1578  -28.8798   23.2829 C   0  0  0  0  0  0
  -18.9493  -30.1399   23.8844 C   0  0  0  0  0  0
  -17.6506  -30.6533   24.0542 C   0  0  0  0  0  0
  -25.9051  -34.9395   23.5086 C   0  0  0  0  0  0
  -16.5386  -29.9024   23.6323 C   0  0  0  0  0  0
  -16.7312  -28.6426   23.0352 C   0  0  0  0  0  0
  -26.4470  -31.6580   25.0806 C   0  0  0  0  0  0
  -25.3669  -31.3681   26.1527 C   0  0  0  0  0  0
  -27.0348  -30.2954   24.6431 C   0  0  0  0  0  0
  -27.5956  -32.4435   25.7551 C   0  0  0  0  0  0
  -27.5613  -37.1768   24.8453 C   0  0  0  0  0  0
  -21.4274  -29.3014   22.3624 N   0  0  0  0  0  0
  -26.4314  -37.3738   23.9394 N   0  0  0  0  0  0
  -24.7205  -31.0207   22.0986 N   0  0  0  0  0  0
  -23.4241  -28.8052   23.3009 O   0  0  0  0  0  0
  -28.2842  -26.1076   20.1596 O   0  0  0  0  0  0
  -26.5728  -34.8899   22.4727 O   0  0  0  0  0  0
  -23.5502  -32.1309   23.7049 O   0  0  0  0  0  0
  -30.6006  -20.9464   19.1211 C   0  0  0  0  0  0
  -30.7304  -22.2561   18.5474 C   0  0  0  0  0  0
  -29.5543  -20.6003   20.0401 C   0  0  0  0  0  0
  -29.9300  -23.3678   18.9725 C   0  0  0  0  0  0
  -28.7388  -21.8015   20.4336 C   0  0  0  0  0  0
  -28.9149  -23.2244   19.9596 C   0  0  0  0  0  0
  -31.6981  -19.9493   18.7514 C   0  0  0  0  0  0
  -31.7596  -22.5026   17.4136 C   0  0  0  0  0  0
  -31.9982  -19.9568   17.2524 C   0  0  0  0  0  0
  -32.5843  -21.3126   16.8767 C   0  0  0  0  0  0
  -30.3000  -18.5608   21.7748 C   0  0  0  0  0  0
  -30.0974  -17.0036   21.9853 C   0  0  0  0  0  0
  -29.4690  -17.5315   19.8324 C   0  0  0  0  0  0
  -29.3957  -19.0104   20.6180 C   0  0  2  0  0  0
  -30.1676  -24.7627   18.3855 C   0  0  0  0  0  0
  -27.6233  -21.5444   21.4410 C   0  0  0  0  0  0
  -28.0032  -24.5683   20.3952 C   0  0  0  0  0  0
  -29.8167  -16.2776   20.7168 N   0  0  0  0  0  0
  -31.4712  -12.8334   19.2108 H   0  0  0  0  0  0
  -30.4657  -11.7228   20.0829 H   0  0  0  0  0  0
  -29.8842  -11.7453   17.6288 H   0  0  0  0  0  0
  -29.5896  -13.4670   17.6945 H   0  0  0  0  0  0
  -28.0299  -11.2646   19.0718 H   0  0  0  0  0  0
  -27.4017  -12.3457   17.8527 H   0  0  0  0  0  0
  -27.5803  -14.2418   19.3888 H   0  0  0  0  0  0
  -28.7674  -12.3508   21.4711 H   0  0  0  0  0  0
  -28.3267  -14.0184   21.7584 H   0  0  0  0  0  0
  -25.2740   -9.5713   22.4774 H   0  0  0  0  0  0
  -23.9971   -7.4673   22.7521 H   0  0  0  0  0  0
  -21.0794   -8.8779   19.9004 H   0  0  0  0  0  0
  -22.3645  -10.9676   19.6185 H   0  0  0  0  0  0
  -21.2001   -7.6136   23.9733 H   0  0  0  0  0  0
  -21.1511   -6.0497   25.9085 H   0  0  0  0  0  0
  -22.0567   -2.7593   23.2820 H   0  0  0  0  0  0
  -22.4026  -11.9911   22.4802 H   0  0  0  0  0  0
  -21.1080  -13.1357   22.2617 H   0  0  0  0  0  0
  -24.6480  -15.8453   20.5609 H   0  0  0  0  0  0
  -26.2756  -15.6456   20.1496 H   0  0  0  0  0  0
  -26.7221  -32.5272   23.1026 H   0  0  0  0  0  0
  -24.9761  -33.9587   25.0171 H   0  0  0  0  0  0
  -22.7469  -31.2790   21.3792 H   0  0  0  0  0  0
  -23.3779  -35.9651   23.3289 H   0  0  0  0  0  0
  -24.3560  -36.9045   22.2097 H   0  0  0  0  0  0
  -23.7274  -37.6474   23.6781 H   0  0  0  0  0  0
  -26.1685  -31.4555   20.6306 H   0  0  0  0  0  0
  -26.8745  -30.7429   22.0526 H   0  0  0  0  0  0
  -28.1508  -28.7755   21.2258 H   0  0  0  0  0  0
  -25.9377  -25.8528   18.9627 H   0  0  0  0  0  0
  -23.9926  -27.2988   18.9735 H   0  0  0  0  0  0
  -23.8171  -30.5646   19.4041 H   0  0  0  0  0  0
  -22.7972  -29.2268   19.8532 H   0  0  0  0  0  0
  -25.1299  -36.1898   25.0801 H   0  0  0  0  0  0
  -20.9958  -28.3274   24.1342 H   0  0  0  0  0  0
  -20.5592  -26.2287   23.3619 H   0  0  0  0  0  0
  -21.6668  -26.7272   22.1228 H   0  0  0  0  0  0
  -19.6899  -25.6226   21.1220 H   0  0  0  0  0  0
  -19.6710  -27.3127   20.6735 H   0  0  0  0  0  0
  -17.4224  -26.6641   21.4005 H   0  0  0  0  0  0
  -18.0295  -25.9941   22.8905 H   0  0  0  0  0  0
  -19.7998  -30.7199   24.2173 H   0  0  0  0  0  0
  -17.5091  -31.6192   24.5164 H   0  0  0  0  0  0
  -15.5368  -30.2907   23.7666 H   0  0  0  0  0  0
  -15.8723  -28.0743   22.7055 H   0  0  0  0  0  0
  -24.5909  -30.6950   25.7872 H   0  0  0  0  0  0
  -24.8786  -32.2802   26.4952 H   0  0  0  0  0  0
  -25.8022  -30.8900   27.0306 H   0  0  0  0  0  0
  -26.2971  -29.6638   24.1484 H   0  0  0  0  0  0
  -27.3919  -29.7326   25.5052 H   0  0  0  0  0  0
  -27.8909  -30.4150   23.9801 H   0  0  0  0  0  0
  -27.2515  -33.3800   26.1933 H   0  0  0  0  0  0
  -28.3792  -32.6898   25.0391 H   0  0  0  0  0  0
  -28.0585  -31.8743   26.5581 H   0  0  0  0  0  0
  -28.2537  -38.0155   24.7542 H   0  0  0  0  0  0
  -28.1181  -36.2652   24.6216 H   0  0  0  0  0  0
  -27.2316  -37.1378   25.8854 H   0  0  0  0  0  0
  -20.9460  -29.8845   21.6930 H   0  0  0  0  0  0
  -26.0205  -38.2811   24.1431 H   0  0  0  0  0  0
  -31.5197  -18.9458   19.0968 H   0  0  0  0  0  0
  -32.5976  -20.2470   19.2922 H   0  0  0  0  0  0
  -32.4582  -23.2798   17.7285 H   0  0  0  0  0  0
  -31.2094  -22.9032   16.5595 H   0  0  0  0  0  0
  -31.0942  -19.7646   16.6709 H   0  0  0  0  0  0
  -32.7140  -19.1746   16.9952 H   0  0  0  0  0  0
  -33.6019  -21.3779   17.2726 H   0  0  0  0  0  0
  -32.6979  -21.3907   15.7926 H   0  0  0  0  0  0
  -31.3437  -18.7576   21.5254 H   0  0  0  0  0  0
  -30.1028  -19.1185   22.6923 H   0  0  0  0  0  0
  -29.2340  -16.8555   22.6365 H   0  0  0  0  0  0
  -30.9503  -16.5733   22.5158 H   0  0  0  0  0  0
  -30.1272  -17.5203   18.9691 H   0  0  0  0  0  0
  -28.4841  -17.3560   19.3976 H   0  0  0  0  0  0
  -28.3956  -19.0112   21.0451 H   0  0  0  0  0  0
  -30.8586  -24.8210   17.5498 H   0  0  0  0  0  0
  -30.5725  -25.4139   19.1584 H   0  0  0  0  0  0
  -29.2440  -25.2024   18.0108 H   0  0  0  0  0  0
  -28.0532  -21.2780   22.4102 H   0  0  0  0  0  0
  -26.9896  -20.7212   21.1085 H   0  0  0  0  0  0
  -26.9618  -22.3982   21.5870 H   0  0  0  0  0  0
  -27.9206  -24.5081   21.4812 H   0  0  0  0  0  0
  -27.0024  -24.3539   20.0306 H   0  0  0  0  0  0
  1 25  1  0  0  0
  1 30  2  0  0  0
  1 88  1  0  0  0
  2  3  1  0  0  0
  2 25  1  0  0  0
  2 89  1  0  0  0
  2 90  1  0  0  0
  3  4  1  0  0  0
  3 91  1  0  0  0
  3 92  1  0  0  0
  4  5  1  0  0  0
  4 93  1  0  0  0
  4 94  1  0  0  0
  5  6  1  0  0  0
  5 26  1  0  0  0
  5 95  1  0  0  0
  6 25  1  0  0  0
  6 96  1  0  0  0
  6 97  1  0  0  0
  7  8  2  0  0  0
  7 26  1  0  0  0
  7 29  1  0  0  0
  8  9  1  0  0  0
  8 22  1  0  0  0
  9 10  1  0  0  0
  9 27  2  0  0  0
 10 11  2  0  0  0
 10 15  1  0  0  0
 11 12  1  0  0  0
 11 98  1  0  0  0
 12 13  2  0  0  0
 12 99  1  0  0  0
 13 14  1  0  0  0
 13 31  1  0  0  0
 14 15  2  0  0  0
 14100  1  0  0  0
 15101  1  0  0  0
 16 17  2  0  0  0
 16 21  1  0  0  0
 16 31  1  0  0  0
 17 18  1  0  0  0
 17102  1  0  0  0
 18 19  2  0  0  0
 18103  1  0  0  0
 19 20  1  0  0  0
 19 24  1  0  0  0
 20 21  2  0  0  0
 20104  1  0  0  0
 21 23  1  0  0  0
 22 28  1  0  0  0
 22 32  2  0  0  0
 26 27  1  0  0  0
 28105  1  0  0  0
 28106  1  0  0  0
 29107  1  0  0  0
 29108  1  0  0  0
 33 34  1  0  0  0
 33 66  1  0  0  0
 33 70  2  0  0  0
 34 36  1  0  0  0
 34 59  1  0  0  0
 34109  1  0  0  0
 35 44  2  0  0  0
 35 45  1  0  0  0
 35 68  1  0  0  0
 36 56  1  0  0  0
 36110  1  0  0  0
 37 39  1  0  0  0
 37 47  1  0  0  0
 37 66  1  0  0  0
 37111  1  0  0  0
 38 43  2  0  0  0
 38 46  1  0  0  0
 38 47  1  0  0  0
 39 64  1  0  0  0
 39 67  2  0  0  0
 40 52  1  0  0  0
 40 53  2  0  0  0
 40 58  1  0  0  0
 41112  1  0  0  0
 41113  1  0  0  0
 41114  1  0  0  0
 41 48  1  0  0  0
 42 43  1  0  0  0
 42 66  1  0  0  0
 42115  1  0  0  0
 42116  1  0  0  0
 43 44  1  0  0  0
 44117  1  0  0  0
 45 46  2  0  0  0
 45118  1  0  0  0
 46119  1  0  0  0
 47120  1  0  0  0
 47121  1  0  0  0
 48 56  1  0  0  0
 48 65  1  0  0  0
 48122  1  0  0  0
 49 50  1  0  0  0
 49 53  1  0  0  0
 49 64  1  0  0  0
 49123  1  0  0  0
 50 51  1  0  0  0
 50124  1  0  0  0
 50125  1  0  0  0
 51 52  1  0  0  0
 51126  1  0  0  0
 51127  1  0  0  0
 52128  1  0  0  0
 52129  1  0  0  0
 53 54  1  0  0  0
 54 55  2  0  0  0
 54130  1  0  0  0
 55 57  1  0  0  0
 55131  1  0  0  0
 56 69  2  0  0  0
 57 58  2  0  0  0
 57132  1  0  0  0
 58133  1  0  0  0
 59 60  1  0  0  0
 59 61  1  0  0  0
 59 62  1  0  0  0
 60134  1  0  0  0
 60135  1  0  0  0
 60136  1  0  0  0
 61137  1  0  0  0
 61138  1  0  0  0
 61139  1  0  0  0
 62140  1  0  0  0
 62141  1  0  0  0
 62142  1  0  0  0
 63 65  1  0  0  0
 63143  1  0  0  0
 63144  1  0  0  0
 63145  1  0  0  0
 64146  1  0  0  0
 65147  1  0  0  0
 68 87  1  0  0  0
 71 72  1  0  0  0
 71 73  2  0  0  0
 71 77  1  0  0  0
 72 74  2  0  0  0
 72 78  1  0  0  0
 73 75  1  0  0  0
 73 84  1  0  0  0
 74 76  1  0  0  0
 74 85  1  0  0  0
 75 76  2  0  0  0
 75 86  1  0  0  0
 76 87  1  0  0  0
 77 79  1  0  0  0
 77148  1  0  0  0
 77149  1  0  0  0
 78 80  1  0  0  0
 78150  1  0  0  0
 78151  1  0  0  0
 79 80  1  0  0  0
 79152  1  0  0  0
 79153  1  0  0  0
 80154  1  0  0  0
 80155  1  0  0  0
 81 82  1  0  0  0
 81 84  1  0  0  0
 81156  1  0  0  0
 81157  1  0  0  0
 82 88  1  0  0  0
 82158  1  0  0  0
 82159  1  0  0  0
 83 84  1  0  0  0
 83 88  1  0  0  0
 83160  1  0  0  0
 83161  1  0  0  0
 84162  1  0  0  0
 85163  1  0  0  0
 85164  1  0  0  0
 85165  1  0  0  0
 86166  1  0  0  0
 86167  1  0  0  0
 86168  1  0  0  0
 87169  1  0  0  0
 87170  1  0  0  0
M  ISO  4   1 100  68 101  87 101  88 100
M  END
> <chiral flag>
0

> <version>
0

> <s_m_source_file>
/data/baiqing/PycharmProjects/Reinvent-master-3.2/result/LINK_invent/BTK/process_docking_weight1_custom_sum_contain_oxygen_bond_distance_aromatic_linkinvent_7_9_3/rearranged_h_0174.sdf

> <i_m_source_file_index>
66

> <r_mmod_Potential_Energy-OPLS-2005>
929.882568359375

> <r_mmod_Stretch_Energy-OPLS-2005>
333.846038818359

> <r_mmod_Bend_Energy-OPLS-2005>
334.040496826172

> <r_mmod_Torsional_Energy-OPLS-2005>
368.888610839844

> <r_mmod_Improper_Torsional_Energy-OPLS-2005>
6.74588012695312

> <r_mmod_Van_der_Waal_Energy-OPLS-2005>
146.519104003906

> <r_mmod_Electrostatic_Energy-OPLS-2005>
-306.686462402344

> <r_mmod_Solvation_Energy-OPLS-2005>
-192.150375366211

> <b_mmod_Minimization_Converged-OPLS-2005>
0

> <r_mmod_RMS_Derivative-OPLS-2005>
6.31085586547852

$$$$
68
                    3D
 Structure written by MMmdl.
162171  0  0  1  0            999 V2000
  -30.5910  -14.8659   20.4385 C   0  0  0  0  0  0
  -30.4331  -12.5342   19.4945 C   0  0  0  0  0  0
  -29.5156  -12.5180   18.2511 C   0  0  0  0  0  0
  -28.0462  -12.3220   18.6681 C   0  0  0  0  0  0
  -27.6344  -13.2453   19.8451 C   0  0  2  0  0  0
  -28.6786  -13.2461   20.9836 C   0  0  0  0  0  0
  -25.2479  -13.8216   20.5727 C   0  0  0  0  0  0
  -24.1789  -13.0445   20.9233 C   0  0  0  0  0  0
  -24.6398  -11.6927   20.8762 C   0  0  0  0  0  0
  -23.9081  -10.4297   21.0412 C   0  0  0  0  0  0
  -24.3628   -9.4208   21.9185 C   0  0  0  0  0  0
  -23.6302   -8.2244   22.0752 C   0  0  0  0  0  0
  -22.4283   -8.0284   21.3545 C   0  0  0  0  0  0
  -21.9923   -9.0258   20.4646 C   0  0  0  0  0  0
  -22.7255  -10.2137   20.3058 C   0  0  0  0  0  0
  -21.6852   -6.0740   22.5281 C   0  0  0  0  0  0
  -21.4013   -6.5644   23.8215 C   0  0  0  0  0  0
  -21.3656   -5.6796   24.9177 C   0  0  0  0  0  0
  -21.6041   -4.3059   24.7226 C   0  0  0  0  0  0
  -21.8820   -3.8152   23.4348 C   0  0  0  0  0  0
  -21.9195   -4.6968   22.3405 C   0  0  0  0  0  0
  -22.7807  -13.5212   21.1894 C   0  0  0  0  0  0
  -22.1664   -4.2156   21.0982 F   0  0  0  0  0  0
  -21.5627   -3.4541   25.7738 F   0  0  0  0  0  0
  -29.9670  -13.6269   20.3914 N   0  0  0  0  0  0
  -26.2907  -12.9447   20.3282 N   0  0  0  0  0  0
  -25.9330  -11.6579   20.5759 N   0  0  0  0  0  0
  -22.0457  -12.8190   22.0440 N   0  0  0  0  0  0
  -25.4149  -15.1944   20.4148 N   0  0  0  0  0  0
  -31.7793  -14.9243   20.1132 O   0  0  0  0  0  0
  -21.6644   -6.8883   21.4242 O   0  0  0  0  0  0
  -22.3491  -14.5521   20.6743 O   0  0  0  0  0  0
  -24.6393  -31.8494   23.1943 C   0  0  0  0  0  0
  -25.9179  -32.4728   23.8315 C   0  0  1  0  0  0
  -27.2139  -27.1709   20.1417 C   0  0  0  0  0  0
  -25.5945  -33.8535   24.2234 N   0  0  0  0  0  0
  -23.4416  -30.4726   21.5394 C   0  0  2  0  0  0
  -24.8922  -28.9151   20.1069 C   0  0  0  0  0  0
  -22.7549  -29.4572   22.4869 C   0  0  0  0  0  0
  -18.0299  -28.1398   22.8484 C   0  0  0  0  0  0
  -24.1487  -36.7272   23.2641 C   0  0  0  0  0  0
  -25.9961  -30.7328   21.3919 C   0  0  0  0  0  0
  -26.0674  -29.3478   20.7345 C   0  0  0  0  0  0
  -27.2267  -28.4877   20.7469 C   0  0  0  0  0  0
  -26.0212  -26.8568   19.4451 C   0  0  0  0  0  0
  -24.8809  -27.6810   19.4486 C   0  0  0  0  0  0
  -23.6671  -29.8117   20.1552 C   0  0  0  0  0  0
  -25.4115  -36.3053   24.0319 C   0  0  1  0  0  0
  -20.5912  -28.3722   23.1244 C   0  0  2  0  0  0
  -20.6789  -26.9427   22.5408 C   0  0  0  0  0  0
  -19.5760  -26.6386   21.5218 C   0  0  0  0  0  0
  -18.1938  -26.7937   22.1626 C   0  0  0  0  0  0
  -19.1557  -28.8873   23.2858 C   0  0  0  0  0  0
  -18.9475  -30.1469   23.8884 C   0  0  0  0  0  0
  -17.6472  -30.6596   24.0563 C   0  0  0  0  0  0
  -25.9060  -34.9426   23.5080 C   0  0  0  0  0  0
  -16.5362  -29.9094   23.6335 C   0  0  0  0  0  0
  -16.7284  -28.6513   23.0355 C   0  0  0  0  0  0
  -26.4515  -31.6573   25.0735 C   0  0  0  0  0  0
  -25.3704  -31.3744   26.1431 C   0  0  0  0  0  0
  -27.0376  -30.2976   24.6275 C   0  0  0  0  0  0
  -27.6055  -32.4334   25.7510 C   0  0  0  0  0  0
  -27.5573  -37.1792   24.8462 C   0  0  0  0  0  0
  -21.4242  -29.3058   22.3620 N   0  0  0  0  0  0
  -26.4284  -37.3763   23.9407 N   0  0  0  0  0  0
  -24.7119  -31.0378   22.0975 N   0  0  0  0  0  0
  -23.4210  -28.8100   23.2992 O   0  0  0  0  0  0
  -28.2457  -26.1713   20.2501 O   0  0  0  0  0  0
  -26.5639  -34.8908   22.4655 O   0  0  0  0  0  0
  -23.5516  -32.1364   23.7174 O   0  0  0  0  0  0
  -29.8887  -21.1578   19.8129 C   0  0  0  0  0  0
  -28.1660  -21.1790   21.4017 C   0  0  0  0  0  0
  -29.1373  -20.3637   20.7378 C   0  0  0  0  0  0
  -29.6250  -22.5757   19.6019 C   0  0  0  0  0  0
  -28.6015  -23.2925   20.3160 C   0  0  0  0  0  0
  -29.8585  -18.7358   22.5556 C   0  0  0  0  0  0
  -31.5789  -17.8588   21.1841 C   0  0  0  0  0  0
  -29.2621  -18.7698   21.1455 C   0  0  2  0  0  0
  -30.2157  -17.5785   20.4960 C   0  0  2  0  0  0
  -30.4237  -23.3160   18.5429 C   0  0  0  0  0  0
  -32.1293  -18.4975   23.5266 C   0  0  0  0  0  0
  -27.9112  -24.7148   19.8683 C   0  0  0  0  0  0
  -27.9155  -22.5229   21.2132 N   0  0  0  0  0  0
  -29.8530  -16.0508   20.6526 N   0  0  0  0  0  0
  -31.3122  -18.7652   22.3231 N   0  3  2  0  0  0
  -31.4718  -12.6650   19.1868 H   0  0  0  0  0  0
  -30.3973  -11.5747   20.0127 H   0  0  0  0  0  0
  -29.8179  -11.7236   17.5674 H   0  0  0  0  0  0
  -29.6211  -13.4538   17.7008 H   0  0  0  0  0  0
  -27.9275  -11.2781   18.9617 H   0  0  0  0  0  0
  -27.3839  -12.4745   17.8152 H   0  0  0  0  0  0
  -27.6077  -14.2538   19.4315 H   0  0  0  0  0  0
  -28.7431  -12.2654   21.4576 H   0  0  0  0  0  0
  -28.3922  -13.9494   21.7673 H   0  0  0  0  0  0
  -25.2768   -9.5687   22.4767 H   0  0  0  0  0  0
  -24.0012   -7.4633   22.7469 H   0  0  0  0  0  0
  -21.0856   -8.8779   19.8948 H   0  0  0  0  0  0
  -22.3710  -10.9679   19.6172 H   0  0  0  0  0  0
  -21.2001   -7.6150   23.9721 H   0  0  0  0  0  0
  -21.1474   -6.0523   25.9080 H   0  0  0  0  0  0
  -22.0598   -2.7613   23.2846 H   0  0  0  0  0  0
  -22.4083  -11.9847   22.4815 H   0  0  0  0  0  0
  -21.1068  -13.1198   22.2651 H   0  0  0  0  0  0
  -24.6411  -15.8423   20.5177 H   0  0  0  0  0  0
  -26.2504  -15.6324   20.0500 H   0  0  0  0  0  0
  -26.7247  -32.5352   23.1051 H   0  0  0  0  0  0
  -25.0080  -33.9661   25.0372 H   0  0  0  0  0  0
  -22.7418  -31.2979   21.3903 H   0  0  0  0  0  0
  -23.3746  -35.9607   23.3307 H   0  0  0  0  0  0
  -24.3573  -36.8902   22.2056 H   0  0  0  0  0  0
  -23.7250  -37.6474   23.6670 H   0  0  0  0  0  0
  -26.1421  -31.4868   20.6173 H   0  0  0  0  0  0
  -26.8711  -30.7885   22.0276 H   0  0  0  0  0  0
  -28.1125  -28.8055   21.2790 H   0  0  0  0  0  0
  -25.9144  -25.9332   18.8984 H   0  0  0  0  0  0
  -23.9893  -27.3506   18.9336 H   0  0  0  0  0  0
  -23.8010  -30.5915   19.4049 H   0  0  0  0  0  0
  -22.7827  -29.2537   19.8421 H   0  0  0  0  0  0
  -25.1303  -36.1896   25.0812 H   0  0  0  0  0  0
  -21.0002  -28.3317   24.1367 H   0  0  0  0  0  0
  -20.5696  -26.2332   23.3627 H   0  0  0  0  0  0
  -21.6653  -26.7445   22.1197 H   0  0  0  0  0  0
  -19.6920  -25.6292   21.1261 H   0  0  0  0  0  0
  -19.6698  -27.3185   20.6738 H   0  0  0  0  0  0
  -17.4209  -26.6682   21.4027 H   0  0  0  0  0  0
  -18.0330  -26.0084   22.9026 H   0  0  0  0  0  0
  -19.7949  -30.7285   24.2253 H   0  0  0  0  0  0
  -17.5030  -31.6275   24.5167 H   0  0  0  0  0  0
  -15.5365  -30.2996   23.7668 H   0  0  0  0  0  0
  -15.8681  -28.0832   22.7079 H   0  0  0  0  0  0
  -24.5902  -30.7066   25.7755 H   0  0  0  0  0  0
  -24.8856  -32.2910   26.4795 H   0  0  0  0  0  0
  -25.7996  -30.8969   27.0247 H   0  0  0  0  0  0
  -26.2983  -29.6704   24.1273 H   0  0  0  0  0  0
  -27.4003  -29.7267   25.4831 H   0  0  0  0  0  0
  -27.8886  -30.4235   23.9581 H   0  0  0  0  0  0
  -27.2665  -33.3665   26.2022 H   0  0  0  0  0  0
  -28.3892  -32.6844   25.0352 H   0  0  0  0  0  0
  -28.0681  -31.8496   26.5476 H   0  0  0  0  0  0
  -28.2582  -38.0098   24.7514 H   0  0  0  0  0  0
  -28.1084  -36.2627   24.6288 H   0  0  0  0  0  0
  -27.2287  -37.1441   25.8865 H   0  0  0  0  0  0
  -20.9432  -29.8817   21.6851 H   0  0  0  0  0  0
  -26.0155  -38.2831   24.1425 H   0  0  0  0  0  0
  -30.6672  -20.6782   19.2362 H   0  0  0  0  0  0
  -27.5332  -20.7180   22.1462 H   0  0  0  0  0  0
  -29.5895  -17.8012   23.0531 H   0  0  0  0  0  0
  -29.5238  -19.5482   23.2010 H   0  0  0  0  0  0
  -32.2710  -18.3471   20.4970 H   0  0  0  0  0  0
  -32.0759  -16.9570   21.5380 H   0  0  0  0  0  0
  -28.2353  -18.4034   21.1741 H   0  0  0  0  0  0
  -30.3006  -17.7493   19.4224 H   0  0  0  0  0  0
  -31.3139  -22.7587   18.2488 H   0  0  0  0  0  0
  -30.7505  -24.2879   18.9165 H   0  0  0  0  0  0
  -29.8181  -23.4810   17.6512 H   0  0  0  0  0  0
  -31.9012  -19.2154   24.3145 H   0  0  0  0  0  0
  -33.1917  -18.5824   23.2960 H   0  0  0  0  0  0
  -31.9462  -17.4962   23.9181 H   0  0  0  0  0  0
  -26.8816  -24.5522   20.1849 H   0  0  0  0  0  0
  -27.8827  -24.6935   18.7783 H   0  0  0  0  0  0
  -28.8808  -15.8790   20.8623 H   0  0  0  0  0  0
  -31.5272  -19.6997   22.0085 H   0  0  0  0  0  0
  1 25  1  0  0  0
  1 30  2  0  0  0
  1 84  1  0  0  0
  2  3  1  0  0  0
  2 25  1  0  0  0
  2 86  1  0  0  0
  2 87  1  0  0  0
  3  4  1  0  0  0
  3 88  1  0  0  0
  3 89  1  0  0  0
  4  5  1  0  0  0
  4 90  1  0  0  0
  4 91  1  0  0  0
  5  6  1  0  0  0
  5 26  1  0  0  0
  5 92  1  0  0  0
  6 25  1  0  0  0
  6 93  1  0  0  0
  6 94  1  0  0  0
  7  8  2  0  0  0
  7 26  1  0  0  0
  7 29  1  0  0  0
  8  9  1  0  0  0
  8 22  1  0  0  0
  9 10  1  0  0  0
  9 27  2  0  0  0
 10 11  2  0  0  0
 10 15  1  0  0  0
 11 12  1  0  0  0
 11 95  1  0  0  0
 12 13  2  0  0  0
 12 96  1  0  0  0
 13 14  1  0  0  0
 13 31  1  0  0  0
 14 15  2  0  0  0
 14 97  1  0  0  0
 15 98  1  0  0  0
 16 17  2  0  0  0
 16 21  1  0  0  0
 16 31  1  0  0  0
 17 18  1  0  0  0
 17 99  1  0  0  0
 18 19  2  0  0  0
 18100  1  0  0  0
 19 20  1  0  0  0
 19 24  1  0  0  0
 20 21  2  0  0  0
 20101  1  0  0  0
 21 23  1  0  0  0
 22 28  1  0  0  0
 22 32  2  0  0  0
 26 27  1  0  0  0
 28102  1  0  0  0
 28103  1  0  0  0
 29104  1  0  0  0
 29105  1  0  0  0
 33 34  1  0  0  0
 33 66  1  0  0  0
 33 70  2  0  0  0
 34 36  1  0  0  0
 34 59  1  0  0  0
 34106  1  0  0  0
 35 44  2  0  0  0
 35 45  1  0  0  0
 35 68  1  0  0  0
 36 56  1  0  0  0
 36107  1  0  0  0
 37 39  1  0  0  0
 37 47  1  0  0  0
 37 66  1  0  0  0
 37108  1  0  0  0
 38 43  2  0  0  0
 38 46  1  0  0  0
 38 47  1  0  0  0
 39 64  1  0  0  0
 39 67  2  0  0  0
 40 52  1  0  0  0
 40 53  2  0  0  0
 40 58  1  0  0  0
 41109  1  0  0  0
 41110  1  0  0  0
 41111  1  0  0  0
 41 48  1  0  0  0
 42 43  1  0  0  0
 42 66  1  0  0  0
 42112  1  0  0  0
 42113  1  0  0  0
 43 44  1  0  0  0
 44114  1  0  0  0
 45 46  2  0  0  0
 45115  1  0  0  0
 46116  1  0  0  0
 47117  1  0  0  0
 47118  1  0  0  0
 48 56  1  0  0  0
 48 65  1  0  0  0
 48119  1  0  0  0
 49 50  1  0  0  0
 49 53  1  0  0  0
 49 64  1  0  0  0
 49120  1  0  0  0
 50 51  1  0  0  0
 50121  1  0  0  0
 50122  1  0  0  0
 51 52  1  0  0  0
 51123  1  0  0  0
 51124  1  0  0  0
 52125  1  0  0  0
 52126  1  0  0  0
 53 54  1  0  0  0
 54 55  2  0  0  0
 54127  1  0  0  0
 55 57  1  0  0  0
 55128  1  0  0  0
 56 69  2  0  0  0
 57 58  2  0  0  0
 57129  1  0  0  0
 58130  1  0  0  0
 59 60  1  0  0  0
 59 61  1  0  0  0
 59 62  1  0  0  0
 60131  1  0  0  0
 60132  1  0  0  0
 60133  1  0  0  0
 61134  1  0  0  0
 61135  1  0  0  0
 61136  1  0  0  0
 62137  1  0  0  0
 62138  1  0  0  0
 62139  1  0  0  0
 63 65  1  0  0  0
 63140  1  0  0  0
 63141  1  0  0  0
 63142  1  0  0  0
 64143  1  0  0  0
 65144  1  0  0  0
 68 82  1  0  0  0
 71 73  2  0  0  0
 71 74  1  0  0  0
 71145  1  0  0  0
 72 73  1  0  0  0
 72 83  2  0  0  0
 72146  1  0  0  0
 73 78  1  0  0  0
 74 75  2  0  0  0
 74 80  1  0  0  0
 75 82  1  0  0  0
 75 83  1  0  0  0
 76 78  1  0  0  0
 76 85  1  0  0  0
 76147  1  0  0  0
 76148  1  0  0  0
 77 79  1  0  0  0
 77 85  1  0  0  0
 77149  1  0  0  0
 77150  1  0  0  0
 78 79  1  0  0  0
 78151  1  0  0  0
 79 84  1  0  0  0
 79152  1  0  0  0
 80153  1  0  0  0
 80154  1  0  0  0
 80155  1  0  0  0
 81156  1  0  0  0
 81157  1  0  0  0
 81158  1  0  0  0
 81 85  1  0  0  0
 82159  1  0  0  0
 82160  1  0  0  0
 84161  1  0  0  0
 85162  1  0  0  0
M  CHG  1  85   1
M  ISO  4   1 100  68 101  82 101  84 100
M  END
> <chiral flag>
0

> <version>
0

> <s_m_source_file>
/data/baiqing/PycharmProjects/Reinvent-master-3.2/result/LINK_invent/BTK/process_docking_weight1_custom_sum_contain_oxygen_bond_distance_aromatic_linkinvent_7_9_3/rearranged_h_0174.sdf

> <i_m_source_file_index>
67

> <r_mmod_Potential_Energy-OPLS-2005>
186.598358154297

> <r_mmod_Stretch_Energy-OPLS-2005>
203.79052734375

> <r_mmod_Bend_Energy-OPLS-2005>
289.049346923828

> <r_mmod_Torsional_Energy-OPLS-2005>
309.001678466797

> <r_mmod_Improper_Torsional_Energy-OPLS-2005>
7.53970050811768

> <r_mmod_Van_der_Waal_Energy-OPLS-2005>
143.457916259766

> <r_mmod_Electrostatic_Energy-OPLS-2005>
-459.139801025391

> <r_mmod_Solvation_Energy-OPLS-2005>
-462.416687011719

> <b_mmod_Minimization_Converged-OPLS-2005>
0

> <r_mmod_RMS_Derivative-OPLS-2005>
0.968268871307373

$$$$
69
                    3D
 Structure written by MMmdl.
166176  0  0  1  0            999 V2000
  -30.7235  -14.7235   20.4719 C   0  0  0  0  0  0
  -30.4052  -12.4635   19.4595 C   0  0  0  0  0  0
  -29.4885  -12.4981   18.2229 C   0  0  0  0  0  0
  -28.0206  -12.3265   18.6500 C   0  0  0  0  0  0
  -27.6329  -13.2405   19.8442 C   0  0  2  0  0  0
  -28.6900  -13.2118   20.9714 C   0  0  0  0  0  0
  -25.2470  -13.8219   20.5725 C   0  0  0  0  0  0
  -24.1778  -13.0445   20.9233 C   0  0  0  0  0  0
  -24.6388  -11.6930   20.8777 C   0  0  0  0  0  0
  -23.9073  -10.4297   21.0418 C   0  0  0  0  0  0
  -24.3622   -9.4207   21.9190 C   0  0  0  0  0  0
  -23.6296   -8.2241   22.0754 C   0  0  0  0  0  0
  -22.4279   -8.0281   21.3543 C   0  0  0  0  0  0
  -21.9917   -9.0257   20.4646 C   0  0  0  0  0  0
  -22.7247  -10.2136   20.3062 C   0  0  0  0  0  0
  -21.6853   -6.0735   22.5278 C   0  0  0  0  0  0
  -21.4015   -6.5640   23.8212 C   0  0  0  0  0  0
  -21.3661   -5.6792   24.9174 C   0  0  0  0  0  0
  -21.6044   -4.3054   24.7225 C   0  0  0  0  0  0
  -21.8819   -3.8146   23.4346 C   0  0  0  0  0  0
  -21.9192   -4.6963   22.3402 C   0  0  0  0  0  0
  -22.7797  -13.5216   21.1876 C   0  0  0  0  0  0
  -22.1661   -4.2147   21.0980 F   0  0  0  0  0  0
  -21.5629   -3.4538   25.7738 F   0  0  0  0  0  0
  -29.9718  -13.5697   20.3529 N   0  0  0  0  0  0
  -26.2909  -12.9448   20.3327 N   0  0  0  0  0  0
  -25.9326  -11.6581   20.5804 N   0  0  0  0  0  0
  -22.0447  -12.8205   22.0431 N   0  0  0  0  0  0
  -25.4120  -15.1941   20.4112 N   0  0  0  0  0  0
  -31.9308  -14.6208   20.2363 O   0  0  0  0  0  0
  -21.6641   -6.8878   21.4240 O   0  0  0  0  0  0
  -22.3479  -14.5518   20.6716 O   0  0  0  0  0  0
  -24.6334  -31.8578   23.2044 C   0  0  0  0  0  0
  -25.9162  -32.4764   23.8373 C   0  0  1  0  0  0
  -27.1959  -27.2502   20.1105 C   0  0  0  0  0  0
  -25.5960  -33.8569   24.2283 N   0  0  0  0  0  0
  -23.4285  -30.4885   21.5493 C   0  0  2  0  0  0
  -24.8707  -28.9528   20.1060 C   0  0  0  0  0  0
  -22.7514  -29.4624   22.4911 C   0  0  0  0  0  0
  -18.0297  -28.1388   22.8482 C   0  0  0  0  0  0
  -24.1492  -36.7284   23.2637 C   0  0  0  0  0  0
  -25.9809  -30.7636   21.3932 C   0  0  0  0  0  0
  -26.0475  -29.3908   20.7267 C   0  0  0  0  0  0
  -27.2121  -28.5501   20.7281 C   0  0  0  0  0  0
  -25.9974  -26.9180   19.4260 C   0  0  0  0  0  0
  -24.8520  -27.7234   19.4456 C   0  0  0  0  0  0
  -23.6455  -29.8408   20.1605 C   0  0  0  0  0  0
  -25.4118  -36.3073   24.0326 C   0  0  1  0  0  0
  -20.5903  -28.3705   23.1257 C   0  0  2  0  0  0
  -20.6787  -26.9422   22.5398 C   0  0  0  0  0  0
  -19.5758  -26.6384   21.5208 C   0  0  0  0  0  0
  -18.1941  -26.7928   22.1625 C   0  0  0  0  0  0
  -19.1551  -28.8863   23.2865 C   0  0  0  0  0  0
  -18.9469  -30.1462   23.8886 C   0  0  0  0  0  0
  -17.6467  -30.6588   24.0560 C   0  0  0  0  0  0
  -25.9063  -34.9442   23.5101 C   0  0  0  0  0  0
  -16.5359  -29.9083   23.6332 C   0  0  0  0  0  0
  -16.7282  -28.6500   23.0354 C   0  0  0  0  0  0
  -26.4517  -31.6584   25.0762 C   0  0  0  0  0  0
  -25.3728  -31.3744   26.1472 C   0  0  0  0  0  0
  -27.0365  -30.2989   24.6276 C   0  0  0  0  0  0
  -27.6066  -32.4328   25.7535 C   0  0  0  0  0  0
  -27.5580  -37.1801   24.8464 C   0  0  0  0  0  0
  -21.4220  -29.3055   22.3648 N   0  0  0  0  0  0
  -26.4292  -37.3772   23.9408 N   0  0  0  0  0  0
  -24.7002  -31.0538   22.1040 N   0  0  0  0  0  0
  -23.4213  -28.8138   23.2989 O   0  0  0  0  0  0
  -28.2399  -26.2836   20.1979 O   0  0  0  0  0  0
  -26.5624  -34.8911   22.4663 O   0  0  0  0  0  0
  -23.5480  -32.1416   23.7324 O   0  0  0  0  0  0
  -29.3223  -21.6955   21.6988 C   0  0  0  0  0  0
  -28.5702  -23.4861   20.1168 C   0  0  0  0  0  0
  -29.0007  -23.0747   21.4062 C   0  0  0  0  0  0
  -29.2559  -20.7054   20.6627 C   0  0  0  0  0  0
  -28.5296  -22.4116   19.1712 C   0  0  0  0  0  0
  -29.0326  -20.2059   23.8698 C   0  0  0  0  0  0
  -28.9051  -21.6328   24.3213 C   0  0  0  0  0  0
  -28.5275  -18.0691   20.8780 C   0  0  0  0  0  0
  -30.6195  -18.5819   19.8019 C   0  0  0  0  0  0
  -28.9872  -16.5663   21.1732 C   0  0  0  0  0  0
  -31.1491  -17.1383   20.1232 C   0  0  0  0  0  0
  -29.7408  -21.3041   23.0975 C   0  0  0  0  0  0
  -29.6476  -19.1578   20.8474 C   0  0  0  0  0  0
  -28.0461  -22.6256   17.7471 C   0  0  0  0  0  0
  -27.8588  -24.8829   19.7902 C   0  0  0  0  0  0
  -28.8595  -21.1082   19.4308 N   0  0  0  0  0  0
  -30.1860  -16.0290   20.4569 N   0  0  0  0  0  0
  -29.0962  -24.2823   22.6432 Cl  0  0  0  0  0  0
  -31.4455  -12.5433   19.1404 H   0  0  0  0  0  0
  -30.3316  -11.5018   19.9702 H   0  0  0  0  0  0
  -29.7683  -11.7121   17.5202 H   0  0  0  0  0  0
  -29.6130  -13.4444   17.6938 H   0  0  0  0  0  0
  -27.8832  -11.2806   18.9265 H   0  0  0  0  0  0
  -27.3557  -12.5056   17.8042 H   0  0  0  0  0  0
  -27.6134  -14.2526   19.4408 H   0  0  0  0  0  0
  -28.7440  -12.2215   21.4257 H   0  0  0  0  0  0
  -28.4351  -13.8947   21.7810 H   0  0  0  0  0  0
  -25.2763   -9.5683   22.4772 H   0  0  0  0  0  0
  -24.0004   -7.4630   22.7472 H   0  0  0  0  0  0
  -21.0848   -8.8778   19.8952 H   0  0  0  0  0  0
  -22.3705  -10.9678   19.6174 H   0  0  0  0  0  0
  -21.2008   -7.6148   23.9716 H   0  0  0  0  0  0
  -21.1484   -6.0522   25.9077 H   0  0  0  0  0  0
  -22.0597   -2.7608   23.2846 H   0  0  0  0  0  0
  -22.4070  -11.9872   22.4825 H   0  0  0  0  0  0
  -21.1061  -13.1222   22.2634 H   0  0  0  0  0  0
  -24.6427  -15.8450   20.5234 H   0  0  0  0  0  0
  -26.2598  -15.6361   20.0811 H   0  0  0  0  0  0
  -26.7225  -32.5402   23.1107 H   0  0  0  0  0  0
  -25.0109  -33.9716   25.0429 H   0  0  0  0  0  0
  -22.7252  -31.3126   21.4121 H   0  0  0  0  0  0
  -23.3755  -35.9615   23.3297 H   0  0  0  0  0  0
  -24.3584  -36.8908   22.2052 H   0  0  0  0  0  0
  -23.7244  -37.6485   23.6661 H   0  0  0  0  0  0
  -26.1311  -31.5279   20.6295 H   0  0  0  0  0  0
  -26.8548  -30.8015   22.0317 H   0  0  0  0  0  0
  -28.1033  -28.8722   21.2484 H   0  0  0  0  0  0
  -25.8735  -26.0034   18.8687 H   0  0  0  0  0  0
  -23.9575  -27.3899   18.9374 H   0  0  0  0  0  0
  -23.7742  -30.6260   19.4146 H   0  0  0  0  0  0
  -22.7616  -29.2818   19.8478 H   0  0  0  0  0  0
  -25.1298  -36.1923   25.0818 H   0  0  0  0  0  0
  -20.9998  -28.3280   24.1377 H   0  0  0  0  0  0
  -20.5693  -26.2315   23.3605 H   0  0  0  0  0  0
  -21.6653  -26.7449   22.1187 H   0  0  0  0  0  0
  -19.6921  -25.6292   21.1244 H   0  0  0  0  0  0
  -19.6690  -27.3188   20.6733 H   0  0  0  0  0  0
  -17.4208  -26.6670   21.4029 H   0  0  0  0  0  0
  -18.0346  -26.0073   22.9026 H   0  0  0  0  0  0
  -19.7945  -30.7280   24.2250 H   0  0  0  0  0  0
  -17.5022  -31.6267   24.5164 H   0  0  0  0  0  0
  -15.5359  -30.2980   23.7665 H   0  0  0  0  0  0
  -15.8683  -28.0815   22.7075 H   0  0  0  0  0  0
  -24.5903  -30.7096   25.7795 H   0  0  0  0  0  0
  -24.8921  -32.2917   26.4881 H   0  0  0  0  0  0
  -25.8032  -30.8927   27.0260 H   0  0  0  0  0  0
  -26.2965  -29.6734   24.1271 H   0  0  0  0  0  0
  -27.3991  -29.7257   25.4820 H   0  0  0  0  0  0
  -27.8872  -30.4242   23.9574 H   0  0  0  0  0  0
  -27.2671  -33.3633   26.2098 H   0  0  0  0  0  0
  -28.3885  -32.6883   25.0370 H   0  0  0  0  0  0
  -28.0725  -31.8464   26.5465 H   0  0  0  0  0  0
  -28.2592  -38.0104   24.7514 H   0  0  0  0  0  0
  -28.1082  -36.2635   24.6286 H   0  0  0  0  0  0
  -27.2299  -37.1443   25.8867 H   0  0  0  0  0  0
  -20.9402  -29.8799   21.6874 H   0  0  0  0  0  0
  -26.0169  -38.2845   24.1407 H   0  0  0  0  0  0
  -28.1380  -19.7558   23.4455 H   0  0  0  0  0  0
  -29.6378  -19.5467   24.4894 H   0  0  0  0  0  0
  -29.4283  -21.9080   25.2352 H   0  0  0  0  0  0
  -27.9337  -22.1037   24.1809 H   0  0  0  0  0  0
  -27.7772  -18.3521   21.6156 H   0  0  0  0  0  0
  -28.0048  -18.0926   19.9210 H   0  0  0  0  0  0
  -30.1393  -18.5839   18.8222 H   0  0  0  0  0  0
  -31.4743  -19.2533   19.7097 H   0  0  0  0  0  0
  -28.1333  -15.9246   20.9751 H   0  0  0  0  0  0
  -29.1901  -16.4705   22.2409 H   0  0  0  0  0  0
  -31.8468  -17.2164   20.9592 H   0  0  0  0  0  0
  -31.7532  -16.8473   19.2614 H   0  0  0  0  0  0
  -30.8225  -21.3713   23.2010 H   0  0  0  0  0  0
  -30.1799  -19.0880   21.7936 H   0  0  0  0  0  0
  -26.9993  -22.9294   17.7367 H   0  0  0  0  0  0
  -28.1287  -21.7158   17.1513 H   0  0  0  0  0  0
  -28.6401  -23.3929   17.2503 H   0  0  0  0  0  0
  -26.8714  -24.6818   20.2074 H   0  0  0  0  0  0
  -27.7463  -24.9435   18.7102 H   0  0  0  0  0  0
  1 25  1  0  0  0
  1 30  2  0  0  0
  1 87  1  0  0  0
  2  3  1  0  0  0
  2 25  1  0  0  0
  2 89  1  0  0  0
  2 90  1  0  0  0
  3  4  1  0  0  0
  3 91  1  0  0  0
  3 92  1  0  0  0
  4  5  1  0  0  0
  4 93  1  0  0  0
  4 94  1  0  0  0
  5  6  1  0  0  0
  5 26  1  0  0  0
  5 95  1  0  0  0
  6 25  1  0  0  0
  6 96  1  0  0  0
  6 97  1  0  0  0
  7  8  2  0  0  0
  7 26  1  0  0  0
  7 29  1  0  0  0
  8  9  1  0  0  0
  8 22  1  0  0  0
  9 10  1  0  0  0
  9 27  2  0  0  0
 10 11  2  0  0  0
 10 15  1  0  0  0
 11 12  1  0  0  0
 11 98  1  0  0  0
 12 13  2  0  0  0
 12 99  1  0  0  0
 13 14  1  0  0  0
 13 31  1  0  0  0
 14 15  2  0  0  0
 14100  1  0  0  0
 15101  1  0  0  0
 16 17  2  0  0  0
 16 21  1  0  0  0
 16 31  1  0  0  0
 17 18  1  0  0  0
 17102  1  0  0  0
 18 19  2  0  0  0
 18103  1  0  0  0
 19 20  1  0  0  0
 19 24  1  0  0  0
 20 21  2  0  0  0
 20104  1  0  0  0
 21 23  1  0  0  0
 22 28  1  0  0  0
 22 32  2  0  0  0
 26 27  1  0  0  0
 28105  1  0  0  0
 28106  1  0  0  0
 29107  1  0  0  0
 29108  1  0  0  0
 33 34  1  0  0  0
 33 66  1  0  0  0
 33 70  2  0  0  0
 34 36  1  0  0  0
 34 59  1  0  0  0
 34109  1  0  0  0
 35 44  2  0  0  0
 35 45  1  0  0  0
 35 68  1  0  0  0
 36 56  1  0  0  0
 36110  1  0  0  0
 37 39  1  0  0  0
 37 47  1  0  0  0
 37 66  1  0  0  0
 37111  1  0  0  0
 38 43  2  0  0  0
 38 46  1  0  0  0
 38 47  1  0  0  0
 39 64  1  0  0  0
 39 67  2  0  0  0
 40 52  1  0  0  0
 40 53  2  0  0  0
 40 58  1  0  0  0
 41112  1  0  0  0
 41113  1  0  0  0
 41114  1  0  0  0
 41 48  1  0  0  0
 42 43  1  0  0  0
 42 66  1  0  0  0
 42115  1  0  0  0
 42116  1  0  0  0
 43 44  1  0  0  0
 44117  1  0  0  0
 45 46  2  0  0  0
 45118  1  0  0  0
 46119  1  0  0  0
 47120  1  0  0  0
 47121  1  0  0  0
 48 56  1  0  0  0
 48 65  1  0  0  0
 48122  1  0  0  0
 49 50  1  0  0  0
 49 53  1  0  0  0
 49 64  1  0  0  0
 49123  1  0  0  0
 50 51  1  0  0  0
 50124  1  0  0  0
 50125  1  0  0  0
 51 52  1  0  0  0
 51126  1  0  0  0
 51127  1  0  0  0
 52128  1  0  0  0
 52129  1  0  0  0
 53 54  1  0  0  0
 54 55  2  0  0  0
 54130  1  0  0  0
 55 57  1  0  0  0
 55131  1  0  0  0
 56 69  2  0  0  0
 57 58  2  0  0  0
 57132  1  0  0  0
 58133  1  0  0  0
 59 60  1  0  0  0
 59 61  1  0  0  0
 59 62  1  0  0  0
 60134  1  0  0  0
 60135  1  0  0  0
 60136  1  0  0  0
 61137  1  0  0  0
 61138  1  0  0  0
 61139  1  0  0  0
 62140  1  0  0  0
 62141  1  0  0  0
 62142  1  0  0  0
 63 65  1  0  0  0
 63143  1  0  0  0
 63144  1  0  0  0
 63145  1  0  0  0
 64146  1  0  0  0
 65147  1  0  0  0
 68 85  1  0  0  0
 71 73  2  0  0  0
 71 74  1  0  0  0
 71 82  1  0  0  0
 72 73  1  0  0  0
 72 75  2  0  0  0
 72 85  1  0  0  0
 73 88  1  0  0  0
 74 86  2  0  0  0
 74 83  1  0  0  0
 75 84  1  0  0  0
 75 86  1  0  0  0
 76 77  1  0  0  0
 76 82  1  0  0  0
 76148  1  0  0  0
 76149  1  0  0  0
 77 82  1  0  0  0
 77150  1  0  0  0
 77151  1  0  0  0
 78 80  1  0  0  0
 78 83  1  0  0  0
 78152  1  0  0  0
 78153  1  0  0  0
 79 81  1  0  0  0
 79 83  1  0  0  0
 79154  1  0  0  0
 79155  1  0  0  0
 80 87  1  0  0  0
 80156  1  0  0  0
 80157  1  0  0  0
 81 87  1  0  0  0
 81158  1  0  0  0
 81159  1  0  0  0
 82160  1  0  0  0
 83161  1  0  0  0
 84162  1  0  0  0
 84163  1  0  0  0
 84164  1  0  0  0
 85165  1  0  0  0
 85166  1  0  0  0
M  ISO  4   1 100  68 101  85 101  87 100
M  END
> <chiral flag>
0

> <version>
0

> <s_m_source_file>
/data/baiqing/PycharmProjects/Reinvent-master-3.2/result/LINK_invent/BTK/process_docking_weight1_custom_sum_contain_oxygen_bond_distance_aromatic_linkinvent_7_9_3/rearranged_h_0174.sdf

> <i_m_source_file_index>
68

> <r_mmod_Potential_Energy-OPLS-2005>
341.456878662109

> <r_mmod_Stretch_Energy-OPLS-2005>
124.783676147461

> <r_mmod_Bend_Energy-OPLS-2005>
225.964981079102

> <r_mmod_Torsional_Energy-OPLS-2005>
329.527740478516

> <r_mmod_Improper_Torsional_Energy-OPLS-2005>
14.6615800857544

> <r_mmod_Van_der_Waal_Energy-OPLS-2005>
168.94450378418

> <r_mmod_Electrostatic_Energy-OPLS-2005>
-415.918151855469

> <r_mmod_Solvation_Energy-OPLS-2005>
-208.663421630859

> <b_mmod_Minimization_Converged-OPLS-2005>
0

> <r_mmod_RMS_Derivative-OPLS-2005>
0.259748816490173

$$$$
70
                    3D
 Structure written by MMmdl.
178187  0  0  1  0            999 V2000
  -30.6526  -14.5071   20.5636 C   0  0  0  0  0  0
  -30.4399  -12.3273   19.4171 C   0  0  0  0  0  0
  -29.4986  -12.5081   18.2055 C   0  0  0  0  0  0
  -28.0196  -12.3639   18.6190 C   0  0  0  0  0  0
  -27.6631  -13.2002   19.8753 C   0  0  2  0  0  0
  -28.7061  -12.9654   20.9904 C   0  0  0  0  0  0
  -25.2610  -13.8129   20.5697 C   0  0  0  0  0  0
  -24.1845  -13.0423   20.9191 C   0  0  0  0  0  0
  -24.6384  -11.6885   20.8737 C   0  0  0  0  0  0
  -23.9037  -10.4274   21.0411 C   0  0  0  0  0  0
  -24.3594   -9.4194   21.9188 C   0  0  0  0  0  0
  -23.6283   -8.2226   22.0746 C   0  0  0  0  0  0
  -22.4265   -8.0263   21.3534 C   0  0  0  0  0  0
  -21.9899   -9.0238   20.4640 C   0  0  0  0  0  0
  -22.7218  -10.2121   20.3060 C   0  0  0  0  0  0
  -21.6851   -6.0727   22.5282 C   0  0  0  0  0  0
  -21.3997   -6.5628   23.8212 C   0  0  0  0  0  0
  -21.3669   -5.6783   24.9176 C   0  0  0  0  0  0
  -21.6058   -4.3048   24.7228 C   0  0  0  0  0  0
  -21.8812   -3.8137   23.4348 C   0  0  0  0  0  0
  -21.9184   -4.6953   22.3405 C   0  0  0  0  0  0
  -22.7867  -13.5245   21.1854 C   0  0  0  0  0  0
  -22.1662   -4.2141   21.0985 F   0  0  0  0  0  0
  -21.5650   -3.4536   25.7741 F   0  0  0  0  0  0
  -30.0342  -13.3001   20.4430 N   0  0  0  0  0  0
  -26.3027  -12.9288   20.3359 N   0  0  0  0  0  0
  -25.9310  -11.6448   20.5754 N   0  0  0  0  0  0
  -22.0487  -12.8244   22.0406 N   0  0  0  0  0  0
  -25.4360  -15.1850   20.4175 N   0  0  0  0  0  0
  -31.7850  -14.7337   20.1223 O   0  0  0  0  0  0
  -21.6636   -6.8862   21.4239 O   0  0  0  0  0  0
  -22.3575  -14.5573   20.6727 O   0  0  0  0  0  0
  -24.6173  -31.8624   23.2079 C   0  0  0  0  0  0
  -25.9049  -32.4803   23.8360 C   0  0  1  0  0  0
  -27.2437  -27.4078   20.0754 C   0  0  0  0  0  0
  -25.5884  -33.8604   24.2273 N   0  0  0  0  0  0
  -23.4066  -30.4854   21.5501 C   0  0  2  0  0  0
  -24.8545  -28.9456   20.1119 C   0  0  0  0  0  0
  -22.7403  -29.4633   22.4993 C   0  0  0  0  0  0
  -18.0260  -28.1369   22.8515 C   0  0  0  0  0  0
  -24.1469  -36.7311   23.2645 C   0  0  0  0  0  0
  -25.9389  -30.8131   21.3683 C   0  0  0  0  0  0
  -26.0134  -29.4446   20.7172 C   0  0  0  0  0  0
  -27.2037  -28.6765   20.7106 C   0  0  0  0  0  0
  -26.0598  -26.9288   19.4710 C   0  0  0  0  0  0
  -24.8724  -27.6842   19.4937 C   0  0  0  0  0  0
  -23.6137  -29.8097   20.1670 C   0  0  0  0  0  0
  -25.4100  -36.3099   24.0323 C   0  0  1  0  0  0
  -20.5855  -28.3647   23.1328 C   0  0  2  0  0  0
  -20.6752  -26.9384   22.5426 C   0  0  0  0  0  0
  -19.5734  -26.6376   21.5226 C   0  0  0  0  0  0
  -18.1913  -26.7923   22.1628 C   0  0  0  0  0  0
  -19.1512  -28.8829   23.2920 C   0  0  0  0  0  0
  -18.9447  -30.1442   23.8915 C   0  0  0  0  0  0
  -17.6448  -30.6587   24.0575 C   0  0  0  0  0  0
  -25.9029  -34.9469   23.5099 C   0  0  0  0  0  0
  -16.5334  -29.9082   23.6343 C   0  0  0  0  0  0
  -16.7250  -28.6490   23.0378 C   0  0  0  0  0  0
  -26.4488  -31.6637   25.0717 C   0  0  0  0  0  0
  -25.3750  -31.3766   26.1469 C   0  0  0  0  0  0
  -27.0314  -30.3066   24.6138 C   0  0  0  0  0  0
  -27.6043  -32.4389   25.7467 C   0  0  0  0  0  0
  -27.5581  -37.1800   24.8464 C   0  0  0  0  0  0
  -21.4131  -29.3018   22.3741 N   0  0  0  0  0  0
  -26.4285  -37.3795   23.9421 N   0  0  0  0  0  0
  -24.6727  -31.0676   22.1002 N   0  0  0  0  0  0
  -23.4164  -28.8161   23.3033 O   0  0  0  0  0  0
  -28.4130  -26.6588   20.1039 O   0  0  0  0  0  0
  -26.5606  -34.8931   22.4669 O   0  0  0  0  0  0
  -23.5360  -32.1385   23.7463 O   0  0  0  0  0  0
  -29.0652  -18.9813   20.0155 C   0  0  0  0  0  0
  -30.4369  -19.0597   22.0067 C   0  0  0  0  0  0
  -29.2105  -17.5701   19.9824 C   0  0  0  0  0  0
  -30.5856  -17.6539   21.9767 C   0  0  0  0  0  0
  -29.6535  -19.7555   21.0481 C   0  0  0  0  0  0
  -29.9540  -16.8894   20.9746 C   0  0  0  0  0  0
  -30.4071  -23.4447   20.4547 C   0  0  0  0  0  0
  -28.6446  -21.9951   20.0579 C   0  0  0  0  0  0
  -30.7041  -22.1368   21.2409 C   0  0  2  0  0  0
  -29.3866  -21.2841   21.2323 C   0  0  2  0  0  0
  -31.3275  -22.4578   22.6178 C   0  0  0  0  0  0
  -30.2215  -26.1227   18.6035 C   0  0  0  0  0  0
  -25.1333  -20.2516   23.9008 C   0  0  0  0  0  0
  -28.5326  -21.4619   22.5328 C   0  0  0  0  0  0
  -28.4304  -24.2850   19.0536 C   0  0  0  0  0  0
  -27.2059  -20.6561   22.5947 C   0  0  0  0  0  0
  -28.7641  -25.8203   18.9801 C   0  0  1  0  0  0
  -29.8693  -15.4691   21.0968 N   0  0  0  0  0  0
  -28.9585  -23.4456   20.1820 N   0  3  2  0  0  0
  -26.4482  -20.9209   23.8371 N   0  3  0  0  0  0
  -31.4806  -12.4604   19.1133 H   0  0  0  0  0  0
  -30.3699  -11.3118   19.8116 H   0  0  0  0  0  0
  -29.7414  -11.7768   17.4340 H   0  0  0  0  0  0
  -29.6594  -13.4896   17.7571 H   0  0  0  0  0  0
  -27.8335  -11.3077   18.8170 H   0  0  0  0  0  0
  -27.3683  -12.6371   17.7882 H   0  0  0  0  0  0
  -27.7083  -14.2487   19.5804 H   0  0  0  0  0  0
  -28.6917  -11.9217   21.3073 H   0  0  0  0  0  0
  -28.4598  -13.5359   21.8865 H   0  0  0  0  0  0
  -25.2735   -9.5683   22.4772 H   0  0  0  0  0  0
  -23.9998   -7.4618   22.7461 H   0  0  0  0  0  0
  -21.0834   -8.8753   19.8955 H   0  0  0  0  0  0
  -22.3671  -10.9662   19.6176 H   0  0  0  0  0  0
  -21.1961   -7.6130   23.9709 H   0  0  0  0  0  0
  -21.1523   -6.0516   25.9081 H   0  0  0  0  0  0
  -22.0585   -2.7599   23.2852 H   0  0  0  0  0  0
  -22.4071  -11.9896   22.4796 H   0  0  0  0  0  0
  -21.1104  -13.1296   22.2591 H   0  0  0  0  0  0
  -24.6728  -15.8420   20.5306 H   0  0  0  0  0  0
  -26.2958  -15.6259   20.1184 H   0  0  0  0  0  0
  -26.7112  -32.5485   23.1110 H   0  0  0  0  0  0
  -25.0039  -33.9777   25.0422 H   0  0  0  0  0  0
  -22.6994  -31.3058   21.4093 H   0  0  0  0  0  0
  -23.3743  -35.9631   23.3289 H   0  0  0  0  0  0
  -24.3581  -36.8945   22.2067 H   0  0  0  0  0  0
  -23.7191  -37.6488   23.6694 H   0  0  0  0  0  0
  -26.0550  -31.5729   20.5943 H   0  0  0  0  0  0
  -26.8280  -30.8693   21.9852 H   0  0  0  0  0  0
  -28.0944  -29.0560   21.1908 H   0  0  0  0  0  0
  -26.0294  -25.9620   18.9934 H   0  0  0  0  0  0
  -23.9798  -27.2896   19.0302 H   0  0  0  0  0  0
  -23.7101  -30.5795   19.4015 H   0  0  0  0  0  0
  -22.7396  -29.2232   19.8791 H   0  0  0  0  0  0
  -25.1283  -36.1948   25.0812 H   0  0  0  0  0  0
  -20.9964  -28.3198   24.1445 H   0  0  0  0  0  0
  -20.5652  -26.2254   23.3615 H   0  0  0  0  0  0
  -21.6622  -26.7433   22.1225 H   0  0  0  0  0  0
  -19.6886  -25.6297   21.1239 H   0  0  0  0  0  0
  -19.6663  -27.3204   20.6778 H   0  0  0  0  0  0
  -17.4198  -26.6699   21.4019 H   0  0  0  0  0  0
  -18.0295  -26.0030   22.8977 H   0  0  0  0  0  0
  -19.7914  -30.7275   24.2274 H   0  0  0  0  0  0
  -17.4992  -31.6277   24.5157 H   0  0  0  0  0  0
  -15.5338  -30.2996   23.7663 H   0  0  0  0  0  0
  -15.8638  -28.0818   22.7102 H   0  0  0  0  0  0
  -24.5917  -30.7112   25.7830 H   0  0  0  0  0  0
  -24.8965  -32.2928   26.4935 H   0  0  0  0  0  0
  -25.8105  -30.8936   27.0213 H   0  0  0  0  0  0
  -26.2834  -29.6816   24.1242 H   0  0  0  0  0  0
  -27.4086  -29.7351   25.4623 H   0  0  0  0  0  0
  -27.8688  -30.4374   23.9279 H   0  0  0  0  0  0
  -27.2658  -33.3703   26.2031 H   0  0  0  0  0  0
  -28.3862  -32.6936   25.0300 H   0  0  0  0  0  0
  -28.0712  -31.8516   26.5384 H   0  0  0  0  0  0
  -28.2613  -38.0096   24.7533 H   0  0  0  0  0  0
  -28.1050  -36.2624   24.6244 H   0  0  0  0  0  0
  -27.2305  -37.1396   25.8869 H   0  0  0  0  0  0
  -20.9290  -29.8747   21.6973 H   0  0  0  0  0  0
  -26.0154  -38.2853   24.1447 H   0  0  0  0  0  0
  -28.4450  -19.4415   19.2609 H   0  0  0  0  0  0
  -30.8895  -19.5869   22.8306 H   0  0  0  0  0  0
  -28.6980  -17.0080   19.2140 H   0  0  0  0  0  0
  -31.1333  -17.1655   22.7716 H   0  0  0  0  0  0
  -30.9665  -23.4408   19.5171 H   0  0  0  0  0  0
  -30.6933  -24.3372   21.0112 H   0  0  0  0  0  0
  -27.5724  -21.8108   20.0253 H   0  0  0  0  0  0
  -29.0473  -21.6523   19.1030 H   0  0  0  0  0  0
  -31.4552  -21.5956   20.6621 H   0  0  0  0  0  0
  -30.6591  -23.0546   23.2389 H   0  0  0  0  0  0
  -32.2468  -23.0315   22.4959 H   0  0  0  0  0  0
  -31.5892  -21.5665   23.1830 H   0  0  0  0  0  0
  -30.5432  -25.5113   17.7599 H   0  0  0  0  0  0
  -30.9152  -25.9589   19.4253 H   0  0  0  0  0  0
  -30.3269  -27.1654   18.3031 H   0  0  0  0  0  0
  -24.5974  -20.5584   24.7988 H   0  0  0  0  0  0
  -25.2440  -19.1682   23.9342 H   0  0  0  0  0  0
  -24.5169  -20.5073   23.0390 H   0  0  0  0  0  0
  -28.3141  -22.5179   22.6917 H   0  0  0  0  0  0
  -29.1278  -21.1573   23.3948 H   0  0  0  0  0  0
  -28.7486  -23.8280   18.1158 H   0  0  0  0  0  0
  -27.3475  -24.1711   19.0682 H   0  0  0  0  0  0
  -27.3993  -19.5843   22.5265 H   0  0  0  0  0  0
  -26.5617  -20.9058   21.7520 H   0  0  0  0  0  0
  -28.2031  -26.1823   18.1162 H   0  0  0  0  0  0
  -28.9712  -15.1222   21.3959 H   0  0  0  0  0  0
  -28.5213  -23.7856   21.0258 H   0  0  0  0  0  0
  -26.9893  -20.6194   24.6318 H   0  0  0  0  0  0
  -26.2956  -21.9126   23.9308 H   0  0  0  0  0  0
  1 25  1  0  0  0
  1 30  2  0  0  0
  1 88  1  0  0  0
  2  3  1  0  0  0
  2 25  1  0  0  0
  2 91  1  0  0  0
  2 92  1  0  0  0
  3  4  1  0  0  0
  3 93  1  0  0  0
  3 94  1  0  0  0
  4  5  1  0  0  0
  4 95  1  0  0  0
  4 96  1  0  0  0
  5  6  1  0  0  0
  5 26  1  0  0  0
  5 97  1  0  0  0
  6 25  1  0  0  0
  6 98  1  0  0  0
  6 99  1  0  0  0
  7  8  2  0  0  0
  7 26  1  0  0  0
  7 29  1  0  0  0
  8  9  1  0  0  0
  8 22  1  0  0  0
  9 10  1  0  0  0
  9 27  2  0  0  0
 10 11  2  0  0  0
 10 15  1  0  0  0
 11 12  1  0  0  0
 11100  1  0  0  0
 12 13  2  0  0  0
 12101  1  0  0  0
 13 14  1  0  0  0
 13 31  1  0  0  0
 14 15  2  0  0  0
 14102  1  0  0  0
 15103  1  0  0  0
 16 17  2  0  0  0
 16 21  1  0  0  0
 16 31  1  0  0  0
 17 18  1  0  0  0
 17104  1  0  0  0
 18 19  2  0  0  0
 18105  1  0  0  0
 19 20  1  0  0  0
 19 24  1  0  0  0
 20 21  2  0  0  0
 20106  1  0  0  0
 21 23  1  0  0  0
 22 28  1  0  0  0
 22 32  2  0  0  0
 26 27  1  0  0  0
 28107  1  0  0  0
 28108  1  0  0  0
 29109  1  0  0  0
 29110  1  0  0  0
 33 34  1  0  0  0
 33 66  1  0  0  0
 33 70  2  0  0  0
 34 36  1  0  0  0
 34 59  1  0  0  0
 34111  1  0  0  0
 35 44  2  0  0  0
 35 45  1  0  0  0
 35 68  1  0  0  0
 36 56  1  0  0  0
 36112  1  0  0  0
 37 39  1  0  0  0
 37 47  1  0  0  0
 37 66  1  0  0  0
 37113  1  0  0  0
 38 43  2  0  0  0
 38 46  1  0  0  0
 38 47  1  0  0  0
 39 64  1  0  0  0
 39 67  2  0  0  0
 40 52  1  0  0  0
 40 53  2  0  0  0
 40 58  1  0  0  0
 41114  1  0  0  0
 41115  1  0  0  0
 41116  1  0  0  0
 41 48  1  0  0  0
 42 43  1  0  0  0
 42 66  1  0  0  0
 42117  1  0  0  0
 42118  1  0  0  0
 43 44  1  0  0  0
 44119  1  0  0  0
 45 46  2  0  0  0
 45120  1  0  0  0
 46121  1  0  0  0
 47122  1  0  0  0
 47123  1  0  0  0
 48 56  1  0  0  0
 48 65  1  0  0  0
 48124  1  0  0  0
 49 50  1  0  0  0
 49 53  1  0  0  0
 49 64  1  0  0  0
 49125  1  0  0  0
 50 51  1  0  0  0
 50126  1  0  0  0
 50127  1  0  0  0
 51 52  1  0  0  0
 51128  1  0  0  0
 51129  1  0  0  0
 52130  1  0  0  0
 52131  1  0  0  0
 53 54  1  0  0  0
 54 55  2  0  0  0
 54132  1  0  0  0
 55 57  1  0  0  0
 55133  1  0  0  0
 56 69  2  0  0  0
 57 58  2  0  0  0
 57134  1  0  0  0
 58135  1  0  0  0
 59 60  1  0  0  0
 59 61  1  0  0  0
 59 62  1  0  0  0
 60136  1  0  0  0
 60137  1  0  0  0
 60138  1  0  0  0
 61139  1  0  0  0
 61140  1  0  0  0
 61141  1  0  0  0
 62142  1  0  0  0
 62143  1  0  0  0
 62144  1  0  0  0
 63 65  1  0  0  0
 63145  1  0  0  0
 63146  1  0  0  0
 63147  1  0  0  0
 64148  1  0  0  0
 65149  1  0  0  0
 68 87  1  0  0  0
 71 73  2  0  0  0
 71 75  1  0  0  0
 71150  1  0  0  0
 72 74  1  0  0  0
 72 75  2  0  0  0
 72151  1  0  0  0
 73 76  1  0  0  0
 73152  1  0  0  0
 74 76  2  0  0  0
 74153  1  0  0  0
 75 80  1  0  0  0
 76 88  1  0  0  0
 77 79  1  0  0  0
 77 89  1  0  0  0
 77154  1  0  0  0
 77155  1  0  0  0
 78 80  1  0  0  0
 78 89  1  0  0  0
 78156  1  0  0  0
 78157  1  0  0  0
 79 80  1  0  0  0
 79 81  1  0  0  0
 79158  1  0  0  0
 80 84  1  0  0  0
 81159  1  0  0  0
 81160  1  0  0  0
 81161  1  0  0  0
 82162  1  0  0  0
 82163  1  0  0  0
 82164  1  0  0  0
 82 87  1  0  0  0
 83 90  1  0  0  0
 83165  1  0  0  0
 83166  1  0  0  0
 83167  1  0  0  0
 84 86  1  0  0  0
 84168  1  0  0  0
 84169  1  0  0  0
 85 87  1  0  0  0
 85170  1  0  0  0
 85171  1  0  0  0
 85 89  1  0  0  0
 86 90  1  0  0  0
 86172  1  0  0  0
 86173  1  0  0  0
 87174  1  0  0  0
 88175  1  0  0  0
 89176  1  0  0  0
 90177  1  0  0  0
 90178  1  0  0  0
M  CHG  2  89   1  90   1
M  ISO  4   1 100  68 101  87 101  88 100
M  END
> <chiral flag>
0

> <version>
0

> <s_m_source_file>
/data/baiqing/PycharmProjects/Reinvent-master-3.2/result/LINK_invent/BTK/process_docking_weight1_custom_sum_contain_oxygen_bond_distance_aromatic_linkinvent_7_9_3/rearranged_h_0174.sdf

> <i_m_source_file_index>
69

> <r_mmod_Potential_Energy-OPLS-2005>
-135.171127319336

> <r_mmod_Stretch_Energy-OPLS-2005>
51.7937622070312

> <r_mmod_Bend_Energy-OPLS-2005>
164.987930297852

> <r_mmod_Torsional_Energy-OPLS-2005>
343.348876953125

> <r_mmod_Improper_Torsional_Energy-OPLS-2005>
5.56249094009399

> <r_mmod_Van_der_Waal_Energy-OPLS-2005>
145.185745239258

> <r_mmod_Electrostatic_Energy-OPLS-2005>
61.6593971252441

> <r_mmod_Solvation_Energy-OPLS-2005>
-925.335815429688

> <b_mmod_Minimization_Converged-OPLS-2005>
0

> <r_mmod_RMS_Derivative-OPLS-2005>
2.71439099311829

$$$$
71
                    3D
 Structure written by MMmdl.
156165  0  0  1  0            999 V2000
  -30.5389  -15.0197   20.4766 C   0  0  0  0  0  0
  -30.4525  -12.6567   19.4974 C   0  0  0  0  0  0
  -29.5235  -12.5731   18.2578 C   0  0  0  0  0  0
  -28.0546  -12.3454   18.6696 C   0  0  0  0  0  0
  -27.6327  -13.2486   19.8542 C   0  0  2  0  0  0
  -28.6865  -13.2085   20.9805 C   0  0  0  0  0  0
  -25.2425  -13.8173   20.5686 C   0  0  0  0  0  0
  -24.1766  -13.0404   20.9224 C   0  0  0  0  0  0
  -24.6388  -11.6885   20.8769 C   0  0  0  0  0  0
  -23.9079  -10.4263   21.0429 C   0  0  0  0  0  0
  -24.3627   -9.4178   21.9201 C   0  0  0  0  0  0
  -23.6302   -8.2205   22.0755 C   0  0  0  0  0  0
  -22.4280   -8.0263   21.3546 C   0  0  0  0  0  0
  -21.9926   -9.0236   20.4648 C   0  0  0  0  0  0
  -22.7260  -10.2115   20.3060 C   0  0  0  0  0  0
  -21.6846   -6.0729   22.5279 C   0  0  0  0  0  0
  -21.4013   -6.5622   23.8226 C   0  0  0  0  0  0
  -21.3674   -5.6777   24.9188 C   0  0  0  0  0  0
  -21.6051   -4.3036   24.7239 C   0  0  0  0  0  0
  -21.8808   -3.8131   23.4352 C   0  0  0  0  0  0
  -21.9191   -4.6953   22.3416 C   0  0  0  0  0  0
  -22.7779  -13.5185   21.1898 C   0  0  0  0  0  0
  -22.1661   -4.2139   21.0991 F   0  0  0  0  0  0
  -21.5650   -3.4519   25.7748 F   0  0  0  0  0  0
  -29.9421  -13.7392   20.4055 N   0  0  0  0  0  0
  -26.2894  -12.9419   20.3311 N   0  0  0  0  0  0
  -25.9330  -11.6544   20.5791 N   0  0  0  0  0  0
  -22.0441  -12.8172   22.0459 N   0  0  0  0  0  0
  -25.4024  -15.1899   20.4039 N   0  0  0  0  0  0
  -31.7149  -15.0630   20.0907 O   0  0  0  0  0  0
  -21.6632   -6.8866   21.4248 O   0  0  0  0  0  0
  -22.3464  -14.5506   20.6770 O   0  0  0  0  0  0
  -24.6446  -31.8449   23.1840 C   0  0  0  0  0  0
  -25.9209  -32.4704   23.8253 C   0  0  1  0  0  0
  -27.2247  -27.1086   20.1697 C   0  0  0  0  0  0
  -25.5941  -33.8510   24.2184 N   0  0  0  0  0  0
  -23.4475  -30.4646   21.5276 C   0  0  2  0  0  0
  -24.8984  -28.8759   20.1218 C   0  0  0  0  0  0
  -22.7528  -29.4580   22.4798 C   0  0  0  0  0  0
  -18.0307  -28.1370   22.8489 C   0  0  0  0  0  0
  -24.1482  -36.7271   23.2656 C   0  0  0  0  0  0
  -26.0058  -30.7084   21.3872 C   0  0  0  0  0  0
  -26.0773  -29.3130   20.7401 C   0  0  0  0  0  0
  -27.2378  -28.4453   20.7511 C   0  0  0  0  0  0
  -26.0183  -26.7838   19.5113 C   0  0  0  0  0  0
  -24.8813  -27.6199   19.5002 C   0  0  0  0  0  0
  -23.6784  -29.7858   20.1511 C   0  0  0  0  0  0
  -25.4104  -36.3043   24.0335 C   0  0  1  0  0  0
  -20.5925  -28.3724   23.1194 C   0  0  2  0  0  0
  -20.6777  -26.9416   22.5384 C   0  0  0  0  0  0
  -19.5748  -26.6353   21.5198 C   0  0  0  0  0  0
  -18.1935  -26.7899   22.1626 C   0  0  0  0  0  0
  -19.1575  -28.8850   23.2845 C   0  0  0  0  0  0
  -18.9502  -30.1442   23.8884 C   0  0  0  0  0  0
  -17.6511  -30.6583   24.0561 C   0  0  0  0  0  0
  -25.9061  -34.9430   23.5072 C   0  0  0  0  0  0
  -16.5391  -29.9087   23.6332 C   0  0  0  0  0  0
  -16.7298  -28.6486   23.0371 C   0  0  0  0  0  0
  -26.4516  -31.6567   25.0702 C   0  0  0  0  0  0
  -25.3691  -31.3803   26.1390 C   0  0  0  0  0  0
  -27.0393  -30.2944   24.6341 C   0  0  0  0  0  0
  -27.6018  -32.4331   25.7526 C   0  0  0  0  0  0
  -27.5567  -37.1789   24.8466 C   0  0  0  0  0  0
  -21.4215  -29.3078   22.3541 N   0  0  0  0  0  0
  -26.4272  -37.3753   23.9417 N   0  0  0  0  0  0
  -24.7192  -31.0277   22.0889 N   0  0  0  0  0  0
  -23.4145  -28.8155   23.2989 O   0  0  0  0  0  0
  -28.2800  -26.1127   20.2002 O   0  0  0  0  0  0
  -26.5661  -34.8951   22.4662 O   0  0  0  0  0  0
  -23.5552  -32.1341   23.7038 O   0  0  0  0  0  0
  -27.5737  -19.9432   22.1399 C   0  0  0  0  0  0
  -28.4032  -18.8871   21.7187 C   0  0  0  0  0  0
  -27.6816  -21.2535   21.6138 C   0  0  0  0  0  0
  -29.3240  -19.0963   20.6957 C   0  0  0  0  0  0
  -28.6801  -21.5757   20.6518 C   0  0  0  0  0  0
  -28.3787  -17.5688   22.4795 C   0  0  0  0  0  0
  -30.1719  -17.7457   20.2581 C   0  0  0  0  0  0
  -28.7553  -16.2555   21.7379 C   0  0  0  0  0  0
  -26.7145  -22.2727   22.1913 C   0  0  0  0  0  0
  -28.9744  -23.1767   20.2112 C   0  0  0  0  0  0
  -27.9924  -24.5757   20.4104 C   0  0  0  0  0  0
  -29.4558  -20.4448   20.2060 N   0  0  0  0  0  0
  -29.8226  -16.2603   20.7212 N   0  0  0  0  0  0
  -31.4792  -12.8356   19.1735 H   0  0  0  0  0  0
  -30.4927  -11.6991   20.0179 H   0  0  0  0  0  0
  -29.8492  -11.7761   17.5878 H   0  0  0  0  0  0
  -29.6018  -13.5013   17.6884 H   0  0  0  0  0  0
  -27.9511  -11.2984   18.9581 H   0  0  0  0  0  0
  -27.3887  -12.5007   17.8209 H   0  0  0  0  0  0
  -27.6076  -14.2681   19.4686 H   0  0  0  0  0  0
  -28.8163  -12.1823   21.3280 H   0  0  0  0  0  0
  -28.3408  -13.7289   21.8649 H   0  0  0  0  0  0
  -25.2778   -9.5652   22.4777 H   0  0  0  0  0  0
  -24.0032   -7.4580   22.7445 H   0  0  0  0  0  0
  -21.0874   -8.8760   19.8929 H   0  0  0  0  0  0
  -22.3743  -10.9656   19.6157 H   0  0  0  0  0  0
  -21.1982   -7.6128   23.9730 H   0  0  0  0  0  0
  -21.1537   -6.0514   25.9103 H   0  0  0  0  0  0
  -22.0581   -2.7585   23.2877 H   0  0  0  0  0  0
  -22.4080  -11.9870   22.4889 H   0  0  0  0  0  0
  -21.1053  -13.1179   22.2646 H   0  0  0  0  0  0
  -24.6268  -15.8363   20.4983 H   0  0  0  0  0  0
  -26.2436  -15.6308   20.0562 H   0  0  0  0  0  0
  -26.7288  -32.5323   23.0991 H   0  0  0  0  0  0
  -24.9994  -33.9621   25.0264 H   0  0  0  0  0  0
  -22.7576  -31.2949   21.3645 H   0  0  0  0  0  0
  -23.3756  -35.9592   23.3290 H   0  0  0  0  0  0
  -24.3575  -36.8918   22.2076 H   0  0  0  0  0  0
  -23.7238  -37.6470   23.6691 H   0  0  0  0  0  0
  -26.1612  -31.4554   20.6086 H   0  0  0  0  0  0
  -26.8755  -30.7620   22.0297 H   0  0  0  0  0  0
  -28.1273  -28.7775   21.2676 H   0  0  0  0  0  0
  -25.9218  -25.8402   18.9995 H   0  0  0  0  0  0
  -23.9828  -27.2661   19.0147 H   0  0  0  0  0  0
  -23.8298  -30.5595   19.3963 H   0  0  0  0  0  0
  -22.7893  -29.2387   19.8271 H   0  0  0  0  0  0
  -25.1294  -36.1864   25.0828 H   0  0  0  0  0  0
  -21.0078  -28.3353   24.1291 H   0  0  0  0  0  0
  -20.5607  -26.2379   23.3631 H   0  0  0  0  0  0
  -21.6650  -26.7351   22.1242 H   0  0  0  0  0  0
  -19.6910  -25.6253   21.1248 H   0  0  0  0  0  0
  -19.6681  -27.3137   20.6704 H   0  0  0  0  0  0
  -17.4195  -26.6657   21.4037 H   0  0  0  0  0  0
  -18.0357  -26.0025   22.9010 H   0  0  0  0  0  0
  -19.7995  -30.7240   24.2250 H   0  0  0  0  0  0
  -17.5086  -31.6271   24.5153 H   0  0  0  0  0  0
  -15.5396  -30.3007   23.7637 H   0  0  0  0  0  0
  -15.8691  -28.0793   22.7114 H   0  0  0  0  0  0
  -24.5875  -30.7125   25.7761 H   0  0  0  0  0  0
  -24.8892  -32.3009   26.4712 H   0  0  0  0  0  0
  -25.7983  -30.9079   27.0231 H   0  0  0  0  0  0
  -26.3036  -29.6640   24.1337 H   0  0  0  0  0  0
  -27.3942  -29.7276   25.4967 H   0  0  0  0  0  0
  -27.8966  -30.4157   23.9716 H   0  0  0  0  0  0
  -27.2571  -33.3645   26.2029 H   0  0  0  0  0  0
  -28.3900  -32.6843   25.0418 H   0  0  0  0  0  0
  -28.0579  -31.8482   26.5522 H   0  0  0  0  0  0
  -28.2573  -38.0096   24.7497 H   0  0  0  0  0  0
  -28.1063  -36.2621   24.6276 H   0  0  0  0  0  0
  -27.2289  -37.1430   25.8873 H   0  0  0  0  0  0
  -20.9368  -29.8886   21.6839 H   0  0  0  0  0  0
  -26.0138  -38.2831   24.1391 H   0  0  0  0  0  0
  -26.8657  -19.7546   22.9358 H   0  0  0  0  0  0
  -27.3847  -17.4396   22.9106 H   0  0  0  0  0  0
  -29.0467  -17.6970   23.3352 H   0  0  0  0  0  0
  -30.1947  -17.7356   19.1696 H   0  0  0  0  0  0
  -31.2062  -17.9203   20.5594 H   0  0  0  0  0  0
  -27.8605  -15.8571   21.2676 H   0  0  0  0  0  0
  -29.0393  -15.5681   22.5347 H   0  0  0  0  0  0
  -26.2281  -22.8520   21.4106 H   0  0  0  0  0  0
  -27.2258  -22.9350   22.8924 H   0  0  0  0  0  0
  -25.9039  -21.7809   22.7299 H   0  0  0  0  0  0
  -29.2460  -23.1394   19.1556 H   0  0  0  0  0  0
  -29.9064  -23.4118   20.7246 H   0  0  0  0  0  0
  -27.0831  -24.3423   19.8658 H   0  0  0  0  0  0
  -27.7075  -24.5877   21.4577 H   0  0  0  0  0  0
  1 25  1  0  0  0
  1 30  2  0  0  0
  1 83  1  0  0  0
  2  3  1  0  0  0
  2 25  1  0  0  0
  2 84  1  0  0  0
  2 85  1  0  0  0
  3  4  1  0  0  0
  3 86  1  0  0  0
  3 87  1  0  0  0
  4  5  1  0  0  0
  4 88  1  0  0  0
  4 89  1  0  0  0
  5  6  1  0  0  0
  5 26  1  0  0  0
  5 90  1  0  0  0
  6 25  1  0  0  0
  6 91  1  0  0  0
  6 92  1  0  0  0
  7  8  2  0  0  0
  7 26  1  0  0  0
  7 29  1  0  0  0
  8  9  1  0  0  0
  8 22  1  0  0  0
  9 10  1  0  0  0
  9 27  2  0  0  0
 10 11  2  0  0  0
 10 15  1  0  0  0
 11 12  1  0  0  0
 11 93  1  0  0  0
 12 13  2  0  0  0
 12 94  1  0  0  0
 13 14  1  0  0  0
 13 31  1  0  0  0
 14 15  2  0  0  0
 14 95  1  0  0  0
 15 96  1  0  0  0
 16 17  2  0  0  0
 16 21  1  0  0  0
 16 31  1  0  0  0
 17 18  1  0  0  0
 17 97  1  0  0  0
 18 19  2  0  0  0
 18 98  1  0  0  0
 19 20  1  0  0  0
 19 24  1  0  0  0
 20 21  2  0  0  0
 20 99  1  0  0  0
 21 23  1  0  0  0
 22 28  1  0  0  0
 22 32  2  0  0  0
 26 27  1  0  0  0
 28100  1  0  0  0
 28101  1  0  0  0
 29102  1  0  0  0
 29103  1  0  0  0
 33 34  1  0  0  0
 33 66  1  0  0  0
 33 70  2  0  0  0
 34 36  1  0  0  0
 34 59  1  0  0  0
 34104  1  0  0  0
 35 44  2  0  0  0
 35 45  1  0  0  0
 35 68  1  0  0  0
 36 56  1  0  0  0
 36105  1  0  0  0
 37 39  1  0  0  0
 37 47  1  0  0  0
 37 66  1  0  0  0
 37106  1  0  0  0
 38 43  2  0  0  0
 38 46  1  0  0  0
 38 47  1  0  0  0
 39 64  1  0  0  0
 39 67  2  0  0  0
 40 52  1  0  0  0
 40 53  2  0  0  0
 40 58  1  0  0  0
 41107  1  0  0  0
 41108  1  0  0  0
 41109  1  0  0  0
 41 48  1  0  0  0
 42 43  1  0  0  0
 42 66  1  0  0  0
 42110  1  0  0  0
 42111  1  0  0  0
 43 44  1  0  0  0
 44112  1  0  0  0
 45 46  2  0  0  0
 45113  1  0  0  0
 46114  1  0  0  0
 47115  1  0  0  0
 47116  1  0  0  0
 48 56  1  0  0  0
 48 65  1  0  0  0
 48117  1  0  0  0
 49 50  1  0  0  0
 49 53  1  0  0  0
 49 64  1  0  0  0
 49118  1  0  0  0
 50 51  1  0  0  0
 50119  1  0  0  0
 50120  1  0  0  0
 51 52  1  0  0  0
 51121  1  0  0  0
 51122  1  0  0  0
 52123  1  0  0  0
 52124  1  0  0  0
 53 54  1  0  0  0
 54 55  2  0  0  0
 54125  1  0  0  0
 55 57  1  0  0  0
 55126  1  0  0  0
 56 69  2  0  0  0
 57 58  2  0  0  0
 57127  1  0  0  0
 58128  1  0  0  0
 59 60  1  0  0  0
 59 61  1  0  0  0
 59 62  1  0  0  0
 60129  1  0  0  0
 60130  1  0  0  0
 60131  1  0  0  0
 61132  1  0  0  0
 61133  1  0  0  0
 61134  1  0  0  0
 62135  1  0  0  0
 62136  1  0  0  0
 62137  1  0  0  0
 63 65  1  0  0  0
 63138  1  0  0  0
 63139  1  0  0  0
 63140  1  0  0  0
 64141  1  0  0  0
 65142  1  0  0  0
 68 81  1  0  0  0
 71 72  2  0  0  0
 71 73  1  0  0  0
 71143  1  0  0  0
 72 74  1  0  0  0
 72 76  1  0  0  0
 73 75  2  0  0  0
 73 79  1  0  0  0
 74 77  1  0  0  0
 74 82  2  0  0  0
 75 80  1  0  0  0
 75 82  1  0  0  0
 76 78  1  0  0  0
 76144  1  0  0  0
 76145  1  0  0  0
 77 83  1  0  0  0
 77146  1  0  0  0
 77147  1  0  0  0
 78 83  1  0  0  0
 78148  1  0  0  0
 78149  1  0  0  0
 79150  1  0  0  0
 79151  1  0  0  0
 79152  1  0  0  0
 80 81  1  0  0  0
 80153  1  0  0  0
 80154  1  0  0  0
 81155  1  0  0  0
 81156  1  0  0  0
M  ISO  4   1 100  68 101  81 101  83 100
M  END
> <chiral flag>
0

> <version>
0

> <s_m_source_file>
/data/baiqing/PycharmProjects/Reinvent-master-3.2/result/LINK_invent/BTK/process_docking_weight1_custom_sum_contain_oxygen_bond_distance_aromatic_linkinvent_7_9_3/rearranged_h_0174.sdf

> <i_m_source_file_index>
70

> <r_mmod_Potential_Energy-OPLS-2005>
558.111755371094

> <r_mmod_Stretch_Energy-OPLS-2005>
327.187438964844

> <r_mmod_Bend_Energy-OPLS-2005>
311.887329101562

> <r_mmod_Torsional_Energy-OPLS-2005>
279.468139648438

> <r_mmod_Improper_Torsional_Energy-OPLS-2005>
6.75788164138794

> <r_mmod_Van_der_Waal_Energy-OPLS-2005>
148.298080444336

> <r_mmod_Electrostatic_Energy-OPLS-2005>
-502.734741210938

> <r_mmod_Solvation_Energy-OPLS-2005>
-230.559967041016

> <b_mmod_Minimization_Converged-OPLS-2005>
0

> <r_mmod_RMS_Derivative-OPLS-2005>
3.61559629440308

$$$$
72
                    3D
 Structure written by MMmdl.
167176  0  0  1  0            999 V2000
  -30.6619  -14.5941   20.5062 C   0  0  0  0  0  0
  -30.4255  -12.3671   19.4477 C   0  0  0  0  0  0
  -29.5020  -12.5054   18.2182 C   0  0  0  0  0  0
  -28.0226  -12.3567   18.6270 C   0  0  0  0  0  0
  -27.6516  -13.2168   19.8649 C   0  0  2  0  0  0
  -28.6962  -13.0550   20.9905 C   0  0  0  0  0  0
  -25.2550  -13.8166   20.5684 C   0  0  0  0  0  0
  -24.1819  -13.0433   20.9185 C   0  0  0  0  0  0
  -24.6387  -11.6904   20.8736 C   0  0  0  0  0  0
  -23.9057  -10.4288   21.0401 C   0  0  0  0  0  0
  -24.3609   -9.4207   21.9181 C   0  0  0  0  0  0
  -23.6287   -8.2241   22.0752 C   0  0  0  0  0  0
  -22.4271   -8.0276   21.3542 C   0  0  0  0  0  0
  -21.9901   -9.0249   20.4647 C   0  0  0  0  0  0
  -22.7228  -10.2130   20.3052 C   0  0  0  0  0  0
  -21.6852   -6.0728   22.5276 C   0  0  0  0  0  0
  -21.4013   -6.5632   23.8209 C   0  0  0  0  0  0
  -21.3662   -5.6787   24.9170 C   0  0  0  0  0  0
  -21.6045   -4.3049   24.7223 C   0  0  0  0  0  0
  -21.8819   -3.8140   23.4346 C   0  0  0  0  0  0
  -21.9194   -4.6956   22.3401 C   0  0  0  0  0  0
  -22.7846  -13.5231   21.1847 C   0  0  0  0  0  0
  -22.1665   -4.2140   21.0980 F   0  0  0  0  0  0
  -21.5632   -3.4534   25.7739 F   0  0  0  0  0  0
  -30.0081  -13.3935   20.4226 N   0  0  0  0  0  0
  -26.2977  -12.9350   20.3328 N   0  0  0  0  0  0
  -25.9315  -11.6502   20.5754 N   0  0  0  0  0  0
  -22.0484  -12.8231   22.0407 N   0  0  0  0  0  0
  -25.4254  -15.1885   20.4102 N   0  0  0  0  0  0
  -31.8395  -14.6923   20.1438 O   0  0  0  0  0  0
  -21.6638   -6.8872   21.4238 O   0  0  0  0  0  0
  -22.3535  -14.5539   20.6696 O   0  0  0  0  0  0
  -24.6218  -31.8627   23.2057 C   0  0  0  0  0  0
  -25.9084  -32.4793   23.8373 C   0  0  1  0  0  0
  -27.2267  -27.3592   20.0964 C   0  0  0  0  0  0
  -25.5915  -33.8593   24.2299 N   0  0  0  0  0  0
  -23.4126  -30.4876   21.5481 C   0  0  2  0  0  0
  -24.8559  -28.9469   20.1118 C   0  0  0  0  0  0
  -22.7449  -29.4633   22.4956 C   0  0  0  0  0  0
  -18.0277  -28.1379   22.8490 C   0  0  0  0  0  0
  -24.1486  -36.7303   23.2639 C   0  0  0  0  0  0
  -25.9496  -30.8051   21.3696 C   0  0  0  0  0  0
  -26.0221  -29.4353   20.7117 C   0  0  0  0  0  0
  -27.2062  -28.6494   20.7003 C   0  0  0  0  0  0
  -26.0262  -26.8982   19.5061 C   0  0  0  0  0  0
  -24.8567  -27.6807   19.5066 C   0  0  0  0  0  0
  -23.6242  -29.8247   20.1616 C   0  0  0  0  0  0
  -25.4106  -36.3092   24.0334 C   0  0  1  0  0  0
  -20.5875  -28.3673   23.1302 C   0  0  2  0  0  0
  -20.6763  -26.9402   22.5416 C   0  0  0  0  0  0
  -19.5743  -26.6382   21.5214 C   0  0  0  0  0  0
  -18.1921  -26.7924   22.1625 C   0  0  0  0  0  0
  -19.1529  -28.8843   23.2892 C   0  0  0  0  0  0
  -18.9452  -30.1447   23.8904 C   0  0  0  0  0  0
  -17.6456  -30.6585   24.0562 C   0  0  0  0  0  0
  -25.9042  -34.9460   23.5117 C   0  0  0  0  0  0
  -16.5345  -29.9085   23.6325 C   0  0  0  0  0  0
  -16.7265  -28.6503   23.0348 C   0  0  0  0  0  0
  -26.4485  -31.6591   25.0729 C   0  0  0  0  0  0
  -25.3737  -31.3720   26.1473 C   0  0  0  0  0  0
  -27.0315  -30.3020   24.6151 C   0  0  0  0  0  0
  -27.6058  -32.4315   25.7491 C   0  0  0  0  0  0
  -27.5581  -37.1800   24.8459 C   0  0  0  0  0  0
  -21.4168  -29.3034   22.3704 N   0  0  0  0  0  0
  -26.4285  -37.3786   23.9417 N   0  0  0  0  0  0
  -24.6802  -31.0677   22.0985 N   0  0  0  0  0  0
  -23.4198  -28.8170   23.3015 O   0  0  0  0  0  0
  -28.3845  -26.5804   20.1479 O   0  0  0  0  0  0
  -26.5610  -34.8922   22.4682 O   0  0  0  0  0  0
  -23.5395  -32.1408   23.7412 O   0  0  0  0  0  0
  -29.7735  -23.8378   21.0535 C   0  0  0  0  0  0
  -28.8284  -23.9990   20.0048 C   0  0  0  0  0  0
  -30.0738  -22.5248   21.5369 C   0  0  0  0  0  0
  -28.2617  -22.7918   19.4949 C   0  0  0  0  0  0
  -29.4901  -21.3871   20.9183 C   0  0  0  0  0  0
  -29.4403  -17.7230   22.0354 C   0  0  0  0  0  0
  -30.2955  -18.1501   19.7623 C   0  0  0  0  0  0
  -29.1045  -16.2460   21.6506 C   0  0  0  0  0  0
  -29.9057  -16.6904   19.3767 C   0  0  0  0  0  0
  -29.4036  -18.7520   20.8706 C   0  0  0  0  0  0
  -30.4848  -25.0594   21.6295 C   0  0  0  0  0  0
  -31.0420  -22.3474   22.7085 C   0  0  0  0  0  0
  -27.2453  -22.8024   18.3677 C   0  0  0  0  0  0
  -28.5581  -25.3871   19.3198 C   0  0  0  0  0  0
  -28.5891  -21.5402   19.9293 N   0  0  0  0  0  0
  -29.8778  -15.7259   20.5042 N   0  0  0  0  0  0
  -29.8724  -20.0820   21.3316 N   0  0  0  0  0  0
  -31.4700  -12.4703   19.1476 H   0  0  0  0  0  0
  -30.3410  -11.3708   19.8845 H   0  0  0  0  0  0
  -29.7597  -11.7579   17.4668 H   0  0  0  0  0  0
  -29.6568  -13.4778   17.7479 H   0  0  0  0  0  0
  -27.8452  -11.3031   18.8442 H   0  0  0  0  0  0
  -27.3727  -12.6063   17.7876 H   0  0  0  0  0  0
  -27.6732  -14.2558   19.5371 H   0  0  0  0  0  0
  -28.7028  -12.0291   21.3616 H   0  0  0  0  0  0
  -28.4449  -13.6727   21.8501 H   0  0  0  0  0  0
  -25.2752   -9.5688   22.4755 H   0  0  0  0  0  0
  -23.9997   -7.4631   22.7468 H   0  0  0  0  0  0
  -21.0829   -8.8764   19.8957 H   0  0  0  0  0  0
  -22.3680  -10.9664   19.6163 H   0  0  0  0  0  0
  -21.2004   -7.6140   23.9709 H   0  0  0  0  0  0
  -21.1489   -6.0517   25.9074 H   0  0  0  0  0  0
  -22.0599   -2.7602   23.2845 H   0  0  0  0  0  0
  -22.4096  -11.9896   22.4806 H   0  0  0  0  0  0
  -21.1105  -13.1265   22.2605 H   0  0  0  0  0  0
  -24.6596  -15.8436   20.5230 H   0  0  0  0  0  0
  -26.2793  -15.6269   20.0908 H   0  0  0  0  0  0
  -26.7150  -32.5476   23.1123 H   0  0  0  0  0  0
  -25.0052  -33.9745   25.0437 H   0  0  0  0  0  0
  -22.7042  -31.3068   21.4088 H   0  0  0  0  0  0
  -23.3750  -35.9634   23.3289 H   0  0  0  0  0  0
  -24.3583  -36.8935   22.2056 H   0  0  0  0  0  0
  -23.7235  -37.6502   23.6665 H   0  0  0  0  0  0
  -26.0748  -31.5704   20.6024 H   0  0  0  0  0  0
  -26.8328  -30.8534   21.9951 H   0  0  0  0  0  0
  -28.1045  -29.0228   21.1719 H   0  0  0  0  0  0
  -25.9422  -25.9166   19.0678 H   0  0  0  0  0  0
  -23.9547  -27.2928   19.0534 H   0  0  0  0  0  0
  -23.7431  -30.6027   19.4066 H   0  0  0  0  0  0
  -22.7441  -29.2545   19.8589 H   0  0  0  0  0  0
  -25.1282  -36.1946   25.0826 H   0  0  0  0  0  0
  -20.9965  -28.3237   24.1425 H   0  0  0  0  0  0
  -20.5660  -26.2281   23.3609 H   0  0  0  0  0  0
  -21.6633  -26.7432   22.1215 H   0  0  0  0  0  0
  -19.6903  -25.6295   21.1237 H   0  0  0  0  0  0
  -19.6684  -27.3195   20.6747 H   0  0  0  0  0  0
  -17.4195  -26.6673   21.4025 H   0  0  0  0  0  0
  -18.0320  -26.0064   22.9019 H   0  0  0  0  0  0
  -19.7930  -30.7253   24.2283 H   0  0  0  0  0  0
  -17.5012  -31.6267   24.5162 H   0  0  0  0  0  0
  -15.5345  -30.2988   23.7646 H   0  0  0  0  0  0
  -15.8667  -28.0823   22.7055 H   0  0  0  0  0  0
  -24.5910  -30.7065   25.7815 H   0  0  0  0  0  0
  -24.8929  -32.2881   26.4914 H   0  0  0  0  0  0
  -25.8082  -30.8897   27.0238 H   0  0  0  0  0  0
  -26.2869  -29.6784   24.1188 H   0  0  0  0  0  0
  -27.4036  -29.7261   25.4635 H   0  0  0  0  0  0
  -27.8731  -30.4314   23.9342 H   0  0  0  0  0  0
  -27.2681  -33.3614   26.2079 H   0  0  0  0  0  0
  -28.3861  -32.6877   25.0313 H   0  0  0  0  0  0
  -28.0734  -31.8434   26.5398 H   0  0  0  0  0  0
  -28.2585  -38.0111   24.7525 H   0  0  0  0  0  0
  -28.1087  -36.2643   24.6249 H   0  0  0  0  0  0
  -27.2309  -37.1409   25.8864 H   0  0  0  0  0  0
  -20.9334  -29.8774   21.6937 H   0  0  0  0  0  0
  -26.0167  -38.2859   24.1434 H   0  0  0  0  0  0
  -30.4347  -17.7311   22.4847 H   0  0  0  0  0  0
  -28.7580  -18.0444   22.8239 H   0  0  0  0  0  0
  -30.2468  -18.7827   18.8750 H   0  0  0  0  0  0
  -31.3385  -18.1594   20.0827 H   0  0  0  0  0  0
  -28.0439  -16.1661   21.4103 H   0  0  0  0  0  0
  -29.2698  -15.6206   22.5289 H   0  0  0  0  0  0
  -30.5733  -16.3411   18.5867 H   0  0  0  0  0  0
  -28.9112  -16.6960   18.9285 H   0  0  0  0  0  0
  -28.3804  -18.8458   20.5033 H   0  0  0  0  0  0
  -30.6913  -25.8035   20.8618 H   0  0  0  0  0  0
  -31.4549  -24.8202   22.0621 H   0  0  0  0  0  0
  -29.8707  -25.5264   22.3997 H   0  0  0  0  0  0
  -30.9039  -23.1283   23.4564 H   0  0  0  0  0  0
  -32.0738  -22.3823   22.3582 H   0  0  0  0  0  0
  -30.8980  -21.4089   23.2426 H   0  0  0  0  0  0
  -26.3819  -23.4108   18.6365 H   0  0  0  0  0  0
  -26.8815  -21.7987   18.1446 H   0  0  0  0  0  0
  -27.6865  -23.2029   17.4551 H   0  0  0  0  0  0
  -27.8193  -25.3084   18.5296 H   0  0  0  0  0  0
  -29.4679  -25.5870   18.7532 H   0  0  0  0  0  0
  -30.5685  -20.0557   22.0660 H   0  0  0  0  0  0
  1 25  1  0  0  0
  1 30  2  0  0  0
  1 86  1  0  0  0
  2  3  1  0  0  0
  2 25  1  0  0  0
  2 88  1  0  0  0
  2 89  1  0  0  0
  3  4  1  0  0  0
  3 90  1  0  0  0
  3 91  1  0  0  0
  4  5  1  0  0  0
  4 92  1  0  0  0
  4 93  1  0  0  0
  5  6  1  0  0  0
  5 26  1  0  0  0
  5 94  1  0  0  0
  6 25  1  0  0  0
  6 95  1  0  0  0
  6 96  1  0  0  0
  7  8  2  0  0  0
  7 26  1  0  0  0
  7 29  1  0  0  0
  8  9  1  0  0  0
  8 22  1  0  0  0
  9 10  1  0  0  0
  9 27  2  0  0  0
 10 11  2  0  0  0
 10 15  1  0  0  0
 11 12  1  0  0  0
 11 97  1  0  0  0
 12 13  2  0  0  0
 12 98  1  0  0  0
 13 14  1  0  0  0
 13 31  1  0  0  0
 14 15  2  0  0  0
 14 99  1  0  0  0
 15100  1  0  0  0
 16 17  2  0  0  0
 16 21  1  0  0  0
 16 31  1  0  0  0
 17 18  1  0  0  0
 17101  1  0  0  0
 18 19  2  0  0  0
 18102  1  0  0  0
 19 20  1  0  0  0
 19 24  1  0  0  0
 20 21  2  0  0  0
 20103  1  0  0  0
 21 23  1  0  0  0
 22 28  1  0  0  0
 22 32  2  0  0  0
 26 27  1  0  0  0
 28104  1  0  0  0
 28105  1  0  0  0
 29106  1  0  0  0
 29107  1  0  0  0
 33 34  1  0  0  0
 33 66  1  0  0  0
 33 70  2  0  0  0
 34 36  1  0  0  0
 34 59  1  0  0  0
 34108  1  0  0  0
 35 44  2  0  0  0
 35 45  1  0  0  0
 35 68  1  0  0  0
 36 56  1  0  0  0
 36109  1  0  0  0
 37 39  1  0  0  0
 37 47  1  0  0  0
 37 66  1  0  0  0
 37110  1  0  0  0
 38 43  2  0  0  0
 38 46  1  0  0  0
 38 47  1  0  0  0
 39 64  1  0  0  0
 39 67  2  0  0  0
 40 52  1  0  0  0
 40 53  2  0  0  0
 40 58  1  0  0  0
 41111  1  0  0  0
 41112  1  0  0  0
 41113  1  0  0  0
 41 48  1  0  0  0
 42 43  1  0  0  0
 42 66  1  0  0  0
 42114  1  0  0  0
 42115  1  0  0  0
 43 44  1  0  0  0
 44116  1  0  0  0
 45 46  2  0  0  0
 45117  1  0  0  0
 46118  1  0  0  0
 47119  1  0  0  0
 47120  1  0  0  0
 48 56  1  0  0  0
 48 65  1  0  0  0
 48121  1  0  0  0
 49 50  1  0  0  0
 49 53  1  0  0  0
 49 64  1  0  0  0
 49122  1  0  0  0
 50 51  1  0  0  0
 50123  1  0  0  0
 50124  1  0  0  0
 51 52  1  0  0  0
 51125  1  0  0  0
 51126  1  0  0  0
 52127  1  0  0  0
 52128  1  0  0  0
 53 54  1  0  0  0
 54 55  2  0  0  0
 54129  1  0  0  0
 55 57  1  0  0  0
 55130  1  0  0  0
 56 69  2  0  0  0
 57 58  2  0  0  0
 57131  1  0  0  0
 58132  1  0  0  0
 59 60  1  0  0  0
 59 61  1  0  0  0
 59 62  1  0  0  0
 60133  1  0  0  0
 60134  1  0  0  0
 60135  1  0  0  0
 61136  1  0  0  0
 61137  1  0  0  0
 61138  1  0  0  0
 62139  1  0  0  0
 62140  1  0  0  0
 62141  1  0  0  0
 63 65  1  0  0  0
 63142  1  0  0  0
 63143  1  0  0  0
 63144  1  0  0  0
 64145  1  0  0  0
 65146  1  0  0  0
 68 84  1  0  0  0
 71 72  2  0  0  0
 71 73  1  0  0  0
 71 81  1  0  0  0
 72 74  1  0  0  0
 72 84  1  0  0  0
 73 75  2  0  0  0
 73 82  1  0  0  0
 74 83  1  0  0  0
 74 85  2  0  0  0
 75 85  1  0  0  0
 75 87  1  0  0  0
 76 78  1  0  0  0
 76 80  1  0  0  0
 76147  1  0  0  0
 76148  1  0  0  0
 77 79  1  0  0  0
 77 80  1  0  0  0
 77149  1  0  0  0
 77150  1  0  0  0
 78 86  1  0  0  0
 78151  1  0  0  0
 78152  1  0  0  0
 79 86  1  0  0  0
 79153  1  0  0  0
 79154  1  0  0  0
 80 87  1  0  0  0
 80155  1  0  0  0
 81156  1  0  0  0
 81157  1  0  0  0
 81158  1  0  0  0
 82159  1  0  0  0
 82160  1  0  0  0
 82161  1  0  0  0
 83162  1  0  0  0
 83163  1  0  0  0
 83164  1  0  0  0
 84165  1  0  0  0
 84166  1  0  0  0
 87167  1  0  0  0
M  ISO  4   1 100  68 101  84 101  86 100
M  END
> <chiral flag>
0

> <version>
0

> <s_m_source_file>
/data/baiqing/PycharmProjects/Reinvent-master-3.2/result/LINK_invent/BTK/process_docking_weight1_custom_sum_contain_oxygen_bond_distance_aromatic_linkinvent_7_9_3/rearranged_h_0174.sdf

> <i_m_source_file_index>
71

> <r_mmod_Potential_Energy-OPLS-2005>
28.2489013671875

> <r_mmod_Stretch_Energy-OPLS-2005>
64.1628265380859

> <r_mmod_Bend_Energy-OPLS-2005>
156.664657592773

> <r_mmod_Torsional_Energy-OPLS-2005>
319.868774414062

> <r_mmod_Improper_Torsional_Energy-OPLS-2005>
16.8150539398193

> <r_mmod_Van_der_Waal_Energy-OPLS-2005>
159.460647583008

> <r_mmod_Electrostatic_Energy-OPLS-2005>
-499.271728515625

> <r_mmod_Solvation_Energy-OPLS-2005>
-222.856796264648

> <b_mmod_Minimization_Converged-OPLS-2005>
0

> <r_mmod_RMS_Derivative-OPLS-2005>
0.630595982074738

$$$$
73
                    3D
 Structure written by MMmdl.
176185  0  0  1  0            999 V2000
  -30.5825  -14.8708   20.3832 C   0  0  0  0  0  0
  -30.4316  -12.5306   19.4851 C   0  0  0  0  0  0
  -29.5128  -12.5031   18.2441 C   0  0  0  0  0  0
  -28.0435  -12.3110   18.6631 C   0  0  0  0  0  0
  -27.6285  -13.2446   19.8309 C   0  0  2  0  0  0
  -28.6741  -13.2621   20.9650 C   0  0  0  0  0  0
  -25.2465  -13.8215   20.5696 C   0  0  0  0  0  0
  -24.1780  -13.0441   20.9216 C   0  0  0  0  0  0
  -24.6391  -11.6925   20.8752 C   0  0  0  0  0  0
  -23.9076  -10.4290   21.0406 C   0  0  0  0  0  0
  -24.3625   -9.4205   21.9182 C   0  0  0  0  0  0
  -23.6298   -8.2242   22.0753 C   0  0  0  0  0  0
  -22.4282   -8.0280   21.3543 C   0  0  0  0  0  0
  -21.9915   -9.0250   20.4645 C   0  0  0  0  0  0
  -22.7244  -10.2131   20.3057 C   0  0  0  0  0  0
  -21.6853   -6.0736   22.5275 C   0  0  0  0  0  0
  -21.4013   -6.5641   23.8208 C   0  0  0  0  0  0
  -21.3663   -5.6795   24.9168 C   0  0  0  0  0  0
  -21.6050   -4.3056   24.7220 C   0  0  0  0  0  0
  -21.8821   -3.8146   23.4339 C   0  0  0  0  0  0
  -21.9189   -4.6962   22.3396 C   0  0  0  0  0  0
  -22.7799  -13.5214   21.1876 C   0  0  0  0  0  0
  -22.1662   -4.2155   21.0970 F   0  0  0  0  0  0
  -21.5629   -3.4538   25.7729 F   0  0  0  0  0  0
  -29.9567  -13.6346   20.3595 N   0  0  0  0  0  0
  -26.2881  -12.9442   20.3215 N   0  0  0  0  0  0
  -25.9319  -11.6575   20.5730 N   0  0  0  0  0  0
  -22.0446  -12.8204   22.0431 N   0  0  0  0  0  0
  -25.4131  -15.1942   20.4123 N   0  0  0  0  0  0
  -31.8054  -14.8737   20.2637 O   0  0  0  0  0  0
  -21.6647   -6.8877   21.4239 O   0  0  0  0  0  0
  -22.3478  -14.5512   20.6709 O   0  0  0  0  0  0
  -24.6388  -31.8482   23.1917 C   0  0  0  0  0  0
  -25.9183  -32.4714   23.8289 C   0  0  1  0  0  0
  -27.2140  -27.1805   20.1390 C   0  0  0  0  0  0
  -25.5949  -33.8519   24.2208 N   0  0  0  0  0  0
  -23.4386  -30.4696   21.5374 C   0  0  2  0  0  0
  -24.8840  -28.9029   20.1120 C   0  0  0  0  0  0
  -22.7538  -29.4572   22.4889 C   0  0  0  0  0  0
  -18.0297  -28.1388   22.8482 C   0  0  0  0  0  0
  -24.1494  -36.7269   23.2641 C   0  0  0  0  0  0
  -25.9917  -30.7367   21.3826 C   0  0  0  0  0  0
  -26.0611  -29.3528   20.7229 C   0  0  0  0  0  0
  -27.2266  -28.5070   20.7187 C   0  0  0  0  0  0
  -26.0047  -26.8153   19.5059 C   0  0  0  0  0  0
  -24.8657  -27.6462   19.4914 C   0  0  0  0  0  0
  -23.6599  -29.8003   20.1562 C   0  0  0  0  0  0
  -25.4127  -36.3046   24.0318 C   0  0  1  0  0  0
  -20.5907  -28.3710   23.1250 C   0  0  2  0  0  0
  -20.6784  -26.9418   22.5406 C   0  0  0  0  0  0
  -19.5757  -26.6378   21.5214 C   0  0  0  0  0  0
  -18.1937  -26.7929   22.1623 C   0  0  0  0  0  0
  -19.1550  -28.8867   23.2861 C   0  0  0  0  0  0
  -18.9471  -30.1466   23.8883 C   0  0  0  0  0  0
  -17.6467  -30.6589   24.0559 C   0  0  0  0  0  0
  -25.9075  -34.9418   23.5073 C   0  0  0  0  0  0
  -16.5360  -29.9080   23.6332 C   0  0  0  0  0  0
  -16.7280  -28.6495   23.0359 C   0  0  0  0  0  0
  -26.4515  -31.6572   25.0719 C   0  0  0  0  0  0
  -25.3708  -31.3756   26.1422 C   0  0  0  0  0  0
  -27.0373  -30.2970   24.6280 C   0  0  0  0  0  0
  -27.6050  -32.4331   25.7506 C   0  0  0  0  0  0
  -27.5579  -37.1789   24.8461 C   0  0  0  0  0  0
  -21.4238  -29.3046   22.3632 N   0  0  0  0  0  0
  -26.4293  -37.3755   23.9403 N   0  0  0  0  0  0
  -24.7095  -31.0382   22.0929 N   0  0  0  0  0  0
  -23.4205  -28.8121   23.3024 O   0  0  0  0  0  0
  -28.3031  -26.2514   20.1995 O   0  0  0  0  0  0
  -26.5655  -34.8906   22.4645 O   0  0  0  0  0  0
  -23.5518  -32.1345   23.7165 O   0  0  0  0  0  0
  -29.4847  -23.9366   19.5041 C   0  0  0  0  0  0
  -27.5155  -23.7869   21.0085 C   0  0  0  0  0  0
  -29.3516  -22.3407   19.3027 C   0  0  0  0  0  0
  -27.7547  -22.1865   21.2150 C   0  0  0  0  0  0
  -31.2097  -18.9543   21.0993 C   0  0  0  0  0  0
  -32.4236  -17.7710   19.0673 C   0  0  0  0  0  0
  -29.9125  -17.4349   19.4977 C   0  0  1  0  0  0
  -28.1744  -24.7438   19.9081 C   0  0  2  0  0  0
  -29.0231  -21.4657   20.5807 C   0  0  1  0  0  0
  -29.9714  -18.9407   20.2097 C   0  0  1  0  0  0
  -32.5105  -18.8291   20.2379 C   0  0  0  0  0  0
  -31.0431  -17.4698   18.3799 C   0  0  0  0  0  0
  -33.6495  -18.4059   21.1890 C   0  0  0  0  0  0
  -32.9112  -20.2126   19.6753 C   0  0  0  0  0  0
  -31.1034  -16.1651   17.5294 C   0  0  0  0  0  0
  -30.7612  -18.5286   17.2604 C   0  0  0  0  0  0
  -29.8128  -16.0522   20.2671 N   0  0  0  0  0  0
  -28.8631  -19.9396   20.4814 O   0  0  0  0  0  0
  -31.4684  -12.6686   19.1740 H   0  0  0  0  0  0
  -30.4008  -11.5781   20.0166 H   0  0  0  0  0  0
  -29.8175  -11.7057   17.5660 H   0  0  0  0  0  0
  -29.6180  -13.4342   17.6864 H   0  0  0  0  0  0
  -27.9240  -11.2699   18.9656 H   0  0  0  0  0  0
  -27.3834  -12.4541   17.8070 H   0  0  0  0  0  0
  -27.5948  -14.2478   19.4061 H   0  0  0  0  0  0
  -28.7399  -12.2908   21.4564 H   0  0  0  0  0  0
  -28.3947  -13.9848   21.7331 H   0  0  0  0  0  0
  -25.2767   -9.5692   22.4759 H   0  0  0  0  0  0
  -24.0010   -7.4641   22.7476 H   0  0  0  0  0  0
  -21.0843   -8.8766   19.8955 H   0  0  0  0  0  0
  -22.3692  -10.9669   19.6173 H   0  0  0  0  0  0
  -21.2008   -7.6150   23.9713 H   0  0  0  0  0  0
  -21.1486   -6.0520   25.9073 H   0  0  0  0  0  0
  -22.0597   -2.7609   23.2831 H   0  0  0  0  0  0
  -22.4070  -11.9884   22.4843 H   0  0  0  0  0  0
  -21.1061  -13.1225   22.2631 H   0  0  0  0  0  0
  -24.6439  -15.8453   20.5289 H   0  0  0  0  0  0
  -26.2557  -15.6357   20.0684 H   0  0  0  0  0  0
  -26.7250  -32.5331   23.1023 H   0  0  0  0  0  0
  -25.0062  -33.9646   25.0331 H   0  0  0  0  0  0
  -22.7385  -31.2940   21.3864 H   0  0  0  0  0  0
  -23.3760  -35.9597   23.3295 H   0  0  0  0  0  0
  -24.3578  -36.8908   22.2056 H   0  0  0  0  0  0
  -23.7248  -37.6462   23.6684 H   0  0  0  0  0  0
  -26.1432  -31.4945   20.6127 H   0  0  0  0  0  0
  -26.8643  -30.7831   22.0230 H   0  0  0  0  0  0
  -28.1268  -28.8484   21.2102 H   0  0  0  0  0  0
  -25.8898  -25.8541   19.0316 H   0  0  0  0  0  0
  -23.9632  -27.2947   19.0099 H   0  0  0  0  0  0
  -23.7903  -30.5740   19.3987 H   0  0  0  0  0  0
  -22.7759  -29.2372   19.8511 H   0  0  0  0  0  0
  -25.1314  -36.1880   25.0812 H   0  0  0  0  0  0
  -20.9995  -28.3296   24.1371 H   0  0  0  0  0  0
  -20.5676  -26.2325   23.3621 H   0  0  0  0  0  0
  -21.6652  -26.7429   22.1202 H   0  0  0  0  0  0
  -19.6918  -25.6284   21.1254 H   0  0  0  0  0  0
  -19.6693  -27.3180   20.6736 H   0  0  0  0  0  0
  -17.4207  -26.6675   21.4027 H   0  0  0  0  0  0
  -18.0334  -26.0077   22.9021 H   0  0  0  0  0  0
  -19.7950  -30.7286   24.2245 H   0  0  0  0  0  0
  -17.5021  -31.6268   24.5159 H   0  0  0  0  0  0
  -15.5358  -30.2973   23.7673 H   0  0  0  0  0  0
  -15.8681  -28.0807   22.7086 H   0  0  0  0  0  0
  -24.5890  -30.7101   25.7745 H   0  0  0  0  0  0
  -24.8893  -32.2935   26.4801 H   0  0  0  0  0  0
  -25.7994  -30.8958   27.0228 H   0  0  0  0  0  0
  -26.2981  -29.6700   24.1280 H   0  0  0  0  0  0
  -27.3983  -29.7266   25.4847 H   0  0  0  0  0  0
  -27.8891  -30.4214   23.9592 H   0  0  0  0  0  0
  -27.2647  -33.3644   26.2046 H   0  0  0  0  0  0
  -28.3884  -32.6868   25.0353 H   0  0  0  0  0  0
  -28.0694  -31.8479   26.5454 H   0  0  0  0  0  0
  -28.2589  -38.0092   24.7505 H   0  0  0  0  0  0
  -28.1081  -36.2618   24.6293 H   0  0  0  0  0  0
  -27.2291  -37.1443   25.8862 H   0  0  0  0  0  0
  -20.9434  -29.8759   21.6820 H   0  0  0  0  0  0
  -26.0163  -38.2826   24.1396 H   0  0  0  0  0  0
  -29.8713  -24.3678   18.5802 H   0  0  0  0  0  0
  -30.2621  -24.1230   20.2461 H   0  0  0  0  0  0
  -28.4442  -23.8339   21.5789 H   0  0  0  0  0  0
  -27.0622  -23.3290   20.1313 H   0  0  0  0  0  0
  -30.2839  -21.9781   18.8727 H   0  0  0  0  0  0
  -28.5937  -22.1479   18.5423 H   0  0  0  0  0  0
  -26.8745  -21.6103   20.9058 H   0  0  0  0  0  0
  -27.7808  -21.9864   22.2885 H   0  0  0  0  0  0
  -31.1329  -18.1254   21.8046 H   0  0  0  0  0  0
  -31.2448  -19.8559   21.7094 H   0  0  0  0  0  0
  -32.8170  -16.8377   19.4537 H   0  0  0  0  0  0
  -33.1513  -18.0275   18.2963 H   0  0  0  0  0  0
  -28.9704  -17.4415   18.9477 H   0  0  0  0  0  0
  -27.6092  -24.7220   18.9730 H   0  0  0  0  0  0
  -29.8478  -21.6308   21.2747 H   0  0  0  0  0  0
  -30.2851  -19.5925   19.4188 H   0  0  0  0  0  0
  -33.4429  -17.4425   21.6584 H   0  0  0  0  0  0
  -33.7939  -19.1316   21.9910 H   0  0  0  0  0  0
  -34.5985  -18.3118   20.6595 H   0  0  0  0  0  0
  -32.1961  -20.6117   18.9613 H   0  0  0  0  0  0
  -33.8723  -20.1691   19.1620 H   0  0  0  0  0  0
  -33.0118  -20.9503   20.4725 H   0  0  0  0  0  0
  -31.6566  -15.3496   17.9771 H   0  0  0  0  0  0
  -31.6197  -16.3050   16.5796 H   0  0  0  0  0  0
  -30.1027  -15.8043   17.2898 H   0  0  0  0  0  0
  -30.8775  -19.5725   17.5308 H   0  0  0  0  0  0
  -29.7565  -18.4129   16.8522 H   0  0  0  0  0  0
  -31.4518  -18.4264   16.4229 H   0  0  0  0  0  0
  -28.8552  -15.8634   20.5194 H   0  0  0  0  0  0
  1 25  1  0  0  0
  1 30  2  0  0  0
  1 87  1  0  0  0
  2  3  1  0  0  0
  2 25  1  0  0  0
  2 89  1  0  0  0
  2 90  1  0  0  0
  3  4  1  0  0  0
  3 91  1  0  0  0
  3 92  1  0  0  0
  4  5  1  0  0  0
  4 93  1  0  0  0
  4 94  1  0  0  0
  5  6  1  0  0  0
  5 26  1  0  0  0
  5 95  1  0  0  0
  6 25  1  0  0  0
  6 96  1  0  0  0
  6 97  1  0  0  0
  7  8  2  0  0  0
  7 26  1  0  0  0
  7 29  1  0  0  0
  8  9  1  0  0  0
  8 22  1  0  0  0
  9 10  1  0  0  0
  9 27  2  0  0  0
 10 11  2  0  0  0
 10 15  1  0  0  0
 11 12  1  0  0  0
 11 98  1  0  0  0
 12 13  2  0  0  0
 12 99  1  0  0  0
 13 14  1  0  0  0
 13 31  1  0  0  0
 14 15  2  0  0  0
 14100  1  0  0  0
 15101  1  0  0  0
 16 17  2  0  0  0
 16 21  1  0  0  0
 16 31  1  0  0  0
 17 18  1  0  0  0
 17102  1  0  0  0
 18 19  2  0  0  0
 18103  1  0  0  0
 19 20  1  0  0  0
 19 24  1  0  0  0
 20 21  2  0  0  0
 20104  1  0  0  0
 21 23  1  0  0  0
 22 28  1  0  0  0
 22 32  2  0  0  0
 26 27  1  0  0  0
 28105  1  0  0  0
 28106  1  0  0  0
 29107  1  0  0  0
 29108  1  0  0  0
 33 34  1  0  0  0
 33 66  1  0  0  0
 33 70  2  0  0  0
 34 36  1  0  0  0
 34 59  1  0  0  0
 34109  1  0  0  0
 35 44  2  0  0  0
 35 45  1  0  0  0
 35 68  1  0  0  0
 36 56  1  0  0  0
 36110  1  0  0  0
 37 39  1  0  0  0
 37 47  1  0  0  0
 37 66  1  0  0  0
 37111  1  0  0  0
 38 43  2  0  0  0
 38 46  1  0  0  0
 38 47  1  0  0  0
 39 64  1  0  0  0
 39 67  2  0  0  0
 40 52  1  0  0  0
 40 53  2  0  0  0
 40 58  1  0  0  0
 41112  1  0  0  0
 41113  1  0  0  0
 41114  1  0  0  0
 41 48  1  0  0  0
 42 43  1  0  0  0
 42 66  1  0  0  0
 42115  1  0  0  0
 42116  1  0  0  0
 43 44  1  0  0  0
 44117  1  0  0  0
 45 46  2  0  0  0
 45118  1  0  0  0
 46119  1  0  0  0
 47120  1  0  0  0
 47121  1  0  0  0
 48 56  1  0  0  0
 48 65  1  0  0  0
 48122  1  0  0  0
 49 50  1  0  0  0
 49 53  1  0  0  0
 49 64  1  0  0  0
 49123  1  0  0  0
 50 51  1  0  0  0
 50124  1  0  0  0
 50125  1  0  0  0
 51 52  1  0  0  0
 51126  1  0  0  0
 51127  1  0  0  0
 52128  1  0  0  0
 52129  1  0  0  0
 53 54  1  0  0  0
 54 55  2  0  0  0
 54130  1  0  0  0
 55 57  1  0  0  0
 55131  1  0  0  0
 56 69  2  0  0  0
 57 58  2  0  0  0
 57132  1  0  0  0
 58133  1  0  0  0
 59 60  1  0  0  0
 59 61  1  0  0  0
 59 62  1  0  0  0
 60134  1  0  0  0
 60135  1  0  0  0
 60136  1  0  0  0
 61137  1  0  0  0
 61138  1  0  0  0
 61139  1  0  0  0
 62140  1  0  0  0
 62141  1  0  0  0
 62142  1  0  0  0
 63 65  1  0  0  0
 63143  1  0  0  0
 63144  1  0  0  0
 63145  1  0  0  0
 64146  1  0  0  0
 65147  1  0  0  0
 68 78  1  0  0  0
 71 73  1  0  0  0
 71 78  1  0  0  0
 71148  1  0  0  0
 71149  1  0  0  0
 72 74  1  0  0  0
 72 78  1  0  0  0
 72150  1  0  0  0
 72151  1  0  0  0
 73 79  1  0  0  0
 73152  1  0  0  0
 73153  1  0  0  0
 74 79  1  0  0  0
 74154  1  0  0  0
 74155  1  0  0  0
 75 80  1  0  0  0
 75 81  1  0  0  0
 75156  1  0  0  0
 75157  1  0  0  0
 76 81  1  0  0  0
 76 82  1  0  0  0
 76158  1  0  0  0
 76159  1  0  0  0
 77 80  1  0  0  0
 77 82  1  0  0  0
 77 87  1  0  0  0
 77160  1  0  0  0
 78161  1  0  0  0
 79 88  1  0  0  0
 79162  1  0  0  0
 80 88  1  0  0  0
 80163  1  0  0  0
 81 83  1  0  0  0
 81 84  1  0  0  0
 82 85  1  0  0  0
 82 86  1  0  0  0
 83164  1  0  0  0
 83165  1  0  0  0
 83166  1  0  0  0
 84167  1  0  0  0
 84168  1  0  0  0
 84169  1  0  0  0
 85170  1  0  0  0
 85171  1  0  0  0
 85172  1  0  0  0
 86173  1  0  0  0
 86174  1  0  0  0
 86175  1  0  0  0
 87176  1  0  0  0
M  ISO  4   1 100  68 101  78 101  87 100
M  END
> <chiral flag>
0

> <version>
0

> <s_m_source_file>
/data/baiqing/PycharmProjects/Reinvent-master-3.2/result/LINK_invent/BTK/process_docking_weight1_custom_sum_contain_oxygen_bond_distance_aromatic_linkinvent_7_9_3/rearranged_h_0174.sdf

> <i_m_source_file_index>
72

> <r_mmod_Potential_Energy-OPLS-2005>
778.485534667969

> <r_mmod_Stretch_Energy-OPLS-2005>
225.493682861328

> <r_mmod_Bend_Energy-OPLS-2005>
576.11474609375

> <r_mmod_Torsional_Energy-OPLS-2005>
314.069061279297

> <r_mmod_Improper_Torsional_Energy-OPLS-2005>
7.49423313140869

> <r_mmod_Van_der_Waal_Energy-OPLS-2005>
168.214202880859

> <r_mmod_Electrostatic_Energy-OPLS-2005>
-469.513885498047

> <r_mmod_Solvation_Energy-OPLS-2005>
-192.95378112793

> <b_mmod_Minimization_Converged-OPLS-2005>
0

> <r_mmod_RMS_Derivative-OPLS-2005>
0.982593238353729

$$$$
74
                    3D
 Structure written by MMmdl.
164173  0  0  1  0            999 V2000
  -30.6275  -14.8871   20.4344 C   0  0  0  0  0  0
  -30.4188  -12.5583   19.4826 C   0  0  0  0  0  0
  -29.5038  -12.5164   18.2413 C   0  0  0  0  0  0
  -28.0378  -12.3205   18.6665 C   0  0  0  0  0  0
  -27.6254  -13.2533   19.8371 C   0  0  2  0  0  0
  -28.6748  -13.2780   20.9681 C   0  0  0  0  0  0
  -25.2449  -13.8241   20.5733 C   0  0  0  0  0  0
  -24.1766  -13.0457   20.9228 C   0  0  0  0  0  0
  -24.6393  -11.6945   20.8765 C   0  0  0  0  0  0
  -23.9081  -10.4304   21.0413 C   0  0  0  0  0  0
  -24.3629   -9.4217   21.9189 C   0  0  0  0  0  0
  -23.6303   -8.2250   22.0757 C   0  0  0  0  0  0
  -22.4284   -8.0286   21.3545 C   0  0  0  0  0  0
  -21.9928   -9.0261   20.4643 C   0  0  0  0  0  0
  -22.7259  -10.2139   20.3057 C   0  0  0  0  0  0
  -21.6857   -6.0742   22.5281 C   0  0  0  0  0  0
  -21.4017   -6.5643   23.8216 C   0  0  0  0  0  0
  -21.3657   -5.6793   24.9173 C   0  0  0  0  0  0
  -21.6036   -4.3054   24.7223 C   0  0  0  0  0  0
  -21.8825   -3.8150   23.4346 C   0  0  0  0  0  0
  -21.9199   -4.6969   22.3401 C   0  0  0  0  0  0
  -22.7787  -13.5218   21.1880 C   0  0  0  0  0  0
  -22.1666   -4.2155   21.0980 F   0  0  0  0  0  0
  -21.5627   -3.4538   25.7735 F   0  0  0  0  0  0
  -29.9449  -13.6762   20.3503 N   0  0  0  0  0  0
  -26.2872  -12.9485   20.3283 N   0  0  0  0  0  0
  -25.9328  -11.6606   20.5774 N   0  0  0  0  0  0
  -22.0436  -12.8192   22.0426 N   0  0  0  0  0  0
  -25.4134  -15.1968   20.4158 N   0  0  0  0  0  0
  -31.8376  -14.8338   20.1837 O   0  0  0  0  0  0
  -21.6646   -6.8886   21.4243 O   0  0  0  0  0  0
  -22.3468  -14.5521   20.6728 O   0  0  0  0  0  0
  -24.6407  -31.8484   23.1915 C   0  0  0  0  0  0
  -25.9194  -32.4727   23.8290 C   0  0  1  0  0  0
  -27.2032  -27.1543   20.1395 C   0  0  0  0  0  0
  -25.5950  -33.8532   24.2208 N   0  0  0  0  0  0
  -23.4418  -30.4713   21.5389 C   0  0  2  0  0  0
  -24.8884  -28.9105   20.1048 C   0  0  0  0  0  0
  -22.7551  -29.4567   22.4886 C   0  0  0  0  0  0
  -18.0293  -28.1393   22.8488 C   0  0  0  0  0  0
  -24.1479  -36.7258   23.2645 C   0  0  0  0  0  0
  -25.9986  -30.7246   21.3916 C   0  0  0  0  0  0
  -26.0654  -29.3399   20.7304 C   0  0  0  0  0  0
  -27.2206  -28.4746   20.7414 C   0  0  0  0  0  0
  -26.0112  -26.8454   19.4427 C   0  0  0  0  0  0
  -24.8734  -27.6749   19.4466 C   0  0  0  0  0  0
  -23.6652  -29.8094   20.1544 C   0  0  0  0  0  0
  -25.4118  -36.3062   24.0325 C   0  0  1  0  0  0
  -20.5911  -28.3704   23.1253 C   0  0  2  0  0  0
  -20.6785  -26.9422   22.5401 C   0  0  0  0  0  0
  -19.5752  -26.6378   21.5218 C   0  0  0  0  0  0
  -18.1932  -26.7944   22.1621 C   0  0  0  0  0  0
  -19.1558  -28.8873   23.2863 C   0  0  0  0  0  0
  -18.9484  -30.1479   23.8875 C   0  0  0  0  0  0
  -17.6478  -30.6598   24.0559 C   0  0  0  0  0  0
  -25.9065  -34.9427   23.5074 C   0  0  0  0  0  0
  -16.5367  -29.9081   23.6346 C   0  0  0  0  0  0
  -16.7279  -28.6500   23.0375 C   0  0  0  0  0  0
  -26.4504  -31.6595   25.0727 C   0  0  0  0  0  0
  -25.3673  -31.3777   26.1414 C   0  0  0  0  0  0
  -27.0374  -30.2999   24.6297 C   0  0  0  0  0  0
  -27.6047  -32.4356   25.7510 C   0  0  0  0  0  0
  -27.5568  -37.1793   24.8475 C   0  0  0  0  0  0
  -21.4248  -29.3038   22.3638 N   0  0  0  0  0  0
  -26.4274  -37.3785   23.9418 N   0  0  0  0  0  0
  -24.7140  -31.0357   22.0953 N   0  0  0  0  0  0
  -23.4212  -28.8111   23.3023 O   0  0  0  0  0  0
  -28.2314  -26.1507   20.2581 O   0  0  0  0  0  0
  -26.5667  -34.8919   22.4656 O   0  0  0  0  0  0
  -23.5534  -32.1345   23.7147 O   0  0  0  0  0  0
  -28.8787  -23.0335   21.8330 C   0  0  0  0  0  0
  -28.5870  -23.2928   20.4562 C   0  0  0  0  0  0
  -29.2178  -21.7016   22.0137 C   0  0  0  0  0  0
  -28.7895  -22.0080   19.8716 C   0  0  0  0  0  0
  -30.0988  -18.7563   19.4366 C   0  0  0  0  0  0
  -28.5562  -18.3218   21.2039 C   0  0  0  0  0  0
  -30.7332  -17.2911   19.6395 C   0  0  0  0  0  0
  -29.0986  -16.8049   21.3886 C   0  0  0  0  0  0
  -29.5678  -19.4373   20.7324 C   0  0  0  0  0  0
  -28.7942  -24.0475   22.9487 C   0  0  0  0  0  0
  -29.6010  -21.0333   23.3036 C   0  0  0  0  0  0
  -28.6278  -21.6297   18.4350 C   0  0  0  0  0  0
  -27.9830  -24.6871   19.8155 C   0  0  0  0  0  0
  -29.1834  -20.9818   20.8118 N   0  0  0  0  0  0
  -29.9961  -16.1725   20.3561 N   0  0  0  0  0  0
  -31.4550  -12.6769   19.1637 H   0  0  0  0  0  0
  -30.3871  -11.6098   20.0208 H   0  0  0  0  0  0
  -29.8106  -11.7144   17.5676 H   0  0  0  0  0  0
  -29.6026  -13.4465   17.6800 H   0  0  0  0  0  0
  -27.9235  -11.2790   18.9698 H   0  0  0  0  0  0
  -27.3725  -12.4616   17.8139 H   0  0  0  0  0  0
  -27.5911  -14.2570   19.4123 H   0  0  0  0  0  0
  -28.7586  -12.3018   21.4481 H   0  0  0  0  0  0
  -28.3890  -13.9764   21.7532 H   0  0  0  0  0  0
  -25.2775   -9.5693   22.4766 H   0  0  0  0  0  0
  -24.0013   -7.4644   22.7478 H   0  0  0  0  0  0
  -21.0863   -8.8774   19.8945 H   0  0  0  0  0  0
  -22.3719  -10.9673   19.6158 H   0  0  0  0  0  0
  -21.2006   -7.6153   23.9720 H   0  0  0  0  0  0
  -21.1469   -6.0520   25.9075 H   0  0  0  0  0  0
  -22.0605   -2.7616   23.2842 H   0  0  0  0  0  0
  -22.4070  -11.9856   22.4802 H   0  0  0  0  0  0
  -21.1045  -13.1200   22.2633 H   0  0  0  0  0  0
  -24.6467  -15.8509   20.5281 H   0  0  0  0  0  0
  -26.2667  -15.6363   20.0968 H   0  0  0  0  0  0
  -26.7254  -32.5332   23.1009 H   0  0  0  0  0  0
  -25.0103  -33.9654   25.0367 H   0  0  0  0  0  0
  -22.7439  -31.2985   21.3890 H   0  0  0  0  0  0
  -23.3765  -35.9565   23.3320 H   0  0  0  0  0  0
  -24.3562  -36.8874   22.2055 H   0  0  0  0  0  0
  -23.7193  -37.6438   23.6673 H   0  0  0  0  0  0
  -26.1596  -31.4806   20.6209 H   0  0  0  0  0  0
  -26.8713  -30.7710   22.0329 H   0  0  0  0  0  0
  -28.1092  -28.7906   21.2692 H   0  0  0  0  0  0
  -25.9041  -25.9241   18.8926 H   0  0  0  0  0  0
  -23.9790  -27.3479   18.9323 H   0  0  0  0  0  0
  -23.7946  -30.5878   19.4015 H   0  0  0  0  0  0
  -22.7800  -29.2499   19.8463 H   0  0  0  0  0  0
  -25.1307  -36.1901   25.0821 H   0  0  0  0  0  0
  -21.0006  -28.3292   24.1372 H   0  0  0  0  0  0
  -20.5712  -26.2318   23.3616 H   0  0  0  0  0  0
  -21.6654  -26.7444   22.1187 H   0  0  0  0  0  0
  -19.6910  -25.6286   21.1252 H   0  0  0  0  0  0
  -19.6694  -27.3196   20.6761 H   0  0  0  0  0  0
  -17.4214  -26.6712   21.4012 H   0  0  0  0  0  0
  -18.0298  -26.0090   22.9024 H   0  0  0  0  0  0
  -19.7967  -30.7290   24.2246 H   0  0  0  0  0  0
  -17.5041  -31.6284   24.5147 H   0  0  0  0  0  0
  -15.5378  -30.2980   23.7683 H   0  0  0  0  0  0
  -15.8682  -28.0794   22.7131 H   0  0  0  0  0  0
  -24.5883  -30.7097   25.7724 H   0  0  0  0  0  0
  -24.8823  -32.2954   26.4751 H   0  0  0  0  0  0
  -25.7946  -30.9006   27.0249 H   0  0  0  0  0  0
  -26.2988  -29.6733   24.1279 H   0  0  0  0  0  0
  -27.3992  -29.7281   25.4857 H   0  0  0  0  0  0
  -27.8898  -30.4271   23.9619 H   0  0  0  0  0  0
  -27.2662  -33.3701   26.2001 H   0  0  0  0  0  0
  -28.3898  -32.6844   25.0358 H   0  0  0  0  0  0
  -28.0664  -31.8528   26.5491 H   0  0  0  0  0  0
  -28.2610  -38.0073   24.7551 H   0  0  0  0  0  0
  -28.1045  -36.2610   24.6288 H   0  0  0  0  0  0
  -27.2295  -37.1435   25.8882 H   0  0  0  0  0  0
  -20.9458  -29.8743   21.6807 H   0  0  0  0  0  0
  -26.0148  -38.2860   24.1431 H   0  0  0  0  0  0
  -29.2959  -18.6989   18.7003 H   0  0  0  0  0  0
  -30.8580  -19.3992   18.9899 H   0  0  0  0  0  0
  -28.0906  -18.6265   22.1401 H   0  0  0  0  0  0
  -27.7301  -18.2998   20.4913 H   0  0  0  0  0  0
  -31.6764  -17.4351   20.1703 H   0  0  0  0  0  0
  -31.0192  -16.9165   18.6552 H   0  0  0  0  0  0
  -28.2294  -16.1641   21.5255 H   0  0  0  0  0  0
  -29.6415  -16.7588   22.3340 H   0  0  0  0  0  0
  -30.4149  -19.3556   21.4140 H   0  0  0  0  0  0
  -28.6060  -25.0525   22.5751 H   0  0  0  0  0  0
  -29.7253  -24.0689   23.5165 H   0  0  0  0  0  0
  -27.9866  -23.7835   23.6331 H   0  0  0  0  0  0
  -29.4097  -21.6757   24.1623 H   0  0  0  0  0  0
  -30.6619  -20.7834   23.3155 H   0  0  0  0  0  0
  -29.0383  -20.1175   23.4732 H   0  0  0  0  0  0
  -28.2248  -22.4533   17.8470 H   0  0  0  0  0  0
  -27.9493  -20.7836   18.3248 H   0  0  0  0  0  0
  -29.5879  -21.3573   17.9973 H   0  0  0  0  0  0
  -26.9211  -24.4841   19.9275 H   0  0  0  0  0  0
  -28.1836  -24.6587   18.7448 H   0  0  0  0  0  0
  1 25  1  0  0  0
  1 30  2  0  0  0
  1 85  1  0  0  0
  2  3  1  0  0  0
  2 25  1  0  0  0
  2 86  1  0  0  0
  2 87  1  0  0  0
  3  4  1  0  0  0
  3 88  1  0  0  0
  3 89  1  0  0  0
  4  5  1  0  0  0
  4 90  1  0  0  0
  4 91  1  0  0  0
  5  6  1  0  0  0
  5 26  1  0  0  0
  5 92  1  0  0  0
  6 25  1  0  0  0
  6 93  1  0  0  0
  6 94  1  0  0  0
  7  8  2  0  0  0
  7 26  1  0  0  0
  7 29  1  0  0  0
  8  9  1  0  0  0
  8 22  1  0  0  0
  9 10  1  0  0  0
  9 27  2  0  0  0
 10 11  2  0  0  0
 10 15  1  0  0  0
 11 12  1  0  0  0
 11 95  1  0  0  0
 12 13  2  0  0  0
 12 96  1  0  0  0
 13 14  1  0  0  0
 13 31  1  0  0  0
 14 15  2  0  0  0
 14 97  1  0  0  0
 15 98  1  0  0  0
 16 17  2  0  0  0
 16 21  1  0  0  0
 16 31  1  0  0  0
 17 18  1  0  0  0
 17 99  1  0  0  0
 18 19  2  0  0  0
 18100  1  0  0  0
 19 20  1  0  0  0
 19 24  1  0  0  0
 20 21  2  0  0  0
 20101  1  0  0  0
 21 23  1  0  0  0
 22 28  1  0  0  0
 22 32  2  0  0  0
 26 27  1  0  0  0
 28102  1  0  0  0
 28103  1  0  0  0
 29104  1  0  0  0
 29105  1  0  0  0
 33 34  1  0  0  0
 33 66  1  0  0  0
 33 70  2  0  0  0
 34 36  1  0  0  0
 34 59  1  0  0  0
 34106  1  0  0  0
 35 44  2  0  0  0
 35 45  1  0  0  0
 35 68  1  0  0  0
 36 56  1  0  0  0
 36107  1  0  0  0
 37 39  1  0  0  0
 37 47  1  0  0  0
 37 66  1  0  0  0
 37108  1  0  0  0
 38 43  2  0  0  0
 38 46  1  0  0  0
 38 47  1  0  0  0
 39 64  1  0  0  0
 39 67  2  0  0  0
 40 52  1  0  0  0
 40 53  2  0  0  0
 40 58  1  0  0  0
 41109  1  0  0  0
 41110  1  0  0  0
 41111  1  0  0  0
 41 48  1  0  0  0
 42 43  1  0  0  0
 42 66  1  0  0  0
 42112  1  0  0  0
 42113  1  0  0  0
 43 44  1  0  0  0
 44114  1  0  0  0
 45 46  2  0  0  0
 45115  1  0  0  0
 46116  1  0  0  0
 47117  1  0  0  0
 47118  1  0  0  0
 48 56  1  0  0  0
 48 65  1  0  0  0
 48119  1  0  0  0
 49 50  1  0  0  0
 49 53  1  0  0  0
 49 64  1  0  0  0
 49120  1  0  0  0
 50 51  1  0  0  0
 50121  1  0  0  0
 50122  1  0  0  0
 51 52  1  0  0  0
 51123  1  0  0  0
 51124  1  0  0  0
 52125  1  0  0  0
 52126  1  0  0  0
 53 54  1  0  0  0
 54 55  2  0  0  0
 54127  1  0  0  0
 55 57  1  0  0  0
 55128  1  0  0  0
 56 69  2  0  0  0
 57 58  2  0  0  0
 57129  1  0  0  0
 58130  1  0  0  0
 59 60  1  0  0  0
 59 61  1  0  0  0
 59 62  1  0  0  0
 60131  1  0  0  0
 60132  1  0  0  0
 60133  1  0  0  0
 61134  1  0  0  0
 61135  1  0  0  0
 61136  1  0  0  0
 62137  1  0  0  0
 62138  1  0  0  0
 62139  1  0  0  0
 63 65  1  0  0  0
 63140  1  0  0  0
 63141  1  0  0  0
 63142  1  0  0  0
 64143  1  0  0  0
 65144  1  0  0  0
 68 83  1  0  0  0
 71 72  1  0  0  0
 71 73  2  0  0  0
 71 80  1  0  0  0
 72 74  2  0  0  0
 72 83  1  0  0  0
 73 81  1  0  0  0
 73 84  1  0  0  0
 74 82  1  0  0  0
 74 84  1  0  0  0
 75 77  1  0  0  0
 75 79  1  0  0  0
 75145  1  0  0  0
 75146  1  0  0  0
 76 78  1  0  0  0
 76 79  1  0  0  0
 76147  1  0  0  0
 76148  1  0  0  0
 77 85  1  0  0  0
 77149  1  0  0  0
 77150  1  0  0  0
 78 85  1  0  0  0
 78151  1  0  0  0
 78152  1  0  0  0
 79 84  1  0  0  0
 79153  1  0  0  0
 80154  1  0  0  0
 80155  1  0  0  0
 80156  1  0  0  0
 81157  1  0  0  0
 81158  1  0  0  0
 81159  1  0  0  0
 82160  1  0  0  0
 82161  1  0  0  0
 82162  1  0  0  0
 83163  1  0  0  0
 83164  1  0  0  0
M  ISO  4   1 100  68 101  83 101  85 100
M  END
> <chiral flag>
0

> <version>
0

> <s_m_source_file>
/data/baiqing/PycharmProjects/Reinvent-master-3.2/result/LINK_invent/BTK/process_docking_weight1_custom_sum_contain_oxygen_bond_distance_aromatic_linkinvent_7_9_3/rearranged_h_0174.sdf

> <i_m_source_file_index>
73

> <r_mmod_Potential_Energy-OPLS-2005>
647.111938476562

> <r_mmod_Stretch_Energy-OPLS-2005>
211.496994018555

> <r_mmod_Bend_Energy-OPLS-2005>
285.943939208984

> <r_mmod_Torsional_Energy-OPLS-2005>
340.594024658203

> <r_mmod_Improper_Torsional_Energy-OPLS-2005>
16.4128189086914

> <r_mmod_Van_der_Waal_Energy-OPLS-2005>
122.040428161621

> <r_mmod_Electrostatic_Energy-OPLS-2005>
-292.825622558594

> <r_mmod_Solvation_Energy-OPLS-2005>
-206.168899536133

> <b_mmod_Minimization_Converged-OPLS-2005>
0

> <r_mmod_RMS_Derivative-OPLS-2005>
2.05293893814087

$$$$
75
                    3D
 Structure written by MMmdl.
168177  0  0  1  0            999 V2000
  -30.6909  -14.6158   20.5297 C   0  0  0  0  0  0
  -30.4258  -12.3861   19.4517 C   0  0  0  0  0  0
  -29.4979  -12.5015   18.2226 C   0  0  0  0  0  0
  -28.0191  -12.3651   18.6334 C   0  0  0  0  0  0
  -27.6524  -13.2307   19.8704 C   0  0  2  0  0  0
  -28.7023  -13.1000   20.9979 C   0  0  0  0  0  0
  -25.2526  -13.8204   20.5697 C   0  0  0  0  0  0
  -24.1811  -13.0443   20.9201 C   0  0  0  0  0  0
  -24.6410  -11.6925   20.8766 C   0  0  0  0  0  0
  -23.9077  -10.4296   21.0409 C   0  0  0  0  0  0
  -24.3627   -9.4193   21.9190 C   0  0  0  0  0  0
  -23.6301   -8.2235   22.0742 C   0  0  0  0  0  0
  -22.4283   -8.0286   21.3519 C   0  0  0  0  0  0
  -21.9934   -9.0249   20.4622 C   0  0  0  0  0  0
  -22.7259  -10.2140   20.3041 C   0  0  0  0  0  0
  -21.6842   -6.0739   22.5278 C   0  0  0  0  0  0
  -21.3999   -6.5629   23.8213 C   0  0  0  0  0  0
  -21.3653   -5.6784   24.9169 C   0  0  0  0  0  0
  -21.6055   -4.3050   24.7218 C   0  0  0  0  0  0
  -21.8822   -3.8151   23.4341 C   0  0  0  0  0  0
  -21.9176   -4.6976   22.3397 C   0  0  0  0  0  0
  -22.7823  -13.5222   21.1860 C   0  0  0  0  0  0
  -22.1640   -4.2158   21.0972 F   0  0  0  0  0  0
  -21.5657   -3.4529   25.7730 F   0  0  0  0  0  0
  -30.0158  -13.4247   20.4242 N   0  0  0  0  0  0
  -26.2997  -12.9426   20.3398 N   0  0  0  0  0  0
  -25.9355  -11.6558   20.5828 N   0  0  0  0  0  0
  -22.0461  -12.8198   22.0406 N   0  0  0  0  0  0
  -25.4209  -15.1923   20.4061 N   0  0  0  0  0  0
  -31.8334  -14.7336   20.0779 O   0  0  0  0  0  0
  -21.6643   -6.8879   21.4239 O   0  0  0  0  0  0
  -22.3485  -14.5513   20.6702 O   0  0  0  0  0  0
  -24.6291  -31.8601   23.2075 C   0  0  0  0  0  0
  -25.9150  -32.4783   23.8389 C   0  0  1  0  0  0
  -27.2128  -27.3209   20.1365 C   0  0  0  0  0  0
  -25.5986  -33.8585   24.2347 N   0  0  0  0  0  0
  -23.4223  -30.4860   21.5487 C   0  0  2  0  0  0
  -24.8670  -28.9437   20.1116 C   0  0  0  0  0  0
  -22.7492  -29.4650   22.4950 C   0  0  0  0  0  0
  -18.0290  -28.1416   22.8498 C   0  0  0  0  0  0
  -24.1463  -36.7249   23.2650 C   0  0  0  0  0  0
  -25.9621  -30.7941   21.3750 C   0  0  0  0  0  0
  -26.0361  -29.4229   20.7167 C   0  0  0  0  0  0
  -27.2193  -28.6242   20.7155 C   0  0  0  0  0  0
  -26.0215  -26.8915   19.5154 C   0  0  0  0  0  0
  -24.8611  -27.6822   19.4997 C   0  0  0  0  0  0
  -23.6371  -29.8250   20.1624 C   0  0  0  0  0  0
  -25.4089  -36.3066   24.0357 C   0  0  1  0  0  0
  -20.5890  -28.3713   23.1274 C   0  0  2  0  0  0
  -20.6779  -26.9439   22.5395 C   0  0  0  0  0  0
  -19.5729  -26.6409   21.5222 C   0  0  0  0  0  0
  -18.1920  -26.7963   22.1634 C   0  0  0  0  0  0
  -19.1552  -28.8882   23.2888 C   0  0  0  0  0  0
  -18.9468  -30.1490   23.8893 C   0  0  0  0  0  0
  -17.6462  -30.6628   24.0578 C   0  0  0  0  0  0
  -25.9044  -34.9446   23.5151 C   0  0  0  0  0  0
  -16.5356  -29.9107   23.6367 C   0  0  0  0  0  0
  -16.7279  -28.6537   23.0381 C   0  0  0  0  0  0
  -26.4551  -31.6576   25.0747 C   0  0  0  0  0  0
  -25.3807  -31.3615   26.1474 C   0  0  0  0  0  0
  -27.0468  -30.3033   24.6190 C   0  0  0  0  0  0
  -27.6127  -32.4298   25.7498 C   0  0  0  0  0  0
  -27.5554  -37.1763   24.8484 C   0  0  0  0  0  0
  -21.4204  -29.3057   22.3665 N   0  0  0  0  0  0
  -26.4261  -37.3774   23.9454 N   0  0  0  0  0  0
  -24.6906  -31.0615   22.1022 N   0  0  0  0  0  0
  -23.4207  -28.8208   23.3058 O   0  0  0  0  0  0
  -28.2867  -26.4225   20.1791 O   0  0  0  0  0  0
  -26.5563  -34.8912   22.4679 O   0  0  0  0  0  0
  -23.5456  -32.1381   23.7398 O   0  0  0  0  0  0
  -28.1711  -23.0606   19.5447 C   0  0  0  0  0  0
  -28.3085  -21.6268   19.4818 C   0  0  0  0  0  0
  -28.5375  -23.7699   20.7270 C   0  0  0  0  0  0
  -28.8211  -20.9019   20.6014 C   0  0  0  0  0  0
  -29.1423  -22.9594   21.7379 C   0  0  0  0  0  0
  -29.9992  -17.7732   22.3769 C   0  0  0  0  0  0
  -30.5532  -16.3361   22.2694 C   0  0  0  0  0  0
  -29.5738  -16.8773   20.2037 C   0  0  0  0  0  0
  -29.7790  -18.2642   20.9415 C   0  0  1  0  0  0
  -27.5370  -23.8245   18.3889 C   0  0  0  0  0  0
  -29.6591  -23.5644   23.0360 C   0  0  0  0  0  0
  -26.3313  -20.5137   18.2754 C   0  0  0  0  0  0
  -27.8325  -20.8517   18.2465 C   0  0  0  0  0  0
  -28.0559  -25.2529   21.0552 C   0  0  0  0  0  0
  -28.6062  -19.3427   20.7954 C   0  0  0  0  0  0
  -29.2670  -21.5992   21.6761 N   0  0  0  0  0  0
  -30.0374  -15.7207   21.0375 N   0  0  0  0  0  0
  -31.4658  -12.4893   19.1391 H   0  0  0  0  0  0
  -30.3505  -11.3928   19.8967 H   0  0  0  0  0  0
  -29.7478  -11.7317   17.4902 H   0  0  0  0  0  0
  -29.6570  -13.4606   17.7244 H   0  0  0  0  0  0
  -27.8278  -11.3127   18.8444 H   0  0  0  0  0  0
  -27.3689  -12.6194   17.7947 H   0  0  0  0  0  0
  -27.6676  -14.2676   19.5398 H   0  0  0  0  0  0
  -28.7097  -12.0856   21.3986 H   0  0  0  0  0  0
  -28.4607  -13.7562   21.8358 H   0  0  0  0  0  0
  -25.2761   -9.5687   22.4767 H   0  0  0  0  0  0
  -24.0016   -7.4615   22.7458 H   0  0  0  0  0  0
  -21.0873   -8.8733   19.8918 H   0  0  0  0  0  0
  -22.3691  -10.9669   19.6142 H   0  0  0  0  0  0
  -21.1966   -7.6132   23.9726 H   0  0  0  0  0  0
  -21.1485   -6.0496   25.9064 H   0  0  0  0  0  0
  -22.0621   -2.7621   23.2824 H   0  0  0  0  0  0
  -22.4073  -11.9849   22.4782 H   0  0  0  0  0  0
  -21.1061  -13.1187   22.2579 H   0  0  0  0  0  0
  -24.6586  -15.8509   20.5181 H   0  0  0  0  0  0
  -26.2756  -15.6284   20.0866 H   0  0  0  0  0  0
  -26.7236  -32.5443   23.1146 H   0  0  0  0  0  0
  -25.0224  -33.9750   25.0559 H   0  0  0  0  0  0
  -22.7152  -31.3048   21.4065 H   0  0  0  0  0  0
  -23.3782  -35.9526   23.3268 H   0  0  0  0  0  0
  -24.3551  -36.8917   22.2077 H   0  0  0  0  0  0
  -23.7153  -37.6411   23.6692 H   0  0  0  0  0  0
  -26.0847  -31.5549   20.6023 H   0  0  0  0  0  0
  -26.8485  -30.8478   21.9971 H   0  0  0  0  0  0
  -28.1166  -28.9826   21.1964 H   0  0  0  0  0  0
  -25.9598  -25.9102   19.0753 H   0  0  0  0  0  0
  -23.9581  -27.3048   19.0379 H   0  0  0  0  0  0
  -23.7545  -30.6034   19.4070 H   0  0  0  0  0  0
  -22.7584  -29.2531   19.8623 H   0  0  0  0  0  0
  -25.1262  -36.1905   25.0843 H   0  0  0  0  0  0
  -20.9972  -28.3282   24.1396 H   0  0  0  0  0  0
  -20.5711  -26.2329   23.3616 H   0  0  0  0  0  0
  -21.6638  -26.7485   22.1139 H   0  0  0  0  0  0
  -19.6881  -25.6319   21.1256 H   0  0  0  0  0  0
  -19.6674  -27.3222   20.6758 H   0  0  0  0  0  0
  -17.4194  -26.6784   21.4024 H   0  0  0  0  0  0
  -18.0280  -26.0098   22.9014 H   0  0  0  0  0  0
  -19.7946  -30.7339   24.2235 H   0  0  0  0  0  0
  -17.5024  -31.6303   24.5179 H   0  0  0  0  0  0
  -15.5365  -30.3016   23.7716 H   0  0  0  0  0  0
  -15.8676  -28.0870   22.7081 H   0  0  0  0  0  0
  -24.6055  -30.6905   25.7759 H   0  0  0  0  0  0
  -24.8915  -32.2726   26.4921 H   0  0  0  0  0  0
  -25.8161  -30.8779   27.0230 H   0  0  0  0  0  0
  -26.3071  -29.6690   24.1304 H   0  0  0  0  0  0
  -27.4335  -29.7364   25.4669 H   0  0  0  0  0  0
  -27.8835  -30.4401   23.9340 H   0  0  0  0  0  0
  -27.2824  -33.3676   26.1964 H   0  0  0  0  0  0
  -28.3979  -32.6713   25.0325 H   0  0  0  0  0  0
  -28.0751  -31.8481   26.5482 H   0  0  0  0  0  0
  -28.2542  -38.0087   24.7584 H   0  0  0  0  0  0
  -28.1088  -36.2623   24.6255 H   0  0  0  0  0  0
  -27.2278  -37.1330   25.8887 H   0  0  0  0  0  0
  -20.9409  -29.8752   21.6828 H   0  0  0  0  0  0
  -26.0136  -38.2840   24.1507 H   0  0  0  0  0  0
  -30.6627  -18.4314   22.9414 H   0  0  0  0  0  0
  -29.0538  -17.7413   22.9189 H   0  0  0  0  0  0
  -30.2834  -15.7388   23.1428 H   0  0  0  0  0  0
  -31.6455  -16.3752   22.2357 H   0  0  0  0  0  0
  -30.0854  -16.8909   19.2364 H   0  0  0  0  0  0
  -28.5184  -16.7119   19.9859 H   0  0  0  0  0  0
  -30.7078  -18.7031   20.5755 H   0  0  0  0  0  0
  -27.8070  -23.4412   17.4094 H   0  0  0  0  0  0
  -27.8541  -24.8641   18.3671 H   0  0  0  0  0  0
  -26.4510  -23.7885   18.4790 H   0  0  0  0  0  0
  -28.8353  -23.9105   23.6609 H   0  0  0  0  0  0
  -30.3137  -24.4099   22.8237 H   0  0  0  0  0  0
  -30.2352  -22.8483   23.6236 H   0  0  0  0  0  0
  -26.0436  -19.9657   17.3773 H   0  0  0  0  0  0
  -25.7153  -21.4124   18.3190 H   0  0  0  0  0  0
  -26.0653  -19.8939   19.1310 H   0  0  0  0  0  0
  -28.4245  -19.9442   18.1289 H   0  0  0  0  0  0
  -28.0598  -21.3944   17.3321 H   0  0  0  0  0  0
  -28.4638  -25.5607   22.0147 H   0  0  0  0  0  0
  -26.9888  -25.1479   21.2622 H   0  0  0  0  0  0
  -27.9569  -18.9822   20.0046 H   0  0  0  0  0  0
  -27.9584  -19.2483   21.6674 H   0  0  0  0  0  0
  1 25  1  0  0  0
  1 30  2  0  0  0
  1 87  1  0  0  0
  2  3  1  0  0  0
  2 25  1  0  0  0
  2 88  1  0  0  0
  2 89  1  0  0  0
  3  4  1  0  0  0
  3 90  1  0  0  0
  3 91  1  0  0  0
  4  5  1  0  0  0
  4 92  1  0  0  0
  4 93  1  0  0  0
  5  6  1  0  0  0
  5 26  1  0  0  0
  5 94  1  0  0  0
  6 25  1  0  0  0
  6 95  1  0  0  0
  6 96  1  0  0  0
  7  8  2  0  0  0
  7 26  1  0  0  0
  7 29  1  0  0  0
  8  9  1  0  0  0
  8 22  1  0  0  0
  9 10  1  0  0  0
  9 27  2  0  0  0
 10 11  2  0  0  0
 10 15  1  0  0  0
 11 12  1  0  0  0
 11 97  1  0  0  0
 12 13  2  0  0  0
 12 98  1  0  0  0
 13 14  1  0  0  0
 13 31  1  0  0  0
 14 15  2  0  0  0
 14 99  1  0  0  0
 15100  1  0  0  0
 16 17  2  0  0  0
 16 21  1  0  0  0
 16 31  1  0  0  0
 17 18  1  0  0  0
 17101  1  0  0  0
 18 19  2  0  0  0
 18102  1  0  0  0
 19 20  1  0  0  0
 19 24  1  0  0  0
 20 21  2  0  0  0
 20103  1  0  0  0
 21 23  1  0  0  0
 22 28  1  0  0  0
 22 32  2  0  0  0
 26 27  1  0  0  0
 28104  1  0  0  0
 28105  1  0  0  0
 29106  1  0  0  0
 29107  1  0  0  0
 33 34  1  0  0  0
 33 66  1  0  0  0
 33 70  2  0  0  0
 34 36  1  0  0  0
 34 59  1  0  0  0
 34108  1  0  0  0
 35 44  2  0  0  0
 35 45  1  0  0  0
 35 68  1  0  0  0
 36 56  1  0  0  0
 36109  1  0  0  0
 37 39  1  0  0  0
 37 47  1  0  0  0
 37 66  1  0  0  0
 37110  1  0  0  0
 38 43  2  0  0  0
 38 46  1  0  0  0
 38 47  1  0  0  0
 39 64  1  0  0  0
 39 67  2  0  0  0
 40 52  1  0  0  0
 40 53  2  0  0  0
 40 58  1  0  0  0
 41111  1  0  0  0
 41112  1  0  0  0
 41113  1  0  0  0
 41 48  1  0  0  0
 42 43  1  0  0  0
 42 66  1  0  0  0
 42114  1  0  0  0
 42115  1  0  0  0
 43 44  1  0  0  0
 44116  1  0  0  0
 45 46  2  0  0  0
 45117  1  0  0  0
 46118  1  0  0  0
 47119  1  0  0  0
 47120  1  0  0  0
 48 56  1  0  0  0
 48 65  1  0  0  0
 48121  1  0  0  0
 49 50  1  0  0  0
 49 53  1  0  0  0
 49 64  1  0  0  0
 49122  1  0  0  0
 50 51  1  0  0  0
 50123  1  0  0  0
 50124  1  0  0  0
 51 52  1  0  0  0
 51125  1  0  0  0
 51126  1  0  0  0
 52127  1  0  0  0
 52128  1  0  0  0
 53 54  1  0  0  0
 54 55  2  0  0  0
 54129  1  0  0  0
 55 57  1  0  0  0
 55130  1  0  0  0
 56 69  2  0  0  0
 57 58  2  0  0  0
 57131  1  0  0  0
 58132  1  0  0  0
 59 60  1  0  0  0
 59 61  1  0  0  0
 59 62  1  0  0  0
 60133  1  0  0  0
 60134  1  0  0  0
 60135  1  0  0  0
 61136  1  0  0  0
 61137  1  0  0  0
 61138  1  0  0  0
 62139  1  0  0  0
 62140  1  0  0  0
 62141  1  0  0  0
 63 65  1  0  0  0
 63142  1  0  0  0
 63143  1  0  0  0
 63144  1  0  0  0
 64145  1  0  0  0
 65146  1  0  0  0
 68 84  1  0  0  0
 71 72  2  0  0  0
 71 73  1  0  0  0
 71 80  1  0  0  0
 72 74  1  0  0  0
 72 83  1  0  0  0
 73 75  2  0  0  0
 73 84  1  0  0  0
 74 85  1  0  0  0
 74 86  2  0  0  0
 75 81  1  0  0  0
 75 86  1  0  0  0
 76 77  1  0  0  0
 76 79  1  0  0  0
 76147  1  0  0  0
 76148  1  0  0  0
 77 87  1  0  0  0
 77149  1  0  0  0
 77150  1  0  0  0
 78 79  1  0  0  0
 78 87  1  0  0  0
 78151  1  0  0  0
 78152  1  0  0  0
 79 85  1  0  0  0
 79153  1  0  0  0
 80154  1  0  0  0
 80155  1  0  0  0
 80156  1  0  0  0
 81157  1  0  0  0
 81158  1  0  0  0
 81159  1  0  0  0
 82 83  1  0  0  0
 82160  1  0  0  0
 82161  1  0  0  0
 82162  1  0  0  0
 83163  1  0  0  0
 83164  1  0  0  0
 84165  1  0  0  0
 84166  1  0  0  0
 85167  1  0  0  0
 85168  1  0  0  0
M  ISO  4   1 100  68 101  84 101  87 100
M  END
> <chiral flag>
0

> <version>
0

> <s_m_source_file>
/data/baiqing/PycharmProjects/Reinvent-master-3.2/result/LINK_invent/BTK/process_docking_weight1_custom_sum_contain_oxygen_bond_distance_aromatic_linkinvent_7_9_3/rearranged_h_0174.sdf

> <i_m_source_file_index>
74

> <r_mmod_Potential_Energy-OPLS-2005>
249.601379394531

> <r_mmod_Stretch_Energy-OPLS-2005>
90.1465377807617

> <r_mmod_Bend_Energy-OPLS-2005>
172.711517333984

> <r_mmod_Torsional_Energy-OPLS-2005>
388.162200927734

> <r_mmod_Improper_Torsional_Energy-OPLS-2005>
10.5998477935791

> <r_mmod_Van_der_Waal_Energy-OPLS-2005>
146.893844604492

> <r_mmod_Electrostatic_Energy-OPLS-2005>
-399.709777832031

> <r_mmod_Solvation_Energy-OPLS-2005>
-207.5537109375

> <b_mmod_Minimization_Converged-OPLS-2005>
0

> <r_mmod_RMS_Derivative-OPLS-2005>
4.08664798736572

$$$$
76
                    3D
 Structure written by MMmdl.
156164  0  0  1  0            999 V2000
  -30.4188  -15.3128   20.3649 C   0  0  0  0  0  0
  -30.4381  -12.8450   19.5224 C   0  0  0  0  0  0
  -29.5364  -12.5846   18.2888 C   0  0  0  0  0  0
  -28.0880  -12.2980   18.7209 C   0  0  0  0  0  0
  -27.6087  -13.2785   19.8193 C   0  0  2  0  0  0
  -28.6416  -13.4746   20.9494 C   0  0  0  0  0  0
  -25.2380  -13.8251   20.5750 C   0  0  0  0  0  0
  -24.1739  -13.0436   20.9266 C   0  0  0  0  0  0
  -24.6400  -11.6934   20.8766 C   0  0  0  0  0  0
  -23.9096  -10.4292   21.0407 C   0  0  0  0  0  0
  -24.3638   -9.4205   21.9185 C   0  0  0  0  0  0
  -23.6305   -8.2244   22.0755 C   0  0  0  0  0  0
  -22.4287   -8.0284   21.3544 C   0  0  0  0  0  0
  -21.9929   -9.0260   20.4645 C   0  0  0  0  0  0
  -22.7266  -10.2134   20.3055 C   0  0  0  0  0  0
  -21.6857   -6.0739   22.5278 C   0  0  0  0  0  0
  -21.4017   -6.5642   23.8212 C   0  0  0  0  0  0
  -21.3660   -5.6794   24.9174 C   0  0  0  0  0  0
  -21.6044   -4.3056   24.7224 C   0  0  0  0  0  0
  -21.8818   -3.8149   23.4345 C   0  0  0  0  0  0
  -21.9193   -4.6966   22.3402 C   0  0  0  0  0  0
  -22.7756  -13.5185   21.1908 C   0  0  0  0  0  0
  -22.1662   -4.2151   21.0979 F   0  0  0  0  0  0
  -21.5627   -3.4539   25.7737 F   0  0  0  0  0  0
  -29.8634  -13.9973   20.3144 N   0  0  0  0  0  0
  -26.2807  -12.9531   20.3213 N   0  0  0  0  0  0
  -25.9336  -11.6633   20.5717 N   0  0  0  0  0  0
  -22.0416  -12.8165   22.0462 N   0  0  0  0  0  0
  -25.3999  -15.1987   20.4172 N   0  0  0  0  0  0
  -31.6465  -15.3058   20.1885 O   0  0  0  0  0  0
  -21.6645   -6.8884   21.4242 O   0  0  0  0  0  0
  -22.3436  -14.5486   20.6747 O   0  0  0  0  0  0
  -24.6661  -31.8204   23.1678 C   0  0  0  0  0  0
  -25.9328  -32.4572   23.8153 C   0  0  1  0  0  0
  -27.2188  -26.8946   20.1923 C   0  0  0  0  0  0
  -25.5982  -33.8387   24.2056 N   0  0  0  0  0  0
  -23.4825  -30.4306   21.5183 C   0  0  2  0  0  0
  -24.9363  -28.8100   20.1167 C   0  0  0  0  0  0
  -22.7681  -29.4424   22.4776 C   0  0  0  0  0  0
  -18.0324  -28.1411   22.8460 C   0  0  0  0  0  0
  -24.1494  -36.7201   23.2647 C   0  0  0  0  0  0
  -26.0539  -30.6169   21.4025 C   0  0  0  0  0  0
  -26.1225  -29.2023   20.7495 C   0  0  0  0  0  0
  -27.2594  -28.2684   20.7578 C   0  0  0  0  0  0
  -26.0015  -26.6628   19.5119 C   0  0  0  0  0  0
  -24.9030  -27.5612   19.4765 C   0  0  0  0  0  0
  -23.7248  -29.7430   20.1466 C   0  0  0  0  0  0
  -25.4136  -36.2957   24.0296 C   0  0  1  0  0  0
  -20.5949  -28.3758   23.1179 C   0  0  2  0  0  0
  -20.6800  -26.9436   22.5401 C   0  0  0  0  0  0
  -19.5776  -26.6376   21.5212 C   0  0  0  0  0  0
  -18.1957  -26.7942   22.1618 C   0  0  0  0  0  0
  -19.1586  -28.8906   23.2804 C   0  0  0  0  0  0
  -18.9496  -30.1493   23.8843 C   0  0  0  0  0  0
  -17.6489  -30.6598   24.0552 C   0  0  0  0  0  0
  -25.9103  -34.9341   23.5000 C   0  0  0  0  0  0
  -16.5380  -29.9085   23.6344 C   0  0  0  0  0  0
  -16.7305  -28.6507   23.0360 C   0  0  0  0  0  0
  -26.4567  -31.6529   25.0694 C   0  0  0  0  0  0
  -25.3683  -31.3791   26.1343 C   0  0  0  0  0  0
  -27.0470  -30.2890   24.6455 C   0  0  0  0  0  0
  -27.6049  -32.4348   25.7504 C   0  0  0  0  0  0
  -27.5570  -37.1756   24.8464 C   0  0  0  0  0  0
  -21.4348  -29.3044   22.3525 N   0  0  0  0  0  0
  -26.4278  -37.3697   23.9408 N   0  0  0  0  0  0
  -24.7559  -30.9834   22.0832 N   0  0  0  0  0  0
  -23.4212  -28.7996   23.3032 O   0  0  0  0  0  0
  -28.2145  -25.7711   20.2386 O   0  0  0  0  0  0
  -26.5716  -34.8883   22.4597 O   0  0  0  0  0  0
  -23.5724  -32.1190   23.6751 O   0  0  0  0  0  0
  -29.7860  -19.0316   21.7621 C   0  0  0  0  0  0
  -28.9386  -22.7224   20.1563 C   0  0  0  0  0  0
  -29.9152  -18.2575   20.4067 C   0  0  2  0  0  0
  -28.6921  -20.9344   20.5253 C   0  0  1  0  0  0
  -29.0704  -19.5249   19.6203 C   0  0  2  0  0  0
  -27.8052  -18.9619   18.9549 C   0  0  0  0  0  0
  -27.9394  -20.8053   23.7993 C   0  0  0  0  0  0
  -27.8846  -24.1373   20.3161 C   0  0  0  0  0  0
  -29.2150  -21.1241   23.0043 C   0  0  0  0  0  0
  -29.2952  -20.3418   21.7634 N   0  0  0  0  0  0
  -29.6466  -16.5902   20.3971 N   0  0  0  0  0  0
  -30.1510  -18.4552   22.7912 O   0  0  0  0  0  0
  -30.0577  -23.0069   19.7199 O   0  0  0  0  0  0
  -31.4522  -13.0617   19.1841 H   0  0  0  0  0  0
  -30.5215  -11.9488   20.1394 H   0  0  0  0  0  0
  -29.9252  -11.7532   17.6993 H   0  0  0  0  0  0
  -29.5552  -13.4591   17.6366 H   0  0  0  0  0  0
  -28.0548  -11.2774   19.1039 H   0  0  0  0  0  0
  -27.4179  -12.3246   17.8607 H   0  0  0  0  0  0
  -27.5159  -14.2391   19.3112 H   0  0  0  0  0  0
  -28.8239  -12.5470   21.4940 H   0  0  0  0  0  0
  -28.2726  -14.1971   21.6792 H   0  0  0  0  0  0
  -25.2779   -9.5680   22.4766 H   0  0  0  0  0  0
  -24.0009   -7.4636   22.7477 H   0  0  0  0  0  0
  -21.0859   -8.8784   19.8951 H   0  0  0  0  0  0
  -22.3724  -10.9676   19.6168 H   0  0  0  0  0  0
  -21.2013   -7.6150   23.9717 H   0  0  0  0  0  0
  -21.1481   -6.0524   25.9077 H   0  0  0  0  0  0
  -22.0597   -2.7611   23.2845 H   0  0  0  0  0  0
  -22.4052  -11.9837   22.4853 H   0  0  0  0  0  0
  -21.1026  -13.1169   22.2664 H   0  0  0  0  0  0
  -24.6238  -15.8431   20.5232 H   0  0  0  0  0  0
  -26.2302  -15.6385   20.0446 H   0  0  0  0  0  0
  -26.7400  -32.5101   23.0867 H   0  0  0  0  0  0
  -25.0073  -33.9457   25.0170 H   0  0  0  0  0  0
  -22.7976  -31.2632   21.3443 H   0  0  0  0  0  0
  -23.3768  -35.9517   23.3274 H   0  0  0  0  0  0
  -24.3569  -36.8886   22.2069 H   0  0  0  0  0  0
  -23.7241  -37.6373   23.6731 H   0  0  0  0  0  0
  -26.2354  -31.3551   20.6203 H   0  0  0  0  0  0
  -26.9134  -30.6773   22.0582 H   0  0  0  0  0  0
  -28.1593  -28.5709   21.2746 H   0  0  0  0  0  0
  -25.8662  -25.7134   19.0152 H   0  0  0  0  0  0
  -24.0034  -27.2547   18.9606 H   0  0  0  0  0  0
  -23.8856  -30.5099   19.3881 H   0  0  0  0  0  0
  -22.8334  -29.2004   19.8268 H   0  0  0  0  0  0
  -25.1335  -36.1747   25.0786 H   0  0  0  0  0  0
  -21.0032  -28.3371   24.1305 H   0  0  0  0  0  0
  -20.5680  -26.2377   23.3645 H   0  0  0  0  0  0
  -21.6664  -26.7408   22.1209 H   0  0  0  0  0  0
  -19.6934  -25.6273   21.1277 H   0  0  0  0  0  0
  -19.6718  -27.3156   20.6718 H   0  0  0  0  0  0
  -17.4224  -26.6680   21.4023 H   0  0  0  0  0  0
  -18.0352  -26.0099   22.9029 H   0  0  0  0  0  0
  -19.7973  -30.7321   24.2191 H   0  0  0  0  0  0
  -17.5043  -31.6274   24.5165 H   0  0  0  0  0  0
  -15.5378  -30.2970   23.7702 H   0  0  0  0  0  0
  -15.8705  -28.0809   22.7105 H   0  0  0  0  0  0
  -24.5885  -30.7120   25.7653 H   0  0  0  0  0  0
  -24.8849  -32.2995   26.4628 H   0  0  0  0  0  0
  -25.7904  -30.9053   27.0214 H   0  0  0  0  0  0
  -26.3146  -29.6555   24.1442 H   0  0  0  0  0  0
  -27.3966  -29.7271   25.5126 H   0  0  0  0  0  0
  -27.9100  -30.4061   23.9899 H   0  0  0  0  0  0
  -27.2612  -33.3700   26.1937 H   0  0  0  0  0  0
  -28.3937  -32.6829   25.0390 H   0  0  0  0  0  0
  -28.0632  -31.8571   26.5541 H   0  0  0  0  0  0
  -28.2559  -38.0077   24.7514 H   0  0  0  0  0  0
  -28.1093  -36.2601   24.6287 H   0  0  0  0  0  0
  -27.2283  -37.1391   25.8864 H   0  0  0  0  0  0
  -20.9611  -29.8733   21.6647 H   0  0  0  0  0  0
  -26.0122  -38.2751   24.1425 H   0  0  0  0  0  0
  -30.9640  -18.3594   20.1261 H   0  0  0  0  0  0
  -27.6201  -20.8709   20.7142 H   0  0  0  0  0  0
  -29.7178  -19.8594   18.8083 H   0  0  0  0  0  0
  -27.0976  -18.5951   19.6991 H   0  0  0  0  0  0
  -28.0479  -18.1323   18.2900 H   0  0  0  0  0  0
  -27.2997  -19.7236   18.3605 H   0  0  0  0  0  0
  -27.8983  -21.3949   24.7157 H   0  0  0  0  0  0
  -27.8968  -19.7536   24.0848 H   0  0  0  0  0  0
  -27.0428  -21.0326   23.2218 H   0  0  0  0  0  0
  -27.3799  -23.9973   21.2719 H   0  0  0  0  0  0
  -27.1072  -23.9659   19.5729 H   0  0  0  0  0  0
  -30.0915  -20.9247   23.6237 H   0  0  0  0  0  0
  -29.2550  -22.1921   22.7964 H   0  0  0  0  0  0
  -28.6623  -16.3924   20.4894 H   0  0  0  0  0  0
  1 25  1  0  0  0
  1 30  2  0  0  0
  1 81  1  0  0  0
  2  3  1  0  0  0
  2 25  1  0  0  0
  2 84  1  0  0  0
  2 85  1  0  0  0
  3  4  1  0  0  0
  3 86  1  0  0  0
  3 87  1  0  0  0
  4  5  1  0  0  0
  4 88  1  0  0  0
  4 89  1  0  0  0
  5  6  1  0  0  0
  5 26  1  0  0  0
  5 90  1  0  0  0
  6 25  1  0  0  0
  6 91  1  0  0  0
  6 92  1  0  0  0
  7  8  2  0  0  0
  7 26  1  0  0  0
  7 29  1  0  0  0
  8  9  1  0  0  0
  8 22  1  0  0  0
  9 10  1  0  0  0
  9 27  2  0  0  0
 10 11  2  0  0  0
 10 15  1  0  0  0
 11 12  1  0  0  0
 11 93  1  0  0  0
 12 13  2  0  0  0
 12 94  1  0  0  0
 13 14  1  0  0  0
 13 31  1  0  0  0
 14 15  2  0  0  0
 14 95  1  0  0  0
 15 96  1  0  0  0
 16 17  2  0  0  0
 16 21  1  0  0  0
 16 31  1  0  0  0
 17 18  1  0  0  0
 17 97  1  0  0  0
 18 19  2  0  0  0
 18 98  1  0  0  0
 19 20  1  0  0  0
 19 24  1  0  0  0
 20 21  2  0  0  0
 20 99  1  0  0  0
 21 23  1  0  0  0
 22 28  1  0  0  0
 22 32  2  0  0  0
 26 27  1  0  0  0
 28100  1  0  0  0
 28101  1  0  0  0
 29102  1  0  0  0
 29103  1  0  0  0
 33 34  1  0  0  0
 33 66  1  0  0  0
 33 70  2  0  0  0
 34 36  1  0  0  0
 34 59  1  0  0  0
 34104  1  0  0  0
 35 44  2  0  0  0
 35 45  1  0  0  0
 35 68  1  0  0  0
 36 56  1  0  0  0
 36105  1  0  0  0
 37 39  1  0  0  0
 37 47  1  0  0  0
 37 66  1  0  0  0
 37106  1  0  0  0
 38 43  2  0  0  0
 38 46  1  0  0  0
 38 47  1  0  0  0
 39 64  1  0  0  0
 39 67  2  0  0  0
 40 52  1  0  0  0
 40 53  2  0  0  0
 40 58  1  0  0  0
 41107  1  0  0  0
 41108  1  0  0  0
 41109  1  0  0  0
 41 48  1  0  0  0
 42 43  1  0  0  0
 42 66  1  0  0  0
 42110  1  0  0  0
 42111  1  0  0  0
 43 44  1  0  0  0
 44112  1  0  0  0
 45 46  2  0  0  0
 45113  1  0  0  0
 46114  1  0  0  0
 47115  1  0  0  0
 47116  1  0  0  0
 48 56  1  0  0  0
 48 65  1  0  0  0
 48117  1  0  0  0
 49 50  1  0  0  0
 49 53  1  0  0  0
 49 64  1  0  0  0
 49118  1  0  0  0
 50 51  1  0  0  0
 50119  1  0  0  0
 50120  1  0  0  0
 51 52  1  0  0  0
 51121  1  0  0  0
 51122  1  0  0  0
 52123  1  0  0  0
 52124  1  0  0  0
 53 54  1  0  0  0
 54 55  2  0  0  0
 54125  1  0  0  0
 55 57  1  0  0  0
 55126  1  0  0  0
 56 69  2  0  0  0
 57 58  2  0  0  0
 57127  1  0  0  0
 58128  1  0  0  0
 59 60  1  0  0  0
 59 61  1  0  0  0
 59 62  1  0  0  0
 60129  1  0  0  0
 60130  1  0  0  0
 60131  1  0  0  0
 61132  1  0  0  0
 61133  1  0  0  0
 61134  1  0  0  0
 62135  1  0  0  0
 62136  1  0  0  0
 62137  1  0  0  0
 63 65  1  0  0  0
 63138  1  0  0  0
 63139  1  0  0  0
 63140  1  0  0  0
 64141  1  0  0  0
 65142  1  0  0  0
 68 78  1  0  0  0
 71 73  1  0  0  0
 71 80  1  0  0  0
 71 82  2  0  0  0
 72 78  1  0  0  0
 72 83  2  0  0  0
 72 74  1  0  0  0
 73 75  1  0  0  0
 73 81  1  0  0  0
 73143  1  0  0  0
 74 75  1  0  0  0
 74 80  1  0  0  0
 74144  1  0  0  0
 75 76  1  0  0  0
 75145  1  0  0  0
 76146  1  0  0  0
 76147  1  0  0  0
 76148  1  0  0  0
 77 79  1  0  0  0
 77149  1  0  0  0
 77150  1  0  0  0
 77151  1  0  0  0
 78152  1  0  0  0
 78153  1  0  0  0
 79 80  1  0  0  0
 79154  1  0  0  0
 79155  1  0  0  0
 81156  1  0  0  0
M  ISO  4   1 100  68 101  78 101  81 100
M  END
> <chiral flag>
0

> <version>
0

> <s_m_source_file>
/data/baiqing/PycharmProjects/Reinvent-master-3.2/result/LINK_invent/BTK/process_docking_weight1_custom_sum_contain_oxygen_bond_distance_aromatic_linkinvent_7_9_3/rearranged_h_0174.sdf

> <i_m_source_file_index>
75

> <r_mmod_Potential_Energy-OPLS-2005>
1356.26147460938

> <r_mmod_Stretch_Energy-OPLS-2005>
628.785339355469

> <r_mmod_Bend_Energy-OPLS-2005>
489.303497314453

> <r_mmod_Torsional_Energy-OPLS-2005>
267.944702148438

> <r_mmod_Improper_Torsional_Energy-OPLS-2005>
4.61925888061523

> <r_mmod_Van_der_Waal_Energy-OPLS-2005>
101.248374938965

> <r_mmod_Electrostatic_Energy-OPLS-2005>
-387.378692626953

> <r_mmod_Solvation_Energy-OPLS-2005>
-257.677978515625

> <b_mmod_Minimization_Converged-OPLS-2005>
0

> <r_mmod_RMS_Derivative-OPLS-2005>
0.26621812582016

$$$$
77
                    3D
 Structure written by MMmdl.
161170  0  0  1  0            999 V2000
  -30.6531  -14.6948   20.5098 C   0  0  0  0  0  0
  -30.4294  -12.4338   19.4738 C   0  0  0  0  0  0
  -29.5087  -12.5136   18.2368 C   0  0  0  0  0  0
  -28.0343  -12.3394   18.6486 C   0  0  0  0  0  0
  -27.6462  -13.2294   19.8601 C   0  0  2  0  0  0
  -28.6897  -13.1331   20.9940 C   0  0  0  0  0  0
  -25.2525  -13.8204   20.5694 C   0  0  0  0  0  0
  -24.1799  -13.0452   20.9190 C   0  0  0  0  0  0
  -24.6389  -11.6929   20.8740 C   0  0  0  0  0  0
  -23.9072  -10.4303   21.0403 C   0  0  0  0  0  0
  -24.3622   -9.4216   21.9184 C   0  0  0  0  0  0
  -23.6298   -8.2250   22.0751 C   0  0  0  0  0  0
  -22.4280   -8.0283   21.3546 C   0  0  0  0  0  0
  -21.9919   -9.0251   20.4641 C   0  0  0  0  0  0
  -22.7242  -10.2137   20.3053 C   0  0  0  0  0  0
  -21.6856   -6.0740   22.5279 C   0  0  0  0  0  0
  -21.4010   -6.5638   23.8217 C   0  0  0  0  0  0
  -21.3662   -5.6785   24.9173 C   0  0  0  0  0  0
  -21.6044   -4.3055   24.7218 C   0  0  0  0  0  0
  -21.8815   -3.8144   23.4344 C   0  0  0  0  0  0
  -21.9190   -4.6964   22.3404 C   0  0  0  0  0  0
  -22.7818  -13.5232   21.1862 C   0  0  0  0  0  0
  -22.1649   -4.2156   21.0982 F   0  0  0  0  0  0
  -21.5644   -3.4539   25.7734 F   0  0  0  0  0  0
  -29.9942  -13.4878   20.4196 N   0  0  0  0  0  0
  -26.2959  -12.9406   20.3335 N   0  0  0  0  0  0
  -25.9336  -11.6556   20.5774 N   0  0  0  0  0  0
  -22.0468  -12.8211   22.0412 N   0  0  0  0  0  0
  -25.4261  -15.1920   20.4090 N   0  0  0  0  0  0
  -31.8244  -14.7734   20.1264 O   0  0  0  0  0  0
  -21.6643   -6.8882   21.4244 O   0  0  0  0  0  0
  -22.3492  -14.5545   20.6730 O   0  0  0  0  0  0
  -24.6283  -31.8576   23.1987 C   0  0  0  0  0  0
  -25.9120  -32.4777   23.8334 C   0  0  1  0  0  0
  -27.2283  -27.3105   20.1304 C   0  0  0  0  0  0
  -25.5922  -33.8570   24.2277 N   0  0  0  0  0  0
  -23.4249  -30.4779   21.5426 C   0  0  2  0  0  0
  -24.8762  -28.9313   20.1080 C   0  0  0  0  0  0
  -22.7482  -29.4602   22.4932 C   0  0  0  0  0  0
  -18.0284  -28.1384   22.8454 C   0  0  0  0  0  0
  -24.1496  -36.7288   23.2635 C   0  0  0  0  0  0
  -25.9637  -30.7887   21.3690 C   0  0  0  0  0  0
  -26.0437  -29.4129   20.7156 C   0  0  0  0  0  0
  -27.2277  -28.6142   20.7161 C   0  0  0  0  0  0
  -26.0442  -26.8826   19.4968 C   0  0  0  0  0  0
  -24.8783  -27.6724   19.4871 C   0  0  0  0  0  0
  -23.6441  -29.8119   20.1578 C   0  0  0  0  0  0
  -25.4115  -36.3076   24.0327 C   0  0  1  0  0  0
  -20.5882  -28.3674   23.1283 C   0  0  2  0  0  0
  -20.6783  -26.9401   22.5404 C   0  0  0  0  0  0
  -19.5759  -26.6374   21.5213 C   0  0  0  0  0  0
  -18.1931  -26.7920   22.1610 C   0  0  0  0  0  0
  -19.1537  -28.8840   23.2871 C   0  0  0  0  0  0
  -18.9471  -30.1441   23.8894 C   0  0  0  0  0  0
  -17.6478  -30.6590   24.0557 C   0  0  0  0  0  0
  -25.9041  -34.9444   23.5103 C   0  0  0  0  0  0
  -16.5362  -29.9094   23.6326 C   0  0  0  0  0  0
  -16.7276  -28.6512   23.0335 C   0  0  0  0  0  0
  -26.4493  -31.6568   25.0697 C   0  0  0  0  0  0
  -25.3731  -31.3731   26.1435 C   0  0  0  0  0  0
  -27.0294  -30.2982   24.6106 C   0  0  0  0  0  0
  -27.6046  -32.4272   25.7483 C   0  0  0  0  0  0
  -27.5582  -37.1789   24.8459 C   0  0  0  0  0  0
  -21.4190  -29.3047   22.3687 N   0  0  0  0  0  0
  -26.4289  -37.3770   23.9413 N   0  0  0  0  0  0
  -24.6918  -31.0567   22.0955 N   0  0  0  0  0  0
  -23.4194  -28.8153   23.3024 O   0  0  0  0  0  0
  -28.3069  -26.4103   20.1570 O   0  0  0  0  0  0
  -26.5620  -34.8906   22.4676 O   0  0  0  0  0  0
  -23.5433  -32.1361   23.7296 O   0  0  0  0  0  0
  -28.5007  -23.2333   19.3630 C   0  0  0  0  0  0
  -28.7764  -21.8524   19.1223 C   0  0  0  0  0  0
  -29.1104  -22.8326   21.6215 C   0  0  0  0  0  0
  -28.6486  -23.7845   20.6574 C   0  0  0  0  0  0
  -29.2035  -20.9796   20.1574 C   0  0  0  0  0  0
  -29.1387  -17.9083   21.7917 C   0  0  0  0  0  0
  -29.4799  -16.3976   21.9610 C   0  0  0  0  0  0
  -30.0891  -17.0856   19.8022 C   0  0  0  0  0  0
  -30.0050  -18.4305   20.6386 C   0  0  2  0  0  0
  -31.4212  -18.8002   21.1268 C   0  0  0  0  0  0
  -28.6775  -25.7169   22.4162 C   0  0  0  0  0  0
  -28.1367  -25.2412   21.0556 C   0  0  1  0  0  0
  -29.3793  -21.5020   21.3931 N   0  0  0  0  0  0
  -29.9101  -15.8624   20.6577 N   0  0  0  0  0  0
  -29.4037  -19.5806   19.8697 N   0  0  0  0  0  0
  -31.4728  -12.5442   19.1735 H   0  0  0  0  0  0
  -30.3634  -11.4518   19.9433 H   0  0  0  0  0  0
  -29.7895  -11.7535   17.5074 H   0  0  0  0  0  0
  -29.6410  -13.4766   17.7426 H   0  0  0  0  0  0
  -27.8870  -11.2881   18.9012 H   0  0  0  0  0  0
  -27.3765  -12.5422   17.8017 H   0  0  0  0  0  0
  -27.6516  -14.2578   19.4976 H   0  0  0  0  0  0
  -28.7188  -12.1258   21.4106 H   0  0  0  0  0  0
  -28.4198  -13.7856   21.8216 H   0  0  0  0  0  0
  -25.2774   -9.5692   22.4759 H   0  0  0  0  0  0
  -24.0011   -7.4639   22.7469 H   0  0  0  0  0  0
  -21.0864   -8.8758   19.8938 H   0  0  0  0  0  0
  -22.3702  -10.9670   19.6154 H   0  0  0  0  0  0
  -21.1991   -7.6141   23.9722 H   0  0  0  0  0  0
  -21.1491   -6.0514   25.9079 H   0  0  0  0  0  0
  -22.0596   -2.7605   23.2841 H   0  0  0  0  0  0
  -22.4085  -11.9848   22.4763 H   0  0  0  0  0  0
  -21.1089  -13.1228   22.2642 H   0  0  0  0  0  0
  -24.6670  -15.8562   20.5151 H   0  0  0  0  0  0
  -26.2902  -15.6242   20.1076 H   0  0  0  0  0  0
  -26.7183  -32.5447   23.1070 H   0  0  0  0  0  0
  -25.0084  -33.9713   25.0433 H   0  0  0  0  0  0
  -22.7191  -31.2966   21.3936 H   0  0  0  0  0  0
  -23.3758  -35.9626   23.3290 H   0  0  0  0  0  0
  -24.3588  -36.8913   22.2053 H   0  0  0  0  0  0
  -23.7243  -37.6481   23.6654 H   0  0  0  0  0  0
  -26.0834  -31.5504   20.5990 H   0  0  0  0  0  0
  -26.8454  -30.8452   21.9941 H   0  0  0  0  0  0
  -28.1229  -28.9760   21.2000 H   0  0  0  0  0  0
  -26.0180  -25.9091   19.0279 H   0  0  0  0  0  0
  -23.9858  -27.2948   19.0071 H   0  0  0  0  0  0
  -23.7641  -30.5868   19.3990 H   0  0  0  0  0  0
  -22.7657  -29.2405   19.8545 H   0  0  0  0  0  0
  -25.1301  -36.1917   25.0820 H   0  0  0  0  0  0
  -20.9943  -28.3236   24.1420 H   0  0  0  0  0  0
  -20.5676  -26.2294   23.3604 H   0  0  0  0  0  0
  -21.6658  -26.7438   22.1196 H   0  0  0  0  0  0
  -19.6932  -25.6289   21.1239 H   0  0  0  0  0  0
  -19.6714  -27.3190   20.6744 H   0  0  0  0  0  0
  -17.4210  -26.6653   21.4011 H   0  0  0  0  0  0
  -18.0325  -26.0075   22.9010 H   0  0  0  0  0  0
  -19.7966  -30.7238   24.2268 H   0  0  0  0  0  0
  -17.5055  -31.6275   24.5151 H   0  0  0  0  0  0
  -15.5362  -30.3013   23.7669 H   0  0  0  0  0  0
  -15.8665  -28.0850   22.7057 H   0  0  0  0  0  0
  -24.5897  -30.7084   25.7777 H   0  0  0  0  0  0
  -24.8946  -32.2926   26.4818 H   0  0  0  0  0  0
  -25.8054  -30.8927   27.0229 H   0  0  0  0  0  0
  -26.2843  -29.6764   24.1131 H   0  0  0  0  0  0
  -27.4026  -29.7183   25.4555 H   0  0  0  0  0  0
  -27.8701  -30.4266   23.9284 H   0  0  0  0  0  0
  -27.2668  -33.3587   26.2037 H   0  0  0  0  0  0
  -28.3904  -32.6792   25.0349 H   0  0  0  0  0  0
  -28.0666  -31.8411   26.5440 H   0  0  0  0  0  0
  -28.2565  -38.0115   24.7513 H   0  0  0  0  0  0
  -28.1113  -36.2632   24.6272 H   0  0  0  0  0  0
  -27.2299  -37.1430   25.8864 H   0  0  0  0  0  0
  -20.9362  -29.8819   21.6939 H   0  0  0  0  0  0
  -26.0168  -38.2843   24.1436 H   0  0  0  0  0  0
  -28.1324  -23.8549   18.5584 H   0  0  0  0  0  0
  -28.6220  -21.4708   18.1224 H   0  0  0  0  0  0
  -29.2378  -23.1218   22.6523 H   0  0  0  0  0  0
  -29.2822  -18.4699   22.7153 H   0  0  0  0  0  0
  -28.0833  -18.0017   21.5272 H   0  0  0  0  0  0
  -28.6212  -15.8652   22.3642 H   0  0  0  0  0  0
  -30.2964  -16.2765   22.6759 H   0  0  0  0  0  0
  -31.0082  -17.0427   19.2169 H   0  0  0  0  0  0
  -29.2767  -17.0585   19.0759 H   0  0  0  0  0  0
  -31.8926  -17.9821   21.6730 H   0  0  0  0  0  0
  -31.4097  -19.6624   21.7932 H   0  0  0  0  0  0
  -32.0773  -19.0449   20.2896 H   0  0  0  0  0  0
  -28.3677  -25.0596   23.2280 H   0  0  0  0  0  0
  -28.2995  -26.7073   22.6660 H   0  0  0  0  0  0
  -29.7651  -25.7776   22.4139 H   0  0  0  0  0  0
  -27.0655  -25.0906   21.1984 H   0  0  0  0  0  0
  -29.2105  -19.3417   18.9040 H   0  0  0  0  0  0
  1 25  1  0  0  0
  1 30  2  0  0  0
  1 84  1  0  0  0
  2  3  1  0  0  0
  2 25  1  0  0  0
  2 86  1  0  0  0
  2 87  1  0  0  0
  3  4  1  0  0  0
  3 88  1  0  0  0
  3 89  1  0  0  0
  4  5  1  0  0  0
  4 90  1  0  0  0
  4 91  1  0  0  0
  5  6  1  0  0  0
  5 26  1  0  0  0
  5 92  1  0  0  0
  6 25  1  0  0  0
  6 93  1  0  0  0
  6 94  1  0  0  0
  7  8  2  0  0  0
  7 26  1  0  0  0
  7 29  1  0  0  0
  8  9  1  0  0  0
  8 22  1  0  0  0
  9 10  1  0  0  0
  9 27  2  0  0  0
 10 11  2  0  0  0
 10 15  1  0  0  0
 11 12  1  0  0  0
 11 95  1  0  0  0
 12 13  2  0  0  0
 12 96  1  0  0  0
 13 14  1  0  0  0
 13 31  1  0  0  0
 14 15  2  0  0  0
 14 97  1  0  0  0
 15 98  1  0  0  0
 16 17  2  0  0  0
 16 21  1  0  0  0
 16 31  1  0  0  0
 17 18  1  0  0  0
 17 99  1  0  0  0
 18 19  2  0  0  0
 18100  1  0  0  0
 19 20  1  0  0  0
 19 24  1  0  0  0
 20 21  2  0  0  0
 20101  1  0  0  0
 21 23  1  0  0  0
 22 28  1  0  0  0
 22 32  2  0  0  0
 26 27  1  0  0  0
 28102  1  0  0  0
 28103  1  0  0  0
 29104  1  0  0  0
 29105  1  0  0  0
 33 34  1  0  0  0
 33 66  1  0  0  0
 33 70  2  0  0  0
 34 36  1  0  0  0
 34 59  1  0  0  0
 34106  1  0  0  0
 35 44  2  0  0  0
 35 45  1  0  0  0
 35 68  1  0  0  0
 36 56  1  0  0  0
 36107  1  0  0  0
 37 39  1  0  0  0
 37 47  1  0  0  0
 37 66  1  0  0  0
 37108  1  0  0  0
 38 43  2  0  0  0
 38 46  1  0  0  0
 38 47  1  0  0  0
 39 64  1  0  0  0
 39 67  2  0  0  0
 40 52  1  0  0  0
 40 53  2  0  0  0
 40 58  1  0  0  0
 41109  1  0  0  0
 41110  1  0  0  0
 41111  1  0  0  0
 41 48  1  0  0  0
 42 43  1  0  0  0
 42 66  1  0  0  0
 42112  1  0  0  0
 42113  1  0  0  0
 43 44  1  0  0  0
 44114  1  0  0  0
 45 46  2  0  0  0
 45115  1  0  0  0
 46116  1  0  0  0
 47117  1  0  0  0
 47118  1  0  0  0
 48 56  1  0  0  0
 48 65  1  0  0  0
 48119  1  0  0  0
 49 50  1  0  0  0
 49 53  1  0  0  0
 49 64  1  0  0  0
 49120  1  0  0  0
 50 51  1  0  0  0
 50121  1  0  0  0
 50122  1  0  0  0
 51 52  1  0  0  0
 51123  1  0  0  0
 51124  1  0  0  0
 52125  1  0  0  0
 52126  1  0  0  0
 53 54  1  0  0  0
 54 55  2  0  0  0
 54127  1  0  0  0
 55 57  1  0  0  0
 55128  1  0  0  0
 56 69  2  0  0  0
 57 58  2  0  0  0
 57129  1  0  0  0
 58130  1  0  0  0
 59 60  1  0  0  0
 59 61  1  0  0  0
 59 62  1  0  0  0
 60131  1  0  0  0
 60132  1  0  0  0
 60133  1  0  0  0
 61134  1  0  0  0
 61135  1  0  0  0
 61136  1  0  0  0
 62137  1  0  0  0
 62138  1  0  0  0
 62139  1  0  0  0
 63 65  1  0  0  0
 63140  1  0  0  0
 63141  1  0  0  0
 63142  1  0  0  0
 64143  1  0  0  0
 65144  1  0  0  0
 68 82  1  0  0  0
 71 72  2  0  0  0
 71 74  1  0  0  0
 71145  1  0  0  0
 72 75  1  0  0  0
 72146  1  0  0  0
 73 74  2  0  0  0
 73 83  1  0  0  0
 73147  1  0  0  0
 74 82  1  0  0  0
 75 83  2  0  0  0
 75 85  1  0  0  0
 76 77  1  0  0  0
 76 79  1  0  0  0
 76148  1  0  0  0
 76149  1  0  0  0
 77 84  1  0  0  0
 77150  1  0  0  0
 77151  1  0  0  0
 78 79  1  0  0  0
 78 84  1  0  0  0
 78152  1  0  0  0
 78153  1  0  0  0
 79 80  1  0  0  0
 79 85  1  0  0  0
 80154  1  0  0  0
 80155  1  0  0  0
 80156  1  0  0  0
 81157  1  0  0  0
 81158  1  0  0  0
 81159  1  0  0  0
 81 82  1  0  0  0
 82160  1  0  0  0
 85161  1  0  0  0
M  ISO  4   1 100  68 101  82 101  84 100
M  END
> <chiral flag>
0

> <version>
0

> <s_m_source_file>
/data/baiqing/PycharmProjects/Reinvent-master-3.2/result/LINK_invent/BTK/process_docking_weight1_custom_sum_contain_oxygen_bond_distance_aromatic_linkinvent_7_9_3/rearranged_h_0174.sdf

> <i_m_source_file_index>
76

> <r_mmod_Potential_Energy-OPLS-2005>
109.99390411377

> <r_mmod_Stretch_Energy-OPLS-2005>
91.2813568115234

> <r_mmod_Bend_Energy-OPLS-2005>
196.955856323242

> <r_mmod_Torsional_Energy-OPLS-2005>
350.934387207031

> <r_mmod_Improper_Torsional_Energy-OPLS-2005>
14.4752464294434

> <r_mmod_Van_der_Waal_Energy-OPLS-2005>
134.579544067383

> <r_mmod_Electrostatic_Energy-OPLS-2005>
-527.836303710938

> <r_mmod_Solvation_Energy-OPLS-2005>
-213.463150024414

> <b_mmod_Minimization_Converged-OPLS-2005>
0

> <r_mmod_RMS_Derivative-OPLS-2005>
2.76018905639648

$$$$
78
                    3D
 Structure written by MMmdl.
156165  0  0  1  0            999 V2000
  -30.4673  -15.1706   20.4116 C   0  0  0  0  0  0
  -30.4383  -12.7397   19.5500 C   0  0  0  0  0  0
  -29.5436  -12.5481   18.3016 C   0  0  0  0  0  0
  -28.0877  -12.2829   18.7211 C   0  0  0  0  0  0
  -27.6161  -13.2618   19.8264 C   0  0  2  0  0  0
  -28.6376  -13.4055   20.9726 C   0  0  0  0  0  0
  -25.2425  -13.8225   20.5713 C   0  0  0  0  0  0
  -24.1757  -13.0437   20.9199 C   0  0  0  0  0  0
  -24.6388  -11.6914   20.8724 C   0  0  0  0  0  0
  -23.9091  -10.4281   21.0393 C   0  0  0  0  0  0
  -24.3630   -9.4186   21.9179 C   0  0  0  0  0  0
  -23.6290   -8.2235   22.0760 C   0  0  0  0  0  0
  -22.4275   -8.0271   21.3541 C   0  0  0  0  0  0
  -21.9923   -9.0251   20.4634 C   0  0  0  0  0  0
  -22.7270  -10.2116   20.3034 C   0  0  0  0  0  0
  -21.6858   -6.0713   22.5267 C   0  0  0  0  0  0
  -21.4024   -6.5626   23.8196 C   0  0  0  0  0  0
  -21.3662   -5.6784   24.9163 C   0  0  0  0  0  0
  -21.6044   -4.3045   24.7223 C   0  0  0  0  0  0
  -21.8823   -3.8126   23.4345 C   0  0  0  0  0  0
  -21.9197   -4.6942   22.3396 C   0  0  0  0  0  0
  -22.7784  -13.5191   21.1845 C   0  0  0  0  0  0
  -22.1662   -4.2121   21.0973 F   0  0  0  0  0  0
  -21.5631   -3.4536   25.7739 F   0  0  0  0  0  0
  -29.8918  -13.8785   20.3671 N   0  0  0  0  0  0
  -26.2823  -12.9469   20.3186 N   0  0  0  0  0  0
  -25.9322  -11.6579   20.5703 N   0  0  0  0  0  0
  -22.0446  -12.8174   22.0392 N   0  0  0  0  0  0
  -25.4133  -15.1960   20.4190 N   0  0  0  0  0  0
  -31.6639  -15.1900   20.0870 O   0  0  0  0  0  0
  -21.6640   -6.8860   21.4228 O   0  0  0  0  0  0
  -22.3462  -14.5487   20.6675 O   0  0  0  0  0  0
  -24.6570  -31.8291   23.1728 C   0  0  0  0  0  0
  -25.9295  -32.4595   23.8142 C   0  0  1  0  0  0
  -27.2126  -26.9858   20.1739 C   0  0  0  0  0  0
  -25.6001  -33.8398   24.2086 N   0  0  0  0  0  0
  -23.4670  -30.4459   21.5193 C   0  0  2  0  0  0
  -24.9210  -28.8499   20.1019 C   0  0  0  0  0  0
  -22.7623  -29.4487   22.4738 C   0  0  0  0  0  0
  -18.0330  -28.1416   22.8438 C   0  0  0  0  0  0
  -24.1509  -36.7225   23.2648 C   0  0  0  0  0  0
  -26.0322  -30.6554   21.3938 C   0  0  0  0  0  0
  -26.1020  -29.2520   20.7398 C   0  0  0  0  0  0
  -27.2432  -28.3381   20.7607 C   0  0  0  0  0  0
  -26.0105  -26.7348   19.4723 C   0  0  0  0  0  0
  -24.8983  -27.6098   19.4491 C   0  0  0  0  0  0
  -23.7032  -29.7696   20.1410 C   0  0  0  0  0  0
  -25.4144  -36.2958   24.0293 C   0  0  1  0  0  0
  -20.5955  -28.3770   23.1161 C   0  0  2  0  0  0
  -20.6827  -26.9448   22.5376 C   0  0  0  0  0  0
  -19.5804  -26.6403   21.5185 C   0  0  0  0  0  0
  -18.1978  -26.7962   22.1580 C   0  0  0  0  0  0
  -19.1594  -28.8901   23.2797 C   0  0  0  0  0  0
  -18.9508  -30.1495   23.8833 C   0  0  0  0  0  0
  -17.6508  -30.6596   24.0575 C   0  0  0  0  0  0
  -25.9106  -34.9342   23.5004 C   0  0  0  0  0  0
  -16.5393  -29.9101   23.6349 C   0  0  0  0  0  0
  -16.7319  -28.6533   23.0327 C   0  0  0  0  0  0
  -26.4585  -31.6485   25.0616 C   0  0  0  0  0  0
  -25.3733  -31.3654   26.1276 C   0  0  0  0  0  0
  -27.0490  -30.2864   24.6281 C   0  0  0  0  0  0
  -27.6092  -32.4295   25.7394 C   0  0  0  0  0  0
  -27.5571  -37.1752   24.8474 C   0  0  0  0  0  0
  -21.4301  -29.3072   22.3494 N   0  0  0  0  0  0
  -26.4294  -37.3685   23.9401 N   0  0  0  0  0  0
  -24.7390  -31.0033   22.0825 N   0  0  0  0  0  0
  -23.4206  -28.8049   23.2941 O   0  0  0  0  0  0
  -28.1950  -25.8813   20.2806 O   0  0  0  0  0  0
  -26.5693  -34.8865   22.4584 O   0  0  0  0  0  0
  -23.5659  -32.1248   23.6870 O   0  0  0  0  0  0
  -27.8051  -21.7199   20.9811 C   0  0  0  0  0  0
  -28.1373  -20.2771   21.0184 C   0  0  0  0  0  0
  -28.5050  -22.7743   20.2686 C   0  0  0  0  0  0
  -29.2878  -19.6819   20.3555 C   0  0  0  0  0  0
  -29.6107  -22.0903   19.6201 C   0  0  0  0  0  0
  -30.4261  -17.9464   21.8168 C   0  0  0  0  0  0
  -29.5119  -16.7468   22.0447 C   0  0  0  0  0  0
  -29.9352  -18.0536   20.3635 C   0  0  2  0  0  0
  -27.1731  -19.3800   21.7778 C   0  0  0  0  0  0
  -30.4781  -22.9085   18.6857 C   0  0  0  0  0  0
  -27.8290  -24.3390   19.9589 C   0  0  0  0  0  0
  -29.9701  -20.7109   19.6961 N   0  0  0  0  0  0
  -29.7221  -16.4213   20.6366 N   0  0  0  0  0  0
  -31.4670  -12.9228   19.2364 H   0  0  0  0  0  0
  -30.4759  -11.8266   20.1474 H   0  0  0  0  0  0
  -29.9184  -11.7221   17.6952 H   0  0  0  0  0  0
  -29.5925  -13.4411   17.6764 H   0  0  0  0  0  0
  -28.0406  -11.2612   19.1004 H   0  0  0  0  0  0
  -27.4223  -12.3165   17.8586 H   0  0  0  0  0  0
  -27.5460  -14.2333   19.3370 H   0  0  0  0  0  0
  -28.7719  -12.4651   21.5095 H   0  0  0  0  0  0
  -28.2744  -14.1309   21.7040 H   0  0  0  0  0  0
  -25.2779   -9.5664   22.4752 H   0  0  0  0  0  0
  -23.9977   -7.4645   22.7502 H   0  0  0  0  0  0
  -21.0844   -8.8777   19.8944 H   0  0  0  0  0  0
  -22.3740  -10.9648   19.6123 H   0  0  0  0  0  0
  -21.2020   -7.6134   23.9687 H   0  0  0  0  0  0
  -21.1483   -6.0518   25.9063 H   0  0  0  0  0  0
  -22.0598   -2.7588   23.2858 H   0  0  0  0  0  0
  -22.4099  -11.9858   22.4797 H   0  0  0  0  0  0
  -21.1038  -13.1155   22.2551 H   0  0  0  0  0  0
  -24.6511  -15.8533   20.5420 H   0  0  0  0  0  0
  -26.2718  -15.6344   20.1136 H   0  0  0  0  0  0
  -26.7336  -32.5164   23.0826 H   0  0  0  0  0  0
  -25.0130  -33.9459   25.0227 H   0  0  0  0  0  0
  -22.7762  -31.2770   21.3533 H   0  0  0  0  0  0
  -23.3753  -35.9567   23.3275 H   0  0  0  0  0  0
  -24.3608  -36.8918   22.2072 H   0  0  0  0  0  0
  -23.7287  -37.6410   23.6740 H   0  0  0  0  0  0
  -26.2033  -31.3984   20.6134 H   0  0  0  0  0  0
  -26.8957  -30.7118   22.0433 H   0  0  0  0  0  0
  -28.1295  -28.6374   21.3022 H   0  0  0  0  0  0
  -25.8819  -25.7945   18.9591 H   0  0  0  0  0  0
  -24.0036  -27.2966   18.9289 H   0  0  0  0  0  0
  -23.8484  -30.5443   19.3863 H   0  0  0  0  0  0
  -22.8136  -29.2219   19.8267 H   0  0  0  0  0  0
  -25.1332  -36.1735   25.0779 H   0  0  0  0  0  0
  -21.0059  -28.3409   24.1289 H   0  0  0  0  0  0
  -20.5751  -26.2366   23.3613 H   0  0  0  0  0  0
  -21.6682  -26.7470   22.1150 H   0  0  0  0  0  0
  -19.6983  -25.6317   21.1219 H   0  0  0  0  0  0
  -19.6773  -27.3197   20.6708 H   0  0  0  0  0  0
  -17.4260  -26.6703   21.3973 H   0  0  0  0  0  0
  -18.0378  -26.0108   22.8978 H   0  0  0  0  0  0
  -19.7991  -30.7320   24.2165 H   0  0  0  0  0  0
  -17.5072  -31.6258   24.5204 H   0  0  0  0  0  0
  -15.5397  -30.2979   23.7731 H   0  0  0  0  0  0
  -15.8715  -28.0868   22.7029 H   0  0  0  0  0  0
  -24.6021  -30.6892   25.7568 H   0  0  0  0  0  0
  -24.8789  -32.2798   26.4552 H   0  0  0  0  0  0
  -25.8002  -30.8945   27.0141 H   0  0  0  0  0  0
  -26.3138  -29.6504   24.1338 H   0  0  0  0  0  0
  -27.4130  -29.7232   25.4886 H   0  0  0  0  0  0
  -27.9024  -30.4055   23.9599 H   0  0  0  0  0  0
  -27.2718  -33.3706   26.1733 H   0  0  0  0  0  0
  -28.3991  -32.6664   25.0258 H   0  0  0  0  0  0
  -28.0642  -31.8564   26.5483 H   0  0  0  0  0  0
  -28.2546  -38.0083   24.7517 H   0  0  0  0  0  0
  -28.1106  -36.2597   24.6313 H   0  0  0  0  0  0
  -27.2278  -37.1403   25.8876 H   0  0  0  0  0  0
  -20.9529  -29.8785   21.6660 H   0  0  0  0  0  0
  -26.0135  -38.2729   24.1440 H   0  0  0  0  0  0
  -26.9108  -22.0284   21.5032 H   0  0  0  0  0  0
  -31.4894  -17.7025   21.8714 H   0  0  0  0  0  0
  -30.2005  -18.7855   22.4743 H   0  0  0  0  0  0
  -28.4806  -16.9967   22.2901 H   0  0  0  0  0  0
  -29.9122  -16.0374   22.7732 H   0  0  0  0  0  0
  -28.8977  -18.0142   20.0284 H   0  0  0  0  0  0
  -26.2055  -19.8650   21.9179 H   0  0  0  0  0  0
  -27.5704  -19.1333   22.7627 H   0  0  0  0  0  0
  -26.9788  -18.4553   21.2351 H   0  0  0  0  0  0
  -30.7814  -23.8395   19.1668 H   0  0  0  0  0  0
  -29.9238  -23.1614   17.7804 H   0  0  0  0  0  0
  -31.3839  -22.3779   18.3923 H   0  0  0  0  0  0
  -26.8104  -24.2261   20.3302 H   0  0  0  0  0  0
  -27.7219  -24.3393   18.8747 H   0  0  0  0  0  0
  1 25  1  0  0  0
  1 30  2  0  0  0
  1 83  1  0  0  0
  2  3  1  0  0  0
  2 25  1  0  0  0
  2 84  1  0  0  0
  2 85  1  0  0  0
  3  4  1  0  0  0
  3 86  1  0  0  0
  3 87  1  0  0  0
  4  5  1  0  0  0
  4 88  1  0  0  0
  4 89  1  0  0  0
  5  6  1  0  0  0
  5 26  1  0  0  0
  5 90  1  0  0  0
  6 25  1  0  0  0
  6 91  1  0  0  0
  6 92  1  0  0  0
  7  8  2  0  0  0
  7 26  1  0  0  0
  7 29  1  0  0  0
  8  9  1  0  0  0
  8 22  1  0  0  0
  9 10  1  0  0  0
  9 27  2  0  0  0
 10 11  2  0  0  0
 10 15  1  0  0  0
 11 12  1  0  0  0
 11 93  1  0  0  0
 12 13  2  0  0  0
 12 94  1  0  0  0
 13 14  1  0  0  0
 13 31  1  0  0  0
 14 15  2  0  0  0
 14 95  1  0  0  0
 15 96  1  0  0  0
 16 17  2  0  0  0
 16 21  1  0  0  0
 16 31  1  0  0  0
 17 18  1  0  0  0
 17 97  1  0  0  0
 18 19  2  0  0  0
 18 98  1  0  0  0
 19 20  1  0  0  0
 19 24  1  0  0  0
 20 21  2  0  0  0
 20 99  1  0  0  0
 21 23  1  0  0  0
 22 28  1  0  0  0
 22 32  2  0  0  0
 26 27  1  0  0  0
 28100  1  0  0  0
 28101  1  0  0  0
 29102  1  0  0  0
 29103  1  0  0  0
 33 34  1  0  0  0
 33 66  1  0  0  0
 33 70  2  0  0  0
 34 36  1  0  0  0
 34 59  1  0  0  0
 34104  1  0  0  0
 35 44  2  0  0  0
 35 45  1  0  0  0
 35 68  1  0  0  0
 36 56  1  0  0  0
 36105  1  0  0  0
 37 39  1  0  0  0
 37 47  1  0  0  0
 37 66  1  0  0  0
 37106  1  0  0  0
 38 43  2  0  0  0
 38 46  1  0  0  0
 38 47  1  0  0  0
 39 64  1  0  0  0
 39 67  2  0  0  0
 40 52  1  0  0  0
 40 53  2  0  0  0
 40 58  1  0  0  0
 41107  1  0  0  0
 41108  1  0  0  0
 41109  1  0  0  0
 41 48  1  0  0  0
 42 43  1  0  0  0
 42 66  1  0  0  0
 42110  1  0  0  0
 42111  1  0  0  0
 43 44  1  0  0  0
 44112  1  0  0  0
 45 46  2  0  0  0
 45113  1  0  0  0
 46114  1  0  0  0
 47115  1  0  0  0
 47116  1  0  0  0
 48 56  1  0  0  0
 48 65  1  0  0  0
 48117  1  0  0  0
 49 50  1  0  0  0
 49 53  1  0  0  0
 49 64  1  0  0  0
 49118  1  0  0  0
 50 51  1  0  0  0
 50119  1  0  0  0
 50120  1  0  0  0
 51 52  1  0  0  0
 51121  1  0  0  0
 51122  1  0  0  0
 52123  1  0  0  0
 52124  1  0  0  0
 53 54  1  0  0  0
 54 55  2  0  0  0
 54125  1  0  0  0
 55 57  1  0  0  0
 55126  1  0  0  0
 56 69  2  0  0  0
 57 58  2  0  0  0
 57127  1  0  0  0
 58128  1  0  0  0
 59 60  1  0  0  0
 59 61  1  0  0  0
 59 62  1  0  0  0
 60129  1  0  0  0
 60130  1  0  0  0
 60131  1  0  0  0
 61132  1  0  0  0
 61133  1  0  0  0
 61134  1  0  0  0
 62135  1  0  0  0
 62136  1  0  0  0
 62137  1  0  0  0
 63 65  1  0  0  0
 63138  1  0  0  0
 63139  1  0  0  0
 63140  1  0  0  0
 64141  1  0  0  0
 65142  1  0  0  0
 68 81  1  0  0  0
 71 72  2  0  0  0
 71 73  1  0  0  0
 71143  1  0  0  0
 72 74  1  0  0  0
 72 79  1  0  0  0
 73 75  2  0  0  0
 73 81  1  0  0  0
 74 82  2  0  0  0
 74 78  1  0  0  0
 75 80  1  0  0  0
 75 82  1  0  0  0
 76 77  1  0  0  0
 76 78  1  0  0  0
 76144  1  0  0  0
 76145  1  0  0  0
 77 83  1  0  0  0
 77146  1  0  0  0
 77147  1  0  0  0
 78 83  1  0  0  0
 78148  1  0  0  0
 79149  1  0  0  0
 79150  1  0  0  0
 79151  1  0  0  0
 80152  1  0  0  0
 80153  1  0  0  0
 80154  1  0  0  0
 81155  1  0  0  0
 81156  1  0  0  0
M  ISO  4   1 100  68 101  81 101  83 100
M  END
> <chiral flag>
0

> <version>
0

> <s_m_source_file>
/data/baiqing/PycharmProjects/Reinvent-master-3.2/result/LINK_invent/BTK/process_docking_weight1_custom_sum_contain_oxygen_bond_distance_aromatic_linkinvent_7_9_3/rearranged_h_0174.sdf

> <i_m_source_file_index>
77

> <r_mmod_Potential_Energy-OPLS-2005>
1168.59460449219

> <r_mmod_Stretch_Energy-OPLS-2005>
457.938201904297

> <r_mmod_Bend_Energy-OPLS-2005>
639.158264160156

> <r_mmod_Torsional_Energy-OPLS-2005>
267.551177978516

> <r_mmod_Improper_Torsional_Energy-OPLS-2005>
14.3690977096558

> <r_mmod_Van_der_Waal_Energy-OPLS-2005>
138.440460205078

> <r_mmod_Electrostatic_Energy-OPLS-2005>
-504.984375

> <r_mmod_Solvation_Energy-OPLS-2005>
-221.05192565918

> <b_mmod_Minimization_Converged-OPLS-2005>
0

> <r_mmod_RMS_Derivative-OPLS-2005>
2.79894614219666

$$$$
79
                    3D
 Structure written by MMmdl.
174183  0  0  1  0            999 V2000
  -30.7261  -14.5575   20.5249 C   0  0  0  0  0  0
  -30.4007  -12.3599   19.4532 C   0  0  0  0  0  0
  -29.4793  -12.4641   18.2221 C   0  0  0  0  0  0
  -28.0116  -12.2936   18.6547 C   0  0  0  0  0  0
  -27.6401  -13.2073   19.8548 C   0  0  2  0  0  0
  -28.6843  -13.0907   20.9911 C   0  0  0  0  0  0
  -25.2481  -13.8144   20.5627 C   0  0  0  0  0  0
  -24.1785  -13.0423   20.9212 C   0  0  0  0  0  0
  -24.6339  -11.6888   20.8778 C   0  0  0  0  0  0
  -23.9011  -10.4268   21.0429 C   0  0  0  0  0  0
  -24.3587   -9.4183   21.9196 C   0  0  0  0  0  0
  -23.6287   -8.2218   22.0757 C   0  0  0  0  0  0
  -22.4258   -8.0278   21.3561 C   0  0  0  0  0  0
  -21.9885   -9.0231   20.4653 C   0  0  0  0  0  0
  -22.7193  -10.2113   20.3072 C   0  0  0  0  0  0
  -21.6836   -6.0734   22.5286 C   0  0  0  0  0  0
  -21.3993   -6.5627   23.8209 C   0  0  0  0  0  0
  -21.3663   -5.6798   24.9173 C   0  0  0  0  0  0
  -21.6035   -4.3054   24.7229 C   0  0  0  0  0  0
  -21.8839   -3.8145   23.4344 C   0  0  0  0  0  0
  -21.9190   -4.6969   22.3399 C   0  0  0  0  0  0
  -22.7823  -13.5211   21.1885 C   0  0  0  0  0  0
  -22.1651   -4.2154   21.0976 F   0  0  0  0  0  0
  -21.5636   -3.4542   25.7736 F   0  0  0  0  0  0
  -29.9926  -13.4095   20.4118 N   0  0  0  0  0  0
  -26.2895  -12.9329   20.3325 N   0  0  0  0  0  0
  -25.9263  -11.6484   20.5846 N   0  0  0  0  0  0
  -22.0484  -12.8203   22.0449 N   0  0  0  0  0  0
  -25.4127  -15.1828   20.3821 N   0  0  0  0  0  0
  -31.8903  -14.5998   20.1264 O   0  0  0  0  0  0
  -21.6627   -6.8872   21.4252 O   0  0  0  0  0  0
  -22.3482  -14.5498   20.6713 O   0  0  0  0  0  0
  -24.6223  -31.8680   23.2096 C   0  0  0  0  0  0
  -25.9094  -32.4817   23.8416 C   0  0  1  0  0  0
  -27.2147  -27.3745   20.1007 C   0  0  0  0  0  0
  -25.5927  -33.8619   24.2326 N   0  0  0  0  0  0
  -23.4114  -30.4980   21.5498 C   0  0  2  0  0  0
  -24.8554  -28.9579   20.1108 C   0  0  0  0  0  0
  -22.7461  -29.4718   22.4968 C   0  0  0  0  0  0
  -18.0346  -28.1365   22.8531 C   0  0  0  0  0  0
  -24.1491  -36.7327   23.2640 C   0  0  0  0  0  0
  -25.9490  -30.8139   21.3744 C   0  0  0  0  0  0
  -26.0205  -29.4432   20.7225 C   0  0  0  0  0  0
  -27.2074  -28.6601   20.7135 C   0  0  0  0  0  0
  -26.0340  -26.9288   19.4756 C   0  0  0  0  0  0
  -24.8614  -27.7054   19.4769 C   0  0  0  0  0  0
  -23.6213  -29.8340   20.1636 C   0  0  0  0  0  0
  -25.4114  -36.3101   24.0332 C   0  0  1  0  0  0
  -20.5921  -28.3769   23.1340 C   0  0  2  0  0  0
  -20.6858  -26.9524   22.5415 C   0  0  0  0  0  0
  -19.5870  -26.6535   21.5196 C   0  0  0  0  0  0
  -18.2055  -26.7927   22.1654 C   0  0  0  0  0  0
  -19.1569  -28.8899   23.2922 C   0  0  0  0  0  0
  -18.9432  -30.1504   23.8891 C   0  0  0  0  0  0
  -17.6417  -30.6591   24.0523 C   0  0  0  0  0  0
  -25.9047  -34.9467   23.5120 C   0  0  0  0  0  0
  -16.5345  -29.9030   23.6274 C   0  0  0  0  0  0
  -16.7328  -28.6448   23.0327 C   0  0  0  0  0  0
  -26.4484  -31.6598   25.0764 C   0  0  0  0  0  0
  -25.3749  -31.3724   26.1509 C   0  0  0  0  0  0
  -27.0296  -30.3014   24.6190 C   0  0  0  0  0  0
  -27.6039  -32.4325   25.7557 C   0  0  0  0  0  0
  -27.5577  -37.1813   24.8457 C   0  0  0  0  0  0
  -21.4176  -29.3159   22.3760 N   0  0  0  0  0  0
  -26.4289  -37.3784   23.9402 N   0  0  0  0  0  0
  -24.6788  -31.0762   22.1015 N   0  0  0  0  0  0
  -23.4205  -28.8196   23.2972 O   0  0  0  0  0  0
  -28.3391  -26.5601   20.0329 O   0  0  0  0  0  0
  -26.5602  -34.8914   22.4669 O   0  0  0  0  0  0
  -23.5399  -32.1448   23.7453 O   0  0  0  0  0  0
  -27.5259  -23.5078   19.6644 C   0  0  0  0  0  0
  -28.9700  -23.0523   21.5077 C   0  0  0  0  0  0
  -28.3491  -24.0198   20.6864 C   0  0  0  0  0  0
  -27.2077  -22.1208   19.6392 C   0  0  0  0  0  0
  -27.7601  -21.2489   20.6273 C   0  0  0  0  0  0
  -28.3711  -18.3246   22.7778 C   0  0  0  0  0  0
  -28.9110  -16.8763   22.7339 C   0  0  0  0  0  0
  -27.7548  -18.5458   21.3937 C   0  0  2  0  0  0
  -28.9463  -16.4080   21.2548 C   0  0  1  0  0  0
  -28.6923  -17.7424   20.4404 C   0  0  0  0  0  0
  -26.1616  -21.6632   18.6253 C   0  0  0  0  0  0
  -27.9918  -17.4700   19.1013 C   0  0  0  0  0  0
  -30.0066  -18.5025   20.1760 C   0  0  0  0  0  0
  -26.1319  -21.1964   23.1784 C   0  0  0  0  0  0
  -28.4676  -25.5336   21.0522 C   0  0  0  0  0  0
  -25.8637  -20.2105   22.0249 C   0  0  0  0  0  0
  -27.0341  -19.9212   21.0307 C   0  0  1  0  0  0
  -28.6929  -21.7223   21.4872 N   0  0  0  0  0  0
  -30.2380  -15.7415   20.9803 N   0  0  0  0  0  0
  -31.4488  -12.4311   19.1587 H   0  0  0  0  0  0
  -30.3023  -11.3762   19.9113 H   0  0  0  0  0  0
  -29.7358  -11.6906   17.4942 H   0  0  0  0  0  0
  -29.6142  -13.4267   17.7266 H   0  0  0  0  0  0
  -27.8783  -11.2463   18.9416 H   0  0  0  0  0  0
  -27.3350  -12.4596   17.8167 H   0  0  0  0  0  0
  -27.6548  -14.2266   19.4713 H   0  0  0  0  0  0
  -28.6971  -12.0776   21.3990 H   0  0  0  0  0  0
  -28.4506  -13.7404   21.8317 H   0  0  0  0  0  0
  -25.2758   -9.5672   22.4713 H   0  0  0  0  0  0
  -24.0037   -7.4610   22.7469 H   0  0  0  0  0  0
  -21.0808   -8.8731   19.8932 H   0  0  0  0  0  0
  -22.3685  -10.9646   19.6151 H   0  0  0  0  0  0
  -21.1968   -7.6139   23.9702 H   0  0  0  0  0  0
  -21.1461   -6.0520   25.9067 H   0  0  0  0  0  0
  -22.0610   -2.7616   23.2841 H   0  0  0  0  0  0
  -22.4161  -11.9890   22.4829 H   0  0  0  0  0  0
  -21.1093  -13.1192   22.2694 H   0  0  0  0  0  0
  -24.6227  -15.8174   20.3890 H   0  0  0  0  0  0
  -26.2544  -15.5952   20.0073 H   0  0  0  0  0  0
  -26.7196  -32.5516   23.1208 H   0  0  0  0  0  0
  -25.0044  -33.9777   25.0448 H   0  0  0  0  0  0
  -22.7050  -31.3188   21.4117 H   0  0  0  0  0  0
  -23.3713  -35.9692   23.3315 H   0  0  0  0  0  0
  -24.3596  -36.8935   22.2050 H   0  0  0  0  0  0
  -23.7259  -37.6553   23.6644 H   0  0  0  0  0  0
  -26.0682  -31.5724   20.5979 H   0  0  0  0  0  0
  -26.8366  -30.8672   21.9956 H   0  0  0  0  0  0
  -28.1042  -29.0337   21.1855 H   0  0  0  0  0  0
  -26.0112  -25.9773   18.9727 H   0  0  0  0  0  0
  -23.9725  -27.3400   18.9835 H   0  0  0  0  0  0
  -23.7305  -30.6130   19.4079 H   0  0  0  0  0  0
  -22.7407  -29.2622   19.8649 H   0  0  0  0  0  0
  -25.1273  -36.1979   25.0823 H   0  0  0  0  0  0
  -20.9981  -28.3417   24.1474 H   0  0  0  0  0  0
  -20.5757  -26.2368   23.3584 H   0  0  0  0  0  0
  -21.6729  -26.7607   22.1168 H   0  0  0  0  0  0
  -19.7176  -25.6523   21.1086 H   0  0  0  0  0  0
  -19.6797  -27.3516   20.6852 H   0  0  0  0  0  0
  -17.4301  -26.6597   21.4091 H   0  0  0  0  0  0
  -18.0552  -26.0058   22.9066 H   0  0  0  0  0  0
  -19.7873  -30.7383   24.2260 H   0  0  0  0  0  0
  -17.4936  -31.6270   24.5111 H   0  0  0  0  0  0
  -15.5331  -30.2890   23.7575 H   0  0  0  0  0  0
  -15.8774  -28.0702   22.7006 H   0  0  0  0  0  0
  -24.5958  -30.7006   25.7895 H   0  0  0  0  0  0
  -24.8892  -32.2880   26.4901 H   0  0  0  0  0  0
  -25.8127  -30.8983   27.0305 H   0  0  0  0  0  0
  -26.2854  -29.6818   24.1173 H   0  0  0  0  0  0
  -27.3933  -29.7216   25.4687 H   0  0  0  0  0  0
  -27.8757  -30.4280   23.9429 H   0  0  0  0  0  0
  -27.2625  -33.3618   26.2133 H   0  0  0  0  0  0
  -28.3868  -32.6905   25.0414 H   0  0  0  0  0  0
  -28.0686  -31.8457   26.5492 H   0  0  0  0  0  0
  -28.2577  -38.0122   24.7490 H   0  0  0  0  0  0
  -28.1081  -36.2644   24.6278 H   0  0  0  0  0  0
  -27.2310  -37.1474   25.8866 H   0  0  0  0  0  0
  -20.9308  -29.9011   21.7133 H   0  0  0  0  0  0
  -26.0176  -38.2867   24.1370 H   0  0  0  0  0  0
  -27.0618  -24.1743   18.9630 H   0  0  0  0  0  0
  -29.6651  -23.3579   22.2760 H   0  0  0  0  0  0
  -29.1821  -19.0303   22.9602 H   0  0  0  0  0  0
  -27.6444  -18.4528   23.5793 H   0  0  0  0  0  0
  -29.8982  -16.8444   23.2000 H   0  0  0  0  0  0
  -28.2825  -16.2071   23.3184 H   0  0  0  0  0  0
  -26.8819  -17.8908   21.4359 H   0  0  0  0  0  0
  -28.1055  -15.7388   21.0913 H   0  0  0  0  0  0
  -25.9824  -22.4246   17.8607 H   0  0  0  0  0  0
  -25.2020  -21.4611   19.1058 H   0  0  0  0  0  0
  -26.4770  -20.7605   18.1015 H   0  0  0  0  0  0
  -27.0161  -17.0108   19.2402 H   0  0  0  0  0  0
  -28.5869  -16.8091   18.4707 H   0  0  0  0  0  0
  -27.8307  -18.3933   18.5444 H   0  0  0  0  0  0
  -30.5989  -18.6317   21.0836 H   0  0  0  0  0  0
  -29.8140  -19.4966   19.7716 H   0  0  0  0  0  0
  -30.6271  -17.9800   19.4473 H   0  0  0  0  0  0
  -25.2651  -21.2731   23.8362 H   0  0  0  0  0  0
  -26.3236  -22.1999   22.7997 H   0  0  0  0  0  0
  -26.9875  -20.8941   23.7856 H   0  0  0  0  0  0
  -29.4462  -25.6711   21.5102 H   0  0  0  0  0  0
  -27.7481  -25.7266   21.8500 H   0  0  0  0  0  0
  -25.0309  -20.6227   21.4551 H   0  0  0  0  0  0
  -25.4774  -19.2828   22.4440 H   0  0  0  0  0  0
  -26.5136  -19.6339   20.1194 H   0  0  0  0  0  0
  -30.9901  -16.4104   21.0148 H   0  0  0  0  0  0
  1 25  1  0  0  0
  1 30  2  0  0  0
  1 89  1  0  0  0
  2  3  1  0  0  0
  2 25  1  0  0  0
  2 90  1  0  0  0
  2 91  1  0  0  0
  3  4  1  0  0  0
  3 92  1  0  0  0
  3 93  1  0  0  0
  4  5  1  0  0  0
  4 94  1  0  0  0
  4 95  1  0  0  0
  5  6  1  0  0  0
  5 26  1  0  0  0
  5 96  1  0  0  0
  6 25  1  0  0  0
  6 97  1  0  0  0
  6 98  1  0  0  0
  7  8  2  0  0  0
  7 26  1  0  0  0
  7 29  1  0  0  0
  8  9  1  0  0  0
  8 22  1  0  0  0
  9 10  1  0  0  0
  9 27  2  0  0  0
 10 11  2  0  0  0
 10 15  1  0  0  0
 11 12  1  0  0  0
 11 99  1  0  0  0
 12 13  2  0  0  0
 12100  1  0  0  0
 13 14  1  0  0  0
 13 31  1  0  0  0
 14 15  2  0  0  0
 14101  1  0  0  0
 15102  1  0  0  0
 16 17  2  0  0  0
 16 21  1  0  0  0
 16 31  1  0  0  0
 17 18  1  0  0  0
 17103  1  0  0  0
 18 19  2  0  0  0
 18104  1  0  0  0
 19 20  1  0  0  0
 19 24  1  0  0  0
 20 21  2  0  0  0
 20105  1  0  0  0
 21 23  1  0  0  0
 22 28  1  0  0  0
 22 32  2  0  0  0
 26 27  1  0  0  0
 28106  1  0  0  0
 28107  1  0  0  0
 29108  1  0  0  0
 29109  1  0  0  0
 33 34  1  0  0  0
 33 66  1  0  0  0
 33 70  2  0  0  0
 34 36  1  0  0  0
 34 59  1  0  0  0
 34110  1  0  0  0
 35 44  2  0  0  0
 35 45  1  0  0  0
 35 68  1  0  0  0
 36 56  1  0  0  0
 36111  1  0  0  0
 37 39  1  0  0  0
 37 47  1  0  0  0
 37 66  1  0  0  0
 37112  1  0  0  0
 38 43  2  0  0  0
 38 46  1  0  0  0
 38 47  1  0  0  0
 39 64  1  0  0  0
 39 67  2  0  0  0
 40 52  1  0  0  0
 40 53  2  0  0  0
 40 58  1  0  0  0
 41113  1  0  0  0
 41114  1  0  0  0
 41115  1  0  0  0
 41 48  1  0  0  0
 42 43  1  0  0  0
 42 66  1  0  0  0
 42116  1  0  0  0
 42117  1  0  0  0
 43 44  1  0  0  0
 44118  1  0  0  0
 45 46  2  0  0  0
 45119  1  0  0  0
 46120  1  0  0  0
 47121  1  0  0  0
 47122  1  0  0  0
 48 56  1  0  0  0
 48 65  1  0  0  0
 48123  1  0  0  0
 49 50  1  0  0  0
 49 53  1  0  0  0
 49 64  1  0  0  0
 49124  1  0  0  0
 50 51  1  0  0  0
 50125  1  0  0  0
 50126  1  0  0  0
 51 52  1  0  0  0
 51127  1  0  0  0
 51128  1  0  0  0
 52129  1  0  0  0
 52130  1  0  0  0
 53 54  1  0  0  0
 54 55  2  0  0  0
 54131  1  0  0  0
 55 57  1  0  0  0
 55132  1  0  0  0
 56 69  2  0  0  0
 57 58  2  0  0  0
 57133  1  0  0  0
 58134  1  0  0  0
 59 60  1  0  0  0
 59 61  1  0  0  0
 59 62  1  0  0  0
 60135  1  0  0  0
 60136  1  0  0  0
 60137  1  0  0  0
 61138  1  0  0  0
 61139  1  0  0  0
 61140  1  0  0  0
 62141  1  0  0  0
 62142  1  0  0  0
 62143  1  0  0  0
 63 65  1  0  0  0
 63144  1  0  0  0
 63145  1  0  0  0
 63146  1  0  0  0
 64147  1  0  0  0
 65148  1  0  0  0
 68 85  1  0  0  0
 71 73  2  0  0  0
 71 74  1  0  0  0
 71149  1  0  0  0
 72 73  1  0  0  0
 72 88  2  0  0  0
 72150  1  0  0  0
 73 85  1  0  0  0
 74 75  2  0  0  0
 74 81  1  0  0  0
 75 87  1  0  0  0
 75 88  1  0  0  0
 76 77  1  0  0  0
 76151  1  0  0  0
 76152  1  0  0  0
 76 78  1  0  0  0
 77 79  1  0  0  0
 77153  1  0  0  0
 77154  1  0  0  0
 78 80  1  0  0  0
 78 87  1  0  0  0
 78155  1  0  0  0
 79 80  1  0  0  0
 79 89  1  0  0  0
 79156  1  0  0  0
 80 82  1  0  0  0
 80 83  1  0  0  0
 81157  1  0  0  0
 81158  1  0  0  0
 81159  1  0  0  0
 82160  1  0  0  0
 82161  1  0  0  0
 82162  1  0  0  0
 83163  1  0  0  0
 83164  1  0  0  0
 83165  1  0  0  0
 84 86  1  0  0  0
 84166  1  0  0  0
 84167  1  0  0  0
 84168  1  0  0  0
 85169  1  0  0  0
 85170  1  0  0  0
 86171  1  0  0  0
 86172  1  0  0  0
 86 87  1  0  0  0
 87173  1  0  0  0
 89174  1  0  0  0
M  ISO  4   1 100  68 101  85 101  89 100
M  END
> <chiral flag>
0

> <version>
0

> <s_m_source_file>
/data/baiqing/PycharmProjects/Reinvent-master-3.2/result/LINK_invent/BTK/process_docking_weight1_custom_sum_contain_oxygen_bond_distance_aromatic_linkinvent_7_9_3/rearranged_h_0174.sdf

> <i_m_source_file_index>
78

> <r_mmod_Potential_Energy-OPLS-2005>
110.214660644531

> <r_mmod_Stretch_Energy-OPLS-2005>
61.7230262756348

> <r_mmod_Bend_Energy-OPLS-2005>
249.008224487305

> <r_mmod_Torsional_Energy-OPLS-2005>
362.936920166016

> <r_mmod_Improper_Torsional_Energy-OPLS-2005>
7.35287380218506

> <r_mmod_Van_der_Waal_Energy-OPLS-2005>
132.323776245117

> <r_mmod_Electrostatic_Energy-OPLS-2005>
-541.380004882812

> <r_mmod_Solvation_Energy-OPLS-2005>
-194.625747680664

> <b_mmod_Minimization_Converged-OPLS-2005>
0

> <r_mmod_RMS_Derivative-OPLS-2005>
6.13952112197876

$$$$
80
                    3D
 Structure written by MMmdl.
168177  0  0  1  0            999 V2000
  -30.6988  -14.7533   20.4785 C   0  0  0  0  0  0
  -30.4089  -12.4729   19.4870 C   0  0  0  0  0  0
  -29.4995  -12.4881   18.2428 C   0  0  0  0  0  0
  -28.0344  -12.2834   18.6666 C   0  0  0  0  0  0
  -27.6244  -13.2145   19.8359 C   0  0  2  0  0  0
  -28.6710  -13.2421   20.9774 C   0  0  0  0  0  0
  -25.2431  -13.8149   20.5682 C   0  0  0  0  0  0
  -24.1747  -13.0398   20.9223 C   0  0  0  0  0  0
  -24.6338  -11.6875   20.8769 C   0  0  0  0  0  0
  -23.9040  -10.4266   21.0410 C   0  0  0  0  0  0
  -24.3609   -9.4187   21.9180 C   0  0  0  0  0  0
  -23.6282   -8.2237   22.0757 C   0  0  0  0  0  0
  -22.4266   -8.0280   21.3554 C   0  0  0  0  0  0
  -21.9902   -9.0250   20.4644 C   0  0  0  0  0  0
  -22.7230  -10.2115   20.3056 C   0  0  0  0  0  0
  -21.6830   -6.0748   22.5285 C   0  0  0  0  0  0
  -21.4000   -6.5644   23.8229 C   0  0  0  0  0  0
  -21.3646   -5.6791   24.9183 C   0  0  0  0  0  0
  -21.6046   -4.3059   24.7217 C   0  0  0  0  0  0
  -21.8816   -3.8162   23.4337 C   0  0  0  0  0  0
  -21.9159   -4.6979   22.3395 C   0  0  0  0  0  0
  -22.7775  -13.5211   21.1862 C   0  0  0  0  0  0
  -22.1596   -4.2173   21.0967 F   0  0  0  0  0  0
  -21.5650   -3.4533   25.7719 F   0  0  0  0  0  0
  -29.9698  -13.5790   20.3803 N   0  0  0  0  0  0
  -26.2836  -12.9309   20.3252 N   0  0  0  0  0  0
  -25.9253  -11.6481   20.5778 N   0  0  0  0  0  0
  -22.0408  -12.8211   22.0411 N   0  0  0  0  0  0
  -25.4094  -15.1875   20.4059 N   0  0  0  0  0  0
  -31.8882  -14.7117   20.1568 O   0  0  0  0  0  0
  -21.6622   -6.8888   21.4247 O   0  0  0  0  0  0
  -22.3488  -14.5518   20.6696 O   0  0  0  0  0  0
  -24.6331  -31.8566   23.2054 C   0  0  0  0  0  0
  -25.9171  -32.4779   23.8372 C   0  0  1  0  0  0
  -27.1982  -27.2443   20.1271 C   0  0  0  0  0  0
  -25.5977  -33.8582   24.2299 N   0  0  0  0  0  0
  -23.4289  -30.4863   21.5515 C   0  0  2  0  0  0
  -24.8730  -28.9489   20.1113 C   0  0  0  0  0  0
  -22.7507  -29.4616   22.4935 C   0  0  0  0  0  0
  -18.0285  -28.1390   22.8482 C   0  0  0  0  0  0
  -24.1483  -36.7267   23.2634 C   0  0  0  0  0  0
  -25.9801  -30.7653   21.3891 C   0  0  0  0  0  0
  -26.0505  -29.3908   20.7270 C   0  0  0  0  0  0
  -27.2184  -28.5526   20.7260 C   0  0  0  0  0  0
  -25.9970  -26.9032   19.4536 C   0  0  0  0  0  0
  -24.8540  -27.7140   19.4623 C   0  0  0  0  0  0
  -23.6468  -29.8365   20.1638 C   0  0  0  0  0  0
  -25.4120  -36.3085   24.0324 C   0  0  1  0  0  0
  -20.5890  -28.3706   23.1248 C   0  0  2  0  0  0
  -20.6790  -26.9418   22.5403 C   0  0  0  0  0  0
  -19.5763  -26.6388   21.5212 C   0  0  0  0  0  0
  -18.1938  -26.7939   22.1615 C   0  0  0  0  0  0
  -19.1538  -28.8865   23.2873 C   0  0  0  0  0  0
  -18.9467  -30.1462   23.8898 C   0  0  0  0  0  0
  -17.6466  -30.6602   24.0546 C   0  0  0  0  0  0
  -25.9059  -34.9452   23.5107 C   0  0  0  0  0  0
  -16.5352  -29.9088   23.6334 C   0  0  0  0  0  0
  -16.7269  -28.6497   23.0370 C   0  0  0  0  0  0
  -26.4531  -31.6588   25.0752 C   0  0  0  0  0  0
  -25.3745  -31.3705   26.1453 C   0  0  0  0  0  0
  -27.0387  -30.3010   24.6228 C   0  0  0  0  0  0
  -27.6085  -32.4320   25.7531 C   0  0  0  0  0  0
  -27.5588  -37.1789   24.8460 C   0  0  0  0  0  0
  -21.4208  -29.3053   22.3651 N   0  0  0  0  0  0
  -26.4284  -37.3796   23.9421 N   0  0  0  0  0  0
  -24.7012  -31.0515   22.1049 N   0  0  0  0  0  0
  -23.4195  -28.8131   23.3028 O   0  0  0  0  0  0
  -28.2434  -26.2770   20.2161 O   0  0  0  0  0  0
  -26.5607  -34.8906   22.4657 O   0  0  0  0  0  0
  -23.5482  -32.1404   23.7336 O   0  0  0  0  0  0
  -29.0211  -23.0152   21.6932 C   0  0  0  0  0  0
  -29.4112  -21.6478   21.9131 C   0  0  0  0  0  0
  -28.6282  -23.4932   20.4151 C   0  0  0  0  0  0
  -29.3534  -20.6971   20.8426 C   0  0  0  0  0  0
  -28.7366  -22.4953   19.3922 C   0  0  0  0  0  0
  -28.6858  -18.1150   20.2293 C   0  0  0  0  0  0
  -30.9732  -18.5041   20.9337 C   0  0  0  0  0  0
  -28.8070  -16.5732   20.6265 C   0  0  0  0  0  0
  -31.0508  -17.0319   21.4985 C   0  0  0  0  0  0
  -29.5550  -19.1129   21.0513 C   0  0  0  0  0  0
  -28.3574  -22.8046   17.9531 C   0  0  0  0  0  0
  -28.6311  -20.8256   24.1821 C   0  0  0  0  0  0
  -30.7554  -22.2149   24.0300 C   0  0  0  0  0  0
  -27.7767  -24.8395   20.2184 C   0  0  0  0  0  0
  -29.8435  -21.2026   23.3162 C   0  0  0  0  0  0
  -29.0890  -21.1800   19.5989 N   0  0  0  0  0  0
  -30.1667  -15.9956   20.8686 N   0  0  0  0  0  0
  -31.4527  -12.5542   19.1778 H   0  0  0  0  0  0
  -30.3345  -11.5150   20.0051 H   0  0  0  0  0  0
  -29.8016  -11.7049   17.5463 H   0  0  0  0  0  0
  -29.6119  -13.4336   17.7084 H   0  0  0  0  0  0
  -27.9247  -11.2409   18.9677 H   0  0  0  0  0  0
  -27.3673  -12.4229   17.8155 H   0  0  0  0  0  0
  -27.5716  -14.1944   19.3764 H   0  0  0  0  0  0
  -28.7189  -12.2810   21.4922 H   0  0  0  0  0  0
  -28.3913  -13.9764   21.7349 H   0  0  0  0  0  0
  -25.2749   -9.5694   22.4747 H   0  0  0  0  0  0
  -24.0024   -7.4637   22.7474 H   0  0  0  0  0  0
  -21.0855   -8.8773   19.8918 H   0  0  0  0  0  0
  -22.3711  -10.9676   19.6184 H   0  0  0  0  0  0
  -21.2000   -7.6146   23.9751 H   0  0  0  0  0  0
  -21.1462   -6.0513   25.9091 H   0  0  0  0  0  0
  -22.0612   -2.7629   23.2847 H   0  0  0  0  0  0
  -22.4041  -11.9900   22.4827 H   0  0  0  0  0  0
  -21.1014  -13.1233   22.2610 H   0  0  0  0  0  0
  -24.6428  -15.8400   20.5310 H   0  0  0  0  0  0
  -26.2552  -15.6293   20.0715 H   0  0  0  0  0  0
  -26.7224  -32.5422   23.1093 H   0  0  0  0  0  0
  -25.0165  -33.9728   25.0478 H   0  0  0  0  0  0
  -22.7269  -31.3119   21.4145 H   0  0  0  0  0  0
  -23.3786  -35.9558   23.3252 H   0  0  0  0  0  0
  -24.3586  -36.8934   22.2061 H   0  0  0  0  0  0
  -23.7169  -37.6421   23.6684 H   0  0  0  0  0  0
  -26.1186  -31.5258   20.6198 H   0  0  0  0  0  0
  -26.8583  -30.8126   22.0209 H   0  0  0  0  0  0
  -28.1114  -28.8824   21.2379 H   0  0  0  0  0  0
  -25.8635  -25.9856   18.9085 H   0  0  0  0  0  0
  -23.9573  -27.3780   18.9607 H   0  0  0  0  0  0
  -23.7738  -30.6222   19.4178 H   0  0  0  0  0  0
  -22.7625  -29.2766   19.8535 H   0  0  0  0  0  0
  -25.1300  -36.1920   25.0815 H   0  0  0  0  0  0
  -20.9983  -28.3294   24.1364 H   0  0  0  0  0  0
  -20.5708  -26.2312   23.3619 H   0  0  0  0  0  0
  -21.6646  -26.7465   22.1160 H   0  0  0  0  0  0
  -19.6919  -25.6299   21.1244 H   0  0  0  0  0  0
  -19.6707  -27.3193   20.6740 H   0  0  0  0  0  0
  -17.4215  -26.6697   21.4012 H   0  0  0  0  0  0
  -18.0318  -26.0079   22.9001 H   0  0  0  0  0  0
  -19.7946  -30.7275   24.2278 H   0  0  0  0  0  0
  -17.5019  -31.6284   24.5146 H   0  0  0  0  0  0
  -15.5354  -30.2988   23.7684 H   0  0  0  0  0  0
  -15.8657  -28.0809   22.7112 H   0  0  0  0  0  0
  -24.5971  -30.7007   25.7753 H   0  0  0  0  0  0
  -24.8880  -32.2856   26.4841 H   0  0  0  0  0  0
  -25.8062  -30.8910   27.0249 H   0  0  0  0  0  0
  -26.2973  -29.6752   24.1243 H   0  0  0  0  0  0
  -27.4065  -29.7271   25.4741 H   0  0  0  0  0  0
  -27.8850  -30.4297   23.9482 H   0  0  0  0  0  0
  -27.2724  -33.3657   26.2042 H   0  0  0  0  0  0
  -28.3938  -32.6809   25.0388 H   0  0  0  0  0  0
  -28.0691  -31.8476   26.5501 H   0  0  0  0  0  0
  -28.2558  -38.0135   24.7579 H   0  0  0  0  0  0
  -28.1138  -36.2667   24.6206 H   0  0  0  0  0  0
  -27.2305  -37.1304   25.8858 H   0  0  0  0  0  0
  -20.9413  -29.8769   21.6837 H   0  0  0  0  0  0
  -26.0156  -38.2855   24.1492 H   0  0  0  0  0  0
  -28.9432  -23.6873   22.5361 H   0  0  0  0  0  0
  -27.6414  -18.4180   20.3078 H   0  0  0  0  0  0
  -28.9392  -18.2281   19.1734 H   0  0  0  0  0  0
  -31.3047  -18.5236   19.8947 H   0  0  0  0  0  0
  -31.6798  -19.1266   21.4839 H   0  0  0  0  0  0
  -28.3374  -16.0252   19.8209 H   0  0  0  0  0  0
  -28.2093  -16.3967   21.5226 H   0  0  0  0  0  0
  -30.7827  -17.0596   22.5550 H   0  0  0  0  0  0
  -32.0961  -16.7212   21.4917 H   0  0  0  0  0  0
  -29.2351  -18.9357   22.0751 H   0  0  0  0  0  0
  -28.8624  -23.7089   17.6096 H   0  0  0  0  0  0
  -27.2796  -22.9494   17.8627 H   0  0  0  0  0  0
  -28.6305  -21.9920   17.2798 H   0  0  0  0  0  0
  -28.0456  -20.0249   23.7282 H   0  0  0  0  0  0
  -27.9680  -21.6770   24.3335 H   0  0  0  0  0  0
  -28.9473  -20.4721   25.1651 H   0  0  0  0  0  0
  -31.6324  -22.4607   23.4283 H   0  0  0  0  0  0
  -31.1222  -21.7961   24.9689 H   0  0  0  0  0  0
  -30.2419  -23.1422   24.2770 H   0  0  0  0  0  0
  -26.9961  -24.7796   20.9793 H   0  0  0  0  0  0
  -27.2752  -24.6609   19.2773 H   0  0  0  0  0  0
  -30.4678  -20.3165   23.2108 H   0  0  0  0  0  0
  1 25  1  0  0  0
  1 30  2  0  0  0
  1 87  1  0  0  0
  2  3  1  0  0  0
  2 25  1  0  0  0
  2 88  1  0  0  0
  2 89  1  0  0  0
  3  4  1  0  0  0
  3 90  1  0  0  0
  3 91  1  0  0  0
  4  5  1  0  0  0
  4 92  1  0  0  0
  4 93  1  0  0  0
  5  6  1  0  0  0
  5 26  1  0  0  0
  5 94  1  0  0  0
  6 25  1  0  0  0
  6 95  1  0  0  0
  6 96  1  0  0  0
  7  8  2  0  0  0
  7 26  1  0  0  0
  7 29  1  0  0  0
  8  9  1  0  0  0
  8 22  1  0  0  0
  9 10  1  0  0  0
  9 27  2  0  0  0
 10 11  2  0  0  0
 10 15  1  0  0  0
 11 12  1  0  0  0
 11 97  1  0  0  0
 12 13  2  0  0  0
 12 98  1  0  0  0
 13 14  1  0  0  0
 13 31  1  0  0  0
 14 15  2  0  0  0
 14 99  1  0  0  0
 15100  1  0  0  0
 16 17  2  0  0  0
 16 21  1  0  0  0
 16 31  1  0  0  0
 17 18  1  0  0  0
 17101  1  0  0  0
 18 19  2  0  0  0
 18102  1  0  0  0
 19 20  1  0  0  0
 19 24  1  0  0  0
 20 21  2  0  0  0
 20103  1  0  0  0
 21 23  1  0  0  0
 22 28  1  0  0  0
 22 32  2  0  0  0
 26 27  1  0  0  0
 28104  1  0  0  0
 28105  1  0  0  0
 29106  1  0  0  0
 29107  1  0  0  0
 33 34  1  0  0  0
 33 66  1  0  0  0
 33 70  2  0  0  0
 34 36  1  0  0  0
 34 59  1  0  0  0
 34108  1  0  0  0
 35 44  2  0  0  0
 35 45  1  0  0  0
 35 68  1  0  0  0
 36 56  1  0  0  0
 36109  1  0  0  0
 37 39  1  0  0  0
 37 47  1  0  0  0
 37 66  1  0  0  0
 37110  1  0  0  0
 38 43  2  0  0  0
 38 46  1  0  0  0
 38 47  1  0  0  0
 39 64  1  0  0  0
 39 67  2  0  0  0
 40 52  1  0  0  0
 40 53  2  0  0  0
 40 58  1  0  0  0
 41111  1  0  0  0
 41112  1  0  0  0
 41113  1  0  0  0
 41 48  1  0  0  0
 42 43  1  0  0  0
 42 66  1  0  0  0
 42114  1  0  0  0
 42115  1  0  0  0
 43 44  1  0  0  0
 44116  1  0  0  0
 45 46  2  0  0  0
 45117  1  0  0  0
 46118  1  0  0  0
 47119  1  0  0  0
 47120  1  0  0  0
 48 56  1  0  0  0
 48 65  1  0  0  0
 48121  1  0  0  0
 49 50  1  0  0  0
 49 53  1  0  0  0
 49 64  1  0  0  0
 49122  1  0  0  0
 50 51  1  0  0  0
 50123  1  0  0  0
 50124  1  0  0  0
 51 52  1  0  0  0
 51125  1  0  0  0
 51126  1  0  0  0
 52127  1  0  0  0
 52128  1  0  0  0
 53 54  1  0  0  0
 54 55  2  0  0  0
 54129  1  0  0  0
 55 57  1  0  0  0
 55130  1  0  0  0
 56 69  2  0  0  0
 57 58  2  0  0  0
 57131  1  0  0  0
 58132  1  0  0  0
 59 60  1  0  0  0
 59 61  1  0  0  0
 59 62  1  0  0  0
 60133  1  0  0  0
 60134  1  0  0  0
 60135  1  0  0  0
 61136  1  0  0  0
 61137  1  0  0  0
 61138  1  0  0  0
 62139  1  0  0  0
 62140  1  0  0  0
 62141  1  0  0  0
 63 65  1  0  0  0
 63142  1  0  0  0
 63143  1  0  0  0
 63144  1  0  0  0
 64145  1  0  0  0
 65146  1  0  0  0
 68 84  1  0  0  0
 71 72  2  0  0  0
 71 73  1  0  0  0
 71147  1  0  0  0
 72 74  1  0  0  0
 72 85  1  0  0  0
 73 75  2  0  0  0
 73 84  1  0  0  0
 74 86  2  0  0  0
 74 80  1  0  0  0
 75 81  1  0  0  0
 75 86  1  0  0  0
 76 78  1  0  0  0
 76 80  1  0  0  0
 76148  1  0  0  0
 76149  1  0  0  0
 77 79  1  0  0  0
 77 80  1  0  0  0
 77150  1  0  0  0
 77151  1  0  0  0
 78 87  1  0  0  0
 78152  1  0  0  0
 78153  1  0  0  0
 79 87  1  0  0  0
 79154  1  0  0  0
 79155  1  0  0  0
 80156  1  0  0  0
 81157  1  0  0  0
 81158  1  0  0  0
 81159  1  0  0  0
 82160  1  0  0  0
 82161  1  0  0  0
 82162  1  0  0  0
 82 85  1  0  0  0
 83 85  1  0  0  0
 83163  1  0  0  0
 83164  1  0  0  0
 83165  1  0  0  0
 84166  1  0  0  0
 84167  1  0  0  0
 85168  1  0  0  0
M  ISO  4   1 100  68 101  84 101  87 100
M  END
> <chiral flag>
0

> <version>
0

> <s_m_source_file>
/data/baiqing/PycharmProjects/Reinvent-master-3.2/result/LINK_invent/BTK/process_docking_weight1_custom_sum_contain_oxygen_bond_distance_aromatic_linkinvent_7_9_3/rearranged_h_0174.sdf

> <i_m_source_file_index>
79

> <r_mmod_Potential_Energy-OPLS-2005>
326.286560058594

> <r_mmod_Stretch_Energy-OPLS-2005>
127.468971252441

> <r_mmod_Bend_Energy-OPLS-2005>
217.785385131836

> <r_mmod_Torsional_Energy-OPLS-2005>
328.744476318359

> <r_mmod_Improper_Torsional_Energy-OPLS-2005>
5.20474100112915

> <r_mmod_Van_der_Waal_Energy-OPLS-2005>
164.579360961914

> <r_mmod_Electrostatic_Energy-OPLS-2005>
-411.646728515625

> <r_mmod_Solvation_Energy-OPLS-2005>
-211.713195800781

> <b_mmod_Minimization_Converged-OPLS-2005>
0

> <r_mmod_RMS_Derivative-OPLS-2005>
2.94450187683105

$$$$
81
                    3D
 Structure written by MMmdl.
168177  0  0  1  0            999 V2000
  -30.5309  -14.8772   20.4219 C   0  0  0  0  0  0
  -30.4458  -12.5338   19.4912 C   0  0  0  0  0  0
  -29.5183  -12.5280   18.2527 C   0  0  0  0  0  0
  -28.0474  -12.3265   18.6676 C   0  0  0  0  0  0
  -27.6401  -13.2254   19.8641 C   0  0  2  0  0  0
  -28.6885  -13.1992   20.9969 C   0  0  0  0  0  0
  -25.2563  -13.8185   20.5805 C   0  0  0  0  0  0
  -24.1796  -13.0427   20.9117 C   0  0  0  0  0  0
  -24.6365  -11.6895   20.8697 C   0  0  0  0  0  0
  -23.9043  -10.4281   21.0385 C   0  0  0  0  0  0
  -24.3599   -9.4204   21.9171 C   0  0  0  0  0  0
  -23.6283   -8.2238   22.0746 C   0  0  0  0  0  0
  -22.4267   -8.0269   21.3538 C   0  0  0  0  0  0
  -21.9897   -9.0234   20.4630 C   0  0  0  0  0  0
  -22.7215  -10.2117   20.3040 C   0  0  0  0  0  0
  -21.6855   -6.0728   22.5286 C   0  0  0  0  0  0
  -21.4015   -6.5635   23.8221 C   0  0  0  0  0  0
  -21.3665   -5.6791   24.9185 C   0  0  0  0  0  0
  -21.6044   -4.3054   24.7234 C   0  0  0  0  0  0
  -21.8814   -3.8141   23.4358 C   0  0  0  0  0  0
  -21.9192   -4.6956   22.3412 C   0  0  0  0  0  0
  -22.7846  -13.5238   21.1810 C   0  0  0  0  0  0
  -22.1659   -4.2145   21.0988 F   0  0  0  0  0  0
  -21.5628   -3.4533   25.7741 F   0  0  0  0  0  0
  -29.9730  -13.6050   20.4072 N   0  0  0  0  0  0
  -26.2953  -12.9348   20.3419 N   0  0  0  0  0  0
  -25.9309  -11.6503   20.5790 N   0  0  0  0  0  0
  -22.0457  -12.8217   22.0323 N   0  0  0  0  0  0
  -25.4485  -15.1957   20.4536 N   0  0  0  0  0  0
  -31.7179  -14.9966   20.0947 O   0  0  0  0  0  0
  -21.6630   -6.8866   21.4247 O   0  0  0  0  0  0
  -22.3644  -14.5632   20.6745 O   0  0  0  0  0  0
  -24.6394  -31.8481   23.1926 C   0  0  0  0  0  0
  -25.9188  -32.4714   23.8304 C   0  0  1  0  0  0
  -27.2184  -27.1759   20.1340 C   0  0  0  0  0  0
  -25.5959  -33.8521   24.2226 N   0  0  0  0  0  0
  -23.4413  -30.4694   21.5371 C   0  0  2  0  0  0
  -24.8905  -28.9063   20.1063 C   0  0  0  0  0  0
  -22.7547  -29.4562   22.4864 C   0  0  0  0  0  0
  -18.0304  -28.1382   22.8471 C   0  0  0  0  0  0
  -24.1498  -36.7265   23.2641 C   0  0  0  0  0  0
  -25.9950  -30.7292   21.3915 C   0  0  0  0  0  0
  -26.0646  -29.3465   20.7298 C   0  0  0  0  0  0
  -27.2270  -28.4938   20.7346 C   0  0  0  0  0  0
  -26.0240  -26.8398   19.4553 C   0  0  0  0  0  0
  -24.8809  -27.6651   19.4555 C   0  0  0  0  0  0
  -23.6655  -29.8036   20.1541 C   0  0  0  0  0  0
  -25.4129  -36.3050   24.0320 C   0  0  1  0  0  0
  -20.5910  -28.3711   23.1233 C   0  0  2  0  0  0
  -20.6792  -26.9418   22.5395 C   0  0  0  0  0  0
  -19.5767  -26.6375   21.5201 C   0  0  0  0  0  0
  -18.1948  -26.7925   22.1611 C   0  0  0  0  0  0
  -19.1558  -28.8864   23.2850 C   0  0  0  0  0  0
  -18.9475  -30.1459   23.8874 C   0  0  0  0  0  0
  -17.6474  -30.6585   24.0548 C   0  0  0  0  0  0
  -25.9070  -34.9419   23.5079 C   0  0  0  0  0  0
  -16.5363  -29.9076   23.6333 C   0  0  0  0  0  0
  -16.7288  -28.6493   23.0354 C   0  0  0  0  0  0
  -26.4527  -31.6562   25.0724 C   0  0  0  0  0  0
  -25.3718  -31.3717   26.1417 C   0  0  0  0  0  0
  -27.0407  -30.2968   24.6289 C   0  0  0  0  0  0
  -27.6062  -32.4326   25.7501 C   0  0  0  0  0  0
  -27.5586  -37.1796   24.8466 C   0  0  0  0  0  0
  -21.4243  -29.3047   22.3612 N   0  0  0  0  0  0
  -26.4302  -37.3759   23.9400 N   0  0  0  0  0  0
  -24.7112  -31.0360   22.0957 N   0  0  0  0  0  0
  -23.4209  -28.8116   23.3007 O   0  0  0  0  0  0
  -28.2793  -26.2121   20.2276 O   0  0  0  0  0  0
  -26.5646  -34.8904   22.4652 O   0  0  0  0  0  0
  -23.5522  -32.1357   23.7156 O   0  0  0  0  0  0
  -28.5686  -19.3743   19.0322 C   0  0  0  0  0  0
  -29.1514  -20.4043   19.8635 C   0  0  0  0  0  0
  -28.7982  -17.9465   19.2417 C   0  0  0  0  0  0
  -29.9673  -19.8215   20.8906 C   0  0  0  0  0  0
  -29.6336  -17.4562   20.3076 C   0  0  0  0  0  0
  -31.9059  -21.4875   21.4703 C   0  0  0  0  0  0
  -32.0420  -20.3463   22.4384 C   0  0  0  0  0  0
  -30.6769  -20.7013   21.8805 C   0  0  0  0  0  0
  -27.6674  -19.8345   17.8784 C   0  0  0  0  0  0
  -30.0560  -22.3348   18.4145 C   0  0  0  0  0  0
  -28.1894  -16.9248   18.2567 C   0  0  0  0  0  0
  -28.8526  -23.3663   20.4210 C   0  0  0  0  0  0
  -28.0821  -24.7319   19.8410 C   0  0  0  0  0  0
  -28.9854  -22.0089   19.4737 C   0  0  2  0  0  0
  -30.1570  -18.4543   21.0989 N   0  0  0  0  0  0
  -29.6728  -15.9740   20.6445 N   0  0  0  0  0  0
  -26.7287  -16.7354   18.3884 N   0  3  0  0  0  0
  -31.4817  -12.6868   19.1834 H   0  0  0  0  0  0
  -30.4267  -11.5663   19.9955 H   0  0  0  0  0  0
  -29.8204  -11.7465   17.5536 H   0  0  0  0  0  0
  -29.6205  -13.4734   17.7181 H   0  0  0  0  0  0
  -27.9223  -11.2775   18.9380 H   0  0  0  0  0  0
  -27.3864  -12.5023   17.8182 H   0  0  0  0  0  0
  -27.6147  -14.2378   19.4723 H   0  0  0  0  0  0
  -28.7600  -12.2036   21.4384 H   0  0  0  0  0  0
  -28.4029  -13.8702   21.8088 H   0  0  0  0  0  0
  -25.2742   -9.5696   22.4747 H   0  0  0  0  0  0
  -23.9996   -7.4639   22.7474 H   0  0  0  0  0  0
  -21.0827   -8.8750   19.8930 H   0  0  0  0  0  0
  -22.3672  -10.9653   19.6150 H   0  0  0  0  0  0
  -21.2009   -7.6144   23.9727 H   0  0  0  0  0  0
  -21.1494   -6.0519   25.9088 H   0  0  0  0  0  0
  -22.0587   -2.7599   23.2863 H   0  0  0  0  0  0
  -22.4009  -11.9806   22.4627 H   0  0  0  0  0  0
  -21.1098  -13.1281   22.2569 H   0  0  0  0  0  0
  -24.5363  -15.6257   20.5914 H   0  0  0  0  0  0
  -26.0092  -15.4773   21.2523 H   0  0  0  0  0  0
  -26.7244  -32.5331   23.1025 H   0  0  0  0  0  0
  -25.0106  -33.9646   25.0374 H   0  0  0  0  0  0
  -22.7422  -31.2950   21.3870 H   0  0  0  0  0  0
  -23.3772  -35.9584   23.3288 H   0  0  0  0  0  0
  -24.3583  -36.8917   22.2058 H   0  0  0  0  0  0
  -23.7240  -37.6452   23.6687 H   0  0  0  0  0  0
  -26.1508  -31.4860   20.6218 H   0  0  0  0  0  0
  -26.8654  -30.7741   22.0350 H   0  0  0  0  0  0
  -28.1181  -28.8202   21.2532 H   0  0  0  0  0  0
  -25.9318  -25.9044   18.9254 H   0  0  0  0  0  0
  -23.9877  -27.3289   18.9471 H   0  0  0  0  0  0
  -23.7969  -30.5807   19.3997 H   0  0  0  0  0  0
  -22.7821  -29.2426   19.8443 H   0  0  0  0  0  0
  -25.1318  -36.1893   25.0816 H   0  0  0  0  0  0
  -20.9997  -28.3300   24.1353 H   0  0  0  0  0  0
  -20.5688  -26.2321   23.3608 H   0  0  0  0  0  0
  -21.6661  -26.7431   22.1196 H   0  0  0  0  0  0
  -19.6931  -25.6284   21.1246 H   0  0  0  0  0  0
  -19.6707  -27.3166   20.6716 H   0  0  0  0  0  0
  -17.4221  -26.6662   21.4013 H   0  0  0  0  0  0
  -18.0347  -26.0065   22.9004 H   0  0  0  0  0  0
  -19.7951  -30.7274   24.2239 H   0  0  0  0  0  0
  -17.5031  -31.6264   24.5151 H   0  0  0  0  0  0
  -15.5365  -30.2968   23.7675 H   0  0  0  0  0  0
  -15.8687  -28.0806   22.7082 H   0  0  0  0  0  0
  -24.5913  -30.7055   25.7723 H   0  0  0  0  0  0
  -24.8880  -32.2875   26.4814 H   0  0  0  0  0  0
  -25.8012  -30.8905   27.0211 H   0  0  0  0  0  0
  -26.3026  -29.6665   24.1315 H   0  0  0  0  0  0
  -27.4054  -29.7293   25.4861 H   0  0  0  0  0  0
  -27.8919  -30.4223   23.9595 H   0  0  0  0  0  0
  -27.2677  -33.3663   26.2005 H   0  0  0  0  0  0
  -28.3905  -32.6824   25.0343 H   0  0  0  0  0  0
  -28.0685  -31.8491   26.5471 H   0  0  0  0  0  0
  -28.2594  -38.0105   24.7531 H   0  0  0  0  0  0
  -28.1103  -36.2634   24.6291 H   0  0  0  0  0  0
  -27.2293  -37.1436   25.8868 H   0  0  0  0  0  0
  -20.9444  -29.8776   21.6806 H   0  0  0  0  0  0
  -26.0175  -38.2834   24.1400 H   0  0  0  0  0  0
  -32.3108  -21.3306   20.4731 H   0  0  0  0  0  0
  -32.0252  -22.4918   21.8723 H   0  0  0  0  0  0
  -32.2408  -20.5993   23.4777 H   0  0  0  0  0  0
  -32.5257  -19.4412   22.0756 H   0  0  0  0  0  0
  -29.9664  -21.1950   22.5414 H   0  0  0  0  0  0
  -28.1858  -20.5369   17.2289 H   0  0  0  0  0  0
  -26.7798  -20.3297   18.2737 H   0  0  0  0  0  0
  -27.3058  -19.0576   17.2137 H   0  0  0  0  0  0
  -30.0914  -21.5968   17.6147 H   0  0  0  0  0  0
  -31.0508  -22.3736   18.8557 H   0  0  0  0  0  0
  -29.8769  -23.3025   17.9456 H   0  0  0  0  0  0
  -28.6740  -15.9534   18.3340 H   0  0  0  0  0  0
  -28.4262  -17.2311   17.2371 H   0  0  0  0  0  0
  -28.3342  -23.0836   21.3376 H   0  0  0  0  0  0
  -29.8532  -23.6490   20.7487 H   0  0  0  0  0  0
  -27.0353  -24.4935   20.0216 H   0  0  0  0  0  0
  -28.1860  -24.7186   18.7555 H   0  0  0  0  0  0
  -28.0276  -22.0566   18.9626 H   0  0  0  0  0  0
  -28.7843  -15.6441   20.9842 H   0  0  0  0  0  0
  -26.2332  -17.6066   18.3483 H   0  0  0  0  0  0
  -26.4486  -16.2562   19.2384 H   0  0  0  0  0  0
  -26.3973  -16.1694   17.6260 H   0  0  0  0  0  0
  1 25  1  0  0  0
  1 30  2  0  0  0
  1 86  1  0  0  0
  2  3  1  0  0  0
  2 25  1  0  0  0
  2 88  1  0  0  0
  2 89  1  0  0  0
  3  4  1  0  0  0
  3 90  1  0  0  0
  3 91  1  0  0  0
  4  5  1  0  0  0
  4 92  1  0  0  0
  4 93  1  0  0  0
  5  6  1  0  0  0
  5 26  1  0  0  0
  5 94  1  0  0  0
  6 25  1  0  0  0
  6 95  1  0  0  0
  6 96  1  0  0  0
  7  8  2  0  0  0
  7 26  1  0  0  0
  7 29  1  0  0  0
  8  9  1  0  0  0
  8 22  1  0  0  0
  9 10  1  0  0  0
  9 27  2  0  0  0
 10 11  2  0  0  0
 10 15  1  0  0  0
 11 12  1  0  0  0
 11 97  1  0  0  0
 12 13  2  0  0  0
 12 98  1  0  0  0
 13 14  1  0  0  0
 13 31  1  0  0  0
 14 15  2  0  0  0
 14 99  1  0  0  0
 15100  1  0  0  0
 16 17  2  0  0  0
 16 21  1  0  0  0
 16 31  1  0  0  0
 17 18  1  0  0  0
 17101  1  0  0  0
 18 19  2  0  0  0
 18102  1  0  0  0
 19 20  1  0  0  0
 19 24  1  0  0  0
 20 21  2  0  0  0
 20103  1  0  0  0
 21 23  1  0  0  0
 22 28  1  0  0  0
 22 32  2  0  0  0
 26 27  1  0  0  0
 28104  1  0  0  0
 28105  1  0  0  0
 29106  1  0  0  0
 29107  1  0  0  0
 33 34  1  0  0  0
 33 66  1  0  0  0
 33 70  2  0  0  0
 34 36  1  0  0  0
 34 59  1  0  0  0
 34108  1  0  0  0
 35 44  2  0  0  0
 35 45  1  0  0  0
 35 68  1  0  0  0
 36 56  1  0  0  0
 36109  1  0  0  0
 37 39  1  0  0  0
 37 47  1  0  0  0
 37 66  1  0  0  0
 37110  1  0  0  0
 38 43  2  0  0  0
 38 46  1  0  0  0
 38 47  1  0  0  0
 39 64  1  0  0  0
 39 67  2  0  0  0
 40 52  1  0  0  0
 40 53  2  0  0  0
 40 58  1  0  0  0
 41111  1  0  0  0
 41112  1  0  0  0
 41113  1  0  0  0
 41 48  1  0  0  0
 42 43  1  0  0  0
 42 66  1  0  0  0
 42114  1  0  0  0
 42115  1  0  0  0
 43 44  1  0  0  0
 44116  1  0  0  0
 45 46  2  0  0  0
 45117  1  0  0  0
 46118  1  0  0  0
 47119  1  0  0  0
 47120  1  0  0  0
 48 56  1  0  0  0
 48 65  1  0  0  0
 48121  1  0  0  0
 49 50  1  0  0  0
 49 53  1  0  0  0
 49 64  1  0  0  0
 49122  1  0  0  0
 50 51  1  0  0  0
 50123  1  0  0  0
 50124  1  0  0  0
 51 52  1  0  0  0
 51125  1  0  0  0
 51126  1  0  0  0
 52127  1  0  0  0
 52128  1  0  0  0
 53 54  1  0  0  0
 54 55  2  0  0  0
 54129  1  0  0  0
 55 57  1  0  0  0
 55130  1  0  0  0
 56 69  2  0  0  0
 57 58  2  0  0  0
 57131  1  0  0  0
 58132  1  0  0  0
 59 60  1  0  0  0
 59 61  1  0  0  0
 59 62  1  0  0  0
 60133  1  0  0  0
 60134  1  0  0  0
 60135  1  0  0  0
 61136  1  0  0  0
 61137  1  0  0  0
 61138  1  0  0  0
 62139  1  0  0  0
 62140  1  0  0  0
 62141  1  0  0  0
 63 65  1  0  0  0
 63142  1  0  0  0
 63143  1  0  0  0
 63144  1  0  0  0
 64145  1  0  0  0
 65146  1  0  0  0
 68 83  1  0  0  0
 71 72  2  0  0  0
 71 73  1  0  0  0
 71 79  1  0  0  0
 72 74  1  0  0  0
 72 84  1  0  0  0
 73 75  2  0  0  0
 73 81  1  0  0  0
 74 85  2  0  0  0
 74 78  1  0  0  0
 75 85  1  0  0  0
 75 86  1  0  0  0
 76 77  1  0  0  0
 76 78  1  0  0  0
 76147  1  0  0  0
 76148  1  0  0  0
 77 78  1  0  0  0
 77149  1  0  0  0
 77150  1  0  0  0
 78151  1  0  0  0
 79152  1  0  0  0
 79153  1  0  0  0
 79154  1  0  0  0
 80155  1  0  0  0
 80156  1  0  0  0
 80157  1  0  0  0
 80 84  1  0  0  0
 81 87  1  0  0  0
 81158  1  0  0  0
 81159  1  0  0  0
 82 83  1  0  0  0
 82 84  1  0  0  0
 82160  1  0  0  0
 82161  1  0  0  0
 83162  1  0  0  0
 83163  1  0  0  0
 84164  1  0  0  0
 86165  1  0  0  0
 87166  1  0  0  0
 87167  1  0  0  0
 87168  1  0  0  0
M  CHG  1  87   1
M  ISO  4   1 100  68 101  83 101  86 100
M  END
> <chiral flag>
0

> <version>
0

> <s_m_source_file>
/data/baiqing/PycharmProjects/Reinvent-master-3.2/result/LINK_invent/BTK/process_docking_weight1_custom_sum_contain_oxygen_bond_distance_aromatic_linkinvent_7_9_3/rearranged_h_0174.sdf

> <i_m_source_file_index>
80

> <r_mmod_Potential_Energy-OPLS-2005>
109.800758361816

> <r_mmod_Stretch_Energy-OPLS-2005>
213.038497924805

> <r_mmod_Bend_Energy-OPLS-2005>
256.682556152344

> <r_mmod_Torsional_Energy-OPLS-2005>
293.383605957031

> <r_mmod_Improper_Torsional_Energy-OPLS-2005>
13.4570417404175

> <r_mmod_Van_der_Waal_Energy-OPLS-2005>
145.30256652832

> <r_mmod_Electrostatic_Energy-OPLS-2005>
-458.853607177734

> <r_mmod_Solvation_Energy-OPLS-2005>
-505.808135986328

> <b_mmod_Minimization_Converged-OPLS-2005>
0

> <r_mmod_RMS_Derivative-OPLS-2005>
1.24069845676422

$$$$
82
                    3D
 Structure written by MMmdl.
171180  0  0  1  0            999 V2000
  -30.6547  -14.6027   20.4659 C   0  0  0  0  0  0
  -30.4290  -12.3452   19.4806 C   0  0  0  0  0  0
  -29.5163  -12.4268   18.2377 C   0  0  0  0  0  0
  -28.0276  -12.3349   18.6377 C   0  0  0  0  0  0
  -27.6496  -13.2082   19.8680 C   0  0  2  0  0  0
  -28.6923  -13.0913   21.0025 C   0  0  0  0  0  0
  -25.2554  -13.8140   20.5719 C   0  0  0  0  0  0
  -24.1813  -13.0427   20.9200 C   0  0  0  0  0  0
  -24.6354  -11.6888   20.8755 C   0  0  0  0  0  0
  -23.9018  -10.4290   21.0425 C   0  0  0  0  0  0
  -24.3586   -9.4207   21.9198 C   0  0  0  0  0  0
  -23.6273   -8.2235   22.0758 C   0  0  0  0  0  0
  -22.4252   -8.0271   21.3545 C   0  0  0  0  0  0
  -21.9880   -9.0240   20.4641 C   0  0  0  0  0  0
  -22.7195  -10.2130   20.3064 C   0  0  0  0  0  0
  -21.6847   -6.0719   22.5278 C   0  0  0  0  0  0
  -21.4014   -6.5632   23.8209 C   0  0  0  0  0  0
  -21.3664   -5.6791   24.9177 C   0  0  0  0  0  0
  -21.6033   -4.3050   24.7220 C   0  0  0  0  0  0
  -21.8827   -3.8135   23.4344 C   0  0  0  0  0  0
  -21.9200   -4.6951   22.3401 C   0  0  0  0  0  0
  -22.7837  -13.5225   21.1867 C   0  0  0  0  0  0
  -22.1672   -4.2138   21.0978 F   0  0  0  0  0  0
  -21.5630   -3.4537   25.7734 F   0  0  0  0  0  0
  -30.0112  -13.3964   20.4301 N   0  0  0  0  0  0
  -26.2965  -12.9297   20.3359 N   0  0  0  0  0  0
  -25.9283  -11.6462   20.5792 N   0  0  0  0  0  0
  -22.0485  -12.8218   22.0418 N   0  0  0  0  0  0
  -25.4291  -15.1871   20.4174 N   0  0  0  0  0  0
  -31.8214  -14.7296   20.0894 O   0  0  0  0  0  0
  -21.6625   -6.8863   21.4239 O   0  0  0  0  0  0
  -22.3533  -14.5533   20.6708 O   0  0  0  0  0  0
  -24.6219  -31.8651   23.2106 C   0  0  0  0  0  0
  -25.9091  -32.4810   23.8399 C   0  0  1  0  0  0
  -27.2166  -27.3585   20.1105 C   0  0  0  0  0  0
  -25.5938  -33.8613   24.2324 N   0  0  0  0  0  0
  -23.4121  -30.4927   21.5528 C   0  0  2  0  0  0
  -24.8560  -28.9642   20.1085 C   0  0  0  0  0  0
  -22.7453  -29.4652   22.4972 C   0  0  0  0  0  0
  -18.0285  -28.1398   22.8485 C   0  0  0  0  0  0
  -24.1497  -36.7305   23.2635 C   0  0  0  0  0  0
  -25.9509  -30.8073   21.3786 C   0  0  0  0  0  0
  -26.0224  -29.4395   20.7204 C   0  0  0  0  0  0
  -27.2014  -28.6445   20.7216 C   0  0  0  0  0  0
  -26.0324  -26.9468   19.4449 C   0  0  0  0  0  0
  -24.8614  -27.7213   19.4639 C   0  0  0  0  0  0
  -23.6228  -29.8381   20.1640 C   0  0  0  0  0  0
  -25.4122  -36.3106   24.0333 C   0  0  1  0  0  0
  -20.5878  -28.3693   23.1308 C   0  0  2  0  0  0
  -20.6792  -26.9426   22.5414 C   0  0  0  0  0  0
  -19.5759  -26.6396   21.5224 C   0  0  0  0  0  0
  -18.1935  -26.7944   22.1622 C   0  0  0  0  0  0
  -19.1532  -28.8864   23.2893 C   0  0  0  0  0  0
  -18.9455  -30.1475   23.8894 C   0  0  0  0  0  0
  -17.6457  -30.6599   24.0572 C   0  0  0  0  0  0
  -25.9051  -34.9469   23.5119 C   0  0  0  0  0  0
  -16.5350  -29.9093   23.6339 C   0  0  0  0  0  0
  -16.7276  -28.6518   23.0347 C   0  0  0  0  0  0
  -26.4492  -31.6603   25.0743 C   0  0  0  0  0  0
  -25.3744  -31.3720   26.1482 C   0  0  0  0  0  0
  -27.0329  -30.3034   24.6162 C   0  0  0  0  0  0
  -27.6066  -32.4322   25.7506 C   0  0  0  0  0  0
  -27.5590  -37.1812   24.8464 C   0  0  0  0  0  0
  -21.4173  -29.3040   22.3699 N   0  0  0  0  0  0
  -26.4307  -37.3792   23.9407 N   0  0  0  0  0  0
  -24.6804  -31.0700   22.1044 N   0  0  0  0  0  0
  -23.4198  -28.8178   23.3030 O   0  0  0  0  0  0
  -28.3418  -26.5307   20.2023 O   0  0  0  0  0  0
  -26.5596  -34.8920   22.4670 O   0  0  0  0  0  0
  -23.5394  -32.1440   23.7453 O   0  0  0  0  0  0
  -29.8170  -18.1491   19.7725 C   0  0  0  0  0  0
  -29.2669  -16.2316   18.4144 C   0  0  0  0  0  0
  -29.6071  -19.0027   18.6243 C   0  0  0  0  0  0
  -29.6881  -16.7202   19.6557 C   0  0  0  0  0  0
  -29.2920  -18.3036   17.4079 C   0  0  0  0  0  0
  -28.0434  -22.3770   18.7158 C   0  0  0  0  0  0
  -29.7008  -21.4221   19.9683 C   0  0  0  0  0  0
  -28.6492  -21.3180   17.7948 C   0  0  2  0  0  0
  -29.7957  -20.5861   18.6190 C   0  0  2  0  0  0
  -29.2205  -18.8863   16.0033 C   0  0  0  0  0  0
  -29.0687  -22.0668   16.4966 C   0  0  0  0  0  0
  -32.3894  -20.1288   18.7217 C   0  0  0  0  0  0
  -31.2266  -20.8873   18.0554 C   0  0  0  0  0  0
  -29.0728  -23.9750   20.4157 C   0  0  0  0  0  0
  -28.2089  -25.1357   19.7749 C   0  0  0  0  0  0
  -29.0790  -16.9833   17.3382 N   0  0  0  0  0  0
  -29.8935  -15.7167   20.6858 N   0  0  0  0  0  0
  -29.2072  -22.7661   19.5135 N   0  3  2  0  0  0
  -31.4751  -12.4429   19.1870 H   0  0  0  0  0  0
  -30.3442  -11.3653   19.9525 H   0  0  0  0  0  0
  -29.7570  -11.6144   17.5504 H   0  0  0  0  0  0
  -29.7213  -13.3344   17.6748 H   0  0  0  0  0  0
  -27.8230  -11.2869   18.8600 H   0  0  0  0  0  0
  -27.3908  -12.5882   17.7896 H   0  0  0  0  0  0
  -27.6472  -14.2387   19.5281 H   0  0  0  0  0  0
  -28.6887  -12.0886   21.4324 H   0  0  0  0  0  0
  -28.4472  -13.7669   21.8235 H   0  0  0  0  0  0
  -25.2748   -9.5676   22.4751 H   0  0  0  0  0  0
  -23.9992   -7.4615   22.7461 H   0  0  0  0  0  0
  -21.0826   -8.8740   19.8927 H   0  0  0  0  0  0
  -22.3666  -10.9662   19.6158 H   0  0  0  0  0  0
  -21.2003   -7.6146   23.9705 H   0  0  0  0  0  0
  -21.1481   -6.0525   25.9078 H   0  0  0  0  0  0
  -22.0601   -2.7594   23.2842 H   0  0  0  0  0  0
  -22.4110  -11.9875   22.4784 H   0  0  0  0  0  0
  -21.1105  -13.1238   22.2625 H   0  0  0  0  0  0
  -24.6594  -15.8389   20.5275 H   0  0  0  0  0  0
  -26.2802  -15.6326   20.1005 H   0  0  0  0  0  0
  -26.7155  -32.5497   23.1150 H   0  0  0  0  0  0
  -25.0136  -33.9779   25.0501 H   0  0  0  0  0  0
  -22.7033  -31.3128   21.4184 H   0  0  0  0  0  0
  -23.3764  -35.9633   23.3299 H   0  0  0  0  0  0
  -24.3587  -36.8919   22.2048 H   0  0  0  0  0  0
  -23.7247  -37.6508   23.6650 H   0  0  0  0  0  0
  -26.0767  -31.5737   20.6126 H   0  0  0  0  0  0
  -26.8338  -30.8535   22.0039 H   0  0  0  0  0  0
  -28.0919  -29.0002   21.2208 H   0  0  0  0  0  0
  -25.9588  -26.0204   18.8967 H   0  0  0  0  0  0
  -23.9712  -27.3594   18.9667 H   0  0  0  0  0  0
  -23.7381  -30.6200   19.4132 H   0  0  0  0  0  0
  -22.7432  -29.2675   19.8603 H   0  0  0  0  0  0
  -25.1302  -36.1966   25.0826 H   0  0  0  0  0  0
  -20.9966  -28.3271   24.1434 H   0  0  0  0  0  0
  -20.5753  -26.2287   23.3603 H   0  0  0  0  0  0
  -21.6663  -26.7505   22.1177 H   0  0  0  0  0  0
  -19.6937  -25.6307   21.1258 H   0  0  0  0  0  0
  -19.6718  -27.3207   20.6757 H   0  0  0  0  0  0
  -17.4222  -26.6704   21.4015 H   0  0  0  0  0  0
  -18.0323  -26.0093   22.9014 H   0  0  0  0  0  0
  -19.7928  -30.7303   24.2253 H   0  0  0  0  0  0
  -17.5006  -31.6276   24.5180 H   0  0  0  0  0  0
  -15.5348  -30.2993   23.7679 H   0  0  0  0  0  0
  -15.8672  -28.0851   22.7045 H   0  0  0  0  0  0
  -24.5912  -30.7076   25.7808 H   0  0  0  0  0  0
  -24.8945  -32.2881   26.4936 H   0  0  0  0  0  0
  -25.8087  -30.8873   27.0237 H   0  0  0  0  0  0
  -26.2886  -29.6787   24.1208 H   0  0  0  0  0  0
  -27.4064  -29.7282   25.4646 H   0  0  0  0  0  0
  -27.8744  -30.4331   23.9352 H   0  0  0  0  0  0
  -27.2692  -33.3620   26.2099 H   0  0  0  0  0  0
  -28.3873  -32.6884   25.0332 H   0  0  0  0  0  0
  -28.0741  -31.8436   26.5412 H   0  0  0  0  0  0
  -28.2606  -38.0108   24.7518 H   0  0  0  0  0  0
  -28.1088  -36.2643   24.6292 H   0  0  0  0  0  0
  -27.2300  -37.1463   25.8861 H   0  0  0  0  0  0
  -20.9345  -29.8733   21.6884 H   0  0  0  0  0  0
  -26.0192  -38.2868   24.1405 H   0  0  0  0  0  0
  -30.1063  -18.5805   20.7203 H   0  0  0  0  0  0
  -29.0742  -15.1910   18.2523 H   0  0  0  0  0  0
  -27.2705  -21.9501   19.3588 H   0  0  0  0  0  0
  -27.5742  -23.1803   18.1494 H   0  0  0  0  0  0
  -30.6450  -21.4967   20.5075 H   0  0  0  0  0  0
  -28.9768  -20.9829   20.6578 H   0  0  0  0  0  0
  -27.8287  -20.6342   17.5800 H   0  0  0  0  0  0
  -30.1382  -19.4009   15.7424 H   0  0  0  0  0  0
  -28.3505  -19.5165   15.8392 H   0  0  0  0  0  0
  -29.1329  -18.0969   15.2551 H   0  0  0  0  0  0
  -29.7058  -22.9254   16.7097 H   0  0  0  0  0  0
  -28.1906  -22.4487   15.9748 H   0  0  0  0  0  0
  -29.6070  -21.4660   15.7725 H   0  0  0  0  0  0
  -33.3415  -20.4543   18.3001 H   0  0  0  0  0  0
  -32.3227  -19.0548   18.5518 H   0  0  0  0  0  0
  -32.4388  -20.2968   19.7969 H   0  0  0  0  0  0
  -31.4422  -21.9556   18.1086 H   0  0  0  0  0  0
  -31.2927  -20.6466   16.9991 H   0  0  0  0  0  0
  -28.6423  -23.6818   21.3736 H   0  0  0  0  0  0
  -30.0767  -24.3456   20.6230 H   0  0  0  0  0  0
  -27.1939  -24.7803   19.9406 H   0  0  0  0  0  0
  -28.3780  -25.1625   18.6984 H   0  0  0  0  0  0
  -29.0576  -15.5094   21.2140 H   0  0  0  0  0  0
  -29.8901  -23.0559   18.8289 H   0  0  0  0  0  0
  1 25  1  0  0  0
  1 30  2  0  0  0
  1 87  1  0  0  0
  2  3  1  0  0  0
  2 25  1  0  0  0
  2 89  1  0  0  0
  2 90  1  0  0  0
  3  4  1  0  0  0
  3 91  1  0  0  0
  3 92  1  0  0  0
  4  5  1  0  0  0
  4 93  1  0  0  0
  4 94  1  0  0  0
  5  6  1  0  0  0
  5 26  1  0  0  0
  5 95  1  0  0  0
  6 25  1  0  0  0
  6 96  1  0  0  0
  6 97  1  0  0  0
  7  8  2  0  0  0
  7 26  1  0  0  0
  7 29  1  0  0  0
  8  9  1  0  0  0
  8 22  1  0  0  0
  9 10  1  0  0  0
  9 27  2  0  0  0
 10 11  2  0  0  0
 10 15  1  0  0  0
 11 12  1  0  0  0
 11 98  1  0  0  0
 12 13  2  0  0  0
 12 99  1  0  0  0
 13 14  1  0  0  0
 13 31  1  0  0  0
 14 15  2  0  0  0
 14100  1  0  0  0
 15101  1  0  0  0
 16 17  2  0  0  0
 16 21  1  0  0  0
 16 31  1  0  0  0
 17 18  1  0  0  0
 17102  1  0  0  0
 18 19  2  0  0  0
 18103  1  0  0  0
 19 20  1  0  0  0
 19 24  1  0  0  0
 20 21  2  0  0  0
 20104  1  0  0  0
 21 23  1  0  0  0
 22 28  1  0  0  0
 22 32  2  0  0  0
 26 27  1  0  0  0
 28105  1  0  0  0
 28106  1  0  0  0
 29107  1  0  0  0
 29108  1  0  0  0
 33 34  1  0  0  0
 33 66  1  0  0  0
 33 70  2  0  0  0
 34 36  1  0  0  0
 34 59  1  0  0  0
 34109  1  0  0  0
 35 44  2  0  0  0
 35 45  1  0  0  0
 35 68  1  0  0  0
 36 56  1  0  0  0
 36110  1  0  0  0
 37 39  1  0  0  0
 37 47  1  0  0  0
 37 66  1  0  0  0
 37111  1  0  0  0
 38 43  2  0  0  0
 38 46  1  0  0  0
 38 47  1  0  0  0
 39 64  1  0  0  0
 39 67  2  0  0  0
 40 52  1  0  0  0
 40 53  2  0  0  0
 40 58  1  0  0  0
 41112  1  0  0  0
 41113  1  0  0  0
 41114  1  0  0  0
 41 48  1  0  0  0
 42 43  1  0  0  0
 42 66  1  0  0  0
 42115  1  0  0  0
 42116  1  0  0  0
 43 44  1  0  0  0
 44117  1  0  0  0
 45 46  2  0  0  0
 45118  1  0  0  0
 46119  1  0  0  0
 47120  1  0  0  0
 47121  1  0  0  0
 48 56  1  0  0  0
 48 65  1  0  0  0
 48122  1  0  0  0
 49 50  1  0  0  0
 49 53  1  0  0  0
 49 64  1  0  0  0
 49123  1  0  0  0
 50 51  1  0  0  0
 50124  1  0  0  0
 50125  1  0  0  0
 51 52  1  0  0  0
 51126  1  0  0  0
 51127  1  0  0  0
 52128  1  0  0  0
 52129  1  0  0  0
 53 54  1  0  0  0
 54 55  2  0  0  0
 54130  1  0  0  0
 55 57  1  0  0  0
 55131  1  0  0  0
 56 69  2  0  0  0
 57 58  2  0  0  0
 57132  1  0  0  0
 58133  1  0  0  0
 59 60  1  0  0  0
 59 61  1  0  0  0
 59 62  1  0  0  0
 60134  1  0  0  0
 60135  1  0  0  0
 60136  1  0  0  0
 61137  1  0  0  0
 61138  1  0  0  0
 61139  1  0  0  0
 62140  1  0  0  0
 62141  1  0  0  0
 62142  1  0  0  0
 63 65  1  0  0  0
 63143  1  0  0  0
 63144  1  0  0  0
 63145  1  0  0  0
 64146  1  0  0  0
 65147  1  0  0  0
 68 85  1  0  0  0
 71 73  2  0  0  0
 71 74  1  0  0  0
 71148  1  0  0  0
 72 74  2  0  0  0
 72 86  1  0  0  0
 72149  1  0  0  0
 73 75  1  0  0  0
 73 79  1  0  0  0
 74 87  1  0  0  0
 75 80  1  0  0  0
 75 86  2  0  0  0
 76 78  1  0  0  0
 76 88  1  0  0  0
 76150  1  0  0  0
 76151  1  0  0  0
 77 79  1  0  0  0
 77 88  1  0  0  0
 77152  1  0  0  0
 77153  1  0  0  0
 78 79  1  0  0  0
 78 81  1  0  0  0
 78154  1  0  0  0
 79 83  1  0  0  0
 80155  1  0  0  0
 80156  1  0  0  0
 80157  1  0  0  0
 81158  1  0  0  0
 81159  1  0  0  0
 81160  1  0  0  0
 82 83  1  0  0  0
 82161  1  0  0  0
 82162  1  0  0  0
 82163  1  0  0  0
 83164  1  0  0  0
 83165  1  0  0  0
 84 85  1  0  0  0
 84166  1  0  0  0
 84167  1  0  0  0
 84 88  1  0  0  0
 85168  1  0  0  0
 85169  1  0  0  0
 87170  1  0  0  0
 88171  1  0  0  0
M  CHG  1  88   1
M  ISO  4   1 100  68 101  85 101  87 100
M  END
> <chiral flag>
0

> <version>
0

> <s_m_source_file>
/data/baiqing/PycharmProjects/Reinvent-master-3.2/result/LINK_invent/BTK/process_docking_weight1_custom_sum_contain_oxygen_bond_distance_aromatic_linkinvent_7_9_3/rearranged_h_0174.sdf

> <i_m_source_file_index>
81

> <r_mmod_Potential_Energy-OPLS-2005>
22.3342151641846

> <r_mmod_Stretch_Energy-OPLS-2005>
83.5923919677734

> <r_mmod_Bend_Energy-OPLS-2005>
225.306716918945

> <r_mmod_Torsional_Energy-OPLS-2005>
343.817932128906

> <r_mmod_Improper_Torsional_Energy-OPLS-2005>
9.74203205108643

> <r_mmod_Van_der_Waal_Energy-OPLS-2005>
181.107223510742

> <r_mmod_Electrostatic_Energy-OPLS-2005>
-413.596405029297

> <r_mmod_Solvation_Energy-OPLS-2005>
-449.220550537109

> <b_mmod_Minimization_Converged-OPLS-2005>
0

> <r_mmod_RMS_Derivative-OPLS-2005>
2.07258462905884

$$$$
83
                    3D
 Structure written by MMmdl.
160169  0  0  1  0            999 V2000
  -30.4528  -15.2992   20.3304 C   0  0  0  0  0  0
  -30.4427  -12.8433   19.4824 C   0  0  0  0  0  0
  -29.5255  -12.5543   18.2702 C   0  0  0  0  0  0
  -28.0895  -12.2457   18.7310 C   0  0  0  0  0  0
  -27.6027  -13.2349   19.8144 C   0  0  2  0  0  0
  -28.6533  -13.4876   20.9174 C   0  0  0  0  0  0
  -25.2412  -13.8109   20.5761 C   0  0  0  0  0  0
  -24.1732  -13.0370   20.9277 C   0  0  0  0  0  0
  -24.6352  -11.6852   20.8823 C   0  0  0  0  0  0
  -23.9042  -10.4248   21.0455 C   0  0  0  0  0  0
  -24.3598   -9.4160   21.9216 C   0  0  0  0  0  0
  -23.6266   -8.2204   22.0763 C   0  0  0  0  0  0
  -22.4243   -8.0261   21.3543 C   0  0  0  0  0  0
  -21.9892   -9.0240   20.4648 C   0  0  0  0  0  0
  -22.7229  -10.2114   20.3076 C   0  0  0  0  0  0
  -21.6838   -6.0717   22.5277 C   0  0  0  0  0  0
  -21.3996   -6.5624   23.8204 C   0  0  0  0  0  0
  -21.3650   -5.6781   24.9168 C   0  0  0  0  0  0
  -21.6046   -4.3042   24.7222 C   0  0  0  0  0  0
  -21.8826   -3.8132   23.4345 C   0  0  0  0  0  0
  -21.9189   -4.6946   22.3399 C   0  0  0  0  0  0
  -22.7759  -13.5179   21.1892 C   0  0  0  0  0  0
  -22.1666   -4.2139   21.0976 F   0  0  0  0  0  0
  -21.5630   -3.4527   25.7737 F   0  0  0  0  0  0
  -29.8608  -14.0052   20.2427 N   0  0  0  0  0  0
  -26.2800  -12.9297   20.3303 N   0  0  0  0  0  0
  -25.9278  -11.6454   20.5817 N   0  0  0  0  0  0
  -22.0373  -12.8197   22.0432 N   0  0  0  0  0  0
  -25.4070  -15.1834   20.4135 N   0  0  0  0  0  0
  -31.6915  -15.2555   20.3278 O   0  0  0  0  0  0
  -21.6608   -6.8857   21.4234 O   0  0  0  0  0  0
  -22.3494  -14.5503   20.6725 O   0  0  0  0  0  0
  -24.6636  -31.8249   23.1711 C   0  0  0  0  0  0
  -25.9314  -32.4600   23.8176 C   0  0  1  0  0  0
  -27.2316  -26.9390   20.1883 C   0  0  0  0  0  0
  -25.5992  -33.8410   24.2085 N   0  0  0  0  0  0
  -23.4776  -30.4361   21.5212 C   0  0  2  0  0  0
  -24.9333  -28.8227   20.1158 C   0  0  0  0  0  0
  -22.7664  -29.4432   22.4771 C   0  0  0  0  0  0
  -18.0326  -28.1401   22.8446 C   0  0  0  0  0  0
  -24.1491  -36.7207   23.2642 C   0  0  0  0  0  0
  -26.0461  -30.6357   21.4004 C   0  0  0  0  0  0
  -26.1172  -29.2258   20.7478 C   0  0  0  0  0  0
  -27.2597  -28.3052   20.7571 C   0  0  0  0  0  0
  -26.0160  -26.6835   19.5130 C   0  0  0  0  0  0
  -24.9079  -27.5691   19.4826 C   0  0  0  0  0  0
  -23.7204  -29.7528   20.1464 C   0  0  0  0  0  0
  -25.4130  -36.2959   24.0281 C   0  0  1  0  0  0
  -20.5951  -28.3748   23.1183 C   0  0  2  0  0  0
  -20.6810  -26.9428   22.5409 C   0  0  0  0  0  0
  -19.5790  -26.6370   21.5207 C   0  0  0  0  0  0
  -18.1962  -26.7945   22.1595 C   0  0  0  0  0  0
  -19.1584  -28.8895   23.2806 C   0  0  0  0  0  0
  -18.9500  -30.1480   23.8847 C   0  0  0  0  0  0
  -17.6499  -30.6591   24.0542 C   0  0  0  0  0  0
  -25.9090  -34.9348   23.4990 C   0  0  0  0  0  0
  -16.5384  -29.9082   23.6334 C   0  0  0  0  0  0
  -16.7315  -28.6512   23.0337 C   0  0  0  0  0  0
  -26.4556  -31.6539   25.0711 C   0  0  0  0  0  0
  -25.3660  -31.3798   26.1360 C   0  0  0  0  0  0
  -27.0459  -30.2912   24.6441 C   0  0  0  0  0  0
  -27.6061  -32.4360   25.7509 C   0  0  0  0  0  0
  -27.5568  -37.1756   24.8459 C   0  0  0  0  0  0
  -21.4333  -29.3043   22.3526 N   0  0  0  0  0  0
  -26.4271  -37.3694   23.9413 N   0  0  0  0  0  0
  -24.7504  -30.9908   22.0860 N   0  0  0  0  0  0
  -23.4207  -28.7993   23.3009 O   0  0  0  0  0  0
  -28.2606  -25.8604   20.2395 O   0  0  0  0  0  0
  -26.5689  -34.8874   22.4582 O   0  0  0  0  0  0
  -23.5706  -32.1229   23.6802 O   0  0  0  0  0  0
  -31.2779  -20.5596   18.1408 C   0  0  0  0  0  0
  -31.2461  -19.0522   18.1209 C   0  0  0  0  0  0
  -27.9561  -17.6485   20.1735 C   0  0  0  0  0  0
  -28.6903  -16.8064   19.1171 C   0  0  0  0  0  0
  -30.0506  -19.8232   18.6428 C   0  0  0  0  0  0
  -29.3171  -18.1306   20.6512 C   0  0  2  0  0  0
  -30.3247  -23.1270   21.1390 C   0  0  0  0  0  0
  -28.0350  -24.2238   20.2828 C   0  0  0  0  0  0
  -29.6863  -19.8085   20.1233 C   0  0  2  0  0  0
  -29.1323  -22.7945   20.2241 C   0  0  2  0  0  0
  -29.7440  -16.5990   20.1122 N   0  0  0  0  0  0
  -28.7791  -21.1740   20.4384 N   0  3  0  0  0  0
  -31.4490  -13.0724   19.1253 H   0  0  0  0  0  0
  -30.5454  -11.9629   20.1195 H   0  0  0  0  0  0
  -29.9184  -11.7209   17.6870 H   0  0  0  0  0  0
  -29.5201  -13.4191   17.6063 H   0  0  0  0  0  0
  -28.0829  -11.2345   19.1411 H   0  0  0  0  0  0
  -27.4066  -12.2331   17.8799 H   0  0  0  0  0  0
  -27.4623  -14.1512   19.2660 H   0  0  0  0  0  0
  -28.8538  -12.5786   21.4877 H   0  0  0  0  0  0
  -28.2845  -14.2286   21.6276 H   0  0  0  0  0  0
  -25.2736   -9.5625   22.4809 H   0  0  0  0  0  0
  -23.9955   -7.4588   22.7484 H   0  0  0  0  0  0
  -21.0815   -8.8777   19.8959 H   0  0  0  0  0  0
  -22.3693  -10.9670   19.6203 H   0  0  0  0  0  0
  -21.1974   -7.6131   23.9710 H   0  0  0  0  0  0
  -21.1466   -6.0502   25.9076 H   0  0  0  0  0  0
  -22.0610   -2.7593   23.2846 H   0  0  0  0  0  0
  -22.3952  -11.9874   22.4884 H   0  0  0  0  0  0
  -21.1010  -13.1274   22.2616 H   0  0  0  0  0  0
  -24.6361  -15.8336   20.5122 H   0  0  0  0  0  0
  -26.2604  -15.6227   20.0961 H   0  0  0  0  0  0
  -26.7402  -32.5172   23.0903 H   0  0  0  0  0  0
  -25.0123  -33.9477   25.0232 H   0  0  0  0  0  0
  -22.7883  -31.2661   21.3513 H   0  0  0  0  0  0
  -23.3754  -35.9542   23.3273 H   0  0  0  0  0  0
  -24.3554  -36.8906   22.2068 H   0  0  0  0  0  0
  -23.7270  -37.6384   23.6733 H   0  0  0  0  0  0
  -26.2171  -31.3733   20.6137 H   0  0  0  0  0  0
  -26.9076  -30.7023   22.0526 H   0  0  0  0  0  0
  -28.1616  -28.6119   21.2699 H   0  0  0  0  0  0
  -25.8939  -25.7325   19.0155 H   0  0  0  0  0  0
  -24.0074  -27.2510   18.9725 H   0  0  0  0  0  0
  -23.8854  -30.5263   19.3956 H   0  0  0  0  0  0
  -22.8276  -29.2176   19.8215 H   0  0  0  0  0  0
  -25.1326  -36.1727   25.0769 H   0  0  0  0  0  0
  -21.0033  -28.3387   24.1301 H   0  0  0  0  0  0
  -20.5683  -26.2372   23.3648 H   0  0  0  0  0  0
  -21.6683  -26.7415   22.1218 H   0  0  0  0  0  0
  -19.6947  -25.6257   21.1286 H   0  0  0  0  0  0
  -19.6755  -27.3128   20.6689 H   0  0  0  0  0  0
  -17.4249  -26.6680   21.3978 H   0  0  0  0  0  0
  -18.0342  -26.0081   22.8978 H   0  0  0  0  0  0
  -19.7974  -30.7299   24.2196 H   0  0  0  0  0  0
  -17.5057  -31.6260   24.5169 H   0  0  0  0  0  0
  -15.5375  -30.2979   23.7693 H   0  0  0  0  0  0
  -15.8711  -28.0834   22.7069 H   0  0  0  0  0  0
  -24.5908  -30.7038   25.7698 H   0  0  0  0  0  0
  -24.8735  -32.2995   26.4541 H   0  0  0  0  0  0
  -25.7884  -30.9179   27.0289 H   0  0  0  0  0  0
  -26.3123  -29.6576   24.1448 H   0  0  0  0  0  0
  -27.3997  -29.7290   25.5086 H   0  0  0  0  0  0
  -27.9060  -30.4089   23.9844 H   0  0  0  0  0  0
  -27.2648  -33.3753   26.1855 H   0  0  0  0  0  0
  -28.3976  -32.6765   25.0394 H   0  0  0  0  0  0
  -28.0585  -31.8631   26.5593 H   0  0  0  0  0  0
  -28.2545  -38.0083   24.7503 H   0  0  0  0  0  0
  -28.1092  -36.2605   24.6281 H   0  0  0  0  0  0
  -27.2265  -37.1404   25.8851 H   0  0  0  0  0  0
  -20.9573  -29.8793   21.6709 H   0  0  0  0  0  0
  -26.0100  -38.2735   24.1460 H   0  0  0  0  0  0
  -31.2041  -21.0711   17.1836 H   0  0  0  0  0  0
  -31.9356  -21.0304   18.8696 H   0  0  0  0  0  0
  -31.8659  -18.5252   18.8443 H   0  0  0  0  0  0
  -31.1476  -18.5631   17.1532 H   0  0  0  0  0  0
  -27.4307  -17.0547   20.9244 H   0  0  0  0  0  0
  -27.3113  -18.4311   19.7702 H   0  0  0  0  0  0
  -29.0156  -17.3752   18.2457 H   0  0  0  0  0  0
  -28.1490  -15.9399   18.7746 H   0  0  0  0  0  0
  -29.1871  -19.8413   17.9803 H   0  0  0  0  0  0
  -29.3118  -18.1286   21.7432 H   0  0  0  0  0  0
  -30.7240  -24.1186   20.9221 H   0  0  0  0  0  0
  -31.1431  -22.4193   21.0049 H   0  0  0  0  0  0
  -30.0379  -23.1175   22.1910 H   0  0  0  0  0  0
  -27.4557  -24.0866   21.1943 H   0  0  0  0  0  0
  -27.3137  -24.0321   19.4890 H   0  0  0  0  0  0
  -30.6142  -20.0453   20.6470 H   0  0  0  0  0  0
  -29.5250  -22.8204   19.2069 H   0  0  0  0  0  0
  -28.5068  -21.0855   21.4047 H   0  0  0  0  0  0
  -27.9278  -21.0208   19.9209 H   0  0  0  0  0  0
  1 25  1  0  0  0
  1 30  2  0  0  0
  1 81  1  0  0  0
  2  3  1  0  0  0
  2 25  1  0  0  0
  2 83  1  0  0  0
  2 84  1  0  0  0
  3  4  1  0  0  0
  3 85  1  0  0  0
  3 86  1  0  0  0
  4  5  1  0  0  0
  4 87  1  0  0  0
  4 88  1  0  0  0
  5  6  1  0  0  0
  5 26  1  0  0  0
  5 89  1  0  0  0
  6 25  1  0  0  0
  6 90  1  0  0  0
  6 91  1  0  0  0
  7  8  2  0  0  0
  7 26  1  0  0  0
  7 29  1  0  0  0
  8  9  1  0  0  0
  8 22  1  0  0  0
  9 10  1  0  0  0
  9 27  2  0  0  0
 10 11  2  0  0  0
 10 15  1  0  0  0
 11 12  1  0  0  0
 11 92  1  0  0  0
 12 13  2  0  0  0
 12 93  1  0  0  0
 13 14  1  0  0  0
 13 31  1  0  0  0
 14 15  2  0  0  0
 14 94  1  0  0  0
 15 95  1  0  0  0
 16 17  2  0  0  0
 16 21  1  0  0  0
 16 31  1  0  0  0
 17 18  1  0  0  0
 17 96  1  0  0  0
 18 19  2  0  0  0
 18 97  1  0  0  0
 19 20  1  0  0  0
 19 24  1  0  0  0
 20 21  2  0  0  0
 20 98  1  0  0  0
 21 23  1  0  0  0
 22 28  1  0  0  0
 22 32  2  0  0  0
 26 27  1  0  0  0
 28 99  1  0  0  0
 28100  1  0  0  0
 29101  1  0  0  0
 29102  1  0  0  0
 33 34  1  0  0  0
 33 66  1  0  0  0
 33 70  2  0  0  0
 34 36  1  0  0  0
 34 59  1  0  0  0
 34103  1  0  0  0
 35 44  2  0  0  0
 35 45  1  0  0  0
 35 68  1  0  0  0
 36 56  1  0  0  0
 36104  1  0  0  0
 37 39  1  0  0  0
 37 47  1  0  0  0
 37 66  1  0  0  0
 37105  1  0  0  0
 38 43  2  0  0  0
 38 46  1  0  0  0
 38 47  1  0  0  0
 39 64  1  0  0  0
 39 67  2  0  0  0
 40 52  1  0  0  0
 40 53  2  0  0  0
 40 58  1  0  0  0
 41106  1  0  0  0
 41107  1  0  0  0
 41108  1  0  0  0
 41 48  1  0  0  0
 42 43  1  0  0  0
 42 66  1  0  0  0
 42109  1  0  0  0
 42110  1  0  0  0
 43 44  1  0  0  0
 44111  1  0  0  0
 45 46  2  0  0  0
 45112  1  0  0  0
 46113  1  0  0  0
 47114  1  0  0  0
 47115  1  0  0  0
 48 56  1  0  0  0
 48 65  1  0  0  0
 48116  1  0  0  0
 49 50  1  0  0  0
 49 53  1  0  0  0
 49 64  1  0  0  0
 49117  1  0  0  0
 50 51  1  0  0  0
 50118  1  0  0  0
 50119  1  0  0  0
 51 52  1  0  0  0
 51120  1  0  0  0
 51121  1  0  0  0
 52122  1  0  0  0
 52123  1  0  0  0
 53 54  1  0  0  0
 54 55  2  0  0  0
 54124  1  0  0  0
 55 57  1  0  0  0
 55125  1  0  0  0
 56 69  2  0  0  0
 57 58  2  0  0  0
 57126  1  0  0  0
 58127  1  0  0  0
 59 60  1  0  0  0
 59 61  1  0  0  0
 59 62  1  0  0  0
 60128  1  0  0  0
 60129  1  0  0  0
 60130  1  0  0  0
 61131  1  0  0  0
 61132  1  0  0  0
 61133  1  0  0  0
 62134  1  0  0  0
 62135  1  0  0  0
 62136  1  0  0  0
 63 65  1  0  0  0
 63137  1  0  0  0
 63138  1  0  0  0
 63139  1  0  0  0
 64140  1  0  0  0
 65141  1  0  0  0
 68 78  1  0  0  0
 71 72  1  0  0  0
 71142  1  0  0  0
 71143  1  0  0  0
 71 75  1  0  0  0
 72 75  1  0  0  0
 72144  1  0  0  0
 72145  1  0  0  0
 73 74  1  0  0  0
 73146  1  0  0  0
 73147  1  0  0  0
 73 76  1  0  0  0
 74 81  1  0  0  0
 74148  1  0  0  0
 74149  1  0  0  0
 75 79  1  0  0  0
 75150  1  0  0  0
 76 79  1  0  0  0
 76 81  1  0  0  0
 76151  1  0  0  0
 77152  1  0  0  0
 77153  1  0  0  0
 77154  1  0  0  0
 77 80  1  0  0  0
 78 80  1  0  0  0
 78155  1  0  0  0
 78156  1  0  0  0
 79 82  1  0  0  0
 79157  1  0  0  0
 80 82  1  0  0  0
 80158  1  0  0  0
 82159  1  0  0  0
 82160  1  0  0  0
M  CHG  1  82   1
M  ISO  4   1 100  68 101  78 101  81 100
M  END
> <chiral flag>
0

> <version>
0

> <s_m_source_file>
/data/baiqing/PycharmProjects/Reinvent-master-3.2/result/LINK_invent/BTK/process_docking_weight1_custom_sum_contain_oxygen_bond_distance_aromatic_linkinvent_7_9_3/rearranged_h_0174.sdf

> <i_m_source_file_index>
82

> <r_mmod_Potential_Energy-OPLS-2005>
1417.68859863281

> <r_mmod_Stretch_Energy-OPLS-2005>
608.561340332031

> <r_mmod_Bend_Energy-OPLS-2005>
473.656982421875

> <r_mmod_Torsional_Energy-OPLS-2005>
399.690338134766

> <r_mmod_Improper_Torsional_Energy-OPLS-2005>
8.51117897033691

> <r_mmod_Van_der_Waal_Energy-OPLS-2005>
99.5632019042969

> <r_mmod_Electrostatic_Energy-OPLS-2005>
-195.034927368164

> <r_mmod_Solvation_Energy-OPLS-2005>
-455.212371826172

> <b_mmod_Minimization_Converged-OPLS-2005>
0

> <r_mmod_RMS_Derivative-OPLS-2005>
3.13952398300171

$$$$
84
                    3D
 Structure written by MMmdl.
151160  0  0  1  0            999 V2000
  -30.3773  -15.3319   20.3861 C   0  0  0  0  0  0
  -30.4345  -12.8390   19.5693 C   0  0  0  0  0  0
  -29.5577  -12.6250   18.3054 C   0  0  0  0  0  0
  -28.0933  -12.3452   18.6980 C   0  0  0  0  0  0
  -27.6090  -13.2912   19.8278 C   0  0  2  0  0  0
  -28.6306  -13.4659   20.9726 C   0  0  0  0  0  0
  -25.2336  -13.8254   20.5702 C   0  0  0  0  0  0
  -24.1711  -13.0426   20.9214 C   0  0  0  0  0  0
  -24.6392  -11.6933   20.8687 C   0  0  0  0  0  0
  -23.9104  -10.4285   21.0371 C   0  0  0  0  0  0
  -24.3653   -9.4205   21.9160 C   0  0  0  0  0  0
  -23.6294   -8.2256   22.0787 C   0  0  0  0  0  0
  -22.4257   -8.0290   21.3589 C   0  0  0  0  0  0
  -21.9900   -9.0278   20.4698 C   0  0  0  0  0  0
  -22.7260  -10.2131   20.3056 C   0  0  0  0  0  0
  -21.6867   -6.0724   22.5260 C   0  0  0  0  0  0
  -21.4050   -6.5630   23.8193 C   0  0  0  0  0  0
  -21.3684   -5.6787   24.9156 C   0  0  0  0  0  0
  -21.6033   -4.3039   24.7210 C   0  0  0  0  0  0
  -21.8816   -3.8128   23.4330 C   0  0  0  0  0  0
  -21.9207   -4.6952   22.3381 C   0  0  0  0  0  0
  -22.7735  -13.5187   21.1884 C   0  0  0  0  0  0
  -22.1648   -4.2140   21.0964 F   0  0  0  0  0  0
  -21.5619   -3.4528   25.7728 F   0  0  0  0  0  0
  -29.8685  -13.9914   20.3711 N   0  0  0  0  0  0
  -26.2783  -12.9567   20.3151 N   0  0  0  0  0  0
  -25.9327  -11.6651   20.5620 N   0  0  0  0  0  0
  -22.0415  -12.8188   22.0466 N   0  0  0  0  0  0
  -25.3908  -15.1998   20.4098 N   0  0  0  0  0  0
  -31.5909  -15.3662   20.1072 O   0  0  0  0  0  0
  -21.6651   -6.8860   21.4219 O   0  0  0  0  0  0
  -22.3413  -14.5488   20.6722 O   0  0  0  0  0  0
  -24.6695  -31.8154   23.1640 C   0  0  0  0  0  0
  -25.9348  -32.4525   23.8157 C   0  0  1  0  0  0
  -27.2194  -26.8560   20.2142 C   0  0  0  0  0  0
  -25.6005  -33.8356   24.2042 N   0  0  0  0  0  0
  -23.4899  -30.4230   21.5087 C   0  0  2  0  0  0
  -24.9469  -28.7968   20.1048 C   0  0  0  0  0  0
  -22.7707  -29.4386   22.4675 C   0  0  0  0  0  0
  -18.0334  -28.1402   22.8426 C   0  0  0  0  0  0
  -24.1510  -36.7223   23.2634 C   0  0  0  0  0  0
  -26.0605  -30.5993   21.4068 C   0  0  0  0  0  0
  -26.1250  -29.1813   20.7541 C   0  0  0  0  0  0
  -27.2511  -28.2332   20.7816 C   0  0  0  0  0  0
  -26.0206  -26.6426   19.4975 C   0  0  0  0  0  0
  -24.9272  -27.5534   19.4480 C   0  0  0  0  0  0
  -23.7387  -29.7383   20.1325 C   0  0  0  0  0  0
  -25.4132  -36.2920   24.0269 C   0  0  1  0  0  0
  -20.5962  -28.3780   23.1123 C   0  0  2  0  0  0
  -20.6809  -26.9447   22.5367 C   0  0  0  0  0  0
  -19.5786  -26.6368   21.5171 C   0  0  0  0  0  0
  -18.1969  -26.7927   22.1585 C   0  0  0  0  0  0
  -19.1602  -28.8908   23.2768 C   0  0  0  0  0  0
  -18.9500  -30.1482   23.8834 C   0  0  0  0  0  0
  -17.6500  -30.6571   24.0558 C   0  0  0  0  0  0
  -25.9110  -34.9302   23.4974 C   0  0  0  0  0  0
  -16.5389  -29.9061   23.6332 C   0  0  0  0  0  0
  -16.7324  -28.6488   23.0328 C   0  0  0  0  0  0
  -26.4587  -31.6487   25.0709 C   0  0  0  0  0  0
  -25.3717  -31.3811   26.1374 C   0  0  0  0  0  0
  -27.0485  -30.2811   24.6542 C   0  0  0  0  0  0
  -27.6039  -32.4331   25.7556 C   0  0  0  0  0  0
  -27.5587  -37.1746   24.8424 C   0  0  0  0  0  0
  -21.4361  -29.3055   22.3469 N   0  0  0  0  0  0
  -26.4266  -37.3665   23.9412 N   0  0  0  0  0  0
  -24.7616  -30.9756   22.0794 N   0  0  0  0  0  0
  -23.4201  -28.7953   23.2960 O   0  0  0  0  0  0
  -28.2186  -25.7329   20.3453 O   0  0  0  0  0  0
  -26.5713  -34.8863   22.4565 O   0  0  0  0  0  0
  -23.5752  -32.1158   23.6668 O   0  0  0  0  0  0
  -28.0973  -20.1303   21.7949 C   0  0  0  0  0  0
  -28.5035  -18.7324   21.6229 C   0  0  0  0  0  0
  -28.4617  -21.2504   20.9527 C   0  0  0  0  0  0
  -29.3029  -20.7132   19.9312 C   0  0  0  0  0  0
  -29.3698  -18.1866   20.6095 C   0  0  0  0  0  0
  -28.0089  -22.8330   21.1288 C   0  0  0  0  0  0
  -27.3941  -23.1505   22.2833 C   0  0  0  0  0  0
  -29.6447  -21.8437   18.8963 C   0  0  0  0  0  0
  -29.4353  -23.4499   19.2215 C   0  0  0  0  0  0
  -28.1914  -24.0735   20.0310 C   0  0  2  0  0  0
  -29.7249  -19.3134   19.7747 N   0  0  0  0  0  0
  -29.5223  -16.5459   20.5764 N   0  0  0  0  0  0
  -31.4690  -13.0346   19.2863 H   0  0  0  0  0  0
  -30.4668  -11.9246   20.1655 H   0  0  0  0  0  0
  -29.9465  -11.8191   17.6807 H   0  0  0  0  0  0
  -29.6140  -13.5291   17.6955 H   0  0  0  0  0  0
  -28.0166  -11.3043   19.0179 H   0  0  0  0  0  0
  -27.4515  -12.4507   17.8217 H   0  0  0  0  0  0
  -27.5210  -14.2683   19.3512 H   0  0  0  0  0  0
  -28.7999  -12.5306   21.5063 H   0  0  0  0  0  0
  -28.2516  -14.1827   21.7057 H   0  0  0  0  0  0
  -25.2823   -9.5671   22.4699 H   0  0  0  0  0  0
  -24.0050   -7.4632   22.7474 H   0  0  0  0  0  0
  -21.0858   -8.8790   19.8976 H   0  0  0  0  0  0
  -22.3741  -10.9665   19.6141 H   0  0  0  0  0  0
  -21.2054   -7.6147   23.9686 H   0  0  0  0  0  0
  -21.1518   -6.0519   25.9065 H   0  0  0  0  0  0
  -22.0583   -2.7590   23.2817 H   0  0  0  0  0  0
  -22.4117  -11.9886   22.4846 H   0  0  0  0  0  0
  -21.1024  -13.1186   22.2687 H   0  0  0  0  0  0
  -24.5943  -15.8254   20.4770 H   0  0  0  0  0  0
  -26.1976  -15.6386   19.9891 H   0  0  0  0  0  0
  -26.7428  -32.5042   23.0894 H   0  0  0  0  0  0
  -25.0113  -33.9440   25.0167 H   0  0  0  0  0  0
  -22.8077  -31.2567   21.3320 H   0  0  0  0  0  0
  -23.3761  -35.9560   23.3172 H   0  0  0  0  0  0
  -24.3624  -36.9018   22.2081 H   0  0  0  0  0  0
  -23.7291  -37.6374   23.6803 H   0  0  0  0  0  0
  -26.2531  -31.3354   20.6244 H   0  0  0  0  0  0
  -26.9152  -30.6573   22.0696 H   0  0  0  0  0  0
  -28.1399  -28.5274   21.3207 H   0  0  0  0  0  0
  -25.8916  -25.6943   18.9962 H   0  0  0  0  0  0
  -24.0416  -27.2575   18.9035 H   0  0  0  0  0  0
  -23.9123  -30.5127   19.3822 H   0  0  0  0  0  0
  -22.8480  -29.2031   19.7990 H   0  0  0  0  0  0
  -25.1318  -36.1692   25.0753 H   0  0  0  0  0  0
  -21.0054  -28.3397   24.1239 H   0  0  0  0  0  0
  -20.5659  -26.2395   23.3615 H   0  0  0  0  0  0
  -21.6683  -26.7389   22.1213 H   0  0  0  0  0  0
  -19.6969  -25.6256   21.1257 H   0  0  0  0  0  0
  -19.6729  -27.3129   20.6653 H   0  0  0  0  0  0
  -17.4231  -26.6625   21.4007 H   0  0  0  0  0  0
  -18.0406  -26.0100   22.9016 H   0  0  0  0  0  0
  -19.7982  -30.7309   24.2178 H   0  0  0  0  0  0
  -17.5044  -31.6240   24.5185 H   0  0  0  0  0  0
  -15.5387  -30.2942   23.7693 H   0  0  0  0  0  0
  -15.8711  -28.0796   22.7057 H   0  0  0  0  0  0
  -24.5801  -30.7277   25.7700 H   0  0  0  0  0  0
  -24.9052  -32.3059   26.4768 H   0  0  0  0  0  0
  -25.7918  -30.8961   27.0188 H   0  0  0  0  0  0
  -26.3130  -29.6435   24.1603 H   0  0  0  0  0  0
  -27.3992  -29.7255   25.5260 H   0  0  0  0  0  0
  -27.9120  -30.3926   23.9974 H   0  0  0  0  0  0
  -27.2503  -33.3593   26.2116 H   0  0  0  0  0  0
  -28.3884  -32.6960   25.0445 H   0  0  0  0  0  0
  -28.0690  -31.8504   26.5525 H   0  0  0  0  0  0
  -28.2457  -38.0170   24.7550 H   0  0  0  0  0  0
  -28.1220  -36.2695   24.6105 H   0  0  0  0  0  0
  -27.2342  -37.1218   25.8829 H   0  0  0  0  0  0
  -20.9598  -29.8786   21.6640 H   0  0  0  0  0  0
  -26.0084  -38.2708   24.1430 H   0  0  0  0  0  0
  -27.4337  -20.3194   22.6244 H   0  0  0  0  0  0
  -28.0870  -18.0346   22.3380 H   0  0  0  0  0  0
  -27.2106  -22.4294   23.0676 H   0  0  0  0  0  0
  -27.0436  -24.1538   22.4812 H   0  0  0  0  0  0
  -29.0420  -21.6098   18.0202 H   0  0  0  0  0  0
  -30.6741  -21.6721   18.5741 H   0  0  0  0  0  0
  -29.5014  -23.9758   18.2688 H   0  0  0  0  0  0
  -30.3238  -23.7715   19.7646 H   0  0  0  0  0  0
  -27.3397  -23.9398   19.3656 H   0  0  0  0  0  0
  -28.6458  -16.1620   20.8914 H   0  0  0  0  0  0
  1 25  1  0  0  0
  1 30  2  0  0  0
  1 82  1  0  0  0
  2  3  1  0  0  0
  2 25  1  0  0  0
  2 83  1  0  0  0
  2 84  1  0  0  0
  3  4  1  0  0  0
  3 85  1  0  0  0
  3 86  1  0  0  0
  4  5  1  0  0  0
  4 87  1  0  0  0
  4 88  1  0  0  0
  5  6  1  0  0  0
  5 26  1  0  0  0
  5 89  1  0  0  0
  6 25  1  0  0  0
  6 90  1  0  0  0
  6 91  1  0  0  0
  7  8  2  0  0  0
  7 26  1  0  0  0
  7 29  1  0  0  0
  8  9  1  0  0  0
  8 22  1  0  0  0
  9 10  1  0  0  0
  9 27  2  0  0  0
 10 11  2  0  0  0
 10 15  1  0  0  0
 11 12  1  0  0  0
 11 92  1  0  0  0
 12 13  2  0  0  0
 12 93  1  0  0  0
 13 14  1  0  0  0
 13 31  1  0  0  0
 14 15  2  0  0  0
 14 94  1  0  0  0
 15 95  1  0  0  0
 16 17  2  0  0  0
 16 21  1  0  0  0
 16 31  1  0  0  0
 17 18  1  0  0  0
 17 96  1  0  0  0
 18 19  2  0  0  0
 18 97  1  0  0  0
 19 20  1  0  0  0
 19 24  1  0  0  0
 20 21  2  0  0  0
 20 98  1  0  0  0
 21 23  1  0  0  0
 22 28  1  0  0  0
 22 32  2  0  0  0
 26 27  1  0  0  0
 28 99  1  0  0  0
 28100  1  0  0  0
 29101  1  0  0  0
 29102  1  0  0  0
 33 34  1  0  0  0
 33 66  1  0  0  0
 33 70  2  0  0  0
 34 36  1  0  0  0
 34 59  1  0  0  0
 34103  1  0  0  0
 35 44  2  0  0  0
 35 45  1  0  0  0
 35 68  1  0  0  0
 36 56  1  0  0  0
 36104  1  0  0  0
 37 39  1  0  0  0
 37 47  1  0  0  0
 37 66  1  0  0  0
 37105  1  0  0  0
 38 43  2  0  0  0
 38 46  1  0  0  0
 38 47  1  0  0  0
 39 64  1  0  0  0
 39 67  2  0  0  0
 40 52  1  0  0  0
 40 53  2  0  0  0
 40 58  1  0  0  0
 41106  1  0  0  0
 41107  1  0  0  0
 41108  1  0  0  0
 41 48  1  0  0  0
 42 43  1  0  0  0
 42 66  1  0  0  0
 42109  1  0  0  0
 42110  1  0  0  0
 43 44  1  0  0  0
 44111  1  0  0  0
 45 46  2  0  0  0
 45112  1  0  0  0
 46113  1  0  0  0
 47114  1  0  0  0
 47115  1  0  0  0
 48 56  1  0  0  0
 48 65  1  0  0  0
 48116  1  0  0  0
 49 50  1  0  0  0
 49 53  1  0  0  0
 49 64  1  0  0  0
 49117  1  0  0  0
 50 51  1  0  0  0
 50118  1  0  0  0
 50119  1  0  0  0
 51 52  1  0  0  0
 51120  1  0  0  0
 51121  1  0  0  0
 52122  1  0  0  0
 52123  1  0  0  0
 53 54  1  0  0  0
 54 55  2  0  0  0
 54124  1  0  0  0
 55 57  1  0  0  0
 55125  1  0  0  0
 56 69  2  0  0  0
 57 58  2  0  0  0
 57126  1  0  0  0
 58127  1  0  0  0
 59 60  1  0  0  0
 59 61  1  0  0  0
 59 62  1  0  0  0
 60128  1  0  0  0
 60129  1  0  0  0
 60130  1  0  0  0
 61131  1  0  0  0
 61132  1  0  0  0
 61133  1  0  0  0
 62134  1  0  0  0
 62135  1  0  0  0
 62136  1  0  0  0
 63 65  1  0  0  0
 63137  1  0  0  0
 63138  1  0  0  0
 63139  1  0  0  0
 64140  1  0  0  0
 65141  1  0  0  0
 68 80  1  0  0  0
 71 72  2  0  0  0
 71 73  1  0  0  0
 71142  1  0  0  0
 72 75  1  0  0  0
 72143  1  0  0  0
 73 74  2  0  0  0
 73 76  1  0  0  0
 74 78  1  0  0  0
 74 81  1  0  0  0
 75 81  2  0  0  0
 75 82  1  0  0  0
 76 77  2  0  0  0
 76 80  1  0  0  0
 77144  1  0  0  0
 77145  1  0  0  0
 78 79  1  0  0  0
 78146  1  0  0  0
 78147  1  0  0  0
 79 80  1  0  0  0
 79148  1  0  0  0
 79149  1  0  0  0
 80150  1  0  0  0
 82151  1  0  0  0
M  ISO  4   1 100  68 101  80 101  82 100
M  END
> <chiral flag>
0

> <version>
0

> <s_m_source_file>
/data/baiqing/PycharmProjects/Reinvent-master-3.2/result/LINK_invent/BTK/process_docking_weight1_custom_sum_contain_oxygen_bond_distance_aromatic_linkinvent_7_9_3/rearranged_h_0174.sdf

> <i_m_source_file_index>
83

> <r_mmod_Potential_Energy-OPLS-2005>
1230.19580078125

> <r_mmod_Stretch_Energy-OPLS-2005>
568.401000976562

> <r_mmod_Bend_Energy-OPLS-2005>
499.150756835938

> <r_mmod_Torsional_Energy-OPLS-2005>
214.163619995117

> <r_mmod_Improper_Torsional_Energy-OPLS-2005>
4.8683009147644

> <r_mmod_Van_der_Waal_Energy-OPLS-2005>
128.863586425781

> <r_mmod_Electrostatic_Energy-OPLS-2005>
-502.763000488281

> <r_mmod_Solvation_Energy-OPLS-2005>
-232.779067993164

> <b_mmod_Minimization_Converged-OPLS-2005>
0

> <r_mmod_RMS_Derivative-OPLS-2005>
5.51408195495605

$$$$
85
                    3D
 Structure written by MMmdl.
164173  0  0  1  0            999 V2000
  -30.6647  -14.5950   20.5051 C   0  0  0  0  0  0
  -30.4247  -12.3677   19.4471 C   0  0  0  0  0  0
  -29.5013  -12.5022   18.2172 C   0  0  0  0  0  0
  -28.0220  -12.3526   18.6266 C   0  0  0  0  0  0
  -27.6506  -13.2164   19.8624 C   0  0  2  0  0  0
  -28.6953  -13.0555   20.9878 C   0  0  0  0  0  0
  -25.2543  -13.8172   20.5677 C   0  0  0  0  0  0
  -24.1814  -13.0436   20.9186 C   0  0  0  0  0  0
  -24.6384  -11.6908   20.8737 C   0  0  0  0  0  0
  -23.9053  -10.4294   21.0406 C   0  0  0  0  0  0
  -24.3608   -9.4211   21.9184 C   0  0  0  0  0  0
  -23.6286   -8.2243   22.0754 C   0  0  0  0  0  0
  -22.4269   -8.0278   21.3543 C   0  0  0  0  0  0
  -21.9900   -9.0253   20.4649 C   0  0  0  0  0  0
  -22.7225  -10.2134   20.3057 C   0  0  0  0  0  0
  -21.6852   -6.0729   22.5276 C   0  0  0  0  0  0
  -21.4016   -6.5634   23.8208 C   0  0  0  0  0  0
  -21.3663   -5.6787   24.9172 C   0  0  0  0  0  0
  -21.6046   -4.3049   24.7225 C   0  0  0  0  0  0
  -21.8821   -3.8141   23.4345 C   0  0  0  0  0  0
  -21.9194   -4.6957   22.3401 C   0  0  0  0  0  0
  -22.7837  -13.5230   21.1851 C   0  0  0  0  0  0
  -22.1663   -4.2144   21.0979 F   0  0  0  0  0  0
  -21.5630   -3.4534   25.7737 F   0  0  0  0  0  0
  -30.0067  -13.3962   20.4202 N   0  0  0  0  0  0
  -26.2972  -12.9356   20.3319 N   0  0  0  0  0  0
  -25.9312  -11.6509   20.5749 N   0  0  0  0  0  0
  -22.0480  -12.8228   22.0412 N   0  0  0  0  0  0
  -25.4237  -15.1889   20.4076 N   0  0  0  0  0  0
  -31.8448  -14.6851   20.1498 O   0  0  0  0  0  0
  -21.6637   -6.8872   21.4237 O   0  0  0  0  0  0
  -22.3523  -14.5537   20.6697 O   0  0  0  0  0  0
  -24.6211  -31.8630   23.2053 C   0  0  0  0  0  0
  -25.9078  -32.4793   23.8365 C   0  0  1  0  0  0
  -27.2283  -27.3636   20.0954 C   0  0  0  0  0  0
  -25.5910  -33.8593   24.2294 N   0  0  0  0  0  0
  -23.4111  -30.4872   21.5479 C   0  0  2  0  0  0
  -24.8548  -28.9460   20.1118 C   0  0  0  0  0  0
  -22.7442  -29.4636   22.4963 C   0  0  0  0  0  0
  -18.0279  -28.1379   22.8489 C   0  0  0  0  0  0
  -24.1488  -36.7302   23.2639 C   0  0  0  0  0  0
  -25.9477  -30.8058   21.3690 C   0  0  0  0  0  0
  -26.0203  -29.4361   20.7119 C   0  0  0  0  0  0
  -27.2052  -28.6522   20.7009 C   0  0  0  0  0  0
  -26.0294  -26.8993   19.5047 C   0  0  0  0  0  0
  -24.8579  -27.6797   19.5063 C   0  0  0  0  0  0
  -23.6214  -29.8221   20.1622 C   0  0  0  0  0  0
  -25.4110  -36.3092   24.0333 C   0  0  1  0  0  0
  -20.5874  -28.3672   23.1303 C   0  0  2  0  0  0
  -20.6769  -26.9401   22.5414 C   0  0  0  0  0  0
  -19.5746  -26.6383   21.5212 C   0  0  0  0  0  0
  -18.1925  -26.7923   22.1626 C   0  0  0  0  0  0
  -19.1529  -28.8843   23.2893 C   0  0  0  0  0  0
  -18.9456  -30.1449   23.8904 C   0  0  0  0  0  0
  -17.6456  -30.6584   24.0564 C   0  0  0  0  0  0
  -25.9043  -34.9460   23.5114 C   0  0  0  0  0  0
  -16.5347  -29.9082   23.6329 C   0  0  0  0  0  0
  -16.7267  -28.6503   23.0348 C   0  0  0  0  0  0
  -26.4480  -31.6591   25.0721 C   0  0  0  0  0  0
  -25.3729  -31.3720   26.1461 C   0  0  0  0  0  0
  -27.0315  -30.3022   24.6142 C   0  0  0  0  0  0
  -27.6052  -32.4317   25.7484 C   0  0  0  0  0  0
  -27.5580  -37.1802   24.8463 C   0  0  0  0  0  0
  -21.4162  -29.3031   22.3704 N   0  0  0  0  0  0
  -26.4290  -37.3782   23.9410 N   0  0  0  0  0  0
  -24.6787  -31.0677   22.0983 N   0  0  0  0  0  0
  -23.4188  -28.8178   23.3027 O   0  0  0  0  0  0
  -28.3895  -26.5911   20.1420 O   0  0  0  0  0  0
  -26.5612  -34.8922   22.4681 O   0  0  0  0  0  0
  -23.5389  -32.1412   23.7413 O   0  0  0  0  0  0
  -29.9284  -22.5140   21.5497 C   0  0  0  0  0  0
  -29.6282  -23.8277   21.1051 C   0  0  0  0  0  0
  -28.7845  -24.0066   19.9783 C   0  0  0  0  0  0
  -28.2884  -22.8017   19.3882 C   0  0  0  0  0  0
  -29.4146  -21.3836   20.8829 C   0  0  0  0  0  0
  -29.3733  -17.7234   22.0127 C   0  0  0  0  0  0
  -30.3228  -18.1678   19.7830 C   0  0  0  0  0  0
  -29.0728  -16.2430   21.6123 C   0  0  0  0  0  0
  -29.9609  -16.7076   19.3723 C   0  0  0  0  0  0
  -29.3732  -18.7552   20.8504 C   0  0  0  0  0  0
  -30.2548  -25.0090   21.8243 C   0  0  0  0  0  0
  -27.3900  -22.8296   18.1652 C   0  0  0  0  0  0
  -28.5675  -25.4076   19.3056 C   0  0  0  0  0  0
  -28.5900  -21.5412   19.8272 N   0  0  0  0  0  0
  -29.8891  -15.7335   20.4908 N   0  0  0  0  0  0
  -29.7956  -20.0930   21.3350 N   0  0  0  0  0  0
  -31.4688  -12.4708   19.1463 H   0  0  0  0  0  0
  -30.3407  -11.3721   19.8854 H   0  0  0  0  0  0
  -29.7593  -11.7531   17.4672 H   0  0  0  0  0  0
  -29.6561  -13.4735   17.7443 H   0  0  0  0  0  0
  -27.8479  -11.2986   18.8470 H   0  0  0  0  0  0
  -27.3711  -12.5982   17.7869 H   0  0  0  0  0  0
  -27.6724  -14.2546   19.5319 H   0  0  0  0  0  0
  -28.7024  -12.0290   21.3571 H   0  0  0  0  0  0
  -28.4426  -13.6703   21.8484 H   0  0  0  0  0  0
  -25.2759   -9.5689   22.4749 H   0  0  0  0  0  0
  -24.0001   -7.4636   22.7472 H   0  0  0  0  0  0
  -21.0831   -8.8771   19.8955 H   0  0  0  0  0  0
  -22.3688  -10.9668   19.6159 H   0  0  0  0  0  0
  -21.2008   -7.6141   23.9708 H   0  0  0  0  0  0
  -21.1483   -6.0519   25.9073 H   0  0  0  0  0  0
  -22.0599   -2.7603   23.2846 H   0  0  0  0  0  0
  -22.4089  -11.9893   22.4810 H   0  0  0  0  0  0
  -21.1097  -13.1258   22.2616 H   0  0  0  0  0  0
  -24.6564  -15.8428   20.5179 H   0  0  0  0  0  0
  -26.2753  -15.6273   20.0818 H   0  0  0  0  0  0
  -26.7143  -32.5472   23.1115 H   0  0  0  0  0  0
  -25.0050  -33.9742   25.0434 H   0  0  0  0  0  0
  -22.7025  -31.3063   21.4084 H   0  0  0  0  0  0
  -23.3749  -35.9636   23.3302 H   0  0  0  0  0  0
  -24.3583  -36.8919   22.2054 H   0  0  0  0  0  0
  -23.7243  -37.6506   23.6658 H   0  0  0  0  0  0
  -26.0729  -31.5711   20.6017 H   0  0  0  0  0  0
  -26.8307  -30.8542   21.9944 H   0  0  0  0  0  0
  -28.1027  -29.0269   21.1726 H   0  0  0  0  0  0
  -25.9525  -25.9178   19.0648 H   0  0  0  0  0  0
  -23.9568  -27.2898   19.0529 H   0  0  0  0  0  0
  -23.7359  -30.5985   19.4049 H   0  0  0  0  0  0
  -22.7419  -29.2487   19.8636 H   0  0  0  0  0  0
  -25.1287  -36.1949   25.0826 H   0  0  0  0  0  0
  -20.9966  -28.3241   24.1425 H   0  0  0  0  0  0
  -20.5673  -26.2277   23.3605 H   0  0  0  0  0  0
  -21.6640  -26.7441   22.1206 H   0  0  0  0  0  0
  -19.6906  -25.6295   21.1237 H   0  0  0  0  0  0
  -19.6684  -27.3201   20.6747 H   0  0  0  0  0  0
  -17.4192  -26.6670   21.4029 H   0  0  0  0  0  0
  -18.0328  -26.0065   22.9025 H   0  0  0  0  0  0
  -19.7931  -30.7264   24.2274 H   0  0  0  0  0  0
  -17.5011  -31.6265   24.5162 H   0  0  0  0  0  0
  -15.5346  -30.2986   23.7651 H   0  0  0  0  0  0
  -15.8668  -28.0824   22.7056 H   0  0  0  0  0  0
  -24.5894  -30.7077   25.7797 H   0  0  0  0  0  0
  -24.8930  -32.2884   26.4906 H   0  0  0  0  0  0
  -25.8065  -30.8884   27.0224 H   0  0  0  0  0  0
  -26.2873  -29.6779   24.1181 H   0  0  0  0  0  0
  -27.4045  -29.7267   25.4625 H   0  0  0  0  0  0
  -27.8728  -30.4321   23.9332 H   0  0  0  0  0  0
  -27.2673  -33.3616   26.2069 H   0  0  0  0  0  0
  -28.3854  -32.6874   25.0302 H   0  0  0  0  0  0
  -28.0727  -31.8434   26.5391 H   0  0  0  0  0  0
  -28.2596  -38.0101   24.7514 H   0  0  0  0  0  0
  -28.1076  -36.2633   24.6280 H   0  0  0  0  0  0
  -27.2302  -37.1446   25.8867 H   0  0  0  0  0  0
  -20.9328  -29.8754   21.6924 H   0  0  0  0  0  0
  -26.0175  -38.2858   24.1410 H   0  0  0  0  0  0
  -30.5848  -22.3828   22.4000 H   0  0  0  0  0  0
  -30.3469  -17.7421   22.5055 H   0  0  0  0  0  0
  -28.6531  -18.0344   22.7711 H   0  0  0  0  0  0
  -30.3111  -18.8048   18.8975 H   0  0  0  0  0  0
  -31.3493  -18.1838   20.1527 H   0  0  0  0  0  0
  -28.0221  -16.1493   21.3372 H   0  0  0  0  0  0
  -29.2189  -15.6207   22.4959 H   0  0  0  0  0  0
  -30.6639  -16.3698   18.6081 H   0  0  0  0  0  0
  -28.9866  -16.7095   18.8819 H   0  0  0  0  0  0
  -28.3662  -18.8337   20.4371 H   0  0  0  0  0  0
  -30.9731  -24.6839   22.5772 H   0  0  0  0  0  0
  -29.4887  -25.5974   22.3294 H   0  0  0  0  0  0
  -30.7829  -25.6561   21.1239 H   0  0  0  0  0  0
  -26.4933  -23.4175   18.3607 H   0  0  0  0  0  0
  -27.0685  -21.8276   17.8786 H   0  0  0  0  0  0
  -27.9138  -23.2643   17.3138 H   0  0  0  0  0  0
  -27.8508  -25.3571   18.4917 H   0  0  0  0  0  0
  -29.5018  -25.5967   18.7763 H   0  0  0  0  0  0
  -30.4154  -20.0813   22.1370 H   0  0  0  0  0  0
  1 25  1  0  0  0
  1 30  2  0  0  0
  1 85  1  0  0  0
  2  3  1  0  0  0
  2 25  1  0  0  0
  2 87  1  0  0  0
  2 88  1  0  0  0
  3  4  1  0  0  0
  3 89  1  0  0  0
  3 90  1  0  0  0
  4  5  1  0  0  0
  4 91  1  0  0  0
  4 92  1  0  0  0
  5  6  1  0  0  0
  5 26  1  0  0  0
  5 93  1  0  0  0
  6 25  1  0  0  0
  6 94  1  0  0  0
  6 95  1  0  0  0
  7  8  2  0  0  0
  7 26  1  0  0  0
  7 29  1  0  0  0
  8  9  1  0  0  0
  8 22  1  0  0  0
  9 10  1  0  0  0
  9 27  2  0  0  0
 10 11  2  0  0  0
 10 15  1  0  0  0
 11 12  1  0  0  0
 11 96  1  0  0  0
 12 13  2  0  0  0
 12 97  1  0  0  0
 13 14  1  0  0  0
 13 31  1  0  0  0
 14 15  2  0  0  0
 14 98  1  0  0  0
 15 99  1  0  0  0
 16 17  2  0  0  0
 16 21  1  0  0  0
 16 31  1  0  0  0
 17 18  1  0  0  0
 17100  1  0  0  0
 18 19  2  0  0  0
 18101  1  0  0  0
 19 20  1  0  0  0
 19 24  1  0  0  0
 20 21  2  0  0  0
 20102  1  0  0  0
 21 23  1  0  0  0
 22 28  1  0  0  0
 22 32  2  0  0  0
 26 27  1  0  0  0
 28103  1  0  0  0
 28104  1  0  0  0
 29105  1  0  0  0
 29106  1  0  0  0
 33 34  1  0  0  0
 33 66  1  0  0  0
 33 70  2  0  0  0
 34 36  1  0  0  0
 34 59  1  0  0  0
 34107  1  0  0  0
 35 44  2  0  0  0
 35 45  1  0  0  0
 35 68  1  0  0  0
 36 56  1  0  0  0
 36108  1  0  0  0
 37 39  1  0  0  0
 37 47  1  0  0  0
 37 66  1  0  0  0
 37109  1  0  0  0
 38 43  2  0  0  0
 38 46  1  0  0  0
 38 47  1  0  0  0
 39 64  1  0  0  0
 39 67  2  0  0  0
 40 52  1  0  0  0
 40 53  2  0  0  0
 40 58  1  0  0  0
 41110  1  0  0  0
 41111  1  0  0  0
 41112  1  0  0  0
 41 48  1  0  0  0
 42 43  1  0  0  0
 42 66  1  0  0  0
 42113  1  0  0  0
 42114  1  0  0  0
 43 44  1  0  0  0
 44115  1  0  0  0
 45 46  2  0  0  0
 45116  1  0  0  0
 46117  1  0  0  0
 47118  1  0  0  0
 47119  1  0  0  0
 48 56  1  0  0  0
 48 65  1  0  0  0
 48120  1  0  0  0
 49 50  1  0  0  0
 49 53  1  0  0  0
 49 64  1  0  0  0
 49121  1  0  0  0
 50 51  1  0  0  0
 50122  1  0  0  0
 50123  1  0  0  0
 51 52  1  0  0  0
 51124  1  0  0  0
 51125  1  0  0  0
 52126  1  0  0  0
 52127  1  0  0  0
 53 54  1  0  0  0
 54 55  2  0  0  0
 54128  1  0  0  0
 55 57  1  0  0  0
 55129  1  0  0  0
 56 69  2  0  0  0
 57 58  2  0  0  0
 57130  1  0  0  0
 58131  1  0  0  0
 59 60  1  0  0  0
 59 61  1  0  0  0
 59 62  1  0  0  0
 60132  1  0  0  0
 60133  1  0  0  0
 60134  1  0  0  0
 61135  1  0  0  0
 61136  1  0  0  0
 61137  1  0  0  0
 62138  1  0  0  0
 62139  1  0  0  0
 62140  1  0  0  0
 63 65  1  0  0  0
 63141  1  0  0  0
 63142  1  0  0  0
 63143  1  0  0  0
 64144  1  0  0  0
 65145  1  0  0  0
 68 83  1  0  0  0
 71 72  2  0  0  0
 71 75  1  0  0  0
 71146  1  0  0  0
 72 73  1  0  0  0
 72 81  1  0  0  0
 73 74  2  0  0  0
 73 83  1  0  0  0
 74 82  1  0  0  0
 74 84  1  0  0  0
 75 84  2  0  0  0
 75 86  1  0  0  0
 76 78  1  0  0  0
 76 80  1  0  0  0
 76147  1  0  0  0
 76148  1  0  0  0
 77 79  1  0  0  0
 77 80  1  0  0  0
 77149  1  0  0  0
 77150  1  0  0  0
 78 85  1  0  0  0
 78151  1  0  0  0
 78152  1  0  0  0
 79 85  1  0  0  0
 79153  1  0  0  0
 79154  1  0  0  0
 80 86  1  0  0  0
 80155  1  0  0  0
 81156  1  0  0  0
 81157  1  0  0  0
 81158  1  0  0  0
 82159  1  0  0  0
 82160  1  0  0  0
 82161  1  0  0  0
 83162  1  0  0  0
 83163  1  0  0  0
 86164  1  0  0  0
M  ISO  4   1 100  68 101  83 101  85 100
M  END
> <chiral flag>
0

> <version>
0

> <s_m_source_file>
/data/baiqing/PycharmProjects/Reinvent-master-3.2/result/LINK_invent/BTK/process_docking_weight1_custom_sum_contain_oxygen_bond_distance_aromatic_linkinvent_7_9_3/rearranged_h_0174.sdf

> <i_m_source_file_index>
84

> <r_mmod_Potential_Energy-OPLS-2005>
41.9357986450195

> <r_mmod_Stretch_Energy-OPLS-2005>
61.4678039550781

> <r_mmod_Bend_Energy-OPLS-2005>
155.718002319336

> <r_mmod_Torsional_Energy-OPLS-2005>
317.707885742188

> <r_mmod_Improper_Torsional_Energy-OPLS-2005>
17.0965538024902

> <r_mmod_Van_der_Waal_Energy-OPLS-2005>
150.113143920898

> <r_mmod_Electrostatic_Energy-OPLS-2005>
-471.01708984375

> <r_mmod_Solvation_Energy-OPLS-2005>
-222.095809936523

> <b_mmod_Minimization_Converged-OPLS-2005>
0

> <r_mmod_RMS_Derivative-OPLS-2005>
0.619611978530884

$$$$
86
                    3D
 Structure written by MMmdl.
163172  0  0  1  0            999 V2000
  -30.6335  -14.8979   20.4329 C   0  0  0  0  0  0
  -30.4086  -12.5628   19.4872 C   0  0  0  0  0  0
  -29.4949  -12.5077   18.2468 C   0  0  0  0  0  0
  -28.0357  -12.2973   18.6835 C   0  0  0  0  0  0
  -27.6197  -13.2492   19.8353 C   0  0  2  0  0  0
  -28.6676  -13.3105   20.9658 C   0  0  0  0  0  0
  -25.2420  -13.8225   20.5721 C   0  0  0  0  0  0
  -24.1748  -13.0452   20.9265 C   0  0  0  0  0  0
  -24.6367  -11.6930   20.8802 C   0  0  0  0  0  0
  -23.9073  -10.4301   21.0439 C   0  0  0  0  0  0
  -24.3626   -9.4192   21.9203 C   0  0  0  0  0  0
  -23.6297   -8.2229   22.0750 C   0  0  0  0  0  0
  -22.4268   -8.0284   21.3551 C   0  0  0  0  0  0
  -21.9926   -9.0249   20.4644 C   0  0  0  0  0  0
  -22.7260  -10.2133   20.3063 C   0  0  0  0  0  0
  -21.6855   -6.0726   22.5275 C   0  0  0  0  0  0
  -21.4008   -6.5640   23.8205 C   0  0  0  0  0  0
  -21.3656   -5.6794   24.9176 C   0  0  0  0  0  0
  -21.6051   -4.3057   24.7231 C   0  0  0  0  0  0
  -21.8812   -3.8147   23.4358 C   0  0  0  0  0  0
  -21.9188   -4.6955   22.3411 C   0  0  0  0  0  0
  -22.7768  -13.5210   21.1919 C   0  0  0  0  0  0
  -22.1649   -4.2137   21.0984 F   0  0  0  0  0  0
  -21.5638   -3.4546   25.7750 F   0  0  0  0  0  0
  -29.9437  -13.6930   20.3455 N   0  0  0  0  0  0
  -26.2844  -12.9444   20.3282 N   0  0  0  0  0  0
  -25.9310  -11.6591   20.5834 N   0  0  0  0  0  0
  -22.0436  -12.8160   22.0470 N   0  0  0  0  0  0
  -25.4120  -15.1928   20.4083 N   0  0  0  0  0  0
  -31.8484  -14.8476   20.2089 O   0  0  0  0  0  0
  -21.6631   -6.8867   21.4232 O   0  0  0  0  0  0
  -22.3440  -14.5521   20.6786 O   0  0  0  0  0  0
  -24.6412  -31.8476   23.2002 C   0  0  0  0  0  0
  -25.9195  -32.4725   23.8392 C   0  0  1  0  0  0
  -27.1873  -27.1300   20.1487 C   0  0  0  0  0  0
  -25.5975  -33.8541   24.2297 N   0  0  0  0  0  0
  -23.4484  -30.4673   21.5377 C   0  0  2  0  0  0
  -24.8945  -28.9097   20.0965 C   0  0  0  0  0  0
  -22.7589  -29.4534   22.4838 C   0  0  0  0  0  0
  -18.0334  -28.1427   22.8491 C   0  0  0  0  0  0
  -24.1470  -36.7253   23.2643 C   0  0  0  0  0  0
  -26.0014  -30.7118   21.4095 C   0  0  0  0  0  0
  -26.0594  -29.3233   20.7508 C   0  0  0  0  0  0
  -27.1969  -28.4320   20.7924 C   0  0  0  0  0  0
  -26.0645  -26.9031   19.3401 C   0  0  0  0  0  0
  -24.9093  -27.7105   19.3703 C   0  0  0  0  0  0
  -23.6747  -29.8100   20.1491 C   0  0  0  0  0  0
  -25.4114  -36.3061   24.0328 C   0  0  1  0  0  0
  -20.5981  -28.3673   23.1171 C   0  0  2  0  0  0
  -20.6771  -26.9413   22.5332 C   0  0  0  0  0  0
  -19.5768  -26.6599   21.5086 C   0  0  0  0  0  0
  -18.1974  -26.8041   22.1544 C   0  0  0  0  0  0
  -19.1629  -28.8866   23.2831 C   0  0  0  0  0  0
  -18.9598  -30.1445   23.8824 C   0  0  0  0  0  0
  -17.6610  -30.6610   24.0587 C   0  0  0  0  0  0
  -25.9064  -34.9428   23.5116 C   0  0  0  0  0  0
  -16.5445  -29.9184   23.6368 C   0  0  0  0  0  0
  -16.7343  -28.6563   23.0375 C   0  0  0  0  0  0
  -26.4535  -31.6579   25.0807 C   0  0  0  0  0  0
  -25.3744  -31.3733   26.1510 C   0  0  0  0  0  0
  -27.0410  -30.2982   24.6388 C   0  0  0  0  0  0
  -27.6083  -32.4342   25.7562 C   0  0  0  0  0  0
  -27.5581  -37.1790   24.8479 C   0  0  0  0  0  0
  -21.4323  -29.2864   22.3400 N   0  0  0  0  0  0
  -26.4300  -37.3777   23.9397 N   0  0  0  0  0  0
  -24.7162  -31.0275   22.1051 N   0  0  0  0  0  0
  -23.4186  -28.8231   23.3138 O   0  0  0  0  0  0
  -28.1731  -26.0921   20.3065 O   0  0  0  0  0  0
  -26.5643  -34.8922   22.4681 O   0  0  0  0  0  0
  -23.5530  -32.1395   23.7168 O   0  0  0  0  0  0
  -25.3997  -22.5276   21.6192 C   0  0  0  0  0  0
  -26.0698  -23.3245   20.6796 C   0  0  0  0  0  0
  -27.4915  -23.2653   20.5188 C   0  0  0  0  0  0
  -26.1111  -21.5477   22.2895 C   0  0  0  0  0  0
  -28.0054  -21.8913   20.9246 C   0  0  0  0  0  0
  -28.8659  -18.3478   19.5435 C   0  0  0  0  0  0
  -30.2461  -18.7942   21.4996 C   0  0  0  0  0  0
  -28.8512  -16.7764   19.9558 C   0  0  0  0  0  0
  -30.8864  -17.3586   21.0956 C   0  0  0  0  0  0
  -29.0395  -19.4164   20.6900 C   0  0  0  0  0  0
  -25.1377  -24.0154   19.7111 C   0  0  0  0  0  0
  -25.4434  -20.6409   23.2989 C   0  0  0  0  0  0
  -28.1811  -24.5960   19.8068 C   0  0  0  0  0  0
  -27.3586  -21.2357   21.9191 N   0  0  0  0  0  0
  -30.0389  -16.1846   20.6581 N   0  0  0  0  0  0
  -29.0013  -20.9657   20.3888 O   0  0  0  0  0  0
  -31.4497  -12.6701   19.1784 H   0  0  0  0  0  0
  -30.3640  -11.6237   20.0400 H   0  0  0  0  0  0
  -29.8005  -11.6954   17.5856 H   0  0  0  0  0  0
  -29.5804  -13.4277   17.6675 H   0  0  0  0  0  0
  -27.9453  -11.2632   19.0179 H   0  0  0  0  0  0
  -27.3570  -12.3975   17.8380 H   0  0  0  0  0  0
  -27.5679  -14.2368   19.3844 H   0  0  0  0  0  0
  -28.7540  -12.3520   21.4799 H   0  0  0  0  0  0
  -28.3813  -14.0456   21.7195 H   0  0  0  0  0  0
  -25.2767   -9.5655   22.4779 H   0  0  0  0  0  0
  -24.0003   -7.4603   22.7468 H   0  0  0  0  0  0
  -21.0868   -8.8790   19.8933 H   0  0  0  0  0  0
  -22.3748  -10.9666   19.6171 H   0  0  0  0  0  0
  -21.1990   -7.6147   23.9704 H   0  0  0  0  0  0
  -21.1488   -6.0534   25.9079 H   0  0  0  0  0  0
  -22.0598   -2.7608   23.2866 H   0  0  0  0  0  0
  -22.4103  -11.9814   22.4796 H   0  0  0  0  0  0
  -21.1043  -13.1124   22.2702 H   0  0  0  0  0  0
  -24.6569  -15.8573   20.5329 H   0  0  0  0  0  0
  -26.2713  -15.6184   20.0904 H   0  0  0  0  0  0
  -26.7266  -32.5307   23.1133 H   0  0  0  0  0  0
  -25.0108  -33.9701   25.0430 H   0  0  0  0  0  0
  -22.7585  -31.3003   21.3968 H   0  0  0  0  0  0
  -23.3771  -35.9549   23.3286 H   0  0  0  0  0  0
  -24.3562  -36.8878   22.2067 H   0  0  0  0  0  0
  -23.7199  -37.6435   23.6674 H   0  0  0  0  0  0
  -26.1596  -31.4724   20.6412 H   0  0  0  0  0  0
  -26.8690  -30.7548   22.0533 H   0  0  0  0  0  0
  -28.0574  -28.7119   21.3825 H   0  0  0  0  0  0
  -26.0770  -26.0646   18.6759 H   0  0  0  0  0  0
  -24.0448  -27.4223   18.7864 H   0  0  0  0  0  0
  -23.8154  -30.5969   19.4072 H   0  0  0  0  0  0
  -22.7925  -29.2550   19.8257 H   0  0  0  0  0  0
  -25.1292  -36.1932   25.0836 H   0  0  0  0  0  0
  -21.0166  -28.3349   24.1234 H   0  0  0  0  0  0
  -20.5656  -26.2212   23.3437 H   0  0  0  0  0  0
  -21.6594  -26.7345   22.1044 H   0  0  0  0  0  0
  -19.6913  -25.6588   21.0904 H   0  0  0  0  0  0
  -19.6699  -27.3710   20.6872 H   0  0  0  0  0  0
  -17.4269  -26.6900   21.3920 H   0  0  0  0  0  0
  -18.0395  -26.0090   22.8829 H   0  0  0  0  0  0
  -19.8174  -30.7203   24.2007 H   0  0  0  0  0  0
  -17.5269  -31.6271   24.5243 H   0  0  0  0  0  0
  -15.5456  -30.3173   23.7640 H   0  0  0  0  0  0
  -15.8722  -28.0975   22.7087 H   0  0  0  0  0  0
  -24.5965  -30.7028   25.7828 H   0  0  0  0  0  0
  -24.8891  -32.2889   26.4918 H   0  0  0  0  0  0
  -25.8052  -30.8953   27.0327 H   0  0  0  0  0  0
  -26.3045  -29.6700   24.1375 H   0  0  0  0  0  0
  -27.3990  -29.7284   25.4976 H   0  0  0  0  0  0
  -27.8969  -30.4201   23.9746 H   0  0  0  0  0  0
  -27.2719  -33.3688   26.2092 H   0  0  0  0  0  0
  -28.3926  -32.6842   25.0386 H   0  0  0  0  0  0
  -28.0759  -31.8526   26.5530 H   0  0  0  0  0  0
  -28.2615  -38.0075   24.7533 H   0  0  0  0  0  0
  -28.1066  -36.2613   24.6294 H   0  0  0  0  0  0
  -27.2300  -37.1430   25.8887 H   0  0  0  0  0  0
  -20.9663  -29.8099   21.6123 H   0  0  0  0  0  0
  -26.0164  -38.2842   24.1411 H   0  0  0  0  0  0
  -24.3289  -22.6080   21.7703 H   0  0  0  0  0  0
  -27.9275  -18.5577   19.0298 H   0  0  0  0  0  0
  -29.6462  -18.5153   18.8018 H   0  0  0  0  0  0
  -31.0626  -19.5168   21.4988 H   0  0  0  0  0  0
  -29.9337  -18.7453   22.5429 H   0  0  0  0  0  0
  -28.6882  -16.2007   19.0465 H   0  0  0  0  0  0
  -27.9917  -16.5872   20.5950 H   0  0  0  0  0  0
  -31.5169  -17.0255   21.9230 H   0  0  0  0  0  0
  -31.5833  -17.5449   20.2760 H   0  0  0  0  0  0
  -28.1805  -19.1541   21.2993 H   0  0  0  0  0  0
  -24.2720  -23.3770   19.5238 H   0  0  0  0  0  0
  -25.5868  -24.1195   18.7251 H   0  0  0  0  0  0
  -24.7357  -24.9417   20.1168 H   0  0  0  0  0  0
  -25.0186  -21.2216   24.1184 H   0  0  0  0  0  0
  -26.1429  -19.9091   23.7091 H   0  0  0  0  0  0
  -24.6293  -20.0955   22.8234 H   0  0  0  0  0  0
  -27.9241  -24.5959   18.7466 H   0  0  0  0  0  0
  -29.2430  -24.3570   19.8166 H   0  0  0  0  0  0
  1 25  1  0  0  0
  1 30  2  0  0  0
  1 85  1  0  0  0
  2  3  1  0  0  0
  2 25  1  0  0  0
  2 87  1  0  0  0
  2 88  1  0  0  0
  3  4  1  0  0  0
  3 89  1  0  0  0
  3 90  1  0  0  0
  4  5  1  0  0  0
  4 91  1  0  0  0
  4 92  1  0  0  0
  5  6  1  0  0  0
  5 26  1  0  0  0
  5 93  1  0  0  0
  6 25  1  0  0  0
  6 94  1  0  0  0
  6 95  1  0  0  0
  7  8  2  0  0  0
  7 26  1  0  0  0
  7 29  1  0  0  0
  8  9  1  0  0  0
  8 22  1  0  0  0
  9 10  1  0  0  0
  9 27  2  0  0  0
 10 11  2  0  0  0
 10 15  1  0  0  0
 11 12  1  0  0  0
 11 96  1  0  0  0
 12 13  2  0  0  0
 12 97  1  0  0  0
 13 14  1  0  0  0
 13 31  1  0  0  0
 14 15  2  0  0  0
 14 98  1  0  0  0
 15 99  1  0  0  0
 16 17  2  0  0  0
 16 21  1  0  0  0
 16 31  1  0  0  0
 17 18  1  0  0  0
 17100  1  0  0  0
 18 19  2  0  0  0
 18101  1  0  0  0
 19 20  1  0  0  0
 19 24  1  0  0  0
 20 21  2  0  0  0
 20102  1  0  0  0
 21 23  1  0  0  0
 22 28  1  0  0  0
 22 32  2  0  0  0
 26 27  1  0  0  0
 28103  1  0  0  0
 28104  1  0  0  0
 29105  1  0  0  0
 29106  1  0  0  0
 33 34  1  0  0  0
 33 66  1  0  0  0
 33 70  2  0  0  0
 34 36  1  0  0  0
 34 59  1  0  0  0
 34107  1  0  0  0
 35 44  2  0  0  0
 35 45  1  0  0  0
 35 68  1  0  0  0
 36 56  1  0  0  0
 36108  1  0  0  0
 37 39  1  0  0  0
 37 47  1  0  0  0
 37 66  1  0  0  0
 37109  1  0  0  0
 38 43  2  0  0  0
 38 46  1  0  0  0
 38 47  1  0  0  0
 39 64  1  0  0  0
 39 67  2  0  0  0
 40 52  1  0  0  0
 40 53  2  0  0  0
 40 58  1  0  0  0
 41110  1  0  0  0
 41111  1  0  0  0
 41112  1  0  0  0
 41 48  1  0  0  0
 42 43  1  0  0  0
 42 66  1  0  0  0
 42113  1  0  0  0
 42114  1  0  0  0
 43 44  1  0  0  0
 44115  1  0  0  0
 45 46  2  0  0  0
 45116  1  0  0  0
 46117  1  0  0  0
 47118  1  0  0  0
 47119  1  0  0  0
 48 56  1  0  0  0
 48 65  1  0  0  0
 48120  1  0  0  0
 49 50  1  0  0  0
 49 53  1  0  0  0
 49 64  1  0  0  0
 49121  1  0  0  0
 50 51  1  0  0  0
 50122  1  0  0  0
 50123  1  0  0  0
 51 52  1  0  0  0
 51124  1  0  0  0
 51125  1  0  0  0
 52126  1  0  0  0
 52127  1  0  0  0
 53 54  1  0  0  0
 54 55  2  0  0  0
 54128  1  0  0  0
 55 57  1  0  0  0
 55129  1  0  0  0
 56 69  2  0  0  0
 57 58  2  0  0  0
 57130  1  0  0  0
 58131  1  0  0  0
 59 60  1  0  0  0
 59 61  1  0  0  0
 59 62  1  0  0  0
 60132  1  0  0  0
 60133  1  0  0  0
 60134  1  0  0  0
 61135  1  0  0  0
 61136  1  0  0  0
 61137  1  0  0  0
 62138  1  0  0  0
 62139  1  0  0  0
 62140  1  0  0  0
 63 65  1  0  0  0
 63141  1  0  0  0
 63142  1  0  0  0
 63143  1  0  0  0
 64144  1  0  0  0
 65145  1  0  0  0
 68 83  1  0  0  0
 71 72  2  0  0  0
 71 74  1  0  0  0
 71146  1  0  0  0
 72 73  1  0  0  0
 72 81  1  0  0  0
 73 75  2  0  0  0
 73 83  1  0  0  0
 74 82  1  0  0  0
 74 84  2  0  0  0
 75 84  1  0  0  0
 75 86  1  0  0  0
 76 78  1  0  0  0
 76 80  1  0  0  0
 76147  1  0  0  0
 76148  1  0  0  0
 77 79  1  0  0  0
 77 80  1  0  0  0
 77149  1  0  0  0
 77150  1  0  0  0
 78 85  1  0  0  0
 78151  1  0  0  0
 78152  1  0  0  0
 79 85  1  0  0  0
 79153  1  0  0  0
 79154  1  0  0  0
 80 86  1  0  0  0
 80155  1  0  0  0
 81156  1  0  0  0
 81157  1  0  0  0
 81158  1  0  0  0
 82159  1  0  0  0
 82160  1  0  0  0
 82161  1  0  0  0
 83162  1  0  0  0
 83163  1  0  0  0
M  ISO  4   1 100  68 101  83 101  85 100
M  END
> <chiral flag>
0

> <version>
0

> <s_m_source_file>
/data/baiqing/PycharmProjects/Reinvent-master-3.2/result/LINK_invent/BTK/process_docking_weight1_custom_sum_contain_oxygen_bond_distance_aromatic_linkinvent_7_9_3/rearranged_h_0174.sdf

> <i_m_source_file_index>
85

> <r_mmod_Potential_Energy-OPLS-2005>
790.666198730469

> <r_mmod_Stretch_Energy-OPLS-2005>
270.409118652344

> <r_mmod_Bend_Energy-OPLS-2005>
363.746032714844

> <r_mmod_Torsional_Energy-OPLS-2005>
411.752471923828

> <r_mmod_Improper_Torsional_Energy-OPLS-2005>
8.08358573913574

> <r_mmod_Van_der_Waal_Energy-OPLS-2005>
165.840194702148

> <r_mmod_Electrostatic_Energy-OPLS-2005>
-411.372039794922

> <r_mmod_Solvation_Energy-OPLS-2005>
-216.558990478516

> <b_mmod_Minimization_Converged-OPLS-2005>
0

> <r_mmod_RMS_Derivative-OPLS-2005>
7.30098915100098

$$$$
87
                    3D
 Structure written by MMmdl.
166176  0  0  1  0            999 V2000
  -30.7465  -14.4701   20.4865 C   0  0  0  0  0  0
  -30.3962  -12.2694   19.4576 C   0  0  0  0  0  0
  -29.4899  -12.4386   18.2240 C   0  0  0  0  0  0
  -28.0124  -12.3177   18.6415 C   0  0  0  0  0  0
  -27.6513  -13.2130   19.8589 C   0  0  2  0  0  0
  -28.6927  -13.0865   20.9919 C   0  0  0  0  0  0
  -25.2567  -13.8200   20.5738 C   0  0  0  0  0  0
  -24.1827  -13.0477   20.9196 C   0  0  0  0  0  0
  -24.6367  -11.6926   20.8755 C   0  0  0  0  0  0
  -23.9048  -10.4307   21.0407 C   0  0  0  0  0  0
  -24.3571   -9.4205   21.9186 C   0  0  0  0  0  0
  -23.6260   -8.2253   22.0730 C   0  0  0  0  0  0
  -22.4263   -8.0282   21.3526 C   0  0  0  0  0  0
  -21.9903   -9.0258   20.4641 C   0  0  0  0  0  0
  -22.7220  -10.2144   20.3059 C   0  0  0  0  0  0
  -21.6849   -6.0749   22.5273 C   0  0  0  0  0  0
  -21.4044   -6.5646   23.8212 C   0  0  0  0  0  0
  -21.3663   -5.6792   24.9166 C   0  0  0  0  0  0
  -21.6039   -4.3061   24.7223 C   0  0  0  0  0  0
  -21.8803   -3.8156   23.4340 C   0  0  0  0  0  0
  -21.9175   -4.6973   22.3393 C   0  0  0  0  0  0
  -22.7842  -13.5269   21.1845 C   0  0  0  0  0  0
  -22.1638   -4.2164   21.0972 F   0  0  0  0  0  0
  -21.5600   -3.4522   25.7727 F   0  0  0  0  0  0
  -30.0235  -13.3205   20.4128 N   0  0  0  0  0  0
  -26.2975  -12.9381   20.3364 N   0  0  0  0  0  0
  -25.9298  -11.6534   20.5823 N   0  0  0  0  0  0
  -22.0464  -12.8303   22.0407 N   0  0  0  0  0  0
  -25.4383  -15.1908   20.4172 N   0  0  0  0  0  0
  -31.9238  -14.5390   20.1220 O   0  0  0  0  0  0
  -21.6624   -6.8884   21.4240 O   0  0  0  0  0  0
  -22.3570  -14.5585   20.6655 O   0  0  0  0  0  0
  -24.6240  -31.8681   23.2155 C   0  0  0  0  0  0
  -25.9151  -32.4801   23.8415 C   0  0  1  0  0  0
  -27.2075  -27.4001   20.1073 C   0  0  0  0  0  0
  -25.6002  -33.8592   24.2368 N   0  0  0  0  0  0
  -23.4083  -30.5052   21.5519 C   0  0  2  0  0  0
  -24.8512  -28.9775   20.1059 C   0  0  0  0  0  0
  -22.7439  -29.4740   22.4943 C   0  0  0  0  0  0
  -18.0344  -28.1314   22.8405 C   0  0  0  0  0  0
  -24.1498  -36.7294   23.2621 C   0  0  0  0  0  0
  -25.9441  -30.8151   21.3876 C   0  0  0  0  0  0
  -26.0111  -29.4499   20.7356 C   0  0  0  0  0  0
  -27.1918  -28.6635   20.7463 C   0  0  0  0  0  0
  -26.0619  -27.0032   19.3885 C   0  0  0  0  0  0
  -24.8749  -27.7508   19.4231 C   0  0  0  0  0  0
  -23.6174  -29.8502   20.1618 C   0  0  0  0  0  0
  -25.4121  -36.3107   24.0333 C   0  0  1  0  0  0
  -20.5917  -28.3789   23.1349 C   0  0  2  0  0  0
  -20.6977  -26.9527   22.5460 C   0  0  0  0  0  0
  -19.6006  -26.6382   21.5229 C   0  0  0  0  0  0
  -18.2109  -26.7890   22.1479 C   0  0  0  0  0  0
  -19.1526  -28.8832   23.2902 C   0  0  0  0  0  0
  -18.9358  -30.1393   23.8927 C   0  0  0  0  0  0
  -17.6337  -30.6487   24.0547 C   0  0  0  0  0  0
  -25.9045  -34.9462   23.5126 C   0  0  0  0  0  0
  -16.5290  -29.8949   23.6250 C   0  0  0  0  0  0
  -16.7290  -28.6368   23.0248 C   0  0  0  0  0  0
  -26.4550  -31.6572   25.0737 C   0  0  0  0  0  0
  -25.3803  -31.3723   26.1466 C   0  0  0  0  0  0
  -27.0373  -30.2993   24.6167 C   0  0  0  0  0  0
  -27.6118  -32.4299   25.7500 C   0  0  0  0  0  0
  -27.5582  -37.1805   24.8453 C   0  0  0  0  0  0
  -21.4141  -29.3235   22.3775 N   0  0  0  0  0  0
  -26.4300  -37.3807   23.9395 N   0  0  0  0  0  0
  -24.6773  -31.0800   22.1078 N   0  0  0  0  0  0
  -23.4208  -28.8180   23.2907 O   0  0  0  0  0  0
  -28.3226  -26.5820   20.1177 O   0  0  0  0  0  0
  -26.5533  -34.8910   22.4655 O   0  0  0  0  0  0
  -23.5425  -32.1426   23.7514 O   0  0  0  0  0  0
  -28.5190  -22.0692   20.6640 C   0  0  0  0  0  0
  -26.3371  -20.6598   21.5463 C   0  0  0  0  0  0
  -27.3053  -22.7747   20.8085 C   0  0  0  0  0  0
  -26.1841  -22.0230   21.2424 C   0  0  0  0  0  0
  -28.5806  -20.6963   20.9853 C   0  0  0  0  0  0
  -24.8190  -22.6753   21.3784 C   0  0  0  0  0  0
  -29.3138  -17.8684   19.6421 C   0  0  0  0  0  0
  -29.8299  -17.7803   22.0523 C   0  0  0  0  0  0
  -29.8459  -16.4272   19.4541 C   0  0  0  0  0  0
  -30.4419  -16.3666   21.9097 C   0  0  0  0  0  0
  -24.7520  -24.0019   20.6161 C   0  0  0  0  0  0
  -27.1219  -24.2596   20.4047 C   0  0  2  0  0  0
  -30.0533  -18.5874   20.7702 C   0  0  0  0  0  0
  -28.2336  -25.2965   20.8145 C   0  0  0  0  0  0
  -27.5119  -20.0083   21.4261 N   0  0  0  0  0  0
  -30.0576  -15.6202   20.6892 N   0  0  0  0  0  0
  -29.8084  -20.0351   20.8596 N   0  0  0  0  0  0
  -25.9021  -24.7595   20.9591 O   0  0  0  0  0  0
  -31.4502  -12.3017   19.1767 H   0  0  0  0  0  0
  -30.2500  -11.2868   19.9105 H   0  0  0  0  0  0
  -29.7320  -11.6708   17.4875 H   0  0  0  0  0  0
  -29.6764  -13.4015   17.7455 H   0  0  0  0  0  0
  -27.8399  -11.2719   18.9023 H   0  0  0  0  0  0
  -27.3550  -12.5312   17.7976 H   0  0  0  0  0  0
  -27.6754  -14.2446   19.5087 H   0  0  0  0  0  0
  -28.6500  -12.0998   21.4569 H   0  0  0  0  0  0
  -28.4682  -13.8024   21.7834 H   0  0  0  0  0  0
  -25.2684   -9.5692   22.4808 H   0  0  0  0  0  0
  -23.9945   -7.4657   22.7457 H   0  0  0  0  0  0
  -21.0827   -8.8781   19.8958 H   0  0  0  0  0  0
  -22.3656  -10.9677   19.6186 H   0  0  0  0  0  0
  -21.2084   -7.6157   23.9734 H   0  0  0  0  0  0
  -21.1494   -6.0509   25.9072 H   0  0  0  0  0  0
  -22.0581   -2.7617   23.2813 H   0  0  0  0  0  0
  -22.4054  -11.9931   22.4767 H   0  0  0  0  0  0
  -21.1096  -13.1378   22.2639 H   0  0  0  0  0  0
  -24.6842  -15.8549   20.5522 H   0  0  0  0  0  0
  -26.3135  -15.6277   20.1541 H   0  0  0  0  0  0
  -26.7220  -32.5521   23.1162 H   0  0  0  0  0  0
  -25.0379  -33.9752   25.0667 H   0  0  0  0  0  0
  -22.7043  -31.3286   21.4144 H   0  0  0  0  0  0
  -23.3766  -35.9622   23.3292 H   0  0  0  0  0  0
  -24.3613  -36.8882   22.2033 H   0  0  0  0  0  0
  -23.7215  -37.6497   23.6608 H   0  0  0  0  0  0
  -26.0788  -31.5779   20.6181 H   0  0  0  0  0  0
  -26.8291  -30.8573   22.0099 H   0  0  0  0  0  0
  -28.0772  -29.0089   21.2614 H   0  0  0  0  0  0
  -26.0693  -26.0981   18.8044 H   0  0  0  0  0  0
  -24.0046  -27.3997   18.8898 H   0  0  0  0  0  0
  -23.7284  -30.6285   19.4045 H   0  0  0  0  0  0
  -22.7419  -29.2716   19.8634 H   0  0  0  0  0  0
  -25.1293  -36.1986   25.0824 H   0  0  0  0  0  0
  -21.0015  -28.3481   24.1480 H   0  0  0  0  0  0
  -20.6039  -26.2387   23.3636 H   0  0  0  0  0  0
  -21.6887  -26.7756   22.1265 H   0  0  0  0  0  0
  -19.7315  -25.6301   21.1268 H   0  0  0  0  0  0
  -19.7026  -27.3151   20.6749 H   0  0  0  0  0  0
  -18.0389  -25.9965   22.8767 H   0  0  0  0  0  0
  -17.4554  -26.6674   21.3710 H   0  0  0  0  0  0
  -19.7798  -30.7186   24.2434 H   0  0  0  0  0  0
  -17.4848  -31.6108   24.5245 H   0  0  0  0  0  0
  -15.5261  -30.2762   23.7608 H   0  0  0  0  0  0
  -15.8718  -28.0686   22.6895 H   0  0  0  0  0  0
  -24.6003  -30.7022   25.7833 H   0  0  0  0  0  0
  -24.8960  -32.2891   26.4834 H   0  0  0  0  0  0
  -25.8146  -30.8965   27.0262 H   0  0  0  0  0  0
  -26.2919  -29.6706   24.1262 H   0  0  0  0  0  0
  -27.4159  -29.7278   25.4646 H   0  0  0  0  0  0
  -27.8772  -30.4266   23.9334 H   0  0  0  0  0  0
  -27.2738  -33.3597   26.2094 H   0  0  0  0  0  0
  -28.3928  -32.6848   25.0324 H   0  0  0  0  0  0
  -28.0786  -31.8395   26.5391 H   0  0  0  0  0  0
  -28.2602  -38.0102   24.7526 H   0  0  0  0  0  0
  -28.1072  -36.2620   24.6279 H   0  0  0  0  0  0
  -27.2273  -37.1468   25.8850 H   0  0  0  0  0  0
  -20.9244  -29.9183   21.7231 H   0  0  0  0  0  0
  -26.0176  -38.2879   24.1434 H   0  0  0  0  0  0
  -29.3951  -22.5746   20.2824 H   0  0  0  0  0  0
  -25.4923  -20.0739   21.8806 H   0  0  0  0  0  0
  -24.6251  -22.8459   22.4395 H   0  0  0  0  0  0
  -24.0358  -22.0060   21.0187 H   0  0  0  0  0  0
  -28.2449  -17.8341   19.8501 H   0  0  0  0  0  0
  -29.4262  -18.4208   18.7068 H   0  0  0  0  0  0
  -30.2758  -18.2835   22.9119 H   0  0  0  0  0  0
  -28.7662  -17.7000   22.2688 H   0  0  0  0  0  0
  -30.7898  -16.5049   18.9081 H   0  0  0  0  0  0
  -29.1669  -15.8875   18.7917 H   0  0  0  0  0  0
  -30.1736  -15.7597   22.7771 H   0  0  0  0  0  0
  -31.5304  -16.4676   21.9328 H   0  0  0  0  0  0
  -23.8514  -24.5557   20.8861 H   0  0  0  0  0  0
  -24.7078  -23.8412   19.5370 H   0  0  0  0  0  0
  -27.0685  -24.2469   19.3160 H   0  0  0  0  0  0
  -31.1177  -18.5313   20.5329 H   0  0  0  0  0  0
  -29.2013  -24.8296   20.6341 H   0  0  0  0  0  0
  -28.1978  -25.4665   21.8911 H   0  0  0  0  0  0
  -30.5797  -20.6226   20.5612 H   0  0  0  0  0  0
  1 25  1  0  0  0
  1 30  2  0  0  0
  1 86  1  0  0  0
  2  3  1  0  0  0
  2 25  1  0  0  0
  2 89  1  0  0  0
  2 90  1  0  0  0
  3  4  1  0  0  0
  3 91  1  0  0  0
  3 92  1  0  0  0
  4  5  1  0  0  0
  4 93  1  0  0  0
  4 94  1  0  0  0
  5  6  1  0  0  0
  5 26  1  0  0  0
  5 95  1  0  0  0
  6 25  1  0  0  0
  6 96  1  0  0  0
  6 97  1  0  0  0
  7  8  2  0  0  0
  7 26  1  0  0  0
  7 29  1  0  0  0
  8  9  1  0  0  0
  8 22  1  0  0  0
  9 10  1  0  0  0
  9 27  2  0  0  0
 10 11  2  0  0  0
 10 15  1  0  0  0
 11 12  1  0  0  0
 11 98  1  0  0  0
 12 13  2  0  0  0
 12 99  1  0  0  0
 13 14  1  0  0  0
 13 31  1  0  0  0
 14 15  2  0  0  0
 14100  1  0  0  0
 15101  1  0  0  0
 16 17  2  0  0  0
 16 21  1  0  0  0
 16 31  1  0  0  0
 17 18  1  0  0  0
 17102  1  0  0  0
 18 19  2  0  0  0
 18103  1  0  0  0
 19 20  1  0  0  0
 19 24  1  0  0  0
 20 21  2  0  0  0
 20104  1  0  0  0
 21 23  1  0  0  0
 22 28  1  0  0  0
 22 32  2  0  0  0
 26 27  1  0  0  0
 28105  1  0  0  0
 28106  1  0  0  0
 29107  1  0  0  0
 29108  1  0  0  0
 33 34  1  0  0  0
 33 66  1  0  0  0
 33 70  2  0  0  0
 34 36  1  0  0  0
 34 59  1  0  0  0
 34109  1  0  0  0
 35 44  2  0  0  0
 35 45  1  0  0  0
 35 68  1  0  0  0
 36 56  1  0  0  0
 36110  1  0  0  0
 37 39  1  0  0  0
 37 47  1  0  0  0
 37 66  1  0  0  0
 37111  1  0  0  0
 38 43  2  0  0  0
 38 46  1  0  0  0
 38 47  1  0  0  0
 39 64  1  0  0  0
 39 67  2  0  0  0
 40 52  1  0  0  0
 40 53  2  0  0  0
 40 58  1  0  0  0
 41112  1  0  0  0
 41113  1  0  0  0
 41114  1  0  0  0
 41 48  1  0  0  0
 42 43  1  0  0  0
 42 66  1  0  0  0
 42115  1  0  0  0
 42116  1  0  0  0
 43 44  1  0  0  0
 44117  1  0  0  0
 45 46  2  0  0  0
 45118  1  0  0  0
 46119  1  0  0  0
 47120  1  0  0  0
 47121  1  0  0  0
 48 56  1  0  0  0
 48 65  1  0  0  0
 48122  1  0  0  0
 49 50  1  0  0  0
 49 53  1  0  0  0
 49 64  1  0  0  0
 49123  1  0  0  0
 50 51  1  0  0  0
 50124  1  0  0  0
 50125  1  0  0  0
 51 52  1  0  0  0
 51126  1  0  0  0
 51127  1  0  0  0
 52128  1  0  0  0
 52129  1  0  0  0
 53 54  1  0  0  0
 54 55  2  0  0  0
 54130  1  0  0  0
 55 57  1  0  0  0
 55131  1  0  0  0
 56 69  2  0  0  0
 57 58  2  0  0  0
 57132  1  0  0  0
 58133  1  0  0  0
 59 60  1  0  0  0
 59 61  1  0  0  0
 59 62  1  0  0  0
 60134  1  0  0  0
 60135  1  0  0  0
 60136  1  0  0  0
 61137  1  0  0  0
 61138  1  0  0  0
 61139  1  0  0  0
 62140  1  0  0  0
 62141  1  0  0  0
 62142  1  0  0  0
 63 65  1  0  0  0
 63143  1  0  0  0
 63144  1  0  0  0
 63145  1  0  0  0
 64146  1  0  0  0
 65147  1  0  0  0
 68 84  1  0  0  0
 71 73  2  0  0  0
 71 75  1  0  0  0
 71148  1  0  0  0
 72 74  2  0  0  0
 72 85  1  0  0  0
 72149  1  0  0  0
 73 74  1  0  0  0
 73 82  1  0  0  0
 74 76  1  0  0  0
 75 85  2  0  0  0
 75 87  1  0  0  0
 76 81  1  0  0  0
 76150  1  0  0  0
 76151  1  0  0  0
 77 79  1  0  0  0
 77 83  1  0  0  0
 77152  1  0  0  0
 77153  1  0  0  0
 78 80  1  0  0  0
 78 83  1  0  0  0
 78154  1  0  0  0
 78155  1  0  0  0
 79 86  1  0  0  0
 79156  1  0  0  0
 79157  1  0  0  0
 80 86  1  0  0  0
 80158  1  0  0  0
 80159  1  0  0  0
 81 88  1  0  0  0
 81160  1  0  0  0
 81161  1  0  0  0
 82 84  1  0  0  0
 82 88  1  0  0  0
 82162  1  0  0  0
 83 87  1  0  0  0
 83163  1  0  0  0
 84164  1  0  0  0
 84165  1  0  0  0
 87166  1  0  0  0
M  ISO  4   1 100  68 101  84 101  86 100
M  END
> <chiral flag>
0

> <version>
0

> <s_m_source_file>
/data/baiqing/PycharmProjects/Reinvent-master-3.2/result/LINK_invent/BTK/process_docking_weight1_custom_sum_contain_oxygen_bond_distance_aromatic_linkinvent_7_9_3/rearranged_h_0174.sdf

> <i_m_source_file_index>
86

> <r_mmod_Potential_Energy-OPLS-2005>
74.4580001831055

> <r_mmod_Stretch_Energy-OPLS-2005>
46.2293434143066

> <r_mmod_Bend_Energy-OPLS-2005>
152.249786376953

> <r_mmod_Torsional_Energy-OPLS-2005>
339.565643310547

> <r_mmod_Improper_Torsional_Energy-OPLS-2005>
11.6270484924316

> <r_mmod_Van_der_Waal_Energy-OPLS-2005>
163.917419433594

> <r_mmod_Electrostatic_Energy-OPLS-2005>
-442.855102539062

> <r_mmod_Solvation_Energy-OPLS-2005>
-227.324951171875

> <b_mmod_Minimization_Converged-OPLS-2005>
0

> <r_mmod_RMS_Derivative-OPLS-2005>
5.45359516143799

$$$$
88
                    3D
 Structure written by MMmdl.
176186  0  0  1  0            999 V2000
  -30.6224  -14.5148   20.6194 C   0  0  0  0  0  0
  -30.4424  -12.3503   19.4307 C   0  0  0  0  0  0
  -29.5052  -12.5277   18.2161 C   0  0  0  0  0  0
  -28.0260  -12.3623   18.6200 C   0  0  0  0  0  0
  -27.6593  -13.1962   19.8778 C   0  0  2  0  0  0
  -28.6900  -12.9440   20.9981 C   0  0  0  0  0  0
  -25.2530  -13.8094   20.5537 C   0  0  0  0  0  0
  -24.1795  -13.0368   20.9129 C   0  0  0  0  0  0
  -24.6358  -11.6868   20.8710 C   0  0  0  0  0  0
  -23.9023  -10.4260   21.0373 C   0  0  0  0  0  0
  -24.3591   -9.4202   21.9157 C   0  0  0  0  0  0
  -23.6268   -8.2245   22.0736 C   0  0  0  0  0  0
  -22.4252   -8.0277   21.3533 C   0  0  0  0  0  0
  -21.9870   -9.0251   20.4648 C   0  0  0  0  0  0
  -22.7183  -10.2129   20.3042 C   0  0  0  0  0  0
  -21.6861   -6.0721   22.5278 C   0  0  0  0  0  0
  -21.4020   -6.5627   23.8211 C   0  0  0  0  0  0
  -21.3656   -5.6781   24.9174 C   0  0  0  0  0  0
  -21.6037   -4.3047   24.7224 C   0  0  0  0  0  0
  -21.8816   -3.8138   23.4347 C   0  0  0  0  0  0
  -21.9192   -4.6952   22.3402 C   0  0  0  0  0  0
  -22.7842  -13.5202   21.1793 C   0  0  0  0  0  0
  -22.1679   -4.2146   21.0977 F   0  0  0  0  0  0
  -21.5594   -3.4521   25.7734 F   0  0  0  0  0  0
  -30.0198  -13.3018   20.4698 N   0  0  0  0  0  0
  -26.2980  -12.9255   20.3311 N   0  0  0  0  0  0
  -25.9275  -11.6423   20.5705 N   0  0  0  0  0  0
  -22.0489  -12.8251   22.0429 N   0  0  0  0  0  0
  -25.4118  -15.1771   20.3744 N   0  0  0  0  0  0
  -31.7258  -14.7781   20.1288 O   0  0  0  0  0  0
  -21.6626   -6.8872   21.4248 O   0  0  0  0  0  0
  -22.3532  -14.5487   20.6631 O   0  0  0  0  0  0
  -24.6171  -31.8651   23.2086 C   0  0  0  0  0  0
  -25.9071  -32.4819   23.8370 C   0  0  1  0  0  0
  -27.2108  -27.3831   20.0650 C   0  0  0  0  0  0
  -25.5930  -33.8628   24.2299 N   0  0  0  0  0  0
  -23.4069  -30.4930   21.5489 C   0  0  2  0  0  0
  -24.8473  -28.9683   20.1024 C   0  0  0  0  0  0
  -22.7395  -29.4620   22.4885 C   0  0  0  0  0  0
  -18.0327  -28.1378   22.8498 C   0  0  0  0  0  0
  -24.1503  -36.7301   23.2622 C   0  0  0  0  0  0
  -25.9469  -30.8129   21.3733 C   0  0  0  0  0  0
  -26.0144  -29.4478   20.7079 C   0  0  0  0  0  0
  -27.1941  -28.6573   20.6932 C   0  0  0  0  0  0
  -26.0262  -26.9522   19.4306 C   0  0  0  0  0  0
  -24.8503  -27.7204   19.4619 C   0  0  0  0  0  0
  -23.6143  -29.8412   20.1586 C   0  0  0  0  0  0
  -25.4132  -36.3083   24.0296 C   0  0  1  0  0  0
  -20.5889  -28.3705   23.1331 C   0  0  2  0  0  0
  -20.6814  -26.9415   22.5468 C   0  0  0  0  0  0
  -19.5838  -26.6417   21.5221 C   0  0  0  0  0  0
  -18.2010  -26.7917   22.1629 C   0  0  0  0  0  0
  -19.1548  -28.8864   23.2906 C   0  0  0  0  0  0
  -18.9456  -30.1472   23.8888 C   0  0  0  0  0  0
  -17.6452  -30.6591   24.0524 C   0  0  0  0  0  0
  -25.9061  -34.9466   23.5086 C   0  0  0  0  0  0
  -16.5357  -29.9069   23.6299 C   0  0  0  0  0  0
  -16.7310  -28.6484   23.0346 C   0  0  0  0  0  0
  -26.4518  -31.6609   25.0702 C   0  0  0  0  0  0
  -25.3777  -31.3755   26.1421 C   0  0  0  0  0  0
  -27.0342  -30.3028   24.6145 C   0  0  0  0  0  0
  -27.6073  -32.4317   25.7503 C   0  0  0  0  0  0
  -27.5587  -37.1785   24.8462 C   0  0  0  0  0  0
  -21.4106  -29.3045   22.3657 N   0  0  0  0  0  0
  -26.4318  -37.3769   23.9376 N   0  0  0  0  0  0
  -24.6756  -31.0699   22.1029 N   0  0  0  0  0  0
  -23.4135  -28.8099   23.2893 O   0  0  0  0  0  0
  -28.3518  -26.5873   20.1123 O   0  0  0  0  0  0
  -26.5619  -34.8925   22.4651 O   0  0  0  0  0  0
  -23.5333  -32.1456   23.7429 O   0  0  0  0  0  0
  -28.8743  -20.2661   20.5510 C   0  0  0  0  0  0
  -28.3237  -21.5354   20.8674 C   0  0  0  0  0  0
  -27.2596  -21.6188   21.7992 C   0  0  0  0  0  0
  -26.7374  -20.4296   22.3820 C   0  0  0  0  0  0
  -28.3903  -19.0650   21.1371 C   0  0  0  0  0  0
  -27.3579  -19.1720   22.1114 C   0  0  0  0  0  0
  -28.8304  -22.7974   20.1401 C   0  0  0  0  0  0
  -26.6419  -22.9853   22.1383 C   0  0  0  0  0  0
  -27.3239  -24.2144   21.4992 C   0  0  0  0  0  0
  -24.3002  -19.5932   23.0734 C   0  0  0  0  0  0
  -24.1830  -21.0456   22.7197 C   0  0  0  0  0  0
  -25.5005  -20.5109   23.2575 C   0  0  0  0  0  0
  -27.7969  -23.9780   20.0510 C   0  0  2  0  0  0
  -26.8993  -17.9227   22.8654 C   0  0  0  0  0  0
  -26.6215  -23.4733   19.1606 C   0  0  0  0  0  0
  -29.0913  -17.6793   19.0874 C   0  0  0  0  0  0
  -28.4232  -25.3005   19.4173 C   0  0  0  0  0  0
  -29.9734  -16.9115   21.3587 C   0  0  0  0  0  0
  -28.8264  -17.6628   20.6018 C   0  0  1  0  0  0
  -29.8477  -15.4380   21.2368 N   0  0  0  0  0  0
  -31.4789  -12.5035   19.1272 H   0  0  0  0  0  0
  -30.3927  -11.3316   19.8154 H   0  0  0  0  0  0
  -29.7703  -11.8117   17.4380 H   0  0  0  0  0  0
  -29.6496  -13.5191   17.7796 H   0  0  0  0  0  0
  -27.8484  -11.3018   18.8106 H   0  0  0  0  0  0
  -27.3825  -12.6319   17.7825 H   0  0  0  0  0  0
  -27.7103  -14.2498   19.5992 H   0  0  0  0  0  0
  -28.6734  -11.8890   21.2806 H   0  0  0  0  0  0
  -28.4225  -13.4863   21.9071 H   0  0  0  0  0  0
  -25.2726   -9.5709   22.4733 H   0  0  0  0  0  0
  -23.9981   -7.4635   22.7454 H   0  0  0  0  0  0
  -21.0784   -8.8765   19.8967 H   0  0  0  0  0  0
  -22.3595  -10.9676   19.6183 H   0  0  0  0  0  0
  -21.2043   -7.6136   23.9703 H   0  0  0  0  0  0
  -21.1463   -6.0519   25.9065 H   0  0  0  0  0  0
  -22.0585   -2.7601   23.2843 H   0  0  0  0  0  0
  -22.4030  -11.9896   22.4866 H   0  0  0  0  0  0
  -21.1161  -13.1417   22.2665 H   0  0  0  0  0  0
  -24.5937  -15.7759   20.3340 H   0  0  0  0  0  0
  -26.2305  -15.5977   19.9545 H   0  0  0  0  0  0
  -26.7162  -32.5498   23.1128 H   0  0  0  0  0  0
  -25.0077  -33.9878   25.0429 H   0  0  0  0  0  0
  -22.7028  -31.3162   21.4168 H   0  0  0  0  0  0
  -23.3740  -35.9658   23.3293 H   0  0  0  0  0  0
  -24.3604  -36.8907   22.2038 H   0  0  0  0  0  0
  -23.7310  -37.6514   23.6676 H   0  0  0  0  0  0
  -26.0816  -31.5836   20.6116 H   0  0  0  0  0  0
  -26.8298  -30.8523   22.0012 H   0  0  0  0  0  0
  -28.0901  -29.0131   21.1799 H   0  0  0  0  0  0
  -25.9788  -26.0227   18.8964 H   0  0  0  0  0  0
  -23.9578  -27.3533   18.9704 H   0  0  0  0  0  0
  -23.7179  -30.6301   19.4117 H   0  0  0  0  0  0
  -22.7407  -29.2618   19.8546 H   0  0  0  0  0  0
  -25.1314  -36.1900   25.0788 H   0  0  0  0  0  0
  -21.0044  -28.3367   24.1424 H   0  0  0  0  0  0
  -20.5711  -26.2280   23.3643 H   0  0  0  0  0  0
  -21.6702  -26.7427   22.1305 H   0  0  0  0  0  0
  -19.6993  -25.6354   21.1211 H   0  0  0  0  0  0
  -19.6825  -27.3246   20.6777 H   0  0  0  0  0  0
  -17.4265  -26.6635   21.4043 H   0  0  0  0  0  0
  -18.0487  -26.0047   22.9045 H   0  0  0  0  0  0
  -19.7922  -30.7329   24.2232 H   0  0  0  0  0  0
  -17.4990  -31.6290   24.5100 H   0  0  0  0  0  0
  -15.5354  -30.2959   23.7638 H   0  0  0  0  0  0
  -15.8720  -28.0797   22.7059 H   0  0  0  0  0  0
  -24.5947  -30.7135   25.7736 H   0  0  0  0  0  0
  -24.9010  -32.2937   26.4849 H   0  0  0  0  0  0
  -25.8096  -30.8914   27.0175 H   0  0  0  0  0  0
  -26.2905  -29.6789   24.1185 H   0  0  0  0  0  0
  -27.4038  -29.7284   25.4644 H   0  0  0  0  0  0
  -27.8785  -30.4294   23.9365 H   0  0  0  0  0  0
  -27.2685  -33.3574   26.2161 H   0  0  0  0  0  0
  -28.3886  -32.6914   25.0361 H   0  0  0  0  0  0
  -28.0755  -31.8382   26.5358 H   0  0  0  0  0  0
  -28.2561  -38.0113   24.7473 H   0  0  0  0  0  0
  -28.1099  -36.2611   24.6298 H   0  0  0  0  0  0
  -27.2299  -37.1450   25.8870 H   0  0  0  0  0  0
  -20.9196  -29.8738   21.6898 H   0  0  0  0  0  0
  -26.0142  -38.2817   24.1383 H   0  0  0  0  0  0
  -29.6568  -20.2201   19.8085 H   0  0  0  0  0  0
  -29.1648  -22.5061   19.1438 H   0  0  0  0  0  0
  -29.7254  -23.1188   20.6719 H   0  0  0  0  0  0
  -26.5925  -23.1139   23.2222 H   0  0  0  0  0  0
  -25.6115  -22.9919   21.7884 H   0  0  0  0  0  0
  -28.1904  -24.4965   22.0997 H   0  0  0  0  0  0
  -26.6405  -25.0619   21.5490 H   0  0  0  0  0  0
  -24.3059  -18.8896   22.2435 H   0  0  0  0  0  0
  -23.7551  -19.2632   23.9561 H   0  0  0  0  0  0
  -23.5794  -21.6668   23.3794 H   0  0  0  0  0  0
  -24.0969  -21.2658   21.6557 H   0  0  0  0  0  0
  -25.7748  -20.7669   24.2786 H   0  0  0  0  0  0
  -26.4657  -18.1667   23.8356 H   0  0  0  0  0  0
  -27.7336  -17.2566   23.0831 H   0  0  0  0  0  0
  -26.1591  -17.3711   22.2840 H   0  0  0  0  0  0
  -26.3317  -22.4503   19.3937 H   0  0  0  0  0  0
  -26.8798  -23.4533   18.1031 H   0  0  0  0  0  0
  -25.7060  -24.0445   19.2781 H   0  0  0  0  0  0
  -28.2577  -18.1370   18.5522 H   0  0  0  0  0  0
  -29.2063  -16.6687   18.6941 H   0  0  0  0  0  0
  -29.9954  -18.2376   18.8456 H   0  0  0  0  0  0
  -29.4905  -25.1144   19.2891 H   0  0  0  0  0  0
  -28.0881  -25.4359   18.3868 H   0  0  0  0  0  0
  -29.9208  -17.1471   22.4233 H   0  0  0  0  0  0
  -30.9484  -17.2588   21.0148 H   0  0  0  0  0  0
  -27.9401  -17.0355   20.6888 H   0  0  0  0  0  0
  -28.9959  -15.0533   21.6180 H   0  0  0  0  0  0
  1 25  1  0  0  0
  1 30  2  0  0  0
  1 90  1  0  0  0
  2  3  1  0  0  0
  2 25  1  0  0  0
  2 91  1  0  0  0
  2 92  1  0  0  0
  3  4  1  0  0  0
  3 93  1  0  0  0
  3 94  1  0  0  0
  4  5  1  0  0  0
  4 95  1  0  0  0
  4 96  1  0  0  0
  5  6  1  0  0  0
  5 26  1  0  0  0
  5 97  1  0  0  0
  6 25  1  0  0  0
  6 98  1  0  0  0
  6 99  1  0  0  0
  7  8  2  0  0  0
  7 26  1  0  0  0
  7 29  1  0  0  0
  8  9  1  0  0  0
  8 22  1  0  0  0
  9 10  1  0  0  0
  9 27  2  0  0  0
 10 11  2  0  0  0
 10 15  1  0  0  0
 11 12  1  0  0  0
 11100  1  0  0  0
 12 13  2  0  0  0
 12101  1  0  0  0
 13 14  1  0  0  0
 13 31  1  0  0  0
 14 15  2  0  0  0
 14102  1  0  0  0
 15103  1  0  0  0
 16 17  2  0  0  0
 16 21  1  0  0  0
 16 31  1  0  0  0
 17 18  1  0  0  0
 17104  1  0  0  0
 18 19  2  0  0  0
 18105  1  0  0  0
 19 20  1  0  0  0
 19 24  1  0  0  0
 20 21  2  0  0  0
 20106  1  0  0  0
 21 23  1  0  0  0
 22 28  1  0  0  0
 22 32  2  0  0  0
 26 27  1  0  0  0
 28107  1  0  0  0
 28108  1  0  0  0
 29109  1  0  0  0
 29110  1  0  0  0
 33 34  1  0  0  0
 33 66  1  0  0  0
 33 70  2  0  0  0
 34 36  1  0  0  0
 34 59  1  0  0  0
 34111  1  0  0  0
 35 44  2  0  0  0
 35 45  1  0  0  0
 35 68  1  0  0  0
 36 56  1  0  0  0
 36112  1  0  0  0
 37 39  1  0  0  0
 37 47  1  0  0  0
 37 66  1  0  0  0
 37113  1  0  0  0
 38 43  2  0  0  0
 38 46  1  0  0  0
 38 47  1  0  0  0
 39 64  1  0  0  0
 39 67  2  0  0  0
 40 52  1  0  0  0
 40 53  2  0  0  0
 40 58  1  0  0  0
 41114  1  0  0  0
 41115  1  0  0  0
 41116  1  0  0  0
 41 48  1  0  0  0
 42 43  1  0  0  0
 42 66  1  0  0  0
 42117  1  0  0  0
 42118  1  0  0  0
 43 44  1  0  0  0
 44119  1  0  0  0
 45 46  2  0  0  0
 45120  1  0  0  0
 46121  1  0  0  0
 47122  1  0  0  0
 47123  1  0  0  0
 48 56  1  0  0  0
 48 65  1  0  0  0
 48124  1  0  0  0
 49 50  1  0  0  0
 49 53  1  0  0  0
 49 64  1  0  0  0
 49125  1  0  0  0
 50 51  1  0  0  0
 50126  1  0  0  0
 50127  1  0  0  0
 51 52  1  0  0  0
 51128  1  0  0  0
 51129  1  0  0  0
 52130  1  0  0  0
 52131  1  0  0  0
 53 54  1  0  0  0
 54 55  2  0  0  0
 54132  1  0  0  0
 55 57  1  0  0  0
 55133  1  0  0  0
 56 69  2  0  0  0
 57 58  2  0  0  0
 57134  1  0  0  0
 58135  1  0  0  0
 59 60  1  0  0  0
 59 61  1  0  0  0
 59 62  1  0  0  0
 60136  1  0  0  0
 60137  1  0  0  0
 60138  1  0  0  0
 61139  1  0  0  0
 61140  1  0  0  0
 61141  1  0  0  0
 62142  1  0  0  0
 62143  1  0  0  0
 62144  1  0  0  0
 63 65  1  0  0  0
 63145  1  0  0  0
 63146  1  0  0  0
 63147  1  0  0  0
 64148  1  0  0  0
 65149  1  0  0  0
 68 87  1  0  0  0
 71 72  2  0  0  0
 71 75  1  0  0  0
 71150  1  0  0  0
 72 73  1  0  0  0
 72 77  1  0  0  0
 73 74  2  0  0  0
 73 78  1  0  0  0
 74 76  1  0  0  0
 74 82  1  0  0  0
 75 76  2  0  0  0
 75 89  1  0  0  0
 76 84  1  0  0  0
 77 83  1  0  0  0
 77151  1  0  0  0
 77152  1  0  0  0
 78 79  1  0  0  0
 78153  1  0  0  0
 78154  1  0  0  0
 79 83  1  0  0  0
 79155  1  0  0  0
 79156  1  0  0  0
 80 81  1  0  0  0
 80 82  1  0  0  0
 80157  1  0  0  0
 80158  1  0  0  0
 81 82  1  0  0  0
 81159  1  0  0  0
 81160  1  0  0  0
 82161  1  0  0  0
 83 85  1  0  0  0
 83 87  1  0  0  0
 84162  1  0  0  0
 84163  1  0  0  0
 84164  1  0  0  0
 85165  1  0  0  0
 85166  1  0  0  0
 85167  1  0  0  0
 86168  1  0  0  0
 86169  1  0  0  0
 86170  1  0  0  0
 86 89  1  0  0  0
 87171  1  0  0  0
 87172  1  0  0  0
 88 89  1  0  0  0
 88 90  1  0  0  0
 88173  1  0  0  0
 88174  1  0  0  0
 89175  1  0  0  0
 90176  1  0  0  0
M  ISO  4   1 100  68 101  87 101  90 100
M  END
> <chiral flag>
0

> <version>
0

> <s_m_source_file>
/data/baiqing/PycharmProjects/Reinvent-master-3.2/result/LINK_invent/BTK/process_docking_weight1_custom_sum_contain_oxygen_bond_distance_aromatic_linkinvent_7_9_3/rearranged_h_0174.sdf

> <i_m_source_file_index>
87

> <r_mmod_Potential_Energy-OPLS-2005>
25.2569847106934

> <r_mmod_Stretch_Energy-OPLS-2005>
62.1446685791016

> <r_mmod_Bend_Energy-OPLS-2005>
133.606658935547

> <r_mmod_Torsional_Energy-OPLS-2005>
270.568878173828

> <r_mmod_Improper_Torsional_Energy-OPLS-2005>
5.40586853027344

> <r_mmod_Van_der_Waal_Energy-OPLS-2005>
163.628860473633

> <r_mmod_Electrostatic_Energy-OPLS-2005>
-438.227844238281

> <r_mmod_Solvation_Energy-OPLS-2005>
-196.554077148438

> <b_mmod_Minimization_Converged-OPLS-2005>
0

> <r_mmod_RMS_Derivative-OPLS-2005>
5.03188562393188

$$$$
89
                    3D
 Structure written by MMmdl.
168177  0  0  1  0            999 V2000
  -30.6375  -14.8242   20.4679 C   0  0  0  0  0  0
  -30.4094  -12.5221   19.4825 C   0  0  0  0  0  0
  -29.4938  -12.5286   18.2408 C   0  0  0  0  0  0
  -28.0331  -12.3162   18.6688 C   0  0  0  0  0  0
  -27.6293  -13.2433   19.8453 C   0  0  2  0  0  0
  -28.6712  -13.2492   20.9865 C   0  0  0  0  0  0
  -25.2446  -13.8233   20.5680 C   0  0  0  0  0  0
  -24.1737  -13.0466   20.9194 C   0  0  0  0  0  0
  -24.6357  -11.6953   20.8757 C   0  0  0  0  0  0
  -23.9048  -10.4300   21.0384 C   0  0  0  0  0  0
  -24.3604   -9.4221   21.9171 C   0  0  0  0  0  0
  -23.6298   -8.2250   22.0747 C   0  0  0  0  0  0
  -22.4282   -8.0286   21.3531 C   0  0  0  0  0  0
  -21.9891   -9.0248   20.4622 C   0  0  0  0  0  0
  -22.7215  -10.2138   20.3032 C   0  0  0  0  0  0
  -21.6869   -6.0732   22.5270 C   0  0  0  0  0  0
  -21.4018   -6.5626   23.8199 C   0  0  0  0  0  0
  -21.3652   -5.6780   24.9160 C   0  0  0  0  0  0
  -21.6049   -4.3040   24.7216 C   0  0  0  0  0  0
  -21.8835   -3.8134   23.4335 C   0  0  0  0  0  0
  -21.9193   -4.6956   22.3397 C   0  0  0  0  0  0
  -22.7752  -13.5216   21.1833 C   0  0  0  0  0  0
  -22.1681   -4.2138   21.0985 F   0  0  0  0  0  0
  -21.5600   -3.4526   25.7728 F   0  0  0  0  0  0
  -29.9586  -13.6158   20.3895 N   0  0  0  0  0  0
  -26.2865  -12.9468   20.3300 N   0  0  0  0  0  0
  -25.9294  -11.6600   20.5810 N   0  0  0  0  0  0
  -22.0411  -12.8195   22.0403 N   0  0  0  0  0  0
  -25.4151  -15.1955   20.4121 N   0  0  0  0  0  0
  -31.8090  -14.8478   20.0903 O   0  0  0  0  0  0
  -21.6662   -6.8883   21.4234 O   0  0  0  0  0  0
  -22.3458  -14.5533   20.6710 O   0  0  0  0  0  0
  -24.6342  -31.8503   23.1959 C   0  0  0  0  0  0
  -25.9131  -32.4717   23.8314 C   0  0  1  0  0  0
  -27.2023  -27.1837   20.1838 C   0  0  0  0  0  0
  -25.5905  -33.8529   24.2232 N   0  0  0  0  0  0
  -23.4345  -30.4715   21.5371 C   0  0  2  0  0  0
  -24.8890  -28.9046   20.1195 C   0  0  0  0  0  0
  -22.7510  -29.4573   22.4874 C   0  0  0  0  0  0
  -18.0304  -28.1378   22.8446 C   0  0  0  0  0  0
  -24.1506  -36.7274   23.2637 C   0  0  0  0  0  0
  -25.9879  -30.7349   21.3971 C   0  0  0  0  0  0
  -26.0567  -29.3465   20.7567 C   0  0  0  0  0  0
  -27.2178  -28.4954   20.7867 C   0  0  0  0  0  0
  -26.0318  -26.8520   19.4757 C   0  0  0  0  0  0
  -24.8838  -27.6667   19.4651 C   0  0  0  0  0  0
  -23.6642  -29.8023   20.1553 C   0  0  0  0  0  0
  -25.4123  -36.3058   24.0318 C   0  0  1  0  0  0
  -20.5909  -28.3722   23.1258 C   0  0  2  0  0  0
  -20.6808  -26.9444   22.5453 C   0  0  0  0  0  0
  -19.5828  -26.6365   21.5227 C   0  0  0  0  0  0
  -18.1977  -26.7972   22.1506 C   0  0  0  0  0  0
  -19.1536  -28.8860   23.2871 C   0  0  0  0  0  0
  -18.9462  -30.1476   23.8858 C   0  0  0  0  0  0
  -17.6439  -30.6608   24.0507 C   0  0  0  0  0  0
  -25.9059  -34.9415   23.5085 C   0  0  0  0  0  0
  -16.5339  -29.9082   23.6280 C   0  0  0  0  0  0
  -16.7291  -28.6478   23.0352 C   0  0  0  0  0  0
  -26.4513  -31.6545   25.0705 C   0  0  0  0  0  0
  -25.3730  -31.3664   26.1409 C   0  0  0  0  0  0
  -27.0366  -30.2956   24.6215 C   0  0  0  0  0  0
  -27.6073  -32.4293   25.7457 C   0  0  0  0  0  0
  -27.5579  -37.1805   24.8468 C   0  0  0  0  0  0
  -21.4207  -29.3053   22.3626 N   0  0  0  0  0  0
  -26.4307  -37.3751   23.9392 N   0  0  0  0  0  0
  -24.7035  -31.0386   22.0982 N   0  0  0  0  0  0
  -23.4202  -28.8074   23.2958 O   0  0  0  0  0  0
  -28.2722  -26.2500   20.0978 O   0  0  0  0  0  0
  -26.5657  -34.8899   22.4673 O   0  0  0  0  0  0
  -23.5470  -32.1349   23.7200 O   0  0  0  0  0  0
  -28.9352  -22.4911   20.7315 C   0  0  0  0  0  0
  -27.2535  -21.0453   21.6372 C   0  0  0  0  0  0
  -26.4209  -22.1287   21.7430 C   0  0  0  0  0  0
  -28.5675  -21.1662   20.9912 C   0  0  0  0  0  0
  -26.7321  -23.3955   21.0449 C   0  0  0  0  0  0
  -28.6869  -18.5974   19.0095 C   0  0  0  0  0  0
  -28.7723  -17.0657   19.0836 C   0  0  0  0  0  0
  -29.6497  -18.6926   20.2018 C   0  0  1  0  0  0
  -29.1548  -17.1588   20.5767 C   0  0  1  0  0  0
  -26.9554  -19.7213   22.3423 C   0  0  0  0  0  0
  -23.9679  -21.4338   22.1961 C   0  0  0  0  0  0
  -25.5464  -21.9444   24.1805 C   0  0  0  0  0  0
  -28.4780  -25.1365   21.0758 C   0  0  0  0  0  0
  -25.2017  -22.2022   22.6958 C   0  0  0  0  0  0
  -28.0474  -23.6620   20.8392 N   0  0  0  0  0  0
  -29.4384  -19.9900   21.0044 N   0  0  0  0  0  0
  -30.1083  -16.0096   21.0001 N   0  0  0  0  0  0
  -25.8577  -24.2143   20.7554 O   0  0  0  0  0  0
  -31.4456  -12.6373   19.1678 H   0  0  0  0  0  0
  -30.3646  -11.5579   19.9903 H   0  0  0  0  0  0
  -29.7978  -11.7491   17.5418 H   0  0  0  0  0  0
  -29.5882  -13.4760   17.7084 H   0  0  0  0  0  0
  -27.9329  -11.2727   18.9689 H   0  0  0  0  0  0
  -27.3592  -12.4563   17.8189 H   0  0  0  0  0  0
  -27.6065  -14.2504   19.4327 H   0  0  0  0  0  0
  -28.7335  -12.2730   21.4728 H   0  0  0  0  0  0
  -28.3852  -13.9660   21.7587 H   0  0  0  0  0  0
  -25.2744   -9.5694   22.4751 H   0  0  0  0  0  0
  -24.0006   -7.4619   22.7452 H   0  0  0  0  0  0
  -21.0821   -8.8738   19.8921 H   0  0  0  0  0  0
  -22.3643  -10.9669   19.6135 H   0  0  0  0  0  0
  -21.2046   -7.6133   23.9720 H   0  0  0  0  0  0
  -21.1454   -6.0494   25.9069 H   0  0  0  0  0  0
  -22.0627   -2.7601   23.2835 H   0  0  0  0  0  0
  -22.4062  -11.9900   22.4862 H   0  0  0  0  0  0
  -21.1016  -13.1212   22.2568 H   0  0  0  0  0  0
  -24.6564  -15.8571   20.5393 H   0  0  0  0  0  0
  -26.2868  -15.6399   20.1606 H   0  0  0  0  0  0
  -26.7161  -32.5372   23.1021 H   0  0  0  0  0  0
  -25.0010  -33.9691   25.0347 H   0  0  0  0  0  0
  -22.7341  -31.2966   21.3855 H   0  0  0  0  0  0
  -23.3764  -35.9613   23.3306 H   0  0  0  0  0  0
  -24.3596  -36.8909   22.2054 H   0  0  0  0  0  0
  -23.7280  -37.6483   23.6664 H   0  0  0  0  0  0
  -26.1318  -31.4803   20.6147 H   0  0  0  0  0  0
  -26.8616  -30.7956   22.0307 H   0  0  0  0  0  0
  -28.1129  -28.8267   21.2961 H   0  0  0  0  0  0
  -25.9945  -25.9154   18.9374 H   0  0  0  0  0  0
  -24.0014  -27.3392   18.9331 H   0  0  0  0  0  0
  -23.8024  -30.5760   19.3978 H   0  0  0  0  0  0
  -22.7850  -29.2390   19.8432 H   0  0  0  0  0  0
  -25.1325  -36.1895   25.0812 H   0  0  0  0  0  0
  -20.9992  -28.3360   24.1395 H   0  0  0  0  0  0
  -20.5666  -26.2365   23.3665 H   0  0  0  0  0  0
  -21.6731  -26.7440   22.1385 H   0  0  0  0  0  0
  -19.6997  -25.6275   21.1256 H   0  0  0  0  0  0
  -19.6856  -27.3148   20.6741 H   0  0  0  0  0  0
  -17.4364  -26.6901   21.3756 H   0  0  0  0  0  0
  -18.0148  -26.0030   22.8766 H   0  0  0  0  0  0
  -19.7925  -30.7303   24.2241 H   0  0  0  0  0  0
  -17.4961  -31.6285   24.5105 H   0  0  0  0  0  0
  -15.5354  -30.2959   23.7563 H   0  0  0  0  0  0
  -15.8690  -28.0808   22.7083 H   0  0  0  0  0  0
  -24.5923  -30.7005   25.7696 H   0  0  0  0  0  0
  -24.8902  -32.2824   26.4832 H   0  0  0  0  0  0
  -25.8062  -30.8824   27.0169 H   0  0  0  0  0  0
  -26.2949  -29.6670   24.1270 H   0  0  0  0  0  0
  -27.4064  -29.7241   25.4732 H   0  0  0  0  0  0
  -27.8824  -30.4208   23.9449 H   0  0  0  0  0  0
  -27.2686  -33.3588   26.2025 H   0  0  0  0  0  0
  -28.3872  -32.6855   25.0274 H   0  0  0  0  0  0
  -28.0734  -31.8414   26.5381 H   0  0  0  0  0  0
  -28.2613  -38.0094   24.7496 H   0  0  0  0  0  0
  -28.1087  -36.2625   24.6335 H   0  0  0  0  0  0
  -27.2290  -37.1472   25.8878 H   0  0  0  0  0  0
  -20.9349  -29.8715   21.6812 H   0  0  0  0  0  0
  -26.0185  -38.2824   24.1405 H   0  0  0  0  0  0
  -29.9328  -22.7610   20.4155 H   0  0  0  0  0  0
  -27.6790  -18.9599   19.2221 H   0  0  0  0  0  0
  -29.0683  -19.0294   18.0838 H   0  0  0  0  0  0
  -27.8189  -16.5811   18.8849 H   0  0  0  0  0  0
  -29.5572  -16.6657   18.4389 H   0  0  0  0  0  0
  -30.6788  -18.6710   19.8366 H   0  0  0  0  0  0
  -28.2523  -17.1656   21.1853 H   0  0  0  0  0  0
  -25.9565  -19.6256   22.7530 H   0  0  0  0  0  0
  -27.6673  -19.5518   23.1532 H   0  0  0  0  0  0
  -27.0457  -18.9036   21.6333 H   0  0  0  0  0  0
  -23.5866  -21.8959   21.2847 H   0  0  0  0  0  0
  -23.1657  -21.4594   22.9355 H   0  0  0  0  0  0
  -24.1688  -20.3912   21.9645 H   0  0  0  0  0  0
  -26.3601  -22.5914   24.5117 H   0  0  0  0  0  0
  -25.8403  -20.9238   24.4057 H   0  0  0  0  0  0
  -24.6915  -22.1659   24.8183 H   0  0  0  0  0  0
  -28.0224  -25.4436   22.0190 H   0  0  0  0  0  0
  -29.5504  -25.0997   21.2739 H   0  0  0  0  0  0
  -24.8662  -23.2379   22.7312 H   0  0  0  0  0  0
  -30.2494  -20.1436   21.5973 H   0  0  0  0  0  0
  -30.8719  -16.4464   21.4958 H   0  0  0  0  0  0
  1 25  1  0  0  0
  1 30  2  0  0  0
  1 87  1  0  0  0
  2  3  1  0  0  0
  2 25  1  0  0  0
  2 89  1  0  0  0
  2 90  1  0  0  0
  3  4  1  0  0  0
  3 91  1  0  0  0
  3 92  1  0  0  0
  4  5  1  0  0  0
  4 93  1  0  0  0
  4 94  1  0  0  0
  5  6  1  0  0  0
  5 26  1  0  0  0
  5 95  1  0  0  0
  6 25  1  0  0  0
  6 96  1  0  0  0
  6 97  1  0  0  0
  7  8  2  0  0  0
  7 26  1  0  0  0
  7 29  1  0  0  0
  8  9  1  0  0  0
  8 22  1  0  0  0
  9 10  1  0  0  0
  9 27  2  0  0  0
 10 11  2  0  0  0
 10 15  1  0  0  0
 11 12  1  0  0  0
 11 98  1  0  0  0
 12 13  2  0  0  0
 12 99  1  0  0  0
 13 14  1  0  0  0
 13 31  1  0  0  0
 14 15  2  0  0  0
 14100  1  0  0  0
 15101  1  0  0  0
 16 17  2  0  0  0
 16 21  1  0  0  0
 16 31  1  0  0  0
 17 18  1  0  0  0
 17102  1  0  0  0
 18 19  2  0  0  0
 18103  1  0  0  0
 19 20  1  0  0  0
 19 24  1  0  0  0
 20 21  2  0  0  0
 20104  1  0  0  0
 21 23  1  0  0  0
 22 28  1  0  0  0
 22 32  2  0  0  0
 26 27  1  0  0  0
 28105  1  0  0  0
 28106  1  0  0  0
 29107  1  0  0  0
 29108  1  0  0  0
 33 34  1  0  0  0
 33 66  1  0  0  0
 33 70  2  0  0  0
 34 36  1  0  0  0
 34 59  1  0  0  0
 34109  1  0  0  0
 35 44  2  0  0  0
 35 45  1  0  0  0
 35 68  1  0  0  0
 36 56  1  0  0  0
 36110  1  0  0  0
 37 39  1  0  0  0
 37 47  1  0  0  0
 37 66  1  0  0  0
 37111  1  0  0  0
 38 43  2  0  0  0
 38 46  1  0  0  0
 38 47  1  0  0  0
 39 64  1  0  0  0
 39 67  2  0  0  0
 40 52  1  0  0  0
 40 53  2  0  0  0
 40 58  1  0  0  0
 41112  1  0  0  0
 41113  1  0  0  0
 41114  1  0  0  0
 41 48  1  0  0  0
 42 43  1  0  0  0
 42 66  1  0  0  0
 42115  1  0  0  0
 42116  1  0  0  0
 43 44  1  0  0  0
 44117  1  0  0  0
 45 46  2  0  0  0
 45118  1  0  0  0
 46119  1  0  0  0
 47120  1  0  0  0
 47121  1  0  0  0
 48 56  1  0  0  0
 48 65  1  0  0  0
 48122  1  0  0  0
 49 50  1  0  0  0
 49 53  1  0  0  0
 49 64  1  0  0  0
 49123  1  0  0  0
 50 51  1  0  0  0
 50124  1  0  0  0
 50125  1  0  0  0
 51 52  1  0  0  0
 51126  1  0  0  0
 51127  1  0  0  0
 52128  1  0  0  0
 52129  1  0  0  0
 53 54  1  0  0  0
 54 55  2  0  0  0
 54130  1  0  0  0
 55 57  1  0  0  0
 55131  1  0  0  0
 56 69  2  0  0  0
 57 58  2  0  0  0
 57132  1  0  0  0
 58133  1  0  0  0
 59 60  1  0  0  0
 59 61  1  0  0  0
 59 62  1  0  0  0
 60134  1  0  0  0
 60135  1  0  0  0
 60136  1  0  0  0
 61137  1  0  0  0
 61138  1  0  0  0
 61139  1  0  0  0
 62140  1  0  0  0
 62141  1  0  0  0
 62142  1  0  0  0
 63 65  1  0  0  0
 63143  1  0  0  0
 63144  1  0  0  0
 63145  1  0  0  0
 64146  1  0  0  0
 65147  1  0  0  0
 68 83  1  0  0  0
 71 74  2  0  0  0
 71 85  1  0  0  0
 71148  1  0  0  0
 72 73  2  0  0  0
 72 74  1  0  0  0
 72 80  1  0  0  0
 73 75  1  0  0  0
 73 84  1  0  0  0
 74 86  1  0  0  0
 75 85  1  0  0  0
 75 88  2  0  0  0
 76 77  1  0  0  0
 76 78  1  0  0  0
 76149  1  0  0  0
 76150  1  0  0  0
 77 79  1  0  0  0
 77151  1  0  0  0
 77152  1  0  0  0
 78 79  1  0  0  0
 78 86  1  0  0  0
 78153  1  0  0  0
 79 87  1  0  0  0
 79154  1  0  0  0
 80155  1  0  0  0
 80156  1  0  0  0
 80157  1  0  0  0
 81158  1  0  0  0
 81159  1  0  0  0
 81160  1  0  0  0
 81 84  1  0  0  0
 82 84  1  0  0  0
 82161  1  0  0  0
 82162  1  0  0  0
 82163  1  0  0  0
 83 85  1  0  0  0
 83164  1  0  0  0
 83165  1  0  0  0
 84166  1  0  0  0
 86167  1  0  0  0
 87168  1  0  0  0
M  ISO  4   1 100  68 101  83 101  87 100
M  END
> <chiral flag>
0

> <version>
0

> <s_m_source_file>
/data/baiqing/PycharmProjects/Reinvent-master-3.2/result/LINK_invent/BTK/process_docking_weight1_custom_sum_contain_oxygen_bond_distance_aromatic_linkinvent_7_9_3/rearranged_h_0174.sdf

> <i_m_source_file_index>
88

> <r_mmod_Potential_Energy-OPLS-2005>
548.434448242188

> <r_mmod_Stretch_Energy-OPLS-2005>
188.723190307617

> <r_mmod_Bend_Energy-OPLS-2005>
330.794250488281

> <r_mmod_Torsional_Energy-OPLS-2005>
356.532592773438

> <r_mmod_Improper_Torsional_Energy-OPLS-2005>
8.60642337799072

> <r_mmod_Van_der_Waal_Energy-OPLS-2005>
144.218383789062

> <r_mmod_Electrostatic_Energy-OPLS-2005>
-389.109802246094

> <r_mmod_Solvation_Energy-OPLS-2005>
-219.137069702148

> <b_mmod_Minimization_Converged-OPLS-2005>
0

> <r_mmod_RMS_Derivative-OPLS-2005>
5.25738573074341

$$$$
90
                    3D
 Structure written by MMmdl.
152161  0  0  1  0            999 V2000
  -30.5581  -15.1137   20.4000 C   0  0  0  0  0  0
  -30.4149  -12.7145   19.5067 C   0  0  0  0  0  0
  -29.5123  -12.5436   18.2658 C   0  0  0  0  0  0
  -28.0579  -12.2997   18.6988 C   0  0  0  0  0  0
  -27.6078  -13.2711   19.8209 C   0  0  2  0  0  0
  -28.6485  -13.4216   20.9508 C   0  0  0  0  0  0
  -25.2359  -13.8249   20.5746 C   0  0  0  0  0  0
  -24.1719  -13.0437   20.9266 C   0  0  0  0  0  0
  -24.6378  -11.6936   20.8780 C   0  0  0  0  0  0
  -23.9081  -10.4293   21.0414 C   0  0  0  0  0  0
  -24.3632   -9.4206   21.9187 C   0  0  0  0  0  0
  -23.6303   -8.2242   22.0753 C   0  0  0  0  0  0
  -22.4283   -8.0281   21.3544 C   0  0  0  0  0  0
  -21.9923   -9.0256   20.4647 C   0  0  0  0  0  0
  -22.7256  -10.2134   20.3059 C   0  0  0  0  0  0
  -21.6856   -6.0736   22.5278 C   0  0  0  0  0  0
  -21.4017   -6.5639   23.8212 C   0  0  0  0  0  0
  -21.3661   -5.6791   24.9174 C   0  0  0  0  0  0
  -21.6044   -4.3053   24.7224 C   0  0  0  0  0  0
  -21.8819   -3.8146   23.4344 C   0  0  0  0  0  0
  -21.9193   -4.6963   22.3401 C   0  0  0  0  0  0
  -22.7739  -13.5187   21.1905 C   0  0  0  0  0  0
  -22.1660   -4.2149   21.0978 F   0  0  0  0  0  0
  -21.5629   -3.4537   25.7736 F   0  0  0  0  0  0
  -29.8890  -13.8748   20.3087 N   0  0  0  0  0  0
  -26.2790  -12.9527   20.3238 N   0  0  0  0  0  0
  -25.9315  -11.6634   20.5758 N   0  0  0  0  0  0
  -22.0399  -12.8176   22.0464 N   0  0  0  0  0  0
  -25.3964  -15.1975   20.4153 N   0  0  0  0  0  0
  -31.7791  -15.0079   20.2148 O   0  0  0  0  0  0
  -21.6644   -6.8880   21.4241 O   0  0  0  0  0  0
  -22.3420  -14.5484   20.6736 O   0  0  0  0  0  0
  -24.6514  -31.8330   23.1776 C   0  0  0  0  0  0
  -25.9244  -32.4633   23.8204 C   0  0  1  0  0  0
  -27.2125  -27.0193   20.1838 C   0  0  0  0  0  0
  -25.5954  -33.8445   24.2116 N   0  0  0  0  0  0
  -23.4602  -30.4459   21.5252 C   0  0  2  0  0  0
  -24.9082  -28.8407   20.1176 C   0  0  0  0  0  0
  -22.7602  -29.4485   22.4830 C   0  0  0  0  0  0
  -18.0308  -28.1398   22.8473 C   0  0  0  0  0  0
  -24.1493  -36.7231   23.2647 C   0  0  0  0  0  0
  -26.0206  -30.6682   21.3927 C   0  0  0  0  0  0
  -26.0853  -29.2635   20.7458 C   0  0  0  0  0  0
  -27.2323  -28.3708   20.7565 C   0  0  0  0  0  0
  -26.0094  -26.7187   19.5105 C   0  0  0  0  0  0
  -24.8880  -27.5857   19.4843 C   0  0  0  0  0  0
  -23.6928  -29.7609   20.1500 C   0  0  0  0  0  0
  -25.4131  -36.2996   24.0306 C   0  0  1  0  0  0
  -20.5924  -28.3728   23.1220 C   0  0  2  0  0  0
  -20.6788  -26.9422   22.5406 C   0  0  0  0  0  0
  -19.5764  -26.6375   21.5215 C   0  0  0  0  0  0
  -18.1945  -26.7934   22.1622 C   0  0  0  0  0  0
  -19.1567  -28.8883   23.2836 C   0  0  0  0  0  0
  -18.9482  -30.1477   23.8864 C   0  0  0  0  0  0
  -17.6477  -30.6593   24.0555 C   0  0  0  0  0  0
  -25.9087  -34.9376   23.5029 C   0  0  0  0  0  0
  -16.5368  -29.9083   23.6338 C   0  0  0  0  0  0
  -16.7292  -28.6502   23.0358 C   0  0  0  0  0  0
  -26.4536  -31.6549   25.0695 C   0  0  0  0  0  0
  -25.3694  -31.3769   26.1373 C   0  0  0  0  0  0
  -27.0424  -30.2931   24.6359 C   0  0  0  0  0  0
  -27.6040  -32.4345   25.7491 C   0  0  0  0  0  0
  -27.5572  -37.1771   24.8465 C   0  0  0  0  0  0
  -21.4285  -29.3038   22.3581 N   0  0  0  0  0  0
  -26.4283  -37.3721   23.9407 N   0  0  0  0  0  0
  -24.7314  -31.0082   22.0860 N   0  0  0  0  0  0
  -23.4201  -28.8056   23.3032 O   0  0  0  0  0  0
  -28.3127  -26.0531   20.1798 O   0  0  0  0  0  0
  -26.5693  -34.8896   22.4622 O   0  0  0  0  0  0
  -23.5611  -32.1259   23.6936 O   0  0  0  0  0  0
  -29.6989  -22.5885   19.7951 C   0  0  0  0  0  0
  -27.6681  -22.3316   20.7929 C   0  0  0  0  0  0
  -28.8320  -21.5826   20.3489 C   0  0  0  0  0  0
  -28.3481  -24.5774   20.1687 C   0  0  0  0  0  0
  -28.2255  -18.6715   20.5454 C   0  0  0  0  0  0
  -30.3718  -19.1956   19.7712 C   0  0  0  0  0  0
  -28.6997  -17.1085   20.8968 C   0  0  0  0  0  0
  -30.8928  -17.6954   20.1829 C   0  0  0  0  0  0
  -29.2341  -19.9300   20.6055 C   0  0  0  0  0  0
  -29.4770  -23.9702   19.7230 N   0  0  0  0  0  0
  -27.4375  -23.7276   20.7131 N   0  0  0  0  0  0
  -29.9869  -16.4751   20.3706 N   0  0  0  0  0  0
  -31.4442  -12.8630   19.1778 H   0  0  0  0  0  0
  -30.4314  -11.8017   20.1044 H   0  0  0  0  0  0
  -29.8651  -11.7166   17.6483 H   0  0  0  0  0  0
  -29.5678  -13.4392   17.6449 H   0  0  0  0  0  0
  -27.9934  -11.2715   19.0571 H   0  0  0  0  0  0
  -27.3874  -12.3662   17.8412 H   0  0  0  0  0  0
  -27.5313  -14.2443   19.3348 H   0  0  0  0  0  0
  -28.7896  -12.4870   21.4955 H   0  0  0  0  0  0
  -28.3160  -14.1626   21.6794 H   0  0  0  0  0  0
  -25.2772   -9.5681   22.4771 H   0  0  0  0  0  0
  -24.0008   -7.4632   22.7473 H   0  0  0  0  0  0
  -21.0854   -8.8778   19.8955 H   0  0  0  0  0  0
  -22.3709  -10.9676   19.6175 H   0  0  0  0  0  0
  -21.2011   -7.6148   23.9716 H   0  0  0  0  0  0
  -21.1483   -6.0521   25.9077 H   0  0  0  0  0  0
  -22.0596   -2.7608   23.2843 H   0  0  0  0  0  0
  -22.4033  -11.9853   22.4866 H   0  0  0  0  0  0
  -21.1010  -13.1187   22.2662 H   0  0  0  0  0  0
  -24.6256  -15.8462   20.5322 H   0  0  0  0  0  0
  -26.2386  -15.6403   20.0734 H   0  0  0  0  0  0
  -26.7308  -32.5201   23.0921 H   0  0  0  0  0  0
  -25.0051  -33.9539   25.0232 H   0  0  0  0  0  0
  -22.7681  -31.2744   21.3600 H   0  0  0  0  0  0
  -23.3760  -35.9555   23.3288 H   0  0  0  0  0  0
  -24.3570  -36.8891   22.2064 H   0  0  0  0  0  0
  -23.7244  -37.6415   23.6710 H   0  0  0  0  0  0
  -26.1876  -31.4103   20.6112 H   0  0  0  0  0  0
  -26.8871  -30.7257   22.0397 H   0  0  0  0  0  0
  -28.1359  -28.6992   21.2508 H   0  0  0  0  0  0
  -25.9169  -25.7620   19.0159 H   0  0  0  0  0  0
  -23.9910  -27.2594   18.9763 H   0  0  0  0  0  0
  -23.8426  -30.5283   19.3896 H   0  0  0  0  0  0
  -22.8039  -29.2101   19.8375 H   0  0  0  0  0  0
  -25.1327  -36.1804   25.0798 H   0  0  0  0  0  0
  -21.0013  -28.3324   24.1343 H   0  0  0  0  0  0
  -20.5671  -26.2345   23.3634 H   0  0  0  0  0  0
  -21.6653  -26.7413   22.1212 H   0  0  0  0  0  0
  -19.6922  -25.6278   21.1265 H   0  0  0  0  0  0
  -19.6702  -27.3168   20.6732 H   0  0  0  0  0  0
  -17.4214  -26.6676   21.4026 H   0  0  0  0  0  0
  -18.0341  -26.0086   22.9028 H   0  0  0  0  0  0
  -19.7958  -30.7301   24.2217 H   0  0  0  0  0  0
  -17.5030  -31.6269   24.5163 H   0  0  0  0  0  0
  -15.5366  -30.2973   23.7683 H   0  0  0  0  0  0
  -15.8692  -28.0809   22.7093 H   0  0  0  0  0  0
  -24.5880  -30.7114   25.7687 H   0  0  0  0  0  0
  -24.8880  -32.2963   26.4715 H   0  0  0  0  0  0
  -25.7950  -30.8990   27.0205 H   0  0  0  0  0  0
  -26.3068  -29.6620   24.1358 H   0  0  0  0  0  0
  -27.3988  -29.7272   25.4977 H   0  0  0  0  0  0
  -27.8994  -30.4140   23.9729 H   0  0  0  0  0  0
  -27.2610  -33.3673   26.1980 H   0  0  0  0  0  0
  -28.3896  -32.6864   25.0356 H   0  0  0  0  0  0
  -28.0663  -31.8537   26.5482 H   0  0  0  0  0  0
  -28.2578  -38.0078   24.7510 H   0  0  0  0  0  0
  -28.1079  -36.2605   24.6298 H   0  0  0  0  0  0
  -27.2287  -37.1422   25.8867 H   0  0  0  0  0  0
  -20.9518  -29.8728   21.6726 H   0  0  0  0  0  0
  -26.0138  -38.2782   24.1412 H   0  0  0  0  0  0
  -30.6643  -22.2797   19.4228 H   0  0  0  0  0  0
  -26.8788  -21.7871   21.2896 H   0  0  0  0  0  0
  -27.3803  -18.8984   21.1965 H   0  0  0  0  0  0
  -27.7955  -18.6527   19.5428 H   0  0  0  0  0  0
  -30.0599  -19.1641   18.7259 H   0  0  0  0  0  0
  -31.2501  -19.8419   19.7744 H   0  0  0  0  0  0
  -27.8856  -16.4422   20.6173 H   0  0  0  0  0  0
  -28.7633  -17.0282   21.9828 H   0  0  0  0  0  0
  -31.4503  -17.7934   21.1157 H   0  0  0  0  0  0
  -31.6444  -17.4256   19.4394 H   0  0  0  0  0  0
  -29.5982  -19.9513   21.6338 H   0  0  0  0  0  0
  1 25  1  0  0  0
  1 30  2  0  0  0
  1 82  1  0  0  0
  2  3  1  0  0  0
  2 25  1  0  0  0
  2 83  1  0  0  0
  2 84  1  0  0  0
  3  4  1  0  0  0
  3 85  1  0  0  0
  3 86  1  0  0  0
  4  5  1  0  0  0
  4 87  1  0  0  0
  4 88  1  0  0  0
  5  6  1  0  0  0
  5 26  1  0  0  0
  5 89  1  0  0  0
  6 25  1  0  0  0
  6 90  1  0  0  0
  6 91  1  0  0  0
  7  8  2  0  0  0
  7 26  1  0  0  0
  7 29  1  0  0  0
  8  9  1  0  0  0
  8 22  1  0  0  0
  9 10  1  0  0  0
  9 27  2  0  0  0
 10 11  2  0  0  0
 10 15  1  0  0  0
 11 12  1  0  0  0
 11 92  1  0  0  0
 12 13  2  0  0  0
 12 93  1  0  0  0
 13 14  1  0  0  0
 13 31  1  0  0  0
 14 15  2  0  0  0
 14 94  1  0  0  0
 15 95  1  0  0  0
 16 17  2  0  0  0
 16 21  1  0  0  0
 16 31  1  0  0  0
 17 18  1  0  0  0
 17 96  1  0  0  0
 18 19  2  0  0  0
 18 97  1  0  0  0
 19 20  1  0  0  0
 19 24  1  0  0  0
 20 21  2  0  0  0
 20 98  1  0  0  0
 21 23  1  0  0  0
 22 28  1  0  0  0
 22 32  2  0  0  0
 26 27  1  0  0  0
 28 99  1  0  0  0
 28100  1  0  0  0
 29101  1  0  0  0
 29102  1  0  0  0
 33 34  1  0  0  0
 33 66  1  0  0  0
 33 70  2  0  0  0
 34 36  1  0  0  0
 34 59  1  0  0  0
 34103  1  0  0  0
 35 44  2  0  0  0
 35 45  1  0  0  0
 35 68  1  0  0  0
 36 56  1  0  0  0
 36104  1  0  0  0
 37 39  1  0  0  0
 37 47  1  0  0  0
 37 66  1  0  0  0
 37105  1  0  0  0
 38 43  2  0  0  0
 38 46  1  0  0  0
 38 47  1  0  0  0
 39 64  1  0  0  0
 39 67  2  0  0  0
 40 52  1  0  0  0
 40 53  2  0  0  0
 40 58  1  0  0  0
 41106  1  0  0  0
 41107  1  0  0  0
 41108  1  0  0  0
 41 48  1  0  0  0
 42 43  1  0  0  0
 42 66  1  0  0  0
 42109  1  0  0  0
 42110  1  0  0  0
 43 44  1  0  0  0
 44111  1  0  0  0
 45 46  2  0  0  0
 45112  1  0  0  0
 46113  1  0  0  0
 47114  1  0  0  0
 47115  1  0  0  0
 48 56  1  0  0  0
 48 65  1  0  0  0
 48116  1  0  0  0
 49 50  1  0  0  0
 49 53  1  0  0  0
 49 64  1  0  0  0
 49117  1  0  0  0
 50 51  1  0  0  0
 50118  1  0  0  0
 50119  1  0  0  0
 51 52  1  0  0  0
 51120  1  0  0  0
 51121  1  0  0  0
 52122  1  0  0  0
 52123  1  0  0  0
 53 54  1  0  0  0
 54 55  2  0  0  0
 54124  1  0  0  0
 55 57  1  0  0  0
 55125  1  0  0  0
 56 69  2  0  0  0
 57 58  2  0  0  0
 57126  1  0  0  0
 58127  1  0  0  0
 59 60  1  0  0  0
 59 61  1  0  0  0
 59 62  1  0  0  0
 60128  1  0  0  0
 60129  1  0  0  0
 60130  1  0  0  0
 61131  1  0  0  0
 61132  1  0  0  0
 61133  1  0  0  0
 62134  1  0  0  0
 62135  1  0  0  0
 62136  1  0  0  0
 63 65  1  0  0  0
 63137  1  0  0  0
 63138  1  0  0  0
 63139  1  0  0  0
 64140  1  0  0  0
 65141  1  0  0  0
 68 74  1  0  0  0
 71 73  2  0  0  0
 71 80  1  0  0  0
 71142  1  0  0  0
 72 73  1  0  0  0
 72 81  2  0  0  0
 72143  1  0  0  0
 73 79  1  0  0  0
 74 80  2  0  0  0
 74 81  1  0  0  0
 75 77  1  0  0  0
 75 79  1  0  0  0
 75144  1  0  0  0
 75145  1  0  0  0
 76 78  1  0  0  0
 76 79  1  0  0  0
 76146  1  0  0  0
 76147  1  0  0  0
 77 82  1  0  0  0
 77148  1  0  0  0
 77149  1  0  0  0
 78 82  1  0  0  0
 78150  1  0  0  0
 78151  1  0  0  0
 79152  1  0  0  0
M  ISO  4   1 100  68 101  74 101  82 100
M  END
> <chiral flag>
0

> <version>
0

> <s_m_source_file>
/data/baiqing/PycharmProjects/Reinvent-master-3.2/result/LINK_invent/BTK/process_docking_weight1_custom_sum_contain_oxygen_bond_distance_aromatic_linkinvent_7_9_3/rearranged_h_0174.sdf

> <i_m_source_file_index>
89

> <r_mmod_Potential_Energy-OPLS-2005>
629.102416992188

> <r_mmod_Stretch_Energy-OPLS-2005>
321.761138916016

> <r_mmod_Bend_Energy-OPLS-2005>
420.485168457031

> <r_mmod_Torsional_Energy-OPLS-2005>
300.795227050781

> <r_mmod_Improper_Torsional_Energy-OPLS-2005>
11.1870746612549

> <r_mmod_Van_der_Waal_Energy-OPLS-2005>
136.761810302734

> <r_mmod_Electrostatic_Energy-OPLS-2005>
-645.478393554688

> <r_mmod_Solvation_Energy-OPLS-2005>
-221.019790649414

> <b_mmod_Minimization_Converged-OPLS-2005>
0

> <r_mmod_RMS_Derivative-OPLS-2005>
0.433648318052292

$$$$
91
                    3D
 Structure written by MMmdl.
168178  0  0  1  0            999 V2000
  -30.7017  -14.6692   20.4952 C   0  0  0  0  0  0
  -30.4108  -12.4292   19.4462 C   0  0  0  0  0  0
  -29.4865  -12.5003   18.2156 C   0  0  0  0  0  0
  -28.0157  -12.3290   18.6393 C   0  0  0  0  0  0
  -27.6391  -13.2182   19.8548 C   0  0  2  0  0  0
  -28.6966  -13.1133   20.9797 C   0  0  0  0  0  0
  -25.2483  -13.8166   20.5684 C   0  0  0  0  0  0
  -24.1774  -13.0423   20.9209 C   0  0  0  0  0  0
  -24.6362  -11.6900   20.8771 C   0  0  0  0  0  0
  -23.9047  -10.4279   21.0422 C   0  0  0  0  0  0
  -24.3602   -9.4193   21.9195 C   0  0  0  0  0  0
  -23.6281   -8.2228   22.0758 C   0  0  0  0  0  0
  -22.4266   -8.0269   21.3545 C   0  0  0  0  0  0
  -21.9899   -9.0241   20.4650 C   0  0  0  0  0  0
  -22.7224  -10.2123   20.3066 C   0  0  0  0  0  0
  -21.6850   -6.0729   22.5277 C   0  0  0  0  0  0
  -21.4010   -6.5635   23.8209 C   0  0  0  0  0  0
  -21.3658   -5.6790   24.9173 C   0  0  0  0  0  0
  -21.6046   -4.3053   24.7224 C   0  0  0  0  0  0
  -21.8819   -3.8143   23.4345 C   0  0  0  0  0  0
  -21.9186   -4.6958   22.3401 C   0  0  0  0  0  0
  -22.7798  -13.5213   21.1854 C   0  0  0  0  0  0
  -22.1656   -4.2145   21.0979 F   0  0  0  0  0  0
  -21.5631   -3.4538   25.7737 F   0  0  0  0  0  0
  -29.9789  -13.4990   20.3808 N   0  0  0  0  0  0
  -26.2917  -12.9357   20.3342 N   0  0  0  0  0  0
  -25.9292  -11.6511   20.5813 N   0  0  0  0  0  0
  -22.0444  -12.8218   22.0421 N   0  0  0  0  0  0
  -25.4125  -15.1882   20.4034 N   0  0  0  0  0  0
  -31.8955  -14.6265   20.1840 O   0  0  0  0  0  0
  -21.6632   -6.8867   21.4237 O   0  0  0  0  0  0
  -22.3485  -14.5512   20.6687 O   0  0  0  0  0  0
  -24.6251  -31.8606   23.2026 C   0  0  0  0  0  0
  -25.9101  -32.4785   23.8355 C   0  0  1  0  0  0
  -27.2175  -27.3306   20.1243 C   0  0  0  0  0  0
  -25.5920  -33.8585   24.2286 N   0  0  0  0  0  0
  -23.4180  -30.4836   21.5444 C   0  0  2  0  0  0
  -24.8640  -28.9382   20.1105 C   0  0  0  0  0  0
  -22.7468  -29.4631   22.4938 C   0  0  0  0  0  0
  -18.0288  -28.1387   22.8488 C   0  0  0  0  0  0
  -24.1489  -36.7295   23.2639 C   0  0  0  0  0  0
  -25.9570  -30.7962   21.3700 C   0  0  0  0  0  0
  -26.0320  -29.4240   20.7134 C   0  0  0  0  0  0
  -27.2165  -28.6325   20.7068 C   0  0  0  0  0  0
  -26.0331  -26.8904   19.4985 C   0  0  0  0  0  0
  -24.8658  -27.6775   19.4922 C   0  0  0  0  0  0
  -23.6318  -29.8174   20.1598 C   0  0  0  0  0  0
  -25.4110  -36.3086   24.0334 C   0  0  1  0  0  0
  -20.5885  -28.3690   23.1287 C   0  0  2  0  0  0
  -20.6779  -26.9416   22.5409 C   0  0  0  0  0  0
  -19.5751  -26.6385   21.5216 C   0  0  0  0  0  0
  -18.1931  -26.7931   22.1626 C   0  0  0  0  0  0
  -19.1539  -28.8853   23.2886 C   0  0  0  0  0  0
  -18.9464  -30.1456   23.8903 C   0  0  0  0  0  0
  -17.6465  -30.6590   24.0566 C   0  0  0  0  0  0
  -25.9046  -34.9456   23.5108 C   0  0  0  0  0  0
  -16.5357  -29.9091   23.6333 C   0  0  0  0  0  0
  -16.7275  -28.6508   23.0352 C   0  0  0  0  0  0
  -26.4489  -31.6589   25.0718 C   0  0  0  0  0  0
  -25.3730  -31.3730   26.1451 C   0  0  0  0  0  0
  -27.0329  -30.3019   24.6155 C   0  0  0  0  0  0
  -27.6048  -32.4323   25.7489 C   0  0  0  0  0  0
  -27.5580  -37.1799   24.8463 C   0  0  0  0  0  0
  -21.4179  -29.3050   22.3686 N   0  0  0  0  0  0
  -26.4289  -37.3779   23.9412 N   0  0  0  0  0  0
  -24.6856  -31.0631   22.0964 N   0  0  0  0  0  0
  -23.4198  -28.8173   23.3014 O   0  0  0  0  0  0
  -28.3186  -26.4732   20.1614 O   0  0  0  0  0  0
  -26.5612  -34.8920   22.4674 O   0  0  0  0  0  0
  -23.5418  -32.1395   23.7362 O   0  0  0  0  0  0
  -28.1626  -19.6071   18.0301 C   0  0  0  0  0  0
  -27.5459  -20.7022   17.3824 C   0  0  0  0  0  0
  -28.5243  -19.9528   19.3038 C   0  0  0  0  0  0
  -27.5489  -21.7379   18.2708 C   0  0  0  0  0  0
  -28.2082  -17.6290   20.4243 C   0  0  0  0  0  0
  -30.4856  -18.3695   19.8816 C   0  0  0  0  0  0
  -29.2659  -24.6666   21.4040 C   0  0  0  0  0  0
  -28.8045  -16.3827   21.1809 C   0  0  0  0  0  0
  -31.0025  -17.1548   20.7194 C   0  0  0  0  0  0
  -29.0991  -18.9161   20.3065 C   0  0  0  0  0  0
  -28.8601  -23.8071   20.2273 C   0  0  2  0  0  0
  -28.0477  -25.0983   20.6332 C   0  0  2  0  0  0
  -26.9656  -20.6995   15.9919 C   0  0  0  0  0  0
  -26.9041  -23.0809   18.0862 C   0  0  0  0  0  0
  -28.4931  -22.3027   20.5607 C   0  0  0  0  0  0
  -28.2469  -21.3573   19.4267 N   0  0  0  0  0  0
  -30.1320  -15.9365   20.6854 N   0  0  0  0  0  0
  -31.4495  -12.5239   19.1264 H   0  0  0  0  0  0
  -30.3464  -11.4495   19.9225 H   0  0  0  0  0  0
  -29.7593  -11.7319   17.4911 H   0  0  0  0  0  0
  -29.6162  -13.4590   17.7107 H   0  0  0  0  0  0
  -27.8671  -11.2782   18.8909 H   0  0  0  0  0  0
  -27.3527  -12.5356   17.7982 H   0  0  0  0  0  0
  -27.6391  -14.2381   19.4730 H   0  0  0  0  0  0
  -28.7446  -12.0883   21.3505 H   0  0  0  0  0  0
  -28.4572  -13.7089   21.8586 H   0  0  0  0  0  0
  -25.2742   -9.5673   22.4775 H   0  0  0  0  0  0
  -23.9993   -7.4618   22.7474 H   0  0  0  0  0  0
  -21.0832   -8.8751   19.8954 H   0  0  0  0  0  0
  -22.3674  -10.9662   19.6180 H   0  0  0  0  0  0
  -21.2005   -7.6145   23.9714 H   0  0  0  0  0  0
  -21.1484   -6.0521   25.9077 H   0  0  0  0  0  0
  -22.0601   -2.7607   23.2846 H   0  0  0  0  0  0
  -22.4058  -11.9888   22.4828 H   0  0  0  0  0  0
  -21.1064  -13.1254   22.2622 H   0  0  0  0  0  0
  -24.6417  -15.8380   20.5119 H   0  0  0  0  0  0
  -26.2614  -15.6309   20.0782 H   0  0  0  0  0  0
  -26.7171  -32.5460   23.1106 H   0  0  0  0  0  0
  -25.0073  -33.9738   25.0436 H   0  0  0  0  0  0
  -22.7117  -31.3039   21.4015 H   0  0  0  0  0  0
  -23.3754  -35.9626   23.3300 H   0  0  0  0  0  0
  -24.3585  -36.8916   22.2055 H   0  0  0  0  0  0
  -23.7241  -37.6496   23.6661 H   0  0  0  0  0  0
  -26.0847  -31.5599   20.6012 H   0  0  0  0  0  0
  -26.8387  -30.8461   21.9973 H   0  0  0  0  0  0
  -28.1138  -28.9981   21.1857 H   0  0  0  0  0  0
  -26.0026  -25.9204   19.0232 H   0  0  0  0  0  0
  -23.9707  -27.2996   19.0175 H   0  0  0  0  0  0
  -23.7514  -30.5931   19.4028 H   0  0  0  0  0  0
  -22.7516  -29.2464   19.8586 H   0  0  0  0  0  0
  -25.1294  -36.1934   25.0829 H   0  0  0  0  0  0
  -20.9981  -28.3260   24.1405 H   0  0  0  0  0  0
  -20.5686  -26.2301   23.3606 H   0  0  0  0  0  0
  -21.6645  -26.7452   22.1192 H   0  0  0  0  0  0
  -19.6911  -25.6295   21.1244 H   0  0  0  0  0  0
  -19.6685  -27.3196   20.6745 H   0  0  0  0  0  0
  -17.4200  -26.6684   21.4029 H   0  0  0  0  0  0
  -18.0327  -26.0076   22.9023 H   0  0  0  0  0  0
  -19.7942  -30.7268   24.2273 H   0  0  0  0  0  0
  -17.5024  -31.6273   24.5164 H   0  0  0  0  0  0
  -15.5356  -30.2996   23.7655 H   0  0  0  0  0  0
  -15.8675  -28.0830   22.7064 H   0  0  0  0  0  0
  -24.5890  -30.7097   25.7782 H   0  0  0  0  0  0
  -24.8938  -32.2901   26.4888 H   0  0  0  0  0  0
  -25.8051  -30.8893   27.0220 H   0  0  0  0  0  0
  -26.2898  -29.6771   24.1183 H   0  0  0  0  0  0
  -27.4048  -29.7270   25.4646 H   0  0  0  0  0  0
  -27.8758  -30.4321   23.9364 H   0  0  0  0  0  0
  -27.2659  -33.3625   26.2064 H   0  0  0  0  0  0
  -28.3855  -32.6882   25.0313 H   0  0  0  0  0  0
  -28.0719  -31.8451   26.5405 H   0  0  0  0  0  0
  -28.2587  -38.0108   24.7520 H   0  0  0  0  0  0
  -28.1087  -36.2636   24.6271 H   0  0  0  0  0  0
  -27.2303  -37.1429   25.8868 H   0  0  0  0  0  0
  -20.9353  -29.8782   21.6909 H   0  0  0  0  0  0
  -26.0171  -38.2855   24.1414 H   0  0  0  0  0  0
  -28.2883  -18.6199   17.6058 H   0  0  0  0  0  0
  -27.2552  -17.9033   20.8784 H   0  0  0  0  0  0
  -27.9569  -17.2812   19.4225 H   0  0  0  0  0  0
  -30.4498  -18.0629   18.8356 H   0  0  0  0  0  0
  -31.2136  -19.1804   19.9269 H   0  0  0  0  0  0
  -30.1803  -25.2461   21.2911 H   0  0  0  0  0  0
  -29.0979  -24.2711   22.4043 H   0  0  0  0  0  0
  -28.0576  -15.6064   21.1262 H   0  0  0  0  0  0
  -28.8966  -16.6137   22.2430 H   0  0  0  0  0  0
  -31.1196  -17.4611   21.7604 H   0  0  0  0  0  0
  -32.0188  -16.9578   20.3785 H   0  0  0  0  0  0
  -29.1861  -19.3733   21.2928 H   0  0  0  0  0  0
  -29.5005  -23.9031   19.3529 H   0  0  0  0  0  0
  -27.0925  -24.9809   21.1446 H   0  0  0  0  0  0
  -27.2830  -19.8139   15.4404 H   0  0  0  0  0  0
  -27.2926  -21.5796   15.4373 H   0  0  0  0  0  0
  -25.8761  -20.7040   16.0327 H   0  0  0  0  0  0
  -27.6310  -23.8375   17.7927 H   0  0  0  0  0  0
  -26.3974  -23.4068   18.9942 H   0  0  0  0  0  0
  -26.1456  -23.0479   17.3041 H   0  0  0  0  0  0
  -27.6113  -22.2922   21.2023 H   0  0  0  0  0  0
  -29.3057  -21.8877   21.1573 H   0  0  0  0  0  0
  1 25  1  0  0  0
  1 30  2  0  0  0
  1 87  1  0  0  0
  2  3  1  0  0  0
  2 25  1  0  0  0
  2 88  1  0  0  0
  2 89  1  0  0  0
  3  4  1  0  0  0
  3 90  1  0  0  0
  3 91  1  0  0  0
  4  5  1  0  0  0
  4 92  1  0  0  0
  4 93  1  0  0  0
  5  6  1  0  0  0
  5 26  1  0  0  0
  5 94  1  0  0  0
  6 25  1  0  0  0
  6 95  1  0  0  0
  6 96  1  0  0  0
  7  8  2  0  0  0
  7 26  1  0  0  0
  7 29  1  0  0  0
  8  9  1  0  0  0
  8 22  1  0  0  0
  9 10  1  0  0  0
  9 27  2  0  0  0
 10 11  2  0  0  0
 10 15  1  0  0  0
 11 12  1  0  0  0
 11 97  1  0  0  0
 12 13  2  0  0  0
 12 98  1  0  0  0
 13 14  1  0  0  0
 13 31  1  0  0  0
 14 15  2  0  0  0
 14 99  1  0  0  0
 15100  1  0  0  0
 16 17  2  0  0  0
 16 21  1  0  0  0
 16 31  1  0  0  0
 17 18  1  0  0  0
 17101  1  0  0  0
 18 19  2  0  0  0
 18102  1  0  0  0
 19 20  1  0  0  0
 19 24  1  0  0  0
 20 21  2  0  0  0
 20103  1  0  0  0
 21 23  1  0  0  0
 22 28  1  0  0  0
 22 32  2  0  0  0
 26 27  1  0  0  0
 28104  1  0  0  0
 28105  1  0  0  0
 29106  1  0  0  0
 29107  1  0  0  0
 33 34  1  0  0  0
 33 66  1  0  0  0
 33 70  2  0  0  0
 34 36  1  0  0  0
 34 59  1  0  0  0
 34108  1  0  0  0
 35 44  2  0  0  0
 35 45  1  0  0  0
 35 68  1  0  0  0
 36 56  1  0  0  0
 36109  1  0  0  0
 37 39  1  0  0  0
 37 47  1  0  0  0
 37 66  1  0  0  0
 37110  1  0  0  0
 38 43  2  0  0  0
 38 46  1  0  0  0
 38 47  1  0  0  0
 39 64  1  0  0  0
 39 67  2  0  0  0
 40 52  1  0  0  0
 40 53  2  0  0  0
 40 58  1  0  0  0
 41111  1  0  0  0
 41112  1  0  0  0
 41113  1  0  0  0
 41 48  1  0  0  0
 42 43  1  0  0  0
 42 66  1  0  0  0
 42114  1  0  0  0
 42115  1  0  0  0
 43 44  1  0  0  0
 44116  1  0  0  0
 45 46  2  0  0  0
 45117  1  0  0  0
 46118  1  0  0  0
 47119  1  0  0  0
 47120  1  0  0  0
 48 56  1  0  0  0
 48 65  1  0  0  0
 48121  1  0  0  0
 49 50  1  0  0  0
 49 53  1  0  0  0
 49 64  1  0  0  0
 49122  1  0  0  0
 50 51  1  0  0  0
 50123  1  0  0  0
 50124  1  0  0  0
 51 52  1  0  0  0
 51125  1  0  0  0
 51126  1  0  0  0
 52127  1  0  0  0
 52128  1  0  0  0
 53 54  1  0  0  0
 54 55  2  0  0  0
 54129  1  0  0  0
 55 57  1  0  0  0
 55130  1  0  0  0
 56 69  2  0  0  0
 57 58  2  0  0  0
 57131  1  0  0  0
 58132  1  0  0  0
 59 60  1  0  0  0
 59 61  1  0  0  0
 59 62  1  0  0  0
 60133  1  0  0  0
 60134  1  0  0  0
 60135  1  0  0  0
 61136  1  0  0  0
 61137  1  0  0  0
 61138  1  0  0  0
 62139  1  0  0  0
 62140  1  0  0  0
 62141  1  0  0  0
 63 65  1  0  0  0
 63142  1  0  0  0
 63143  1  0  0  0
 63144  1  0  0  0
 64145  1  0  0  0
 65146  1  0  0  0
 68 82  1  0  0  0
 71 72  1  0  0  0
 71 73  2  0  0  0
 71147  1  0  0  0
 72 74  2  0  0  0
 72 83  1  0  0  0
 73 86  1  0  0  0
 73 80  1  0  0  0
 74 84  1  0  0  0
 74 86  1  0  0  0
 75 78  1  0  0  0
 75 80  1  0  0  0
 75148  1  0  0  0
 75149  1  0  0  0
 76 79  1  0  0  0
 76 80  1  0  0  0
 76150  1  0  0  0
 76151  1  0  0  0
 77 81  1  0  0  0
 77 82  1  0  0  0
 77152  1  0  0  0
 77153  1  0  0  0
 78 87  1  0  0  0
 78154  1  0  0  0
 78155  1  0  0  0
 79 87  1  0  0  0
 79156  1  0  0  0
 79157  1  0  0  0
 80158  1  0  0  0
 81 82  1  0  0  0
 81 85  1  0  0  0
 81159  1  0  0  0
 82160  1  0  0  0
 83161  1  0  0  0
 83162  1  0  0  0
 83163  1  0  0  0
 84164  1  0  0  0
 84165  1  0  0  0
 84166  1  0  0  0
 85 86  1  0  0  0
 85167  1  0  0  0
 85168  1  0  0  0
M  ISO  4   1 100  68 101  82 101  87 100
M  END
> <chiral flag>
0

> <version>
0

> <s_m_source_file>
/data/baiqing/PycharmProjects/Reinvent-master-3.2/result/LINK_invent/BTK/process_docking_weight1_custom_sum_contain_oxygen_bond_distance_aromatic_linkinvent_7_9_3/rearranged_h_0174.sdf

> <i_m_source_file_index>
90

> <r_mmod_Potential_Energy-OPLS-2005>
331.500183105469

> <r_mmod_Stretch_Energy-OPLS-2005>
91.5562896728516

> <r_mmod_Bend_Energy-OPLS-2005>
204.266479492188

> <r_mmod_Torsional_Energy-OPLS-2005>
364.251007080078

> <r_mmod_Improper_Torsional_Energy-OPLS-2005>
6.80441522598267

> <r_mmod_Van_der_Waal_Energy-OPLS-2005>
134.730026245117

> <r_mmod_Electrostatic_Energy-OPLS-2005>
-324.682434082031

> <r_mmod_Solvation_Energy-OPLS-2005>
-201.992263793945

> <b_mmod_Minimization_Converged-OPLS-2005>
0

> <r_mmod_RMS_Derivative-OPLS-2005>
0.779176294803619

$$$$
92
                    3D
 Structure written by MMmdl.
161169  0  0  1  0            999 V2000
  -30.5893  -14.9895   20.4631 C   0  0  0  0  0  0
  -30.4355  -12.6250   19.4875 C   0  0  0  0  0  0
  -29.5149  -12.5684   18.2403 C   0  0  0  0  0  0
  -28.0457  -12.3379   18.6548 C   0  0  0  0  0  0
  -27.6288  -13.2519   19.8366 C   0  0  2  0  0  0
  -28.6881  -13.2250   20.9682 C   0  0  0  0  0  0
  -25.2399  -13.8240   20.5694 C   0  0  0  0  0  0
  -24.1730  -13.0418   20.9248 C   0  0  0  0  0  0
  -24.6356  -11.6925   20.8712 C   0  0  0  0  0  0
  -23.9042  -10.4285   21.0357 C   0  0  0  0  0  0
  -24.3585   -9.4199   21.9145 C   0  0  0  0  0  0
  -23.6275   -8.2243   22.0721 C   0  0  0  0  0  0
  -22.4248   -8.0271   21.3524 C   0  0  0  0  0  0
  -21.9882   -9.0218   20.4606 C   0  0  0  0  0  0
  -22.7214  -10.2102   20.2996 C   0  0  0  0  0  0
  -21.6843   -6.0717   22.5278 C   0  0  0  0  0  0
  -21.4000   -6.5628   23.8210 C   0  0  0  0  0  0
  -21.3664   -5.6774   24.9178 C   0  0  0  0  0  0
  -21.6036   -4.3043   24.7228 C   0  0  0  0  0  0
  -21.8813   -3.8121   23.4345 C   0  0  0  0  0  0
  -21.9183   -4.6935   22.3403 C   0  0  0  0  0  0
  -22.7730  -13.5140   21.1937 C   0  0  0  0  0  0
  -22.1635   -4.2120   21.0977 F   0  0  0  0  0  0
  -21.5641   -3.4520   25.7744 F   0  0  0  0  0  0
  -29.9543  -13.7271   20.3907 N   0  0  0  0  0  0
  -26.2851  -12.9478   20.3216 N   0  0  0  0  0  0
  -25.9287  -11.6603   20.5672 N   0  0  0  0  0  0
  -22.0366  -12.8104   22.0499 N   0  0  0  0  0  0
  -25.3966  -15.1980   20.4084 N   0  0  0  0  0  0
  -31.7627  -15.0037   20.0711 O   0  0  0  0  0  0
  -21.6622   -6.8846   21.4233 O   0  0  0  0  0  0
  -22.3366  -14.5415   20.6789 O   0  0  0  0  0  0
  -24.6399  -31.8448   23.1889 C   0  0  0  0  0  0
  -25.9201  -32.4701   23.8256 C   0  0  1  0  0  0
  -27.2207  -27.1360   20.1643 C   0  0  0  0  0  0
  -25.6002  -33.8499   24.2187 N   0  0  0  0  0  0
  -23.4427  -30.4624   21.5325 C   0  0  2  0  0  0
  -24.8958  -28.8902   20.1112 C   0  0  0  0  0  0
  -22.7550  -29.4520   22.4841 C   0  0  0  0  0  0
  -18.0302  -28.1356   22.8478 C   0  0  0  0  0  0
  -24.1498  -36.7197   23.2640 C   0  0  0  0  0  0
  -25.9994  -30.7192   21.3873 C   0  0  0  0  0  0
  -26.0702  -29.3297   20.7300 C   0  0  0  0  0  0
  -27.2362  -28.4732   20.7324 C   0  0  0  0  0  0
  -26.0188  -26.7955   19.5079 C   0  0  0  0  0  0
  -24.8834  -27.6358   19.4809 C   0  0  0  0  0  0
  -23.6733  -29.7930   20.1524 C   0  0  0  0  0  0
  -25.4103  -36.3008   24.0336 C   0  0  1  0  0  0
  -20.5912  -28.3645   23.1248 C   0  0  2  0  0  0
  -20.6787  -26.9348   22.5407 C   0  0  0  0  0  0
  -19.5775  -26.6310   21.5205 C   0  0  0  0  0  0
  -18.1932  -26.7883   22.1571 C   0  0  0  0  0  0
  -19.1565  -28.8803   23.2860 C   0  0  0  0  0  0
  -18.9486  -30.1411   23.8877 C   0  0  0  0  0  0
  -17.6500  -30.6547   24.0543 C   0  0  0  0  0  0
  -25.9079  -34.9415   23.5031 C   0  0  0  0  0  0
  -16.5383  -29.9046   23.6349 C   0  0  0  0  0  0
  -16.7293  -28.6461   23.0354 C   0  0  0  0  0  0
  -26.4534  -31.6566   25.0683 C   0  0  0  0  0  0
  -25.3697  -31.3824   26.1373 C   0  0  0  0  0  0
  -27.0345  -30.2941   24.6231 C   0  0  0  0  0  0
  -27.6101  -32.4305   25.7458 C   0  0  0  0  0  0
  -27.5598  -37.1688   24.8411 C   0  0  0  0  0  0
  -21.4256  -29.3016   22.3646 N   0  0  0  0  0  0
  -26.4227  -37.3759   23.9505 N   0  0  0  0  0  0
  -24.7133  -31.0320   22.0912 N   0  0  0  0  0  0
  -23.4204  -28.8024   23.2949 O   0  0  0  0  0  0
  -28.2912  -26.1655   20.1767 O   0  0  0  0  0  0
  -26.5623  -34.8947   22.4600 O   0  0  0  0  0  0
  -23.5521  -32.1277   23.7129 O   0  0  0  0  0  0
  -29.3347  -20.4588   20.1445 C   0  0  0  0  0  0
  -29.3156  -21.8470   20.7156 C   0  0  0  0  0  0
  -29.9256  -19.2502   20.8066 C   0  0  0  0  0  0
  -29.8766  -21.8848   22.0151 C   0  0  0  0  0  0
  -30.4663  -19.5763   22.0770 C   0  0  0  0  0  0
  -28.7455  -20.2639   18.7661 C   0  0  0  0  0  0
  -29.9935  -23.1706   22.8182 C   0  0  0  0  0  0
  -31.2789  -18.5896   22.9036 C   0  0  0  0  0  0
  -28.7968  -16.3214   21.6322 C   0  0  0  0  0  0
  -28.9500  -23.3047   19.9687 C   0  0  0  0  0  0
  -30.2367  -17.7260   20.1567 C   0  0  0  0  0  0
  -28.0876  -24.6572   20.5417 C   0  0  0  0  0  0
  -30.3970  -20.8055   22.6433 N   0  0  0  0  0  0
  -29.9150  -16.2549   20.7004 N   0  0  0  0  0  0
  -31.4730  -12.7547   19.1767 H   0  0  0  0  0  0
  -30.4193  -11.6619   20.0019 H   0  0  0  0  0  0
  -29.8335  -11.7803   17.5576 H   0  0  0  0  0  0
  -29.6005  -13.5033   17.6823 H   0  0  0  0  0  0
  -27.9434  -11.2927   18.9507 H   0  0  0  0  0  0
  -27.3792  -12.4770   17.8023 H   0  0  0  0  0  0
  -27.5941  -14.2577   19.4178 H   0  0  0  0  0  0
  -28.8022  -12.2058   21.3379 H   0  0  0  0  0  0
  -28.3703  -13.7626   21.8571 H   0  0  0  0  0  0
  -25.2721   -9.5701   22.4735 H   0  0  0  0  0  0
  -23.9977   -7.4616   22.7433 H   0  0  0  0  0  0
  -21.0816   -8.8694   19.8905 H   0  0  0  0  0  0
  -22.3634  -10.9612   19.6081 H   0  0  0  0  0  0
  -21.1976   -7.6122   23.9714 H   0  0  0  0  0  0
  -21.1493   -6.0502   25.9088 H   0  0  0  0  0  0
  -22.0585   -2.7579   23.2859 H   0  0  0  0  0  0
  -22.3941  -11.9745   22.4892 H   0  0  0  0  0  0
  -21.0954  -13.1059   22.2624 H   0  0  0  0  0  0
  -24.6194  -15.8429   20.5077 H   0  0  0  0  0  0
  -26.2418  -15.6512   20.0843 H   0  0  0  0  0  0
  -26.7227  -32.5309   23.0954 H   0  0  0  0  0  0
  -25.0334  -33.9678   25.0458 H   0  0  0  0  0  0
  -22.7460  -31.2902   21.3779 H   0  0  0  0  0  0
  -23.3871  -35.9413   23.3092 H   0  0  0  0  0  0
  -24.3630  -36.8980   22.2089 H   0  0  0  0  0  0
  -23.7084  -37.6280   23.6755 H   0  0  0  0  0  0
  -26.1548  -31.4794   20.6223 H   0  0  0  0  0  0
  -26.8733  -30.7665   22.0245 H   0  0  0  0  0  0
  -28.1337  -28.8160   21.2223 H   0  0  0  0  0  0
  -25.9439  -25.8394   19.0133 H   0  0  0  0  0  0
  -23.9886  -27.2967   18.9803 H   0  0  0  0  0  0
  -23.8132  -30.5727   19.4030 H   0  0  0  0  0  0
  -22.7902  -29.2390   19.8323 H   0  0  0  0  0  0
  -25.1247  -36.1792   25.0811 H   0  0  0  0  0  0
  -21.0023  -28.3203   24.1379 H   0  0  0  0  0  0
  -20.5631  -26.2259   23.3623 H   0  0  0  0  0  0
  -21.6635  -26.7310   22.1243 H   0  0  0  0  0  0
  -19.6957  -25.6229   21.1231 H   0  0  0  0  0  0
  -19.6764  -27.3156   20.6784 H   0  0  0  0  0  0
  -17.4240  -26.6707   21.3948 H   0  0  0  0  0  0
  -18.0262  -26.0008   22.8927 H   0  0  0  0  0  0
  -19.7981  -30.7209   24.2237 H   0  0  0  0  0  0
  -17.5064  -31.6266   24.5074 H   0  0  0  0  0  0
  -15.5377  -30.2931   23.7712 H   0  0  0  0  0  0
  -15.8678  -28.0780   22.7087 H   0  0  0  0  0  0
  -24.6077  -30.6888   25.7777 H   0  0  0  0  0  0
  -24.8676  -32.3014   26.4411 H   0  0  0  0  0  0
  -25.7990  -30.9379   27.0358 H   0  0  0  0  0  0
  -26.2919  -29.6712   24.1226 H   0  0  0  0  0  0
  -27.3958  -29.7175   25.4763 H   0  0  0  0  0  0
  -27.8835  -30.4166   23.9499 H   0  0  0  0  0  0
  -27.2796  -33.3773   26.1736 H   0  0  0  0  0  0
  -28.4080  -32.6516   25.0352 H   0  0  0  0  0  0
  -28.0534  -31.8561   26.5598 H   0  0  0  0  0  0
  -28.2359  -38.0239   24.7800 H   0  0  0  0  0  0
  -28.1342  -36.2791   24.5748 H   0  0  0  0  0  0
  -27.2414  -37.0708   25.8820 H   0  0  0  0  0  0
  -20.9423  -29.8801   21.6943 H   0  0  0  0  0  0
  -26.0060  -38.2747   24.1802 H   0  0  0  0  0  0
  -27.9150  -20.9460   18.5977 H   0  0  0  0  0  0
  -28.3401  -19.2603   18.6545 H   0  0  0  0  0  0
  -29.5060  -20.4291   18.0022 H   0  0  0  0  0  0
  -30.8188  -23.1178   23.5296 H   0  0  0  0  0  0
  -29.0786  -23.3415   23.3897 H   0  0  0  0  0  0
  -30.1800  -24.0409   22.1890 H   0  0  0  0  0  0
  -31.7592  -17.8278   22.2944 H   0  0  0  0  0  0
  -30.6537  -18.0975   23.6469 H   0  0  0  0  0  0
  -32.0809  -19.1034   23.4393 H   0  0  0  0  0  0
  -27.9808  -15.6993   21.2879 H   0  0  0  0  0  0
  -28.3500  -17.3108   21.6989 H   0  0  0  0  0  0
  -29.1144  -16.0176   22.6314 H   0  0  0  0  0  0
  -28.5180  -23.0689   18.9966 H   0  0  0  0  0  0
  -29.9309  -23.7000   19.7070 H   0  0  0  0  0  0
  -31.3183  -17.7433   20.0063 H   0  0  0  0  0  0
  -29.8540  -17.7194   19.1399 H   0  0  0  0  0  0
  -28.1739  -24.6632   21.6250 H   0  0  0  0  0  0
  -27.0361  -24.4133   20.3911 H   0  0  0  0  0  0
  1 25  1  0  0  0
  1 30  2  0  0  0
  1 84  1  0  0  0
  2  3  1  0  0  0
  2 25  1  0  0  0
  2 85  1  0  0  0
  2 86  1  0  0  0
  3  4  1  0  0  0
  3 87  1  0  0  0
  3 88  1  0  0  0
  4  5  1  0  0  0
  4 89  1  0  0  0
  4 90  1  0  0  0
  5  6  1  0  0  0
  5 26  1  0  0  0
  5 91  1  0  0  0
  6 25  1  0  0  0
  6 92  1  0  0  0
  6 93  1  0  0  0
  7  8  2  0  0  0
  7 26  1  0  0  0
  7 29  1  0  0  0
  8  9  1  0  0  0
  8 22  1  0  0  0
  9 10  1  0  0  0
  9 27  2  0  0  0
 10 11  2  0  0  0
 10 15  1  0  0  0
 11 12  1  0  0  0
 11 94  1  0  0  0
 12 13  2  0  0  0
 12 95  1  0  0  0
 13 14  1  0  0  0
 13 31  1  0  0  0
 14 15  2  0  0  0
 14 96  1  0  0  0
 15 97  1  0  0  0
 16 17  2  0  0  0
 16 21  1  0  0  0
 16 31  1  0  0  0
 17 18  1  0  0  0
 17 98  1  0  0  0
 18 19  2  0  0  0
 18 99  1  0  0  0
 19 20  1  0  0  0
 19 24  1  0  0  0
 20 21  2  0  0  0
 20100  1  0  0  0
 21 23  1  0  0  0
 22 28  1  0  0  0
 22 32  2  0  0  0
 26 27  1  0  0  0
 28101  1  0  0  0
 28102  1  0  0  0
 29103  1  0  0  0
 29104  1  0  0  0
 33 34  1  0  0  0
 33 66  1  0  0  0
 33 70  2  0  0  0
 34 36  1  0  0  0
 34 59  1  0  0  0
 34105  1  0  0  0
 35 44  2  0  0  0
 35 45  1  0  0  0
 35 68  1  0  0  0
 36 56  1  0  0  0
 36106  1  0  0  0
 37 39  1  0  0  0
 37 47  1  0  0  0
 37 66  1  0  0  0
 37107  1  0  0  0
 38 43  2  0  0  0
 38 46  1  0  0  0
 38 47  1  0  0  0
 39 64  1  0  0  0
 39 67  2  0  0  0
 40 52  1  0  0  0
 40 53  2  0  0  0
 40 58  1  0  0  0
 41108  1  0  0  0
 41109  1  0  0  0
 41110  1  0  0  0
 41 48  1  0  0  0
 42 43  1  0  0  0
 42 66  1  0  0  0
 42111  1  0  0  0
 42112  1  0  0  0
 43 44  1  0  0  0
 44113  1  0  0  0
 45 46  2  0  0  0
 45114  1  0  0  0
 46115  1  0  0  0
 47116  1  0  0  0
 47117  1  0  0  0
 48 56  1  0  0  0
 48 65  1  0  0  0
 48118  1  0  0  0
 49 50  1  0  0  0
 49 53  1  0  0  0
 49 64  1  0  0  0
 49119  1  0  0  0
 50 51  1  0  0  0
 50120  1  0  0  0
 50121  1  0  0  0
 51 52  1  0  0  0
 51122  1  0  0  0
 51123  1  0  0  0
 52124  1  0  0  0
 52125  1  0  0  0
 53 54  1  0  0  0
 54 55  2  0  0  0
 54126  1  0  0  0
 55 57  1  0  0  0
 55127  1  0  0  0
 56 69  2  0  0  0
 57 58  2  0  0  0
 57128  1  0  0  0
 58129  1  0  0  0
 59 60  1  0  0  0
 59 61  1  0  0  0
 59 62  1  0  0  0
 60130  1  0  0  0
 60131  1  0  0  0
 60132  1  0  0  0
 61133  1  0  0  0
 61134  1  0  0  0
 61135  1  0  0  0
 62136  1  0  0  0
 62137  1  0  0  0
 62138  1  0  0  0
 63 65  1  0  0  0
 63139  1  0  0  0
 63140  1  0  0  0
 63141  1  0  0  0
 64142  1  0  0  0
 65143  1  0  0  0
 68 82  1  0  0  0
 71 72  2  0  0  0
 71 73  1  0  0  0
 71 76  1  0  0  0
 72 74  1  0  0  0
 72 80  1  0  0  0
 73 75  2  0  0  0
 73 81  1  0  0  0
 74 77  1  0  0  0
 74 83  2  0  0  0
 75 78  1  0  0  0
 75 83  1  0  0  0
 76144  1  0  0  0
 76145  1  0  0  0
 76146  1  0  0  0
 77147  1  0  0  0
 77148  1  0  0  0
 77149  1  0  0  0
 78150  1  0  0  0
 78151  1  0  0  0
 78152  1  0  0  0
 79 84  1  0  0  0
 79153  1  0  0  0
 79154  1  0  0  0
 79155  1  0  0  0
 80 82  1  0  0  0
 80156  1  0  0  0
 80157  1  0  0  0
 81 84  1  0  0  0
 81158  1  0  0  0
 81159  1  0  0  0
 82160  1  0  0  0
 82161  1  0  0  0
M  ISO  4   1 100  68 101  82 101  84 100
M  END
> <chiral flag>
0

> <version>
0

> <s_m_source_file>
/data/baiqing/PycharmProjects/Reinvent-master-3.2/result/LINK_invent/BTK/process_docking_weight1_custom_sum_contain_oxygen_bond_distance_aromatic_linkinvent_7_9_3/rearranged_h_0174.sdf

> <i_m_source_file_index>
91

> <r_mmod_Potential_Energy-OPLS-2005>
558.601379394531

> <r_mmod_Stretch_Energy-OPLS-2005>
320.188598632812

> <r_mmod_Bend_Energy-OPLS-2005>
304.227294921875

> <r_mmod_Torsional_Energy-OPLS-2005>
272.42919921875

> <r_mmod_Improper_Torsional_Energy-OPLS-2005>
8.60718154907227

> <r_mmod_Van_der_Waal_Energy-OPLS-2005>
143.36833190918

> <r_mmod_Electrostatic_Energy-OPLS-2005>
-466.623260498047

> <r_mmod_Solvation_Energy-OPLS-2005>
-214.797988891602

> <b_mmod_Minimization_Converged-OPLS-2005>
0

> <r_mmod_RMS_Derivative-OPLS-2005>
6.55008792877197

$$$$
93
                    3D
 Structure written by MMmdl.
184194  0  0  1  0            999 V2000
  -30.7658  -14.3842   20.6735 C   0  0  0  0  0  0
  -30.4194  -12.3003   19.3886 C   0  0  0  0  0  0
  -29.4810  -12.5281   18.1879 C   0  0  0  0  0  0
  -28.0069  -12.3709   18.6078 C   0  0  0  0  0  0
  -27.6638  -13.1943   19.8764 C   0  0  2  0  0  0
  -28.7086  -12.9331   20.9859 C   0  0  0  0  0  0
  -25.2615  -13.8142   20.5668 C   0  0  0  0  0  0
  -24.1845  -13.0434   20.9154 C   0  0  0  0  0  0
  -24.6379  -11.6898   20.8720 C   0  0  0  0  0  0
  -23.9045  -10.4289   21.0382 C   0  0  0  0  0  0
  -24.3612   -9.4214   21.9164 C   0  0  0  0  0  0
  -23.6294   -8.2251   22.0754 C   0  0  0  0  0  0
  -22.4277   -8.0283   21.3544 C   0  0  0  0  0  0
  -21.9900   -9.0247   20.4645 C   0  0  0  0  0  0
  -22.7213  -10.2126   20.3033 C   0  0  0  0  0  0
  -21.6856   -6.0751   22.5282 C   0  0  0  0  0  0
  -21.4016   -6.5652   23.8220 C   0  0  0  0  0  0
  -21.3649   -5.6792   24.9177 C   0  0  0  0  0  0
  -21.6036   -4.3058   24.7224 C   0  0  0  0  0  0
  -21.8818   -3.8159   23.4345 C   0  0  0  0  0  0
  -21.9193   -4.6982   22.3408 C   0  0  0  0  0  0
  -22.7868  -13.5247   21.1800 C   0  0  0  0  0  0
  -22.1655   -4.2169   21.0983 F   0  0  0  0  0  0
  -21.5624   -3.4534   25.7735 F   0  0  0  0  0  0
  -30.0445  -13.2492   20.4492 N   0  0  0  0  0  0
  -26.3041  -12.9278   20.3386 N   0  0  0  0  0  0
  -25.9300  -11.6452   20.5760 N   0  0  0  0  0  0
  -22.0498  -12.8262   22.0356 N   0  0  0  0  0  0
  -25.4336  -15.1866   20.4061 N   0  0  0  0  0  0
  -31.8343  -14.6205   20.1007 O   0  0  0  0  0  0
  -21.6637   -6.8887   21.4246 O   0  0  0  0  0  0
  -22.3561  -14.5546   20.6629 O   0  0  0  0  0  0
  -24.6118  -31.8703   23.2143 C   0  0  0  0  0  0
  -25.9019  -32.4836   23.8427 C   0  0  1  0  0  0
  -27.2401  -27.4687   20.0719 C   0  0  0  0  0  0
  -25.5880  -33.8639   24.2347 N   0  0  0  0  0  0
  -23.3986  -30.4954   21.5536 C   0  0  2  0  0  0
  -24.8427  -28.9606   20.1203 C   0  0  0  0  0  0
  -22.7395  -29.4666   22.5002 C   0  0  0  0  0  0
  -18.0265  -28.1378   22.8491 C   0  0  0  0  0  0
  -24.1471  -36.7321   23.2641 C   0  0  0  0  0  0
  -25.9248  -30.8385   21.3677 C   0  0  0  0  0  0
  -25.9998  -29.4726   20.7200 C   0  0  0  0  0  0
  -27.1957  -28.7254   20.7109 C   0  0  0  0  0  0
  -26.0616  -26.9542   19.4867 C   0  0  0  0  0  0
  -24.8636  -27.6936   19.5119 C   0  0  0  0  0  0
  -23.6069  -29.8298   20.1667 C   0  0  0  0  0  0
  -25.4093  -36.3126   24.0343 C   0  0  1  0  0  0
  -20.5855  -28.3655   23.1322 C   0  0  2  0  0  0
  -20.6746  -26.9395   22.5414 C   0  0  0  0  0  0
  -19.5727  -26.6386   21.5207 C   0  0  0  0  0  0
  -18.1910  -26.7924   22.1626 C   0  0  0  0  0  0
  -19.1518  -28.8835   23.2903 C   0  0  0  0  0  0
  -18.9448  -30.1438   23.8917 C   0  0  0  0  0  0
  -17.6454  -30.6582   24.0574 C   0  0  0  0  0  0
  -25.9021  -34.9488   23.5142 C   0  0  0  0  0  0
  -16.5340  -29.9093   23.6320 C   0  0  0  0  0  0
  -16.7259  -28.6510   23.0340 C   0  0  0  0  0  0
  -26.4464  -31.6621   25.0753 C   0  0  0  0  0  0
  -25.3761  -31.3735   26.1533 C   0  0  0  0  0  0
  -27.0279  -30.3065   24.6116 C   0  0  0  0  0  0
  -27.6052  -32.4348   25.7494 C   0  0  0  0  0  0
  -27.5576  -37.1816   24.8467 C   0  0  0  0  0  0
  -21.4131  -29.3031   22.3734 N   0  0  0  0  0  0
  -26.4284  -37.3808   23.9417 N   0  0  0  0  0  0
  -24.6626  -31.0824   22.1033 N   0  0  0  0  0  0
  -23.4178  -28.8197   23.3029 O   0  0  0  0  0  0
  -28.4313  -26.7827   20.0331 O   0  0  0  0  0  0
  -26.5591  -34.8937   22.4709 O   0  0  0  0  0  0
  -23.5310  -32.1446   23.7548 O   0  0  0  0  0  0
  -29.4402  -22.5214   19.6158 C   0  0  0  0  0  0
  -30.5158  -24.4922   20.4932 C   0  0  0  0  0  0
  -30.2684  -21.7349   20.4420 C   0  0  0  0  0  0
  -29.5631  -23.9207   19.6296 C   0  0  0  0  0  0
  -31.1534  -22.4053   21.3093 C   0  0  0  0  0  0
  -29.3374  -17.5492   21.7864 C   0  0  0  0  0  0
  -31.7505  -17.1709   22.3860 C   0  0  0  0  0  0
  -29.1326  -16.0730   21.3835 C   0  0  0  0  0  0
  -31.2238  -15.7380   22.6742 C   0  0  0  0  0  0
  -30.1626  -20.2022   20.3901 C   0  0  1  0  0  0
  -30.7922  -17.9858   21.4781 C   0  0  0  0  0  0
  -31.3986  -20.2369   22.5957 C   0  0  1  0  0  0
  -32.0673  -21.6065   22.2373 C   0  0  0  0  0  0
  -30.1977  -20.3409   23.5705 C   0  0  0  0  0  0
  -32.3786  -22.4029   23.5320 C   0  0  0  0  0  0
  -33.4099  -21.3677   21.5124 C   0  0  0  0  0  0
  -31.7128  -19.8885   18.3191 C   0  0  0  0  0  0
  -28.6929  -24.7366   18.6779 C   0  0  0  0  0  0
  -30.3206  -19.6711   18.9353 C   0  0  0  0  0  0
  -28.8202  -26.2689   18.7585 C   0  0  0  0  0  0
  -31.3017  -23.7514   21.2994 N   0  0  0  0  0  0
  -30.3091  -15.2149   21.6432 N   0  0  0  0  0  0
  -31.0605  -19.4700   21.3521 N   0  3  2  0  0  0
  -31.4597  -12.4050   19.0760 H   0  0  0  0  0  0
  -30.3279  -11.2778   19.7574 H   0  0  0  0  0  0
  -29.7185  -11.8289   17.3851 H   0  0  0  0  0  0
  -29.6405  -13.5285   17.7812 H   0  0  0  0  0  0
  -27.8219  -11.3116   18.7907 H   0  0  0  0  0  0
  -27.3472  -12.6520   17.7850 H   0  0  0  0  0  0
  -27.7129  -14.2441   19.5923 H   0  0  0  0  0  0
  -28.6809  -11.8825   21.2774 H   0  0  0  0  0  0
  -28.4661  -13.4755   21.8984 H   0  0  0  0  0  0
  -25.2762   -9.5712   22.4735 H   0  0  0  0  0  0
  -24.0012   -7.4656   22.7482 H   0  0  0  0  0  0
  -21.0823   -8.8740   19.8969 H   0  0  0  0  0  0
  -22.3646  -10.9658   19.6144 H   0  0  0  0  0  0
  -21.2001   -7.6157   23.9732 H   0  0  0  0  0  0
  -21.1465   -6.0522   25.9079 H   0  0  0  0  0  0
  -22.0606   -2.7626   23.2832 H   0  0  0  0  0  0
  -22.4080  -11.9932   22.4793 H   0  0  0  0  0  0
  -21.1109  -13.1294   22.2509 H   0  0  0  0  0  0
  -24.6708  -15.8438   20.5243 H   0  0  0  0  0  0
  -26.2854  -15.6262   20.0822 H   0  0  0  0  0  0
  -26.7093  -32.5552   23.1194 H   0  0  0  0  0  0
  -25.0027  -33.9806   25.0492 H   0  0  0  0  0  0
  -22.6871  -31.3123   21.4170 H   0  0  0  0  0  0
  -23.3738  -35.9646   23.3306 H   0  0  0  0  0  0
  -24.3563  -36.8934   22.2054 H   0  0  0  0  0  0
  -23.7210  -37.6523   23.6653 H   0  0  0  0  0  0
  -26.0370  -31.6024   20.5972 H   0  0  0  0  0  0
  -26.8131  -30.8920   21.9848 H   0  0  0  0  0  0
  -28.0927  -29.1216   21.1663 H   0  0  0  0  0  0
  -26.0562  -25.9873   19.0077 H   0  0  0  0  0  0
  -23.9713  -27.2881   19.0548 H   0  0  0  0  0  0
  -23.7249  -30.6084   19.4121 H   0  0  0  0  0  0
  -22.7284  -29.2578   19.8621 H   0  0  0  0  0  0
  -25.1269  -36.1999   25.0837 H   0  0  0  0  0  0
  -20.9949  -28.3211   24.1444 H   0  0  0  0  0  0
  -20.5628  -26.2273   23.3600 H   0  0  0  0  0  0
  -21.6618  -26.7424   22.1221 H   0  0  0  0  0  0
  -19.6883  -25.6301   21.1222 H   0  0  0  0  0  0
  -19.6666  -27.3207   20.6744 H   0  0  0  0  0  0
  -17.4177  -26.6673   21.4030 H   0  0  0  0  0  0
  -18.0316  -26.0059   22.9017 H   0  0  0  0  0  0
  -19.7928  -30.7240   24.2302 H   0  0  0  0  0  0
  -17.5011  -31.6267   24.5169 H   0  0  0  0  0  0
  -15.5341  -30.3006   23.7622 H   0  0  0  0  0  0
  -15.8658  -28.0833   22.7042 H   0  0  0  0  0  0
  -24.5854  -30.7170   25.7885 H   0  0  0  0  0  0
  -24.9055  -32.2900   26.5100 H   0  0  0  0  0  0
  -25.8124  -30.8803   27.0225 H   0  0  0  0  0  0
  -26.2801  -29.6839   24.1181 H   0  0  0  0  0  0
  -27.4061  -29.7294   25.4564 H   0  0  0  0  0  0
  -27.8641  -30.4392   23.9248 H   0  0  0  0  0  0
  -27.2681  -33.3652   26.2079 H   0  0  0  0  0  0
  -28.3844  -32.6902   25.0303 H   0  0  0  0  0  0
  -28.0732  -31.8474   26.5401 H   0  0  0  0  0  0
  -28.2609  -38.0102   24.7510 H   0  0  0  0  0  0
  -28.1056  -36.2635   24.6291 H   0  0  0  0  0  0
  -27.2301  -37.1472   25.8874 H   0  0  0  0  0  0
  -20.9280  -29.8797   21.6999 H   0  0  0  0  0  0
  -26.0178  -38.2887   24.1423 H   0  0  0  0  0  0
  -28.7189  -22.0588   18.9576 H   0  0  0  0  0  0
  -30.6746  -25.5588   20.5442 H   0  0  0  0  0  0
  -29.1217  -17.6495   22.8486 H   0  0  0  0  0  0
  -28.5790  -18.1310   21.2704 H   0  0  0  0  0  0
  -32.7389  -17.1215   21.9255 H   0  0  0  0  0  0
  -31.8899  -17.6357   23.3603 H   0  0  0  0  0  0
  -28.9042  -16.0598   20.3159 H   0  0  0  0  0  0
  -28.2519  -15.6807   21.8918 H   0  0  0  0  0  0
  -30.6600  -15.7481   23.6080 H   0  0  0  0  0  0
  -32.0582  -15.0562   22.8537 H   0  0  0  0  0  0
  -29.1322  -20.0376   20.6950 H   0  0  0  0  0  0
  -31.0107  -17.6007   20.4832 H   0  0  0  0  0  0
  -32.1771  -19.7001   23.1335 H   0  0  0  0  0  0
  -29.3513  -20.8723   23.1366 H   0  0  0  0  0  0
  -30.4666  -20.8487   24.4948 H   0  0  0  0  0  0
  -29.8526  -19.3623   23.8911 H   0  0  0  0  0  0
  -31.4738  -22.7618   24.0236 H   0  0  0  0  0  0
  -32.9818  -23.2872   23.3191 H   0  0  0  0  0  0
  -32.9397  -21.8028   24.2486 H   0  0  0  0  0  0
  -33.2820  -20.8489   20.5645 H   0  0  0  0  0  0
  -34.1008  -20.7836   22.1203 H   0  0  0  0  0  0
  -33.9008  -22.3135   21.2798 H   0  0  0  0  0  0
  -31.7359  -19.5223   17.2913 H   0  0  0  0  0  0
  -32.4917  -19.3519   18.8614 H   0  0  0  0  0  0
  -31.9816  -20.9460   18.2915 H   0  0  0  0  0  0
  -27.6552  -24.4392   18.8259 H   0  0  0  0  0  0
  -28.9456  -24.4289   17.6621 H   0  0  0  0  0  0
  -29.5831  -20.1413   18.2868 H   0  0  0  0  0  0
  -30.0626  -18.6147   18.8744 H   0  0  0  0  0  0
  -28.2481  -26.7257   17.9493 H   0  0  0  0  0  0
  -29.8527  -26.5652   18.5713 H   0  0  0  0  0  0
  -31.9484  -19.4815   20.8708 H   0  0  0  0  0  0
  1 25  1  0  0  0
  1 30  2  0  0  0
  1 92  1  0  0  0
  2  3  1  0  0  0
  2 25  1  0  0  0
  2 94  1  0  0  0
  2 95  1  0  0  0
  3  4  1  0  0  0
  3 96  1  0  0  0
  3 97  1  0  0  0
  4  5  1  0  0  0
  4 98  1  0  0  0
  4 99  1  0  0  0
  5  6  1  0  0  0
  5 26  1  0  0  0
  5100  1  0  0  0
  6 25  1  0  0  0
  6101  1  0  0  0
  6102  1  0  0  0
  7  8  2  0  0  0
  7 26  1  0  0  0
  7 29  1  0  0  0
  8  9  1  0  0  0
  8 22  1  0  0  0
  9 10  1  0  0  0
  9 27  2  0  0  0
 10 11  2  0  0  0
 10 15  1  0  0  0
 11 12  1  0  0  0
 11103  1  0  0  0
 12 13  2  0  0  0
 12104  1  0  0  0
 13 14  1  0  0  0
 13 31  1  0  0  0
 14 15  2  0  0  0
 14105  1  0  0  0
 15106  1  0  0  0
 16 17  2  0  0  0
 16 21  1  0  0  0
 16 31  1  0  0  0
 17 18  1  0  0  0
 17107  1  0  0  0
 18 19  2  0  0  0
 18108  1  0  0  0
 19 20  1  0  0  0
 19 24  1  0  0  0
 20 21  2  0  0  0
 20109  1  0  0  0
 21 23  1  0  0  0
 22 28  1  0  0  0
 22 32  2  0  0  0
 26 27  1  0  0  0
 28110  1  0  0  0
 28111  1  0  0  0
 29112  1  0  0  0
 29113  1  0  0  0
 33 34  1  0  0  0
 33 66  1  0  0  0
 33 70  2  0  0  0
 34 36  1  0  0  0
 34 59  1  0  0  0
 34114  1  0  0  0
 35 44  2  0  0  0
 35 45  1  0  0  0
 35 68  1  0  0  0
 36 56  1  0  0  0
 36115  1  0  0  0
 37 39  1  0  0  0
 37 47  1  0  0  0
 37 66  1  0  0  0
 37116  1  0  0  0
 38 43  2  0  0  0
 38 46  1  0  0  0
 38 47  1  0  0  0
 39 64  1  0  0  0
 39 67  2  0  0  0
 40 52  1  0  0  0
 40 53  2  0  0  0
 40 58  1  0  0  0
 41117  1  0  0  0
 41118  1  0  0  0
 41119  1  0  0  0
 41 48  1  0  0  0
 42 43  1  0  0  0
 42 66  1  0  0  0
 42120  1  0  0  0
 42121  1  0  0  0
 43 44  1  0  0  0
 44122  1  0  0  0
 45 46  2  0  0  0
 45123  1  0  0  0
 46124  1  0  0  0
 47125  1  0  0  0
 47126  1  0  0  0
 48 56  1  0  0  0
 48 65  1  0  0  0
 48127  1  0  0  0
 49 50  1  0  0  0
 49 53  1  0  0  0
 49 64  1  0  0  0
 49128  1  0  0  0
 50 51  1  0  0  0
 50129  1  0  0  0
 50130  1  0  0  0
 51 52  1  0  0  0
 51131  1  0  0  0
 51132  1  0  0  0
 52133  1  0  0  0
 52134  1  0  0  0
 53 54  1  0  0  0
 54 55  2  0  0  0
 54135  1  0  0  0
 55 57  1  0  0  0
 55136  1  0  0  0
 56 69  2  0  0  0
 57 58  2  0  0  0
 57137  1  0  0  0
 58138  1  0  0  0
 59 60  1  0  0  0
 59 61  1  0  0  0
 59 62  1  0  0  0
 60139  1  0  0  0
 60140  1  0  0  0
 60141  1  0  0  0
 61142  1  0  0  0
 61143  1  0  0  0
 61144  1  0  0  0
 62145  1  0  0  0
 62146  1  0  0  0
 62147  1  0  0  0
 63 65  1  0  0  0
 63148  1  0  0  0
 63149  1  0  0  0
 63150  1  0  0  0
 64151  1  0  0  0
 65152  1  0  0  0
 68 90  1  0  0  0
 71 73  2  0  0  0
 71 74  1  0  0  0
 71153  1  0  0  0
 72 74  2  0  0  0
 72 91  1  0  0  0
 72154  1  0  0  0
 73 75  1  0  0  0
 73 80  1  0  0  0
 74 88  1  0  0  0
 75 83  1  0  0  0
 75 91  2  0  0  0
 76 78  1  0  0  0
 76155  1  0  0  0
 76156  1  0  0  0
 76 81  1  0  0  0
 77 79  1  0  0  0
 77 81  1  0  0  0
 77157  1  0  0  0
 77158  1  0  0  0
 78 92  1  0  0  0
 78159  1  0  0  0
 78160  1  0  0  0
 79 92  1  0  0  0
 79161  1  0  0  0
 79162  1  0  0  0
 80 89  1  0  0  0
 80 93  1  0  0  0
 80163  1  0  0  0
 81164  1  0  0  0
 81 93  1  0  0  0
 82 83  1  0  0  0
 82 84  1  0  0  0
 82 93  1  0  0  0
 82165  1  0  0  0
 83 85  1  0  0  0
 83 86  1  0  0  0
 84166  1  0  0  0
 84167  1  0  0  0
 84168  1  0  0  0
 85169  1  0  0  0
 85170  1  0  0  0
 85171  1  0  0  0
 86172  1  0  0  0
 86173  1  0  0  0
 86174  1  0  0  0
 87 89  1  0  0  0
 87175  1  0  0  0
 87176  1  0  0  0
 87177  1  0  0  0
 88 90  1  0  0  0
 88178  1  0  0  0
 88179  1  0  0  0
 89180  1  0  0  0
 89181  1  0  0  0
 90182  1  0  0  0
 90183  1  0  0  0
 93184  1  0  0  0
M  CHG  1  93   1
M  ISO  4   1 100  68 101  90 101  92 100
M  END
> <chiral flag>
0

> <version>
0

> <s_m_source_file>
/data/baiqing/PycharmProjects/Reinvent-master-3.2/result/LINK_invent/BTK/process_docking_weight1_custom_sum_contain_oxygen_bond_distance_aromatic_linkinvent_7_9_3/rearranged_h_0174.sdf

> <i_m_source_file_index>
92

> <r_mmod_Potential_Energy-OPLS-2005>
37.2579498291016

> <r_mmod_Stretch_Energy-OPLS-2005>
47.2678260803223

> <r_mmod_Bend_Energy-OPLS-2005>
141.00260925293

> <r_mmod_Torsional_Energy-OPLS-2005>
381.634948730469

> <r_mmod_Improper_Torsional_Energy-OPLS-2005>
4.25070476531982

> <r_mmod_Van_der_Waal_Energy-OPLS-2005>
185.864074707031

> <r_mmod_Electrostatic_Energy-OPLS-2005>
-326.149566650391

> <r_mmod_Solvation_Energy-OPLS-2005>
-404.706726074219

> <b_mmod_Minimization_Converged-OPLS-2005>
0

> <r_mmod_RMS_Derivative-OPLS-2005>
2.04137086868286

$$$$
94
                    3D
 Structure written by MMmdl.
167176  0  0  1  0            999 V2000
  -30.6848  -14.8050   20.4366 C   0  0  0  0  0  0
  -30.4089  -12.5106   19.4664 C   0  0  0  0  0  0
  -29.4909  -12.5040   18.2286 C   0  0  0  0  0  0
  -28.0254  -12.3149   18.6576 C   0  0  0  0  0  0
  -27.6272  -13.2396   19.8392 C   0  0  2  0  0  0
  -28.6838  -13.2455   20.9664 C   0  0  0  0  0  0
  -25.2463  -13.8210   20.5737 C   0  0  0  0  0  0
  -24.1771  -13.0444   20.9247 C   0  0  0  0  0  0
  -24.6379  -11.6926   20.8784 C   0  0  0  0  0  0
  -23.9062  -10.4295   21.0418 C   0  0  0  0  0  0
  -24.3619   -9.4206   21.9193 C   0  0  0  0  0  0
  -23.6298   -8.2236   22.0754 C   0  0  0  0  0  0
  -22.4281   -8.0275   21.3538 C   0  0  0  0  0  0
  -21.9909   -9.0253   20.4644 C   0  0  0  0  0  0
  -22.7236  -10.2135   20.3061 C   0  0  0  0  0  0
  -21.6853   -6.0733   22.5280 C   0  0  0  0  0  0
  -21.4013   -6.5637   23.8215 C   0  0  0  0  0  0
  -21.3662   -5.6792   24.9176 C   0  0  0  0  0  0
  -21.6046   -4.3054   24.7227 C   0  0  0  0  0  0
  -21.8821   -3.8147   23.4347 C   0  0  0  0  0  0
  -21.9192   -4.6963   22.3404 C   0  0  0  0  0  0
  -22.7794  -13.5223   21.1881 C   0  0  0  0  0  0
  -22.1658   -4.2148   21.0983 F   0  0  0  0  0  0
  -21.5633   -3.4535   25.7738 F   0  0  0  0  0  0
  -29.9564  -13.6271   20.3427 N   0  0  0  0  0  0
  -26.2885  -12.9430   20.3313 N   0  0  0  0  0  0
  -25.9312  -11.6567   20.5805 N   0  0  0  0  0  0
  -22.0429  -12.8227   22.0436 N   0  0  0  0  0  0
  -25.4129  -15.1930   20.4132 N   0  0  0  0  0  0
  -31.8967  -14.7046   20.2254 O   0  0  0  0  0  0
  -21.6641   -6.8874   21.4238 O   0  0  0  0  0  0
  -22.3493  -14.5524   20.6712 O   0  0  0  0  0  0
  -24.6339  -31.8535   23.1973 C   0  0  0  0  0  0
  -25.9155  -32.4747   23.8325 C   0  0  1  0  0  0
  -27.2107  -27.2383   20.1366 C   0  0  0  0  0  0
  -25.5937  -33.8548   24.2246 N   0  0  0  0  0  0
  -23.4326  -30.4768   21.5405 C   0  0  2  0  0  0
  -24.8809  -28.9224   20.1081 C   0  0  0  0  0  0
  -22.7515  -29.4603   22.4896 C   0  0  0  0  0  0
  -18.0299  -28.1395   22.8482 C   0  0  0  0  0  0
  -24.1488  -36.7281   23.2636 C   0  0  0  0  0  0
  -25.9811  -30.7592   21.3818 C   0  0  0  0  0  0
  -26.0544  -29.3798   20.7236 C   0  0  0  0  0  0
  -27.2278  -28.5504   20.7266 C   0  0  0  0  0  0
  -26.0229  -26.8632   19.4765 C   0  0  0  0  0  0
  -24.8713  -27.6727   19.4713 C   0  0  0  0  0  0
  -23.6522  -29.8110   20.1569 C   0  0  0  0  0  0
  -25.4117  -36.3064   24.0321 C   0  0  1  0  0  0
  -20.5903  -28.3715   23.1259 C   0  0  2  0  0  0
  -20.6787  -26.9430   22.5406 C   0  0  0  0  0  0
  -19.5758  -26.6387   21.5216 C   0  0  0  0  0  0
  -18.1940  -26.7937   22.1629 C   0  0  0  0  0  0
  -19.1552  -28.8874   23.2865 C   0  0  0  0  0  0
  -18.9470  -30.1471   23.8888 C   0  0  0  0  0  0
  -17.6466  -30.6593   24.0565 C   0  0  0  0  0  0
  -25.9063  -34.9435   23.5089 C   0  0  0  0  0  0
  -16.5359  -29.9088   23.6332 C   0  0  0  0  0  0
  -16.7283  -28.6507   23.0354 C   0  0  0  0  0  0
  -26.4509  -31.6578   25.0725 C   0  0  0  0  0  0
  -25.3722  -31.3744   26.1439 C   0  0  0  0  0  0
  -27.0355  -30.2980   24.6246 C   0  0  0  0  0  0
  -27.6066  -32.4322   25.7494 C   0  0  0  0  0  0
  -27.5583  -37.1789   24.8460 C   0  0  0  0  0  0
  -21.4222  -29.3053   22.3636 N   0  0  0  0  0  0
  -26.4287  -37.3771   23.9416 N   0  0  0  0  0  0
  -24.7016  -31.0481   22.0959 N   0  0  0  0  0  0
  -23.4203  -28.8143   23.3007 O   0  0  0  0  0  0
  -28.2456  -26.2694   20.1804 O   0  0  0  0  0  0
  -26.5641  -34.8917   22.4663 O   0  0  0  0  0  0
  -23.5483  -32.1372   23.7247 O   0  0  0  0  0  0
  -29.0622  -22.9836   19.4835 C   0  0  0  0  0  0
  -28.4151  -23.4886   20.6448 C   0  0  0  0  0  0
  -29.3810  -21.5791   19.3232 C   0  0  0  0  0  0
  -28.1369  -22.4483   21.5925 C   0  0  0  0  0  0
  -29.0603  -20.6201   20.3458 C   0  0  0  0  0  0
  -30.7183  -18.7345   20.3972 C   0  0  0  0  0  0
  -28.5079  -18.1758   20.9838 C   0  0  0  0  0  0
  -31.0026  -17.2515   19.9300 C   0  0  0  0  0  0
  -28.7427  -16.6265   20.6178 C   0  0  0  0  0  0
  -27.4123  -22.7662   22.8896 C   0  0  0  0  0  0
  -31.3509  -21.8277   17.7299 C   0  0  0  0  0  0
  -29.0300  -21.3243   16.8283 C   0  0  0  0  0  0
  -27.8931  -24.9975   20.9146 C   0  0  0  0  0  0
  -30.0063  -21.1324   17.9986 C   0  0  0  0  0  0
  -28.4408  -21.1117   21.4491 N   0  0  0  0  0  0
  -29.3272  -19.1799   20.2641 N   0  0  0  0  0  0
  -30.1371  -16.1164   20.4172 N   0  0  0  0  0  0
  -31.4464  -12.6069   19.1440 H   0  0  0  0  0  0
  -30.3572  -11.5571   19.9941 H   0  0  0  0  0  0
  -29.7855  -11.7105   17.5405 H   0  0  0  0  0  0
  -29.5984  -13.4422   17.6811 H   0  0  0  0  0  0
  -27.9048  -11.2708   18.9498 H   0  0  0  0  0  0
  -27.3576  -12.4707   17.8094 H   0  0  0  0  0  0
  -27.5926  -14.2426   19.4178 H   0  0  0  0  0  0
  -28.7601  -12.2615   21.4314 H   0  0  0  0  0  0
  -28.4147  -13.9298   21.7693 H   0  0  0  0  0  0
  -25.2752   -9.5690   22.4785 H   0  0  0  0  0  0
  -24.0002   -7.4629   22.7478 H   0  0  0  0  0  0
  -21.0833   -8.8772   19.8957 H   0  0  0  0  0  0
  -22.3679  -10.9684   19.6184 H   0  0  0  0  0  0
  -21.1999   -7.6146   23.9722 H   0  0  0  0  0  0
  -21.1484   -6.0516   25.9081 H   0  0  0  0  0  0
  -22.0597   -2.7606   23.2848 H   0  0  0  0  0  0
  -22.4024  -11.9889   22.4839 H   0  0  0  0  0  0
  -21.1046  -13.1271   22.2627 H   0  0  0  0  0  0
  -24.6436  -15.8443   20.5269 H   0  0  0  0  0  0
  -26.2576  -15.6314   20.0726 H   0  0  0  0  0  0
  -26.7221  -32.5388   23.1068 H   0  0  0  0  0  0
  -25.0065  -33.9684   25.0374 H   0  0  0  0  0  0
  -22.7307  -31.3008   21.3932 H   0  0  0  0  0  0
  -23.3756  -35.9605   23.3285 H   0  0  0  0  0  0
  -24.3583  -36.8921   22.2055 H   0  0  0  0  0  0
  -23.7233  -37.6473   23.6673 H   0  0  0  0  0  0
  -26.1251  -31.5186   20.6123 H   0  0  0  0  0  0
  -26.8565  -30.8076   22.0177 H   0  0  0  0  0  0
  -28.1229  -28.8913   21.2269 H   0  0  0  0  0  0
  -25.9718  -25.9018   18.9845 H   0  0  0  0  0  0
  -23.9760  -27.3201   18.9776 H   0  0  0  0  0  0
  -23.7770  -30.5875   19.4012 H   0  0  0  0  0  0
  -22.7698  -29.2459   19.8512 H   0  0  0  0  0  0
  -25.1297  -36.1907   25.0812 H   0  0  0  0  0  0
  -21.0004  -28.3301   24.1377 H   0  0  0  0  0  0
  -20.5695  -26.2329   23.3617 H   0  0  0  0  0  0
  -21.6652  -26.7456   22.1195 H   0  0  0  0  0  0
  -19.6922  -25.6293   21.1258 H   0  0  0  0  0  0
  -19.6695  -27.3186   20.6735 H   0  0  0  0  0  0
  -17.4210  -26.6686   21.4029 H   0  0  0  0  0  0
  -18.0341  -26.0079   22.9026 H   0  0  0  0  0  0
  -19.7942  -30.7291   24.2252 H   0  0  0  0  0  0
  -17.5019  -31.6273   24.5165 H   0  0  0  0  0  0
  -15.5357  -30.2991   23.7659 H   0  0  0  0  0  0
  -15.8684  -28.0824   22.7076 H   0  0  0  0  0  0
  -24.5886  -30.7113   25.7754 H   0  0  0  0  0  0
  -24.8928  -32.2916   26.4860 H   0  0  0  0  0  0
  -25.8017  -30.8907   27.0217 H   0  0  0  0  0  0
  -26.2940  -29.6718   24.1264 H   0  0  0  0  0  0
  -27.4000  -29.7264   25.4793 H   0  0  0  0  0  0
  -27.8842  -30.4230   23.9520 H   0  0  0  0  0  0
  -27.2680  -33.3630   26.2056 H   0  0  0  0  0  0
  -28.3878  -32.6870   25.0321 H   0  0  0  0  0  0
  -28.0729  -31.8456   26.5420 H   0  0  0  0  0  0
  -28.2582  -38.0105   24.7536 H   0  0  0  0  0  0
  -28.1100  -36.2640   24.6245 H   0  0  0  0  0  0
  -27.2310  -37.1383   25.8863 H   0  0  0  0  0  0
  -20.9413  -29.8764   21.6827 H   0  0  0  0  0  0
  -26.0163  -38.2837   24.1434 H   0  0  0  0  0  0
  -29.2897  -23.6752   18.6859 H   0  0  0  0  0  0
  -31.3730  -19.4132   19.8501 H   0  0  0  0  0  0
  -31.0054  -18.8431   21.4444 H   0  0  0  0  0  0
  -28.6890  -18.3124   22.0506 H   0  0  0  0  0  0
  -27.4554  -18.4214   20.8356 H   0  0  0  0  0  0
  -32.0489  -17.0746   20.1837 H   0  0  0  0  0  0
  -30.9626  -17.2233   18.8397 H   0  0  0  0  0  0
  -28.2168  -16.4305   19.6833 H   0  0  0  0  0  0
  -28.2408  -16.0337   21.3788 H   0  0  0  0  0  0
  -27.9564  -23.5126   23.4680 H   0  0  0  0  0  0
  -27.3061  -21.8839   23.5211 H   0  0  0  0  0  0
  -26.4113  -23.1471   22.6857 H   0  0  0  0  0  0
  -32.0446  -21.6806   18.5584 H   0  0  0  0  0  0
  -31.2356  -22.9009   17.5759 H   0  0  0  0  0  0
  -31.8263  -21.4212   16.8357 H   0  0  0  0  0  0
  -28.1001  -20.7812   17.0025 H   0  0  0  0  0  0
  -29.4556  -20.9445   15.8983 H   0  0  0  0  0  0
  -28.7797  -22.3735   16.6709 H   0  0  0  0  0  0
  -28.1852  -25.2242   21.9398 H   0  0  0  0  0  0
  -26.8084  -24.9004   20.9641 H   0  0  0  0  0  0
  -30.2122  -20.0640   18.0374 H   0  0  0  0  0  0
  1 25  1  0  0  0
  1 30  2  0  0  0
  1 87  1  0  0  0
  2  3  1  0  0  0
  2 25  1  0  0  0
  2 88  1  0  0  0
  2 89  1  0  0  0
  3  4  1  0  0  0
  3 90  1  0  0  0
  3 91  1  0  0  0
  4  5  1  0  0  0
  4 92  1  0  0  0
  4 93  1  0  0  0
  5  6  1  0  0  0
  5 26  1  0  0  0
  5 94  1  0  0  0
  6 25  1  0  0  0
  6 95  1  0  0  0
  6 96  1  0  0  0
  7  8  2  0  0  0
  7 26  1  0  0  0
  7 29  1  0  0  0
  8  9  1  0  0  0
  8 22  1  0  0  0
  9 10  1  0  0  0
  9 27  2  0  0  0
 10 11  2  0  0  0
 10 15  1  0  0  0
 11 12  1  0  0  0
 11 97  1  0  0  0
 12 13  2  0  0  0
 12 98  1  0  0  0
 13 14  1  0  0  0
 13 31  1  0  0  0
 14 15  2  0  0  0
 14 99  1  0  0  0
 15100  1  0  0  0
 16 17  2  0  0  0
 16 21  1  0  0  0
 16 31  1  0  0  0
 17 18  1  0  0  0
 17101  1  0  0  0
 18 19  2  0  0  0
 18102  1  0  0  0
 19 20  1  0  0  0
 19 24  1  0  0  0
 20 21  2  0  0  0
 20103  1  0  0  0
 21 23  1  0  0  0
 22 28  1  0  0  0
 22 32  2  0  0  0
 26 27  1  0  0  0
 28104  1  0  0  0
 28105  1  0  0  0
 29106  1  0  0  0
 29107  1  0  0  0
 33 34  1  0  0  0
 33 66  1  0  0  0
 33 70  2  0  0  0
 34 36  1  0  0  0
 34 59  1  0  0  0
 34108  1  0  0  0
 35 44  2  0  0  0
 35 45  1  0  0  0
 35 68  1  0  0  0
 36 56  1  0  0  0
 36109  1  0  0  0
 37 39  1  0  0  0
 37 47  1  0  0  0
 37 66  1  0  0  0
 37110  1  0  0  0
 38 43  2  0  0  0
 38 46  1  0  0  0
 38 47  1  0  0  0
 39 64  1  0  0  0
 39 67  2  0  0  0
 40 52  1  0  0  0
 40 53  2  0  0  0
 40 58  1  0  0  0
 41111  1  0  0  0
 41112  1  0  0  0
 41113  1  0  0  0
 41 48  1  0  0  0
 42 43  1  0  0  0
 42 66  1  0  0  0
 42114  1  0  0  0
 42115  1  0  0  0
 43 44  1  0  0  0
 44116  1  0  0  0
 45 46  2  0  0  0
 45117  1  0  0  0
 46118  1  0  0  0
 47119  1  0  0  0
 47120  1  0  0  0
 48 56  1  0  0  0
 48 65  1  0  0  0
 48121  1  0  0  0
 49 50  1  0  0  0
 49 53  1  0  0  0
 49 64  1  0  0  0
 49122  1  0  0  0
 50 51  1  0  0  0
 50123  1  0  0  0
 50124  1  0  0  0
 51 52  1  0  0  0
 51125  1  0  0  0
 51126  1  0  0  0
 52127  1  0  0  0
 52128  1  0  0  0
 53 54  1  0  0  0
 54 55  2  0  0  0
 54129  1  0  0  0
 55 57  1  0  0  0
 55130  1  0  0  0
 56 69  2  0  0  0
 57 58  2  0  0  0
 57131  1  0  0  0
 58132  1  0  0  0
 59 60  1  0  0  0
 59 61  1  0  0  0
 59 62  1  0  0  0
 60133  1  0  0  0
 60134  1  0  0  0
 60135  1  0  0  0
 61136  1  0  0  0
 61137  1  0  0  0
 61138  1  0  0  0
 62139  1  0  0  0
 62140  1  0  0  0
 62141  1  0  0  0
 63 65  1  0  0  0
 63142  1  0  0  0
 63143  1  0  0  0
 63144  1  0  0  0
 64145  1  0  0  0
 65146  1  0  0  0
 68 83  1  0  0  0
 71 72  2  0  0  0
 71 73  1  0  0  0
 71147  1  0  0  0
 72 74  1  0  0  0
 72 83  1  0  0  0
 73 75  2  0  0  0
 73 84  1  0  0  0
 74 80  1  0  0  0
 74 85  2  0  0  0
 75 85  1  0  0  0
 75 86  1  0  0  0
 76 78  1  0  0  0
 76 86  1  0  0  0
 76148  1  0  0  0
 76149  1  0  0  0
 77 79  1  0  0  0
 77 86  1  0  0  0
 77150  1  0  0  0
 77151  1  0  0  0
 78 87  1  0  0  0
 78152  1  0  0  0
 78153  1  0  0  0
 79 87  1  0  0  0
 79154  1  0  0  0
 79155  1  0  0  0
 80156  1  0  0  0
 80157  1  0  0  0
 80158  1  0  0  0
 81159  1  0  0  0
 81160  1  0  0  0
 81161  1  0  0  0
 81 84  1  0  0  0
 82 84  1  0  0  0
 82162  1  0  0  0
 82163  1  0  0  0
 82164  1  0  0  0
 83165  1  0  0  0
 83166  1  0  0  0
 84167  1  0  0  0
M  ISO  4   1 100  68 101  83 101  87 100
M  END
> <chiral flag>
0

> <version>
0

> <s_m_source_file>
/data/baiqing/PycharmProjects/Reinvent-master-3.2/result/LINK_invent/BTK/process_docking_weight1_custom_sum_contain_oxygen_bond_distance_aromatic_linkinvent_7_9_3/rearranged_h_0174.sdf

> <i_m_source_file_index>
93

> <r_mmod_Potential_Energy-OPLS-2005>
299.1669921875

> <r_mmod_Stretch_Energy-OPLS-2005>
139.450500488281

> <r_mmod_Bend_Energy-OPLS-2005>
243.6025390625

> <r_mmod_Torsional_Energy-OPLS-2005>
361.700866699219

> <r_mmod_Improper_Torsional_Energy-OPLS-2005>
13.6394319534302

> <r_mmod_Van_der_Waal_Energy-OPLS-2005>
152.902465820312

> <r_mmod_Electrostatic_Energy-OPLS-2005>
-510.604187011719

> <r_mmod_Solvation_Energy-OPLS-2005>
-221.512268066406

> <b_mmod_Minimization_Converged-OPLS-2005>
0

> <r_mmod_RMS_Derivative-OPLS-2005>
1.18252265453339

$$$$
95
                    3D
 Structure written by MMmdl.
170179  0  0  1  0            999 V2000
  -30.6980  -14.5581   20.5359 C   0  0  0  0  0  0
  -30.4261  -12.3704   19.4118 C   0  0  0  0  0  0
  -29.4836  -12.5030   18.1971 C   0  0  0  0  0  0
  -28.0077  -12.3452   18.6202 C   0  0  0  0  0  0
  -27.6518  -13.1925   19.8718 C   0  0  2  0  0  0
  -28.7135  -12.9775   20.9767 C   0  0  0  0  0  0
  -25.2562  -13.8108   20.5711 C   0  0  0  0  0  0
  -24.1810  -13.0407   20.9205 C   0  0  0  0  0  0
  -24.6353  -11.6876   20.8762 C   0  0  0  0  0  0
  -23.9024  -10.4274   21.0417 C   0  0  0  0  0  0
  -24.3593   -9.4195   21.9185 C   0  0  0  0  0  0
  -23.6283   -8.2222   22.0739 C   0  0  0  0  0  0
  -22.4259   -8.0269   21.3532 C   0  0  0  0  0  0
  -21.9886   -9.0237   20.4631 C   0  0  0  0  0  0
  -22.7204  -10.2122   20.3055 C   0  0  0  0  0  0
  -21.6837   -6.0744   22.5292 C   0  0  0  0  0  0
  -21.4011   -6.5647   23.8225 C   0  0  0  0  0  0
  -21.3642   -5.6792   24.9182 C   0  0  0  0  0  0
  -21.6034   -4.3055   24.7232 C   0  0  0  0  0  0
  -21.8816   -3.8162   23.4352 C   0  0  0  0  0  0
  -21.9180   -4.6976   22.3408 C   0  0  0  0  0  0
  -22.7832  -13.5227   21.1856 C   0  0  0  0  0  0
  -22.1645   -4.2171   21.0980 F   0  0  0  0  0  0
  -21.5623   -3.4527   25.7744 F   0  0  0  0  0  0
  -30.0014  -13.3835   20.4010 N   0  0  0  0  0  0
  -26.2982  -12.9253   20.3411 N   0  0  0  0  0  0
  -25.9279  -11.6429   20.5812 N   0  0  0  0  0  0
  -22.0454  -12.8226   22.0410 N   0  0  0  0  0  0
  -25.4251  -15.1822   20.4110 N   0  0  0  0  0  0
  -31.8999  -14.5723   20.2499 O   0  0  0  0  0  0
  -21.6617   -6.8877   21.4246 O   0  0  0  0  0  0
  -22.3530  -14.5531   20.6693 O   0  0  0  0  0  0
  -24.6136  -31.8685   23.2114 C   0  0  0  0  0  0
  -25.9031  -32.4826   23.8409 C   0  0  1  0  0  0
  -27.2374  -27.4302   20.1100 C   0  0  0  0  0  0
  -25.5891  -33.8626   24.2337 N   0  0  0  0  0  0
  -23.4030  -30.4902   21.5506 C   0  0  2  0  0  0
  -24.8539  -28.9542   20.1177 C   0  0  0  0  0  0
  -22.7411  -29.4657   22.4998 C   0  0  0  0  0  0
  -18.0269  -28.1376   22.8492 C   0  0  0  0  0  0
  -24.1484  -36.7318   23.2639 C   0  0  0  0  0  0
  -25.9313  -30.8304   21.3683 C   0  0  0  0  0  0
  -26.0105  -29.4612   20.7251 C   0  0  0  0  0  0
  -27.2053  -28.7032   20.7301 C   0  0  0  0  0  0
  -26.0718  -26.9464   19.4851 C   0  0  0  0  0  0
  -24.8785  -27.6939   19.4961 C   0  0  0  0  0  0
  -23.6142  -29.8205   20.1659 C   0  0  0  0  0  0
  -25.4105  -36.3117   24.0341 C   0  0  1  0  0  0
  -20.5860  -28.3662   23.1322 C   0  0  2  0  0  0
  -20.6760  -26.9399   22.5421 C   0  0  0  0  0  0
  -19.5742  -26.6383   21.5215 C   0  0  0  0  0  0
  -18.1920  -26.7923   22.1623 C   0  0  0  0  0  0
  -19.1520  -28.8835   23.2903 C   0  0  0  0  0  0
  -18.9448  -30.1443   23.8912 C   0  0  0  0  0  0
  -17.6452  -30.6584   24.0565 C   0  0  0  0  0  0
  -25.9029  -34.9480   23.5140 C   0  0  0  0  0  0
  -16.5343  -29.9088   23.6328 C   0  0  0  0  0  0
  -16.7259  -28.6503   23.0349 C   0  0  0  0  0  0
  -26.4464  -31.6593   25.0726 C   0  0  0  0  0  0
  -25.3732  -31.3703   26.1477 C   0  0  0  0  0  0
  -27.0293  -30.3036   24.6094 C   0  0  0  0  0  0
  -27.6047  -32.4308   25.7477 C   0  0  0  0  0  0
  -27.5584  -37.1809   24.8462 C   0  0  0  0  0  0
  -21.4138  -29.3031   22.3730 N   0  0  0  0  0  0
  -26.4291  -37.3798   23.9411 N   0  0  0  0  0  0
  -24.6671  -31.0777   22.1020 N   0  0  0  0  0  0
  -23.4180  -28.8205   23.3040 O   0  0  0  0  0  0
  -28.3581  -26.6292   20.0535 O   0  0  0  0  0  0
  -26.5595  -34.8928   22.4700 O   0  0  0  0  0  0
  -23.5329  -32.1443   23.7507 O   0  0  0  0  0  0
  -29.7670  -23.8216   21.2899 C   0  0  0  0  0  0
  -29.8695  -22.8494   20.2660 C   0  0  0  0  0  0
  -29.4295  -23.3190   22.5572 C   0  0  0  0  0  0
  -29.4111  -21.1750   21.7616 C   0  0  0  0  0  0
  -28.7266  -17.4394   21.9582 C   0  0  0  0  0  0
  -30.7042  -18.2293   20.7244 C   0  0  0  0  0  0
  -28.7116  -16.1499   21.1037 C   0  0  0  0  0  0
  -30.6222  -16.9511   19.8508 C   0  0  0  0  0  0
  -29.3123  -18.6560   21.2175 C   0  0  0  0  0  0
  -28.9723  -23.6700   18.0420 C   0  0  0  0  0  0
  -29.0046  -23.6524   24.9027 C   0  0  0  0  0  0
  -30.1398  -25.3110   21.1290 C   0  0  0  0  0  0
  -30.2022  -23.1934   18.8226 C   0  0  0  0  0  0
  -29.0170  -26.3704   21.2903 C   0  0  0  0  0  0
  -29.6726  -21.5317   20.5140 N   0  0  0  0  0  0
  -29.2609  -21.9983   22.7829 N   0  0  0  0  0  0
  -30.0334  -15.7728   20.5485 N   0  0  0  0  0  0
  -29.3300  -19.8337   22.0936 N   0  0  0  0  0  0
  -29.3157  -24.1892   23.6214 O   0  0  0  0  0  0
  -31.4605  -12.4931   19.0869 H   0  0  0  0  0  0
  -30.3741  -11.3671   19.8365 H   0  0  0  0  0  0
  -29.7351  -11.7582   17.4403 H   0  0  0  0  0  0
  -29.6262  -13.4781   17.7275 H   0  0  0  0  0  0
  -27.8364  -11.2879   18.8285 H   0  0  0  0  0  0
  -27.3471  -12.6015   17.7908 H   0  0  0  0  0  0
  -27.6768  -14.2277   19.5426 H   0  0  0  0  0  0
  -28.7467  -11.9179   21.2352 H   0  0  0  0  0  0
  -28.4910  -13.4460   21.9296 H   0  0  0  0  0  0
  -25.2732   -9.5675   22.4771 H   0  0  0  0  0  0
  -23.9991   -7.4615   22.7457 H   0  0  0  0  0  0
  -21.0808   -8.8746   19.8946 H   0  0  0  0  0  0
  -22.3651  -10.9667   19.6170 H   0  0  0  0  0  0
  -21.2016   -7.6157   23.9739 H   0  0  0  0  0  0
  -21.1452   -6.0523   25.9080 H   0  0  0  0  0  0
  -22.0614   -2.7631   23.2845 H   0  0  0  0  0  0
  -22.4068  -11.9883   22.4799 H   0  0  0  0  0  0
  -21.1078  -13.1259   22.2631 H   0  0  0  0  0  0
  -24.6610  -15.8355   20.5408 H   0  0  0  0  0  0
  -26.2796  -15.6263   20.1033 H   0  0  0  0  0  0
  -26.7099  -32.5546   23.1175 H   0  0  0  0  0  0
  -25.0040  -33.9786   25.0482 H   0  0  0  0  0  0
  -22.6920  -31.3068   21.4108 H   0  0  0  0  0  0
  -23.3741  -35.9656   23.3314 H   0  0  0  0  0  0
  -24.3582  -36.8916   22.2050 H   0  0  0  0  0  0
  -23.7238  -37.6530   23.6640 H   0  0  0  0  0  0
  -26.0413  -31.5904   20.5936 H   0  0  0  0  0  0
  -26.8203  -30.8914   21.9840 H   0  0  0  0  0  0
  -28.0952  -29.1013   21.1963 H   0  0  0  0  0  0
  -26.0864  -25.9801   19.0008 H   0  0  0  0  0  0
  -23.9908  -27.2984   19.0215 H   0  0  0  0  0  0
  -23.7221  -30.5949   19.4057 H   0  0  0  0  0  0
  -22.7387  -29.2390   19.8705 H   0  0  0  0  0  0
  -25.1281  -36.1989   25.0834 H   0  0  0  0  0  0
  -20.9948  -28.3223   24.1443 H   0  0  0  0  0  0
  -20.5669  -26.2267   23.3606 H   0  0  0  0  0  0
  -21.6631  -26.7444   22.1211 H   0  0  0  0  0  0
  -19.6905  -25.6298   21.1235 H   0  0  0  0  0  0
  -19.6688  -27.3201   20.6753 H   0  0  0  0  0  0
  -17.4194  -26.6676   21.4021 H   0  0  0  0  0  0
  -18.0317  -26.0060   22.9013 H   0  0  0  0  0  0
  -19.7926  -30.7253   24.2290 H   0  0  0  0  0  0
  -17.5008  -31.6268   24.5159 H   0  0  0  0  0  0
  -15.5347  -30.2995   23.7644 H   0  0  0  0  0  0
  -15.8657  -28.0829   22.7058 H   0  0  0  0  0  0
  -24.5890  -30.7069   25.7815 H   0  0  0  0  0  0
  -24.8940  -32.2859   26.4952 H   0  0  0  0  0  0
  -25.8080  -30.8847   27.0221 H   0  0  0  0  0  0
  -26.2837  -29.6800   24.1148 H   0  0  0  0  0  0
  -27.4067  -29.7271   25.4549 H   0  0  0  0  0  0
  -27.8669  -30.4365   23.9245 H   0  0  0  0  0  0
  -27.2680  -33.3599   26.2089 H   0  0  0  0  0  0
  -28.3832  -32.6880   25.0282 H   0  0  0  0  0  0
  -28.0740  -31.8407   26.5359 H   0  0  0  0  0  0
  -28.2602  -38.0108   24.7521 H   0  0  0  0  0  0
  -28.1082  -36.2642   24.6270 H   0  0  0  0  0  0
  -27.2308  -37.1439   25.8867 H   0  0  0  0  0  0
  -20.9304  -29.8742   21.6941 H   0  0  0  0  0  0
  -26.0188  -38.2879   24.1418 H   0  0  0  0  0  0
  -29.2967  -17.2493   22.8696 H   0  0  0  0  0  0
  -27.7073  -17.6589   22.2796 H   0  0  0  0  0  0
  -31.1563  -19.0362   20.1459 H   0  0  0  0  0  0
  -31.3678  -18.0504   21.5728 H   0  0  0  0  0  0
  -28.0292  -16.2999   20.2686 H   0  0  0  0  0  0
  -28.2654  -15.4021   21.7391 H   0  0  0  0  0  0
  -31.6184  -16.7644   19.4492 H   0  0  0  0  0  0
  -30.0065  -17.1577   18.9735 H   0  0  0  0  0  0
  -28.6826  -18.8908   20.3570 H   0  0  0  0  0  0
  -29.2330  -23.8993   17.0094 H   0  0  0  0  0  0
  -28.5497  -24.5703   18.4851 H   0  0  0  0  0  0
  -28.1939  -22.9072   18.0329 H   0  0  0  0  0  0
  -28.9286  -24.4640   25.6258 H   0  0  0  0  0  0
  -29.7853  -22.9731   25.2475 H   0  0  0  0  0  0
  -28.0494  -23.1258   24.8957 H   0  0  0  0  0  0
  -30.6725  -25.5006   20.1997 H   0  0  0  0  0  0
  -30.8804  -25.5090   21.9059 H   0  0  0  0  0  0
  -30.6091  -22.3082   18.3317 H   0  0  0  0  0  0
  -31.0017  -23.9306   18.7753 H   0  0  0  0  0  0
  -29.4773  -27.3031   21.6195 H   0  0  0  0  0  0
  -28.3044  -26.0804   22.0642 H   0  0  0  0  0  0
  -29.1220  -19.6664   23.0691 H   0  0  0  0  0  0
  1 25  1  0  0  0
  1 30  2  0  0  0
  1 87  1  0  0  0
  2  3  1  0  0  0
  2 25  1  0  0  0
  2 90  1  0  0  0
  2 91  1  0  0  0
  3  4  1  0  0  0
  3 92  1  0  0  0
  3 93  1  0  0  0
  4  5  1  0  0  0
  4 94  1  0  0  0
  4 95  1  0  0  0
  5  6  1  0  0  0
  5 26  1  0  0  0
  5 96  1  0  0  0
  6 25  1  0  0  0
  6 97  1  0  0  0
  6 98  1  0  0  0
  7  8  2  0  0  0
  7 26  1  0  0  0
  7 29  1  0  0  0
  8  9  1  0  0  0
  8 22  1  0  0  0
  9 10  1  0  0  0
  9 27  2  0  0  0
 10 11  2  0  0  0
 10 15  1  0  0  0
 11 12  1  0  0  0
 11 99  1  0  0  0
 12 13  2  0  0  0
 12100  1  0  0  0
 13 14  1  0  0  0
 13 31  1  0  0  0
 14 15  2  0  0  0
 14101  1  0  0  0
 15102  1  0  0  0
 16 17  2  0  0  0
 16 21  1  0  0  0
 16 31  1  0  0  0
 17 18  1  0  0  0
 17103  1  0  0  0
 18 19  2  0  0  0
 18104  1  0  0  0
 19 20  1  0  0  0
 19 24  1  0  0  0
 20 21  2  0  0  0
 20105  1  0  0  0
 21 23  1  0  0  0
 22 28  1  0  0  0
 22 32  2  0  0  0
 26 27  1  0  0  0
 28106  1  0  0  0
 28107  1  0  0  0
 29108  1  0  0  0
 29109  1  0  0  0
 33 34  1  0  0  0
 33 66  1  0  0  0
 33 70  2  0  0  0
 34 36  1  0  0  0
 34 59  1  0  0  0
 34110  1  0  0  0
 35 44  2  0  0  0
 35 45  1  0  0  0
 35 68  1  0  0  0
 36 56  1  0  0  0
 36111  1  0  0  0
 37 39  1  0  0  0
 37 47  1  0  0  0
 37 66  1  0  0  0
 37112  1  0  0  0
 38 43  2  0  0  0
 38 46  1  0  0  0
 38 47  1  0  0  0
 39 64  1  0  0  0
 39 67  2  0  0  0
 40 52  1  0  0  0
 40 53  2  0  0  0
 40 58  1  0  0  0
 41113  1  0  0  0
 41114  1  0  0  0
 41115  1  0  0  0
 41 48  1  0  0  0
 42 43  1  0  0  0
 42 66  1  0  0  0
 42116  1  0  0  0
 42117  1  0  0  0
 43 44  1  0  0  0
 44118  1  0  0  0
 45 46  2  0  0  0
 45119  1  0  0  0
 46120  1  0  0  0
 47121  1  0  0  0
 47122  1  0  0  0
 48 56  1  0  0  0
 48 65  1  0  0  0
 48123  1  0  0  0
 49 50  1  0  0  0
 49 53  1  0  0  0
 49 64  1  0  0  0
 49124  1  0  0  0
 50 51  1  0  0  0
 50125  1  0  0  0
 50126  1  0  0  0
 51 52  1  0  0  0
 51127  1  0  0  0
 51128  1  0  0  0
 52129  1  0  0  0
 52130  1  0  0  0
 53 54  1  0  0  0
 54 55  2  0  0  0
 54131  1  0  0  0
 55 57  1  0  0  0
 55132  1  0  0  0
 56 69  2  0  0  0
 57 58  2  0  0  0
 57133  1  0  0  0
 58134  1  0  0  0
 59 60  1  0  0  0
 59 61  1  0  0  0
 59 62  1  0  0  0
 60135  1  0  0  0
 60136  1  0  0  0
 60137  1  0  0  0
 61138  1  0  0  0
 61139  1  0  0  0
 61140  1  0  0  0
 62141  1  0  0  0
 62142  1  0  0  0
 62143  1  0  0  0
 63 65  1  0  0  0
 63144  1  0  0  0
 63145  1  0  0  0
 63146  1  0  0  0
 64147  1  0  0  0
 65148  1  0  0  0
 68 84  1  0  0  0
 71 72  2  0  0  0
 71 73  1  0  0  0
 71 82  1  0  0  0
 72 83  1  0  0  0
 72 85  1  0  0  0
 73 86  2  0  0  0
 73 89  1  0  0  0
 74 85  2  0  0  0
 74 86  1  0  0  0
 74 88  1  0  0  0
 75 77  1  0  0  0
 75 79  1  0  0  0
 75149  1  0  0  0
 75150  1  0  0  0
 76 78  1  0  0  0
 76 79  1  0  0  0
 76151  1  0  0  0
 76152  1  0  0  0
 77 87  1  0  0  0
 77153  1  0  0  0
 77154  1  0  0  0
 78 87  1  0  0  0
 78155  1  0  0  0
 78156  1  0  0  0
 79 88  1  0  0  0
 79157  1  0  0  0
 80 83  1  0  0  0
 80158  1  0  0  0
 80159  1  0  0  0
 80160  1  0  0  0
 81 89  1  0  0  0
 81161  1  0  0  0
 81162  1  0  0  0
 81163  1  0  0  0
 82 84  1  0  0  0
 82164  1  0  0  0
 82165  1  0  0  0
 83166  1  0  0  0
 83167  1  0  0  0
 84168  1  0  0  0
 84169  1  0  0  0
 88170  1  0  0  0
M  ISO  4   1 100  68 101  84 101  87 100
M  END
> <chiral flag>
0

> <version>
0

> <s_m_source_file>
/data/baiqing/PycharmProjects/Reinvent-master-3.2/result/LINK_invent/BTK/process_docking_weight1_custom_sum_contain_oxygen_bond_distance_aromatic_linkinvent_7_9_3/rearranged_h_0174.sdf

> <i_m_source_file_index>
94

> <r_mmod_Potential_Energy-OPLS-2005>
-382.078491210938

> <r_mmod_Stretch_Energy-OPLS-2005>
46.9508361816406

> <r_mmod_Bend_Energy-OPLS-2005>
162.706390380859

> <r_mmod_Torsional_Energy-OPLS-2005>
287.830230712891

> <r_mmod_Improper_Torsional_Energy-OPLS-2005>
13.6218671798706

> <r_mmod_Van_der_Waal_Energy-OPLS-2005>
175.031433105469

> <r_mmod_Electrostatic_Energy-OPLS-2005>
-874.80224609375

> <r_mmod_Solvation_Energy-OPLS-2005>
-219.816482543945

> <b_mmod_Minimization_Converged-OPLS-2005>
0

> <r_mmod_RMS_Derivative-OPLS-2005>
1.36792075634003

$$$$
96
                    3D
 Structure written by MMmdl.
171180  0  0  1  0            999 V2000
  -30.6174  -14.7420   20.4977 C   0  0  0  0  0  0
  -30.4293  -12.4641   19.4718 C   0  0  0  0  0  0
  -29.5050  -12.5042   18.2346 C   0  0  0  0  0  0
  -28.0332  -12.3212   18.6525 C   0  0  0  0  0  0
  -27.6367  -13.2297   19.8464 C   0  0  2  0  0  0
  -28.6795  -13.1647   20.9818 C   0  0  0  0  0  0
  -25.2481  -13.8192   20.5672 C   0  0  0  0  0  0
  -24.1781  -13.0451   20.9202 C   0  0  0  0  0  0
  -24.6365  -11.6918   20.8743 C   0  0  0  0  0  0
  -23.9054  -10.4297   21.0418 C   0  0  0  0  0  0
  -24.3607   -9.4210   21.9197 C   0  0  0  0  0  0
  -23.6285   -8.2244   22.0764 C   0  0  0  0  0  0
  -22.4274   -8.0284   21.3548 C   0  0  0  0  0  0
  -21.9920   -9.0248   20.4638 C   0  0  0  0  0  0
  -22.7247  -10.2126   20.3061 C   0  0  0  0  0  0
  -21.6840   -6.0739   22.5279 C   0  0  0  0  0  0
  -21.4013   -6.5645   23.8217 C   0  0  0  0  0  0
  -21.3653   -5.6795   24.9173 C   0  0  0  0  0  0
  -21.6033   -4.3055   24.7232 C   0  0  0  0  0  0
  -21.8818   -3.8149   23.4349 C   0  0  0  0  0  0
  -21.9187   -4.6966   22.3397 C   0  0  0  0  0  0
  -22.7795  -13.5209   21.1862 C   0  0  0  0  0  0
  -22.1654   -4.2150   21.0976 F   0  0  0  0  0  0
  -21.5620   -3.4540   25.7742 F   0  0  0  0  0  0
  -29.9777  -13.5259   20.4010 N   0  0  0  0  0  0
  -26.2896  -12.9391   20.3251 N   0  0  0  0  0  0
  -25.9303  -11.6539   20.5757 N   0  0  0  0  0  0
  -22.0432  -12.8195   22.0403 N   0  0  0  0  0  0
  -25.4190  -15.1923   20.4079 N   0  0  0  0  0  0
  -31.8109  -14.8248   20.1920 O   0  0  0  0  0  0
  -21.6626   -6.8888   21.4240 O   0  0  0  0  0  0
  -22.3489  -14.5508   20.6698 O   0  0  0  0  0  0
  -24.6345  -31.8540   23.2017 C   0  0  0  0  0  0
  -25.9162  -32.4752   23.8358 C   0  0  1  0  0  0
  -27.1994  -27.2348   20.1490 C   0  0  0  0  0  0
  -25.5960  -33.8553   24.2267 N   0  0  0  0  0  0
  -23.4305  -30.4805   21.5435 C   0  0  2  0  0  0
  -24.8740  -28.9317   20.1085 C   0  0  0  0  0  0
  -22.7505  -29.4602   22.4901 C   0  0  0  0  0  0
  -18.0286  -28.1397   22.8442 C   0  0  0  0  0  0
  -24.1474  -36.7258   23.2631 C   0  0  0  0  0  0
  -25.9775  -30.7614   21.3847 C   0  0  0  0  0  0
  -26.0448  -29.3817   20.7303 C   0  0  0  0  0  0
  -27.2072  -28.5444   20.7429 C   0  0  0  0  0  0
  -26.0097  -26.8709   19.4738 C   0  0  0  0  0  0
  -24.8641  -27.6871   19.4691 C   0  0  0  0  0  0
  -23.6509  -29.8246   20.1550 C   0  0  0  0  0  0
  -25.4103  -36.3043   24.0309 C   0  0  1  0  0  0
  -20.5894  -28.3688   23.1233 C   0  0  2  0  0  0
  -20.6776  -26.9407   22.5384 C   0  0  0  0  0  0
  -19.5771  -26.6395   21.5162 C   0  0  0  0  0  0
  -18.1934  -26.7949   22.1545 C   0  0  0  0  0  0
  -19.1551  -28.8858   23.2826 C   0  0  0  0  0  0
  -18.9478  -30.1451   23.8861 C   0  0  0  0  0  0
  -17.6492  -30.6588   24.0554 C   0  0  0  0  0  0
  -25.9054  -34.9418   23.5089 C   0  0  0  0  0  0
  -16.5372  -29.9100   23.6337 C   0  0  0  0  0  0
  -16.7270  -28.6528   23.0331 C   0  0  0  0  0  0
  -26.4537  -31.6573   25.0742 C   0  0  0  0  0  0
  -25.3758  -31.3668   26.1442 C   0  0  0  0  0  0
  -27.0423  -30.3003   24.6228 C   0  0  0  0  0  0
  -27.6060  -32.4344   25.7526 C   0  0  0  0  0  0
  -27.5566  -37.1783   24.8461 C   0  0  0  0  0  0
  -21.4221  -29.3054   22.3617 N   0  0  0  0  0  0
  -26.4263  -37.3757   23.9430 N   0  0  0  0  0  0
  -24.7007  -31.0495   22.1015 N   0  0  0  0  0  0
  -23.4183  -28.8127   23.3000 O   0  0  0  0  0  0
  -28.2855  -26.3279   20.2750 O   0  0  0  0  0  0
  -26.5618  -34.8898   22.4641 O   0  0  0  0  0  0
  -23.5472  -32.1406   23.7284 O   0  0  0  0  0  0
  -29.3307  -21.1568   20.8048 C   0  0  0  0  0  0
  -28.2059  -20.9924   20.0238 C   0  0  0  0  0  0
  -30.0718  -19.9609   21.1668 C   0  0  0  0  0  0
  -27.8127  -19.6891   19.6229 C   0  0  0  0  0  0
  -29.6210  -18.6507   20.7217 C   0  0  0  0  0  0
  -27.5737  -22.3437   19.6739 C   0  0  0  0  0  0
  -29.5526  -22.7003   21.0651 C   0  0  0  0  0  0
  -28.1852  -23.4827   20.5979 C   0  0  2  0  0  0
  -31.3346  -20.0591   22.0150 C   0  0  0  0  0  0
  -26.6158  -19.4564   18.7196 C   0  0  0  0  0  0
  -29.9404  -22.9875   22.5348 C   0  0  0  0  0  0
  -30.7468  -23.1438   20.1898 C   0  0  0  0  0  0
  -25.7287  -23.9209   21.5938 C   0  0  0  0  0  0
  -30.4236  -17.2941   20.9976 C   0  0  0  0  0  0
  -27.2345  -23.6849   21.8332 C   0  0  0  0  0  0
  -28.2804  -24.9064   19.7544 C   0  0  0  0  0  0
  -28.4970  -18.5598   19.9688 N   0  0  0  0  0  0
  -29.8817  -15.8880   20.7656 N   0  0  0  0  0  0
  -31.4677  -12.5954   19.1656 H   0  0  0  0  0  0
  -30.3839  -11.4896   19.9590 H   0  0  0  0  0  0
  -29.7903  -11.7295   17.5215 H   0  0  0  0  0  0
  -29.6225  -13.4581   17.7193 H   0  0  0  0  0  0
  -27.8999  -11.2745   18.9302 H   0  0  0  0  0  0
  -27.3723  -12.4955   17.8041 H   0  0  0  0  0  0
  -27.6329  -14.2490   19.4582 H   0  0  0  0  0  0
  -28.7196  -12.1643   21.4120 H   0  0  0  0  0  0
  -28.4115  -13.8387   21.7960 H   0  0  0  0  0  0
  -25.2747   -9.5667   22.4791 H   0  0  0  0  0  0
  -23.9966   -7.4642   22.7513 H   0  0  0  0  0  0
  -21.0844   -8.8772   19.8949 H   0  0  0  0  0  0
  -22.3711  -10.9663   19.6167 H   0  0  0  0  0  0
  -21.2025   -7.6157   23.9720 H   0  0  0  0  0  0
  -21.1463   -6.0528   25.9077 H   0  0  0  0  0  0
  -22.0604   -2.7620   23.2854 H   0  0  0  0  0  0
  -22.4024  -11.9843   22.4754 H   0  0  0  0  0  0
  -21.1048  -13.1230   22.2609 H   0  0  0  0  0  0
  -24.6532  -15.8471   20.5253 H   0  0  0  0  0  0
  -26.2666  -15.6329   20.0713 H   0  0  0  0  0  0
  -26.7224  -32.5425   23.1096 H   0  0  0  0  0  0
  -25.0160  -33.9690   25.0451 H   0  0  0  0  0  0
  -22.7265  -31.3023   21.4005 H   0  0  0  0  0  0
  -23.3725  -35.9594   23.3291 H   0  0  0  0  0  0
  -24.3574  -36.8930   22.2059 H   0  0  0  0  0  0
  -23.7280  -37.6456   23.6700 H   0  0  0  0  0  0
  -26.1109  -31.5151   20.6087 H   0  0  0  0  0  0
  -26.8578  -30.8207   22.0135 H   0  0  0  0  0  0
  -28.0976  -28.8767   21.2593 H   0  0  0  0  0  0
  -25.8931  -25.9273   18.9689 H   0  0  0  0  0  0
  -23.9710  -27.3414   18.9670 H   0  0  0  0  0  0
  -23.7923  -30.6101   19.4093 H   0  0  0  0  0  0
  -22.7655  -29.2711   19.8327 H   0  0  0  0  0  0
  -25.1297  -36.1858   25.0795 H   0  0  0  0  0  0
  -20.9950  -28.3297   24.1371 H   0  0  0  0  0  0
  -20.5640  -26.2310   23.3600 H   0  0  0  0  0  0
  -21.6659  -26.7436   22.1222 H   0  0  0  0  0  0
  -19.6923  -25.6296   21.1236 H   0  0  0  0  0  0
  -19.6731  -27.3154   20.6651 H   0  0  0  0  0  0
  -17.4217  -26.6675   21.3935 H   0  0  0  0  0  0
  -18.0317  -26.0094   22.8936 H   0  0  0  0  0  0
  -19.7979  -30.7243   24.2250 H   0  0  0  0  0  0
  -17.5076  -31.6264   24.5140 H   0  0  0  0  0  0
  -15.5381  -30.2998   23.7705 H   0  0  0  0  0  0
  -15.8662  -28.0872   22.7018 H   0  0  0  0  0  0
  -24.6069  -30.6825   25.7845 H   0  0  0  0  0  0
  -24.8727  -32.2759   26.4713 H   0  0  0  0  0  0
  -25.8098  -30.9065   27.0330 H   0  0  0  0  0  0
  -26.3019  -29.6719   24.1259 H   0  0  0  0  0  0
  -27.4154  -29.7283   25.4743 H   0  0  0  0  0  0
  -27.8872  -30.4319   23.9468 H   0  0  0  0  0  0
  -27.2683  -33.3730   26.1927 H   0  0  0  0  0  0
  -28.3949  -32.6780   25.0405 H   0  0  0  0  0  0
  -28.0622  -31.8592   26.5600 H   0  0  0  0  0  0
  -28.2537  -38.0115   24.7536 H   0  0  0  0  0  0
  -28.1120  -36.2648   24.6263 H   0  0  0  0  0  0
  -27.2285  -37.1430   25.8860 H   0  0  0  0  0  0
  -20.9394  -29.8855   21.6915 H   0  0  0  0  0  0
  -26.0109  -38.2807   24.1477 H   0  0  0  0  0  0
  -26.4881  -22.3018   19.6776 H   0  0  0  0  0  0
  -27.8595  -22.5302   18.6391 H   0  0  0  0  0  0
  -31.9219  -20.9426   21.7849 H   0  0  0  0  0  0
  -32.0077  -19.2176   21.8611 H   0  0  0  0  0  0
  -31.0740  -20.0924   23.0745 H   0  0  0  0  0  0
  -26.9492  -19.2671   17.6989 H   0  0  0  0  0  0
  -25.9449  -20.3115   18.7006 H   0  0  0  0  0  0
  -26.0414  -18.5900   19.0522 H   0  0  0  0  0  0
  -29.2660  -22.5083   23.2418 H   0  0  0  0  0  0
  -29.9438  -24.0580   22.7389 H   0  0  0  0  0  0
  -30.9376  -22.6326   22.7794 H   0  0  0  0  0  0
  -30.5421  -23.0004   19.1304 H   0  0  0  0  0  0
  -31.6454  -22.5728   20.4083 H   0  0  0  0  0  0
  -31.0047  -24.1913   20.3526 H   0  0  0  0  0  0
  -25.2382  -24.2248   22.5203 H   0  0  0  0  0  0
  -25.2223  -23.0116   21.2760 H   0  0  0  0  0  0
  -25.5314  -24.6938   20.8585 H   0  0  0  0  0  0
  -30.7078  -17.3144   22.0495 H   0  0  0  0  0  0
  -31.3573  -17.3829   20.4430 H   0  0  0  0  0  0
  -27.6129  -24.5090   22.4398 H   0  0  0  0  0  0
  -27.2728  -22.8036   22.4740 H   0  0  0  0  0  0
  -27.5536  -24.8275   18.9543 H   0  0  0  0  0  0
  -29.1896  -24.8673   19.1635 H   0  0  0  0  0  0
  -28.8861  -15.7858   20.8930 H   0  0  0  0  0  0
  1 25  1  0  0  0
  1 30  2  0  0  0
  1 88  1  0  0  0
  2  3  1  0  0  0
  2 25  1  0  0  0
  2 89  1  0  0  0
  2 90  1  0  0  0
  3  4  1  0  0  0
  3 91  1  0  0  0
  3 92  1  0  0  0
  4  5  1  0  0  0
  4 93  1  0  0  0
  4 94  1  0  0  0
  5  6  1  0  0  0
  5 26  1  0  0  0
  5 95  1  0  0  0
  6 25  1  0  0  0
  6 96  1  0  0  0
  6 97  1  0  0  0
  7  8  2  0  0  0
  7 26  1  0  0  0
  7 29  1  0  0  0
  8  9  1  0  0  0
  8 22  1  0  0  0
  9 10  1  0  0  0
  9 27  2  0  0  0
 10 11  2  0  0  0
 10 15  1  0  0  0
 11 12  1  0  0  0
 11 98  1  0  0  0
 12 13  2  0  0  0
 12 99  1  0  0  0
 13 14  1  0  0  0
 13 31  1  0  0  0
 14 15  2  0  0  0
 14100  1  0  0  0
 15101  1  0  0  0
 16 17  2  0  0  0
 16 21  1  0  0  0
 16 31  1  0  0  0
 17 18  1  0  0  0
 17102  1  0  0  0
 18 19  2  0  0  0
 18103  1  0  0  0
 19 20  1  0  0  0
 19 24  1  0  0  0
 20 21  2  0  0  0
 20104  1  0  0  0
 21 23  1  0  0  0
 22 28  1  0  0  0
 22 32  2  0  0  0
 26 27  1  0  0  0
 28105  1  0  0  0
 28106  1  0  0  0
 29107  1  0  0  0
 29108  1  0  0  0
 33 34  1  0  0  0
 33 66  1  0  0  0
 33 70  2  0  0  0
 34 36  1  0  0  0
 34 59  1  0  0  0
 34109  1  0  0  0
 35 44  2  0  0  0
 35 45  1  0  0  0
 35 68  1  0  0  0
 36 56  1  0  0  0
 36110  1  0  0  0
 37 39  1  0  0  0
 37 47  1  0  0  0
 37 66  1  0  0  0
 37111  1  0  0  0
 38 43  2  0  0  0
 38 46  1  0  0  0
 38 47  1  0  0  0
 39 64  1  0  0  0
 39 67  2  0  0  0
 40 52  1  0  0  0
 40 53  2  0  0  0
 40 58  1  0  0  0
 41112  1  0  0  0
 41113  1  0  0  0
 41114  1  0  0  0
 41 48  1  0  0  0
 42 43  1  0  0  0
 42 66  1  0  0  0
 42115  1  0  0  0
 42116  1  0  0  0
 43 44  1  0  0  0
 44117  1  0  0  0
 45 46  2  0  0  0
 45118  1  0  0  0
 46119  1  0  0  0
 47120  1  0  0  0
 47121  1  0  0  0
 48 56  1  0  0  0
 48 65  1  0  0  0
 48122  1  0  0  0
 49 50  1  0  0  0
 49 53  1  0  0  0
 49 64  1  0  0  0
 49123  1  0  0  0
 50 51  1  0  0  0
 50124  1  0  0  0
 50125  1  0  0  0
 51 52  1  0  0  0
 51126  1  0  0  0
 51127  1  0  0  0
 52128  1  0  0  0
 52129  1  0  0  0
 53 54  1  0  0  0
 54 55  2  0  0  0
 54130  1  0  0  0
 55 57  1  0  0  0
 55131  1  0  0  0
 56 69  2  0  0  0
 57 58  2  0  0  0
 57132  1  0  0  0
 58133  1  0  0  0
 59 60  1  0  0  0
 59 61  1  0  0  0
 59 62  1  0  0  0
 60134  1  0  0  0
 60135  1  0  0  0
 60136  1  0  0  0
 61137  1  0  0  0
 61138  1  0  0  0
 61139  1  0  0  0
 62140  1  0  0  0
 62141  1  0  0  0
 62142  1  0  0  0
 63 65  1  0  0  0
 63143  1  0  0  0
 63144  1  0  0  0
 63145  1  0  0  0
 64146  1  0  0  0
 65147  1  0  0  0
 68 86  1  0  0  0
 71 72  1  0  0  0
 71 73  2  0  0  0
 71 77  1  0  0  0
 72 74  2  0  0  0
 72 76  1  0  0  0
 73 75  1  0  0  0
 73 79  1  0  0  0
 74 80  1  0  0  0
 74 87  1  0  0  0
 75 84  1  0  0  0
 75 87  2  0  0  0
 76 78  1  0  0  0
 76148  1  0  0  0
 76149  1  0  0  0
 77 78  1  0  0  0
 77 81  1  0  0  0
 77 82  1  0  0  0
 78 85  1  0  0  0
 78 86  1  0  0  0
 79150  1  0  0  0
 79151  1  0  0  0
 79152  1  0  0  0
 80153  1  0  0  0
 80154  1  0  0  0
 80155  1  0  0  0
 81156  1  0  0  0
 81157  1  0  0  0
 81158  1  0  0  0
 82159  1  0  0  0
 82160  1  0  0  0
 82161  1  0  0  0
 83 85  1  0  0  0
 83162  1  0  0  0
 83163  1  0  0  0
 83164  1  0  0  0
 84 88  1  0  0  0
 84165  1  0  0  0
 84166  1  0  0  0
 85167  1  0  0  0
 85168  1  0  0  0
 86169  1  0  0  0
 86170  1  0  0  0
 88171  1  0  0  0
M  ISO  4   1 100  68 101  86 101  88 100
M  END
> <chiral flag>
0

> <version>
0

> <s_m_source_file>
/data/baiqing/PycharmProjects/Reinvent-master-3.2/result/LINK_invent/BTK/process_docking_weight1_custom_sum_contain_oxygen_bond_distance_aromatic_linkinvent_7_9_3/rearranged_h_0174.sdf

> <i_m_source_file_index>
95

> <r_mmod_Potential_Energy-OPLS-2005>
-2.72136163711548

> <r_mmod_Stretch_Energy-OPLS-2005>
146.332122802734

> <r_mmod_Bend_Energy-OPLS-2005>
250.874710083008

> <r_mmod_Torsional_Energy-OPLS-2005>
229.101821899414

> <r_mmod_Improper_Torsional_Energy-OPLS-2005>
3.94055008888245

> <r_mmod_Van_der_Waal_Energy-OPLS-2005>
150.493301391602

> <r_mmod_Electrostatic_Energy-OPLS-2005>
-669.029113769531

> <r_mmod_Solvation_Energy-OPLS-2005>
-211.021865844727

> <b_mmod_Minimization_Converged-OPLS-2005>
0

> <r_mmod_RMS_Derivative-OPLS-2005>
3.96650910377502

$$$$
