0
                    3D
 Structure written by MMmdl.
161168  0  0  1  0            999 V2000
  -30.3400  -15.5559   20.3480 C   0  0  0  0  0  0
  -30.4384  -13.0300   19.5047 C   0  0  0  0  0  0
  -29.5429  -12.6223   18.3030 C   0  0  0  0  0  0
  -28.1154  -12.2695   18.7568 C   0  0  0  0  0  0
  -27.5973  -13.2752   19.8075 C   0  0  2  0  0  0
  -28.6297  -13.5782   20.9204 C   0  0  0  0  0  0
  -25.2300  -13.8167   20.5737 C   0  0  0  0  0  0
  -24.1661  -13.0338   20.9260 C   0  0  0  0  0  0
  -24.6363  -11.6890   20.8778 C   0  0  0  0  0  0
  -23.9056  -10.4236   21.0426 C   0  0  0  0  0  0
  -24.3634   -9.4181   21.9191 C   0  0  0  0  0  0
  -23.6302   -8.2220   22.0782 C   0  0  0  0  0  0
  -22.4295   -8.0254   21.3552 C   0  0  0  0  0  0
  -21.9911   -9.0222   20.4668 C   0  0  0  0  0  0
  -22.7249  -10.2091   20.3053 C   0  0  0  0  0  0
  -21.6827   -6.0730   22.5281 C   0  0  0  0  0  0
  -21.4002   -6.5639   23.8221 C   0  0  0  0  0  0
  -21.3670   -5.6794   24.9183 C   0  0  0  0  0  0
  -21.6031   -4.3050   24.7230 C   0  0  0  0  0  0
  -21.8824   -3.8155   23.4345 C   0  0  0  0  0  0
  -21.9201   -4.6961   22.3413 C   0  0  0  0  0  0
  -22.7684  -13.5161   21.1925 C   0  0  0  0  0  0
  -22.1659   -4.2146   21.0984 F   0  0  0  0  0  0
  -21.5627   -3.4551   25.7744 F   0  0  0  0  0  0
  -29.8037  -14.2007   20.2564 N   0  0  0  0  0  0
  -26.2753  -12.9457   20.3198 N   0  0  0  0  0  0
  -25.9302  -11.6557   20.5687 N   0  0  0  0  0  0
  -22.0348  -12.8136   22.0481 N   0  0  0  0  0  0
  -25.3756  -15.1862   20.4142 N   0  0  0  0  0  0
  -31.5820  -15.4883   20.2581 O   0  0  0  0  0  0
  -21.6643   -6.8871   21.4243 O   0  0  0  0  0  0
  -22.3402  -14.5467   20.6771 O   0  0  0  0  0  0
  -24.6824  -31.7945   23.1475 C   0  0  0  0  0  0
  -25.9381  -32.4438   23.8028 C   0  0  1  0  0  0
  -27.2605  -26.7589   20.1729 C   0  0  0  0  0  0
  -25.5987  -33.8274   24.1933 N   0  0  0  0  0  0
  -23.5083  -30.3855   21.5034 C   0  0  2  0  0  0
  -24.9740  -28.7499   20.0970 C   0  0  0  0  0  0
  -22.7804  -29.4167   22.4734 C   0  0  0  0  0  0
  -18.0336  -28.1355   22.8467 C   0  0  0  0  0  0
  -24.1515  -36.7145   23.2646 C   0  0  0  0  0  0
  -26.0821  -30.5451   21.4043 C   0  0  0  0  0  0
  -26.1566  -29.1197   20.7441 C   0  0  0  0  0  0
  -27.2767  -28.1458   20.7609 C   0  0  0  0  0  0
  -26.0442  -26.5926   19.4615 C   0  0  0  0  0  0
  -24.9494  -27.5093   19.4374 C   0  0  0  0  0  0
  -23.7660  -29.6886   20.1356 C   0  0  0  0  0  0
  -25.4161  -36.2846   24.0260 C   0  0  1  0  0  0
  -20.5987  -28.3670   23.1204 C   0  0  2  0  0  0
  -20.6815  -26.9349   22.5496 C   0  0  0  0  0  0
  -19.5802  -26.6256   21.5325 C   0  0  0  0  0  0
  -18.1967  -26.7841   22.1685 C   0  0  0  0  0  0
  -19.1623  -28.8852   23.2792 C   0  0  0  0  0  0
  -18.9584  -30.1437   23.8850 C   0  0  0  0  0  0
  -17.6578  -30.6593   24.0529 C   0  0  0  0  0  0
  -25.9110  -34.9253   23.4901 C   0  0  0  0  0  0
  -16.5438  -29.9121   23.6327 C   0  0  0  0  0  0
  -16.7345  -28.6510   23.0406 C   0  0  0  0  0  0
  -26.4580  -31.6457   25.0629 C   0  0  0  0  0  0
  -25.3683  -31.3781   26.1280 C   0  0  0  0  0  0
  -27.0529  -30.2804   24.6496 C   0  0  0  0  0  0
  -27.6009  -32.4348   25.7469 C   0  0  0  0  0  0
  -27.5561  -37.1730   24.8475 C   0  0  0  0  0  0
  -21.4436  -29.2892   22.3531 N   0  0  0  0  0  0
  -26.4276  -37.3633   23.9370 N   0  0  0  0  0  0
  -24.7775  -30.9446   22.0705 N   0  0  0  0  0  0
  -23.4261  -28.7807   23.3080 O   0  0  0  0  0  0
  -28.2656  -25.6025   20.3388 O   0  0  0  0  0  0
  -26.5770  -34.8847   22.4522 O   0  0  0  0  0  0
  -23.5846  -32.0984   23.6419 O   0  0  0  0  0  0
  -26.5706  -21.2730   22.0447 C   0  0  0  0  0  0
  -27.8592  -21.5346   17.7199 C   0  0  0  0  0  0
  -26.1331  -22.8231   18.9716 C   0  0  0  0  0  0
  -28.1399  -16.8301   20.3910 C   0  0  0  0  0  0
  -27.7357  -22.2027   21.6537 C   0  0  0  0  0  0
  -29.3261  -20.4314   20.1159 C   0  0  0  0  0  0
  -29.8605  -18.6360   20.5958 C   0  0  0  0  0  0
  -28.6492  -23.9499   19.9071 C   0  0  0  0  0  0
  -27.2437  -21.7660   19.1249 C   0  0  0  0  0  0
  -28.3322  -22.0858   20.2189 C   0  0  1  0  0  0
  -29.5882  -16.9243   20.3474 N   0  0  0  0  0  0
  -31.4128  -13.3139   19.1062 H   0  0  0  0  0  0
  -30.6310  -12.1831   20.1676 H   0  0  0  0  0  0
  -29.9846  -11.7866   17.7587 H   0  0  0  0  0  0
  -29.5003  -13.4562   17.5996 H   0  0  0  0  0  0
  -28.1396  -11.2662   19.1935 H   0  0  0  0  0  0
  -27.4436  -12.2128   17.8968 H   0  0  0  0  0  0
  -27.4554  -14.1843   19.2292 H   0  0  0  0  0  0
  -28.8863  -12.6786   21.4829 H   0  0  0  0  0  0
  -28.2070  -14.2678   21.6471 H   0  0  0  0  0  0
  -25.2756   -9.5651   22.4807 H   0  0  0  0  0  0
  -24.0001   -7.4602   22.7485 H   0  0  0  0  0  0
  -21.0860   -8.8763   19.8948 H   0  0  0  0  0  0
  -22.3724  -10.9654   19.6194 H   0  0  0  0  0  0
  -21.1983   -7.6152   23.9717 H   0  0  0  0  0  0
  -21.1477   -6.0530   25.9086 H   0  0  0  0  0  0
  -22.0598   -2.7610   23.2852 H   0  0  0  0  0  0
  -22.4020  -11.9840   22.4865 H   0  0  0  0  0  0
  -21.0970  -13.1129   22.2686 H   0  0  0  0  0  0
  -24.5875  -15.8176   20.5280 H   0  0  0  0  0  0
  -26.2190  -15.6549   20.1089 H   0  0  0  0  0  0
  -26.7476  -32.4974   23.0769 H   0  0  0  0  0  0
  -25.0100  -33.9354   25.0065 H   0  0  0  0  0  0
  -22.8244  -31.2122   21.3068 H   0  0  0  0  0  0
  -23.3756  -35.9499   23.3271 H   0  0  0  0  0  0
  -24.3551  -36.8850   22.2063 H   0  0  0  0  0  0
  -23.7333  -37.6333   23.6759 H   0  0  0  0  0  0
  -26.2845  -31.2758   20.6196 H   0  0  0  0  0  0
  -26.9254  -30.6055   22.0786 H   0  0  0  0  0  0
  -28.1603  -28.4350   21.3118 H   0  0  0  0  0  0
  -25.8959  -25.6570   18.9635 H   0  0  0  0  0  0
  -24.0493  -27.2086   18.9154 H   0  0  0  0  0  0
  -23.9579  -30.4417   19.3742 H   0  0  0  0  0  0
  -22.8784  -29.1487   19.8059 H   0  0  0  0  0  0
  -25.1374  -36.1550   25.0757 H   0  0  0  0  0  0
  -21.0031  -28.3259   24.1356 H   0  0  0  0  0  0
  -20.5661  -26.2306   23.3750 H   0  0  0  0  0  0
  -21.6656  -26.7209   22.1341 H   0  0  0  0  0  0
  -19.6748  -27.2978   20.6818 H   0  0  0  0  0  0
  -19.6913  -25.6126   21.1451 H   0  0  0  0  0  0
  -17.4262  -26.6618   21.4068 H   0  0  0  0  0  0
  -18.0316  -26.0028   22.9121 H   0  0  0  0  0  0
  -19.8060  -30.7245   24.2223 H   0  0  0  0  0  0
  -17.5152  -31.6309   24.5077 H   0  0  0  0  0  0
  -15.5430  -30.3033   23.7701 H   0  0  0  0  0  0
  -15.8718  -28.0784   22.7290 H   0  0  0  0  0  0
  -24.5868  -30.7126   25.7602 H   0  0  0  0  0  0
  -24.8906  -32.3021   26.4540 H   0  0  0  0  0  0
  -25.7895  -30.9054   27.0170 H   0  0  0  0  0  0
  -26.3231  -29.6422   24.1514 H   0  0  0  0  0  0
  -27.4010  -29.7234   25.5208 H   0  0  0  0  0  0
  -27.9195  -30.3943   23.9986 H   0  0  0  0  0  0
  -27.2489  -33.3697   26.1862 H   0  0  0  0  0  0
  -28.3923  -32.6857   25.0391 H   0  0  0  0  0  0
  -28.0574  -31.8638   26.5568 H   0  0  0  0  0  0
  -28.2539  -38.0062   24.7456 H   0  0  0  0  0  0
  -28.1092  -36.2561   24.6357 H   0  0  0  0  0  0
  -27.2265  -37.1439   25.8889 H   0  0  0  0  0  0
  -20.9726  -29.8588   21.6656 H   0  0  0  0  0  0
  -26.0059  -38.2656   24.1410 H   0  0  0  0  0  0
  -26.8793  -20.2346   22.1242 H   0  0  0  0  0  0
  -25.7327  -21.3248   21.3482 H   0  0  0  0  0  0
  -26.1669  -21.5763   23.0131 H   0  0  0  0  0  0
  -27.0806  -21.3830   16.9708 H   0  0  0  0  0  0
  -28.4983  -20.6542   17.6708 H   0  0  0  0  0  0
  -28.4435  -22.3946   17.3903 H   0  0  0  0  0  0
  -25.8189  -23.2653   19.9153 H   0  0  0  0  0  0
  -25.2510  -22.4089   18.4831 H   0  0  0  0  0  0
  -26.4677  -23.6184   18.3100 H   0  0  0  0  0  0
  -27.8062  -16.3893   21.3309 H   0  0  0  0  0  0
  -27.7763  -16.2549   19.5463 H   0  0  0  0  0  0
  -27.6652  -17.8053   20.3255 H   0  0  0  0  0  0
  -28.5475  -22.0954   22.3709 H   0  0  0  0  0  0
  -27.3607  -23.2177   21.7968 H   0  0  0  0  0  0
  -30.1310  -20.8760   20.7023 H   0  0  0  0  0  0
  -28.4818  -20.0855   20.6991 H   0  0  0  0  0  0
  -29.8137  -18.6622   21.6849 H   0  0  0  0  0  0
  -30.9318  -18.6699   20.3866 H   0  0  0  0  0  0
  -28.8233  -24.0103   18.8350 H   0  0  0  0  0  0
  -29.6751  -23.9876   20.2802 H   0  0  0  0  0  0
  -26.7513  -20.8291   19.3932 H   0  0  0  0  0  0
  1 25  1  0  0  0
  1 30  2  0  0  0
  1 81  1  0  0  0
  2  3  1  0  0  0
  2 25  1  0  0  0
  2 82  1  0  0  0
  2 83  1  0  0  0
  3  4  1  0  0  0
  3 84  1  0  0  0
  3 85  1  0  0  0
  4  5  1  0  0  0
  4 86  1  0  0  0
  4 87  1  0  0  0
  5  6  1  0  0  0
  5 26  1  0  0  0
  5 88  1  0  0  0
  6 25  1  0  0  0
  6 89  1  0  0  0
  6 90  1  0  0  0
  7  8  2  0  0  0
  7 26  1  0  0  0
  7 29  1  0  0  0
  8  9  1  0  0  0
  8 22  1  0  0  0
  9 10  1  0  0  0
  9 27  2  0  0  0
 10 11  2  0  0  0
 10 15  1  0  0  0
 11 12  1  0  0  0
 11 91  1  0  0  0
 12 13  2  0  0  0
 12 92  1  0  0  0
 13 14  1  0  0  0
 13 31  1  0  0  0
 14 15  2  0  0  0
 14 93  1  0  0  0
 15 94  1  0  0  0
 16 17  2  0  0  0
 16 21  1  0  0  0
 16 31  1  0  0  0
 17 18  1  0  0  0
 17 95  1  0  0  0
 18 19  2  0  0  0
 18 96  1  0  0  0
 19 20  1  0  0  0
 19 24  1  0  0  0
 20 21  2  0  0  0
 20 97  1  0  0  0
 21 23  1  0  0  0
 22 28  1  0  0  0
 22 32  2  0  0  0
 26 27  1  0  0  0
 28 98  1  0  0  0
 28 99  1  0  0  0
 29100  1  0  0  0
 29101  1  0  0  0
 33 34  1  0  0  0
 33 66  1  0  0  0
 33 70  2  0  0  0
 34 36  1  0  0  0
 34 59  1  0  0  0
 34102  1  0  0  0
 35 44  2  0  0  0
 35 45  1  0  0  0
 35 68  1  0  0  0
 36 56  1  0  0  0
 36103  1  0  0  0
 37 39  1  0  0  0
 37 47  1  0  0  0
 37 66  1  0  0  0
 37104  1  0  0  0
 38 43  2  0  0  0
 38 46  1  0  0  0
 38 47  1  0  0  0
 39 64  1  0  0  0
 39 67  2  0  0  0
 40 52  1  0  0  0
 40 53  2  0  0  0
 40 58  1  0  0  0
 41105  1  0  0  0
 41106  1  0  0  0
 41107  1  0  0  0
 41 48  1  0  0  0
 42 43  1  0  0  0
 42 66  1  0  0  0
 42108  1  0  0  0
 42109  1  0  0  0
 43 44  1  0  0  0
 44110  1  0  0  0
 45 46  2  0  0  0
 45111  1  0  0  0
 46112  1  0  0  0
 47113  1  0  0  0
 47114  1  0  0  0
 48 56  1  0  0  0
 48 65  1  0  0  0
 48115  1  0  0  0
 49 50  1  0  0  0
 49 53  1  0  0  0
 49 64  1  0  0  0
 49116  1  0  0  0
 50 51  1  0  0  0
 50117  1  0  0  0
 50118  1  0  0  0
 51 52  1  0  0  0
 51119  1  0  0  0
 51120  1  0  0  0
 52121  1  0  0  0
 52122  1  0  0  0
 53 54  1  0  0  0
 54 55  2  0  0  0
 54123  1  0  0  0
 55 57  1  0  0  0
 55124  1  0  0  0
 56 69  2  0  0  0
 57 58  2  0  0  0
 57125  1  0  0  0
 58126  1  0  0  0
 59 60  1  0  0  0
 59 61  1  0  0  0
 59 62  1  0  0  0
 60127  1  0  0  0
 60128  1  0  0  0
 60129  1  0  0  0
 61130  1  0  0  0
 61131  1  0  0  0
 61132  1  0  0  0
 62133  1  0  0  0
 62134  1  0  0  0
 62135  1  0  0  0
 63 65  1  0  0  0
 63136  1  0  0  0
 63137  1  0  0  0
 63138  1  0  0  0
 64139  1  0  0  0
 65140  1  0  0  0
 68 78  1  0  0  0
 71 75  1  0  0  0
 71141  1  0  0  0
 71142  1  0  0  0
 71143  1  0  0  0
 72144  1  0  0  0
 72145  1  0  0  0
 72146  1  0  0  0
 72 79  1  0  0  0
 73 79  1  0  0  0
 73147  1  0  0  0
 73148  1  0  0  0
 73149  1  0  0  0
 74 81  1  0  0  0
 74150  1  0  0  0
 74151  1  0  0  0
 74152  1  0  0  0
 75153  1  0  0  0
 75154  1  0  0  0
 75 80  1  0  0  0
 76 77  1  0  0  0
 76 80  1  0  0  0
 76155  1  0  0  0
 76156  1  0  0  0
 77 81  1  0  0  0
 77157  1  0  0  0
 77158  1  0  0  0
 78 80  1  0  0  0
 78159  1  0  0  0
 78160  1  0  0  0
 79 80  1  0  0  0
 79161  1  0  0  0
M  ISO  4   1 100  68 101  78 101  81 100
M  END
> <chiral flag>
0

> <version>
0

> <s_m_source_file>
/data/baiqing/PycharmProjects/Reinvent-master-3.2/result/LINK_invent/BTK/process_docking_weight1_custom_sum_contain_oxygen_bond_distance_aromatic_linkinvent_7_9_3/rearranged_h_0103.sdf

> <i_m_source_file_index>
1

> <r_mmod_Potential_Energy-OPLS-2005>
2845.99877929688

> <r_mmod_Stretch_Energy-OPLS-2005>
1109.8232421875

> <r_mmod_Bend_Energy-OPLS-2005>
979.137756347656

> <r_mmod_Torsional_Energy-OPLS-2005>
314.814758300781

> <r_mmod_Improper_Torsional_Energy-OPLS-2005>
4.66532945632935

> <r_mmod_Van_der_Waal_Energy-OPLS-2005>
127.114807128906

> <r_mmod_Electrostatic_Energy-OPLS-2005>
-274.566436767578

> <r_mmod_Solvation_Energy-OPLS-2005>
-198.136795043945

> <b_mmod_Minimization_Converged-OPLS-2005>
0

> <r_mmod_RMS_Derivative-OPLS-2005>
8.037917137146

$$$$
1
                    3D
 Structure written by MMmdl.
154162  0  0  1  0            999 V2000
  -30.3840  -15.4148   20.3832 C   0  0  0  0  0  0
  -30.4205  -12.9144   19.5504 C   0  0  0  0  0  0
  -29.5342  -12.6336   18.3080 C   0  0  0  0  0  0
  -28.0898  -12.3276   18.7240 C   0  0  0  0  0  0
  -27.5976  -13.2982   19.8236 C   0  0  2  0  0  0
  -28.6160  -13.5396   20.9563 C   0  0  0  0  0  0
  -25.2332  -13.8271   20.5827 C   0  0  0  0  0  0
  -24.1710  -13.0408   20.9266 C   0  0  0  0  0  0
  -24.6411  -11.6922   20.8708 C   0  0  0  0  0  0
  -23.9100  -10.4274   21.0378 C   0  0  0  0  0  0
  -24.3622   -9.4222   21.9188 C   0  0  0  0  0  0
  -23.6301   -8.2240   22.0743 C   0  0  0  0  0  0
  -22.4265   -8.0279   21.3553 C   0  0  0  0  0  0
  -21.9942   -9.0242   20.4611 C   0  0  0  0  0  0
  -22.7263  -10.2120   20.3042 C   0  0  0  0  0  0
  -21.6856   -6.0760   22.5284 C   0  0  0  0  0  0
  -21.4011   -6.5665   23.8214 C   0  0  0  0  0  0
  -21.3645   -5.6801   24.9179 C   0  0  0  0  0  0
  -21.6038   -4.3067   24.7208 C   0  0  0  0  0  0
  -21.8830   -3.8169   23.4328 C   0  0  0  0  0  0
  -21.9203   -4.6999   22.3397 C   0  0  0  0  0  0
  -22.7730  -13.5109   21.1926 C   0  0  0  0  0  0
  -22.1705   -4.2193   21.0970 F   0  0  0  0  0  0
  -21.5608   -3.4577   25.7711 F   0  0  0  0  0  0
  -29.8373  -14.0821   20.3314 N   0  0  0  0  0  0
  -26.2756  -12.9582   20.3252 N   0  0  0  0  0  0
  -25.9350  -11.6632   20.5664 N   0  0  0  0  0  0
  -22.0479  -12.7987   22.0457 N   0  0  0  0  0  0
  -25.3931  -15.2012   20.4400 N   0  0  0  0  0  0
  -31.6072  -15.3889   20.1670 O   0  0  0  0  0  0
  -21.6633   -6.8883   21.4253 O   0  0  0  0  0  0
  -22.3405  -14.5459   20.6896 O   0  0  0  0  0  0
  -24.6718  -31.8177   23.1604 C   0  0  0  0  0  0
  -25.9402  -32.4538   23.8043 C   0  0  1  0  0  0
  -27.2055  -26.8386   20.1931 C   0  0  0  0  0  0
  -25.6075  -33.8341   24.1995 N   0  0  0  0  0  0
  -23.4862  -30.4283   21.5094 C   0  0  2  0  0  0
  -24.9418  -28.8017   20.1034 C   0  0  0  0  0  0
  -22.7680  -29.4439   22.4707 C   0  0  0  0  0  0
  -18.0361  -28.1461   22.8489 C   0  0  0  0  0  0
  -24.1498  -36.7117   23.2636 C   0  0  0  0  0  0
  -26.0588  -30.5922   21.4041 C   0  0  0  0  0  0
  -26.1222  -29.1735   20.7525 C   0  0  0  0  0  0
  -27.2428  -28.2117   20.7791 C   0  0  0  0  0  0
  -26.0061  -26.6573   19.4615 C   0  0  0  0  0  0
  -24.9144  -27.5667   19.4361 C   0  0  0  0  0  0
  -23.7314  -29.7393   20.1368 C   0  0  0  0  0  0
  -25.4152  -36.2897   24.0279 C   0  0  1  0  0  0
  -20.5980  -28.3827   23.1161 C   0  0  2  0  0  0
  -20.6823  -26.9510   22.5395 C   0  0  0  0  0  0
  -19.5774  -26.6445   21.5217 C   0  0  0  0  0  0
  -18.1965  -26.8004   22.1646 C   0  0  0  0  0  0
  -19.1627  -28.8964   23.2819 C   0  0  0  0  0  0
  -18.9546  -30.1548   23.8863 C   0  0  0  0  0  0
  -17.6536  -30.6642   24.0605 C   0  0  0  0  0  0
  -25.9143  -34.9313   23.4955 C   0  0  0  0  0  0
  -16.5422  -29.9134   23.6372 C   0  0  0  0  0  0
  -16.7344  -28.6560   23.0374 C   0  0  0  0  0  0
  -26.4639  -31.6464   25.0560 C   0  0  0  0  0  0
  -25.3729  -31.3730   26.1175 C   0  0  0  0  0  0
  -27.0590  -30.2855   24.6297 C   0  0  0  0  0  0
  -27.6145  -32.4260   25.7382 C   0  0  0  0  0  0
  -27.5564  -37.1714   24.8491 C   0  0  0  0  0  0
  -21.4339  -29.3086   22.3461 N   0  0  0  0  0  0
  -26.4263  -37.3678   23.9440 N   0  0  0  0  0  0
  -24.7608  -30.9756   22.0780 N   0  0  0  0  0  0
  -23.4215  -28.8032   23.2981 O   0  0  0  0  0  0
  -28.1583  -25.6682   20.3556 O   0  0  0  0  0  0
  -26.5725  -34.8898   22.4536 O   0  0  0  0  0  0
  -23.5775  -32.1217   23.6657 O   0  0  0  0  0  0
  -28.0880  -20.4892   21.4466 C   0  0  0  0  0  0
  -29.2090  -21.3679   19.8813 C   0  0  0  0  0  0
  -29.0852  -20.0284   20.4971 C   0  0  0  0  0  0
  -27.6976  -21.8509   21.3588 C   0  0  0  0  0  0
  -26.8105  -22.4688   23.6735 C   0  0  0  0  0  0
  -25.1882  -22.0901   21.7688 C   0  0  0  0  0  0
  -29.9193  -18.4101   20.3256 C   0  0  0  0  0  0
  -28.0311  -24.1409   19.7411 C   0  0  0  0  0  0
  -26.6102  -22.5554   22.1476 C   0  0  0  0  0  0
  -28.3885  -22.5640   20.3520 N   0  0  0  0  0  0
  -29.6274  -16.7286   20.4843 N   0  0  0  0  0  0
  -31.4428  -13.1228   19.2204 H   0  0  0  0  0  0
  -30.4928  -12.0268   20.1766 H   0  0  0  0  0  0
  -29.9318  -11.8128   17.7112 H   0  0  0  0  0  0
  -29.5447  -13.5114   17.6584 H   0  0  0  0  0  0
  -28.0543  -11.3027   19.0926 H   0  0  0  0  0  0
  -27.4252  -12.3790   17.8638 H   0  0  0  0  0  0
  -27.4820  -14.2503   19.2987 H   0  0  0  0  0  0
  -28.7913  -12.6316   21.5347 H   0  0  0  0  0  0
  -28.2145  -14.2742   21.6572 H   0  0  0  0  0  0
  -25.2787   -9.5706   22.4743 H   0  0  0  0  0  0
  -24.0058   -7.4627   22.7440 H   0  0  0  0  0  0
  -21.0946   -8.8731   19.8848 H   0  0  0  0  0  0
  -22.3777  -10.9652   19.6128 H   0  0  0  0  0  0
  -21.2013   -7.6195   23.9710 H   0  0  0  0  0  0
  -21.1447   -6.0568   25.9089 H   0  0  0  0  0  0
  -22.0610   -2.7635   23.2798 H   0  0  0  0  0  0
  -22.4233  -11.9644   22.4732 H   0  0  0  0  0  0
  -21.1090  -13.0875   22.2706 H   0  0  0  0  0  0
  -24.6113  -15.8357   20.5516 H   0  0  0  0  0  0
  -26.2186  -15.6579   20.0785 H   0  0  0  0  0  0
  -26.7422  -32.5075   23.0692 H   0  0  0  0  0  0
  -25.0244  -33.9371   25.0172 H   0  0  0  0  0  0
  -22.8046  -31.2658   21.3318 H   0  0  0  0  0  0
  -23.3809  -35.9396   23.3242 H   0  0  0  0  0  0
  -24.3570  -36.8823   22.2059 H   0  0  0  0  0  0
  -23.7224  -37.6268   23.6739 H   0  0  0  0  0  0
  -26.2402  -31.3269   20.6182 H   0  0  0  0  0  0
  -26.9196  -30.6646   22.0554 H   0  0  0  0  0  0
  -28.1232  -28.4918   21.3390 H   0  0  0  0  0  0
  -25.8507  -25.7281   18.9374 H   0  0  0  0  0  0
  -24.0225  -27.2823   18.8934 H   0  0  0  0  0  0
  -23.8940  -30.5053   19.3777 H   0  0  0  0  0  0
  -22.8394  -29.1971   19.8191 H   0  0  0  0  0  0
  -25.1352  -36.1619   25.0760 H   0  0  0  0  0  0
  -21.0113  -28.3475   24.1268 H   0  0  0  0  0  0
  -20.5725  -26.2459   23.3646 H   0  0  0  0  0  0
  -21.6677  -26.7462   22.1210 H   0  0  0  0  0  0
  -19.6936  -25.6346   21.1257 H   0  0  0  0  0  0
  -19.6697  -27.3253   20.6725 H   0  0  0  0  0  0
  -17.4235  -26.6801   21.4037 H   0  0  0  0  0  0
  -18.0356  -26.0141   22.9024 H   0  0  0  0  0  0
  -19.8011  -30.7392   24.2188 H   0  0  0  0  0  0
  -17.5090  -31.6308   24.5250 H   0  0  0  0  0  0
  -15.5430  -30.3048   23.7680 H   0  0  0  0  0  0
  -15.8747  -28.0875   22.7085 H   0  0  0  0  0  0
  -24.5974  -30.7026   25.7431 H   0  0  0  0  0  0
  -24.8844  -32.2937   26.4360 H   0  0  0  0  0  0
  -25.7913  -30.9027   27.0073 H   0  0  0  0  0  0
  -26.3296  -29.6493   24.1253 H   0  0  0  0  0  0
  -27.4141  -29.7225   25.4929 H   0  0  0  0  0  0
  -27.9204  -30.4082   23.9734 H   0  0  0  0  0  0
  -27.2783  -33.3681   26.1718 H   0  0  0  0  0  0
  -28.4085  -32.6588   25.0271 H   0  0  0  0  0  0
  -28.0639  -31.8492   26.5471 H   0  0  0  0  0  0
  -28.2532  -38.0047   24.7576 H   0  0  0  0  0  0
  -28.1102  -36.2579   24.6280 H   0  0  0  0  0  0
  -27.2267  -37.1303   25.8884 H   0  0  0  0  0  0
  -20.9610  -29.8779   21.6587 H   0  0  0  0  0  0
  -26.0068  -38.2697   24.1537 H   0  0  0  0  0  0
  -27.6508  -19.8269   22.1865 H   0  0  0  0  0  0
  -29.8579  -21.5866   19.0412 H   0  0  0  0  0  0
  -27.7735  -22.8876   23.9650 H   0  0  0  0  0  0
  -26.7605  -21.4444   24.0440 H   0  0  0  0  0  0
  -26.0409  -23.0421   24.1975 H   0  0  0  0  0  0
  -24.9922  -22.2165   20.7053 H   0  0  0  0  0  0
  -24.4321  -22.6757   22.2979 H   0  0  0  0  0  0
  -25.0205  -21.0390   22.0164 H   0  0  0  0  0  0
  -30.7585  -18.5418   21.0091 H   0  0  0  0  0  0
  -30.3938  -18.4796   19.3458 H   0  0  0  0  0  0
  -26.9938  -24.0378   19.4198 H   0  0  0  0  0  0
  -28.5995  -24.2082   18.8101 H   0  0  0  0  0  0
  -26.6402  -23.6202   21.9119 H   0  0  0  0  0  0
  -28.6499  -16.5611   20.6607 H   0  0  0  0  0  0
  1 25  1  0  0  0
  1 30  2  0  0  0
  1 81  1  0  0  0
  2  3  1  0  0  0
  2 25  1  0  0  0
  2 82  1  0  0  0
  2 83  1  0  0  0
  3  4  1  0  0  0
  3 84  1  0  0  0
  3 85  1  0  0  0
  4  5  1  0  0  0
  4 86  1  0  0  0
  4 87  1  0  0  0
  5  6  1  0  0  0
  5 26  1  0  0  0
  5 88  1  0  0  0
  6 25  1  0  0  0
  6 89  1  0  0  0
  6 90  1  0  0  0
  7  8  2  0  0  0
  7 26  1  0  0  0
  7 29  1  0  0  0
  8  9  1  0  0  0
  8 22  1  0  0  0
  9 10  1  0  0  0
  9 27  2  0  0  0
 10 11  2  0  0  0
 10 15  1  0  0  0
 11 12  1  0  0  0
 11 91  1  0  0  0
 12 13  2  0  0  0
 12 92  1  0  0  0
 13 14  1  0  0  0
 13 31  1  0  0  0
 14 15  2  0  0  0
 14 93  1  0  0  0
 15 94  1  0  0  0
 16 17  2  0  0  0
 16 21  1  0  0  0
 16 31  1  0  0  0
 17 18  1  0  0  0
 17 95  1  0  0  0
 18 19  2  0  0  0
 18 96  1  0  0  0
 19 20  1  0  0  0
 19 24  1  0  0  0
 20 21  2  0  0  0
 20 97  1  0  0  0
 21 23  1  0  0  0
 22 28  1  0  0  0
 22 32  2  0  0  0
 26 27  1  0  0  0
 28 98  1  0  0  0
 28 99  1  0  0  0
 29100  1  0  0  0
 29101  1  0  0  0
 33 34  1  0  0  0
 33 66  1  0  0  0
 33 70  2  0  0  0
 34 36  1  0  0  0
 34 59  1  0  0  0
 34102  1  0  0  0
 35 44  2  0  0  0
 35 45  1  0  0  0
 35 68  1  0  0  0
 36 56  1  0  0  0
 36103  1  0  0  0
 37 39  1  0  0  0
 37 47  1  0  0  0
 37 66  1  0  0  0
 37104  1  0  0  0
 38 43  2  0  0  0
 38 46  1  0  0  0
 38 47  1  0  0  0
 39 64  1  0  0  0
 39 67  2  0  0  0
 40 52  1  0  0  0
 40 53  2  0  0  0
 40 58  1  0  0  0
 41105  1  0  0  0
 41106  1  0  0  0
 41107  1  0  0  0
 41 48  1  0  0  0
 42 43  1  0  0  0
 42 66  1  0  0  0
 42108  1  0  0  0
 42109  1  0  0  0
 43 44  1  0  0  0
 44110  1  0  0  0
 45 46  2  0  0  0
 45111  1  0  0  0
 46112  1  0  0  0
 47113  1  0  0  0
 47114  1  0  0  0
 48 56  1  0  0  0
 48 65  1  0  0  0
 48115  1  0  0  0
 49 50  1  0  0  0
 49 53  1  0  0  0
 49 64  1  0  0  0
 49116  1  0  0  0
 50 51  1  0  0  0
 50117  1  0  0  0
 50118  1  0  0  0
 51 52  1  0  0  0
 51119  1  0  0  0
 51120  1  0  0  0
 52121  1  0  0  0
 52122  1  0  0  0
 53 54  1  0  0  0
 54 55  2  0  0  0
 54123  1  0  0  0
 55 57  1  0  0  0
 55124  1  0  0  0
 56 69  2  0  0  0
 57 58  2  0  0  0
 57125  1  0  0  0
 58126  1  0  0  0
 59 60  1  0  0  0
 59 61  1  0  0  0
 59 62  1  0  0  0
 60127  1  0  0  0
 60128  1  0  0  0
 60129  1  0  0  0
 61130  1  0  0  0
 61131  1  0  0  0
 61132  1  0  0  0
 62133  1  0  0  0
 62134  1  0  0  0
 62135  1  0  0  0
 63 65  1  0  0  0
 63136  1  0  0  0
 63137  1  0  0  0
 63138  1  0  0  0
 64139  1  0  0  0
 65140  1  0  0  0
 68 78  1  0  0  0
 71 73  1  0  0  0
 71 74  2  0  0  0
 71141  1  0  0  0
 72 73  2  0  0  0
 72 80  1  0  0  0
 72142  1  0  0  0
 73 77  1  0  0  0
 74 79  1  0  0  0
 74 80  1  0  0  0
 75143  1  0  0  0
 75144  1  0  0  0
 75145  1  0  0  0
 75 79  1  0  0  0
 76 79  1  0  0  0
 76146  1  0  0  0
 76147  1  0  0  0
 76148  1  0  0  0
 77 81  1  0  0  0
 77149  1  0  0  0
 77150  1  0  0  0
 78 80  1  0  0  0
 78151  1  0  0  0
 78152  1  0  0  0
 79153  1  0  0  0
 81154  1  0  0  0
M  ISO  4   1 100  68 101  78 101  81 100
M  END
> <chiral flag>
0

> <version>
0

> <s_m_source_file>
/data/baiqing/PycharmProjects/Reinvent-master-3.2/result/LINK_invent/BTK/process_docking_weight1_custom_sum_contain_oxygen_bond_distance_aromatic_linkinvent_7_9_3/rearranged_h_0103.sdf

> <i_m_source_file_index>
2

> <r_mmod_Potential_Energy-OPLS-2005>
1571.09326171875

> <r_mmod_Stretch_Energy-OPLS-2005>
723.447570800781

> <r_mmod_Bend_Energy-OPLS-2005>
515.931945800781

> <r_mmod_Torsional_Energy-OPLS-2005>
216.386367797852

> <r_mmod_Improper_Torsional_Energy-OPLS-2005>
7.83899164199829

> <r_mmod_Van_der_Waal_Energy-OPLS-2005>
106.879035949707

> <r_mmod_Electrostatic_Energy-OPLS-2005>
-408.498901367188

> <r_mmod_Solvation_Energy-OPLS-2005>
-216.864212036133

> <b_mmod_Minimization_Converged-OPLS-2005>
0

> <r_mmod_RMS_Derivative-OPLS-2005>
6.61537456512451

$$$$
2
                    3D
 Structure written by MMmdl.
162170  0  0  1  0            999 V2000
  -30.1066  -16.3875   20.4571 C   0  0  0  0  0  0
  -30.3788  -13.6641   19.5842 C   0  0  0  0  0  0
  -29.6022  -12.8949   18.4361 C   0  0  0  0  0  0
  -28.2313  -12.3824   18.8834 C   0  0  0  0  0  0
  -27.5915  -13.4153   19.8172 C   0  0  2  0  0  0
  -28.5557  -14.0363   20.8970 C   0  0  0  0  0  0
  -25.2142  -13.8476   20.5795 C   0  0  0  0  0  0
  -24.1668  -13.0431   20.9273 C   0  0  0  0  0  0
  -24.6549  -11.6985   20.8715 C   0  0  0  0  0  0
  -23.9214  -10.4276   21.0312 C   0  0  0  0  0  0
  -24.3651   -9.4181   21.9158 C   0  0  0  0  0  0
  -23.6271   -8.2236   22.0779 C   0  0  0  0  0  0
  -22.4254   -8.0279   21.3565 C   0  0  0  0  0  0
  -21.9910   -9.0262   20.4654 C   0  0  0  0  0  0
  -22.7310  -10.2111   20.3015 C   0  0  0  0  0  0
  -21.6879   -6.0684   22.5246 C   0  0  0  0  0  0
  -21.4026   -6.5620   23.8163 C   0  0  0  0  0  0
  -21.3652   -5.6793   24.9146 C   0  0  0  0  0  0
  -21.6054   -4.3055   24.7238 C   0  0  0  0  0  0
  -21.8830   -3.8118   23.4381 C   0  0  0  0  0  0
  -21.9185   -4.6903   22.3403 C   0  0  0  0  0  0
  -22.7623  -13.5046   21.1879 C   0  0  0  0  0  0
  -22.1651   -4.2094   21.0979 F   0  0  0  0  0  0
  -21.5605   -3.4527   25.7747 F   0  0  0  0  0  0
  -29.6238  -14.9067   20.2513 N   0  0  0  0  0  0
  -26.2803  -13.0036   20.3329 N   0  0  0  0  0  0
  -25.9554  -11.6998   20.5667 N   0  0  0  0  0  0
  -22.0256  -12.8050   22.0464 N   0  0  0  0  0  0
  -25.3630  -15.2218   20.4171 N   0  0  0  0  0  0
  -31.3478  -16.1680   20.3775 O   0  0  0  0  0  0
  -21.6652   -6.8831   21.4216 O   0  0  0  0  0  0
  -22.3229  -14.5298   20.6649 O   0  0  0  0  0  0
  -24.7373  -31.7377   23.2074 C   0  0  0  0  0  0
  -25.9781  -32.4192   23.8500 C   0  0  1  0  0  0
  -27.3514  -25.9294   19.3474 C   0  0  0  0  0  0
  -25.6104  -33.8104   24.1960 N   0  0  0  0  0  0
  -23.6327  -30.3095   21.5718 C   0  0  2  0  0  0
  -25.1948  -28.5813   20.2457 C   0  0  0  0  0  0
  -22.8032  -29.3868   22.4997 C   0  0  0  0  0  0
  -18.0388  -28.1411   22.8362 C   0  0  0  0  0  0
  -24.1500  -36.6945   23.2631 C   0  0  0  0  0  0
  -26.2012  -30.0792   21.8670 C   0  0  0  0  0  0
  -26.2387  -28.5045   21.4787 C   0  0  0  0  0  0
  -27.5097  -27.1807   21.6165 C   0  0  0  0  0  0
  -26.2388  -26.6903   18.3341 C   0  0  0  0  0  0
  -25.2349  -27.7969   18.8899 C   0  0  0  0  0  0
  -24.0054  -29.5939   20.2500 C   0  0  0  0  0  0
  -25.4180  -36.2736   24.0276 C   0  0  1  0  0  0
  -20.6000  -28.3774   23.0896 C   0  0  2  0  0  0
  -20.6758  -26.9396   22.5252 C   0  0  0  0  0  0
  -19.5760  -26.6355   21.5062 C   0  0  0  0  0  0
  -18.1987  -26.7953   22.1508 C   0  0  0  0  0  0
  -19.1662  -28.8978   23.2555 C   0  0  0  0  0  0
  -18.9592  -30.1534   23.8682 C   0  0  0  0  0  0
  -17.6566  -30.6584   24.0505 C   0  0  0  0  0  0
  -25.9191  -34.9111   23.4960 C   0  0  0  0  0  0
  -16.5450  -29.9024   23.6351 C   0  0  0  0  0  0
  -16.7369  -28.6423   23.0402 C   0  0  0  0  0  0
  -26.4744  -31.6709   25.1491 C   0  0  0  0  0  0
  -25.3514  -31.4406   26.1861 C   0  0  0  0  0  0
  -27.0823  -30.2821   24.8760 C   0  0  0  0  0  0
  -27.6093  -32.4906   25.8052 C   0  0  0  0  0  0
  -27.5550  -37.1615   24.8466 C   0  0  0  0  0  0
  -21.4687  -29.2896   22.3287 N   0  0  0  0  0  0
  -26.4266  -37.3559   23.9404 N   0  0  0  0  0  0
  -24.8801  -30.7659   22.2471 N   0  0  0  0  0  0
  -23.3907  -28.7473   23.3748 O   0  0  0  0  0  0
  -26.7624  -24.8029   19.1567 O   0  0  0  0  0  0
  -26.5803  -34.8685   22.4562 O   0  0  0  0  0  0
  -23.6202  -32.1190   23.6030 O   0  0  0  0  0  0
  -26.7968  -24.8292   21.4315 C   0  0  0  0  0  0
  -27.6333  -28.0144   19.6596 C   0  0  0  0  0  0
  -25.8575  -26.1944   20.6947 C   0  0  0  0  0  0
  -28.3445  -24.1975   21.0277 C   0  0  0  0  0  0
  -29.1974  -27.1843   19.9288 C   0  0  0  0  0  0
  -29.3721  -25.5381   20.6013 C   0  0  0  0  0  0
  -30.5035  -29.2582   19.2366 C   0  0  0  0  0  0
  -29.9395  -27.3535   17.6139 C   0  0  0  0  0  0
  -28.6550  -22.1108   20.6106 C   0  0  0  0  0  0
  -25.4292  -24.9976   19.7968 C   0  0  0  0  0  0
  -29.4554  -20.0104   20.9177 C   0  0  0  0  0  0
  -30.3070  -27.7378   19.0624 C   0  0  0  0  0  0
  -30.8248  -25.1324   20.8317 C   0  0  0  0  0  0
  -29.4273  -17.9864   20.5666 N   0  0  0  0  0  0
  -30.8717  -24.1747   21.7589 F   0  0  0  0  0  0
  -31.3825  -24.6870   19.7100 F   0  0  0  0  0  0
  -31.5427  -26.1450   21.3083 F   0  0  0  0  0  0
  -31.3070  -14.0222   19.1352 H   0  0  0  0  0  0
  -30.7210  -12.9551   20.3415 H   0  0  0  0  0  0
  -30.1972  -12.0718   18.0334 H   0  0  0  0  0  0
  -29.4750  -13.5866   17.6023 H   0  0  0  0  0  0
  -28.3548  -11.4458   19.4300 H   0  0  0  0  0  0
  -27.5972  -12.1796   18.0254 H   0  0  0  0  0  0
  -27.3685  -14.2413   19.1352 H   0  0  0  0  0  0
  -28.9693  -13.2714   21.5633 H   0  0  0  0  0  0
  -27.9809  -14.7044   21.5330 H   0  0  0  0  0  0
  -25.2730   -9.5658   22.4820 H   0  0  0  0  0  0
  -23.9906   -7.4639   22.7556 H   0  0  0  0  0  0
  -21.0804   -8.8858   19.8976 H   0  0  0  0  0  0
  -22.3755  -10.9669   19.6166 H   0  0  0  0  0  0
  -21.2070   -7.6133   23.9677 H   0  0  0  0  0  0
  -21.1451   -6.0513   25.9050 H   0  0  0  0  0  0
  -22.0617   -2.7576   23.2919 H   0  0  0  0  0  0
  -22.3809  -11.9723   22.4944 H   0  0  0  0  0  0
  -21.0890  -13.1219   22.2604 H   0  0  0  0  0  0
  -24.6138  -15.8921   20.5411 H   0  0  0  0  0  0
  -26.2246  -15.6423   20.0951 H   0  0  0  0  0  0
  -26.7912  -32.4398   23.1204 H   0  0  0  0  0  0
  -25.0191  -33.9227   25.0059 H   0  0  0  0  0  0
  -23.0175  -31.1723   21.3071 H   0  0  0  0  0  0
  -23.3896  -35.9116   23.3204 H   0  0  0  0  0  0
  -24.3607  -36.8690   22.2056 H   0  0  0  0  0  0
  -23.7094  -37.6055   23.6753 H   0  0  0  0  0  0
  -26.4613  -30.5861   20.9376 H   0  0  0  0  0  0
  -27.0744  -30.3266   22.4499 H   0  0  0  0  0  0
  -28.2851  -27.0872   22.3607 H   0  0  0  0  0  0
  -26.0177  -26.2579   17.3681 H   0  0  0  0  0  0
  -24.4706  -28.0621   18.1747 H   0  0  0  0  0  0
  -24.2782  -30.3518   19.5146 H   0  0  0  0  0  0
  -23.1268  -29.0832   19.8480 H   0  0  0  0  0  0
  -25.1378  -36.1537   25.0779 H   0  0  0  0  0  0
  -20.9986  -28.3355   24.1045 H   0  0  0  0  0  0
  -20.5507  -26.2444   23.3560 H   0  0  0  0  0  0
  -21.6628  -26.7173   22.1174 H   0  0  0  0  0  0
  -19.6868  -25.6255   21.1133 H   0  0  0  0  0  0
  -19.6740  -27.3097   20.6551 H   0  0  0  0  0  0
  -17.4241  -26.6723   21.3927 H   0  0  0  0  0  0
  -18.0387  -26.0153   22.8956 H   0  0  0  0  0  0
  -19.8101  -30.7339   24.2050 H   0  0  0  0  0  0
  -17.5140  -31.6303   24.5062 H   0  0  0  0  0  0
  -15.5438  -30.2842   23.7847 H   0  0  0  0  0  0
  -15.8770  -28.0636   22.7268 H   0  0  0  0  0  0
  -24.5803  -30.7641   25.8163 H   0  0  0  0  0  0
  -24.8583  -32.3720   26.4671 H   0  0  0  0  0  0
  -25.7349  -31.0004   27.1084 H   0  0  0  0  0  0
  -26.3711  -29.5870   24.4346 H   0  0  0  0  0  0
  -27.3797  -29.8162   25.8175 H   0  0  0  0  0  0
  -28.0026  -30.3303   24.2954 H   0  0  0  0  0  0
  -27.2656  -33.4498   26.1956 H   0  0  0  0  0  0
  -28.4113  -32.7078   25.0974 H   0  0  0  0  0  0
  -28.0652  -31.9702   26.6491 H   0  0  0  0  0  0
  -28.2521  -37.9952   24.7641 H   0  0  0  0  0  0
  -28.1112  -36.2510   24.6218 H   0  0  0  0  0  0
  -27.2253  -37.1127   25.8851 H   0  0  0  0  0  0
  -21.0365  -29.8592   21.6166 H   0  0  0  0  0  0
  -26.0107  -38.2621   24.1427 H   0  0  0  0  0  0
  -26.1998  -24.0177   21.8327 H   0  0  0  0  0  0
  -27.4766  -28.9507   19.1228 H   0  0  0  0  0  0
  -30.8558  -29.4890   20.2482 H   0  0  0  0  0  0
  -29.5709  -29.8038   19.0809 H   0  0  0  0  0  0
  -31.2309  -29.6552   18.5205 H   0  0  0  0  0  0
  -29.5245  -26.3393   17.5743 H   0  0  0  0  0  0
  -30.8109  -27.3799   16.9589 H   0  0  0  0  0  0
  -29.1766  -28.0197   17.2098 H   0  0  0  0  0  0
  -29.1509  -22.2830   19.6458 H   0  0  0  0  0  0
  -27.6333  -21.8823   20.2998 H   0  0  0  0  0  0
  -24.5833  -25.2490   19.1467 H   0  0  0  0  0  0
  -25.0145  -24.0855   20.2368 H   0  0  0  0  0  0
  -29.2806  -19.9790   21.9929 H   0  0  0  0  0  0
  -30.5319  -20.2046   20.8450 H   0  0  0  0  0  0
  -31.2379  -27.2327   19.3007 H   0  0  0  0  0  0
  -28.4484  -17.7728   20.4133 H   0  0  0  0  0  0
  1 25  1  0  0  0
  1 30  2  0  0  0
  1 84  1  0  0  0
  2  3  1  0  0  0
  2 25  1  0  0  0
  2 88  1  0  0  0
  2 89  1  0  0  0
  3  4  1  0  0  0
  3 90  1  0  0  0
  3 91  1  0  0  0
  4  5  1  0  0  0
  4 92  1  0  0  0
  4 93  1  0  0  0
  5  6  1  0  0  0
  5 26  1  0  0  0
  5 94  1  0  0  0
  6 25  1  0  0  0
  6 95  1  0  0  0
  6 96  1  0  0  0
  7  8  2  0  0  0
  7 26  1  0  0  0
  7 29  1  0  0  0
  8  9  1  0  0  0
  8 22  1  0  0  0
  9 10  1  0  0  0
  9 27  2  0  0  0
 10 11  2  0  0  0
 10 15  1  0  0  0
 11 12  1  0  0  0
 11 97  1  0  0  0
 12 13  2  0  0  0
 12 98  1  0  0  0
 13 14  1  0  0  0
 13 31  1  0  0  0
 14 15  2  0  0  0
 14 99  1  0  0  0
 15100  1  0  0  0
 16 17  2  0  0  0
 16 21  1  0  0  0
 16 31  1  0  0  0
 17 18  1  0  0  0
 17101  1  0  0  0
 18 19  2  0  0  0
 18102  1  0  0  0
 19 20  1  0  0  0
 19 24  1  0  0  0
 20 21  2  0  0  0
 20103  1  0  0  0
 21 23  1  0  0  0
 22 28  1  0  0  0
 22 32  2  0  0  0
 26 27  1  0  0  0
 28104  1  0  0  0
 28105  1  0  0  0
 29106  1  0  0  0
 29107  1  0  0  0
 33 34  1  0  0  0
 33 66  1  0  0  0
 33 70  2  0  0  0
 34 36  1  0  0  0
 34 59  1  0  0  0
 34108  1  0  0  0
 35 44  2  0  0  0
 35 45  1  0  0  0
 35 68  1  0  0  0
 36 56  1  0  0  0
 36109  1  0  0  0
 37 39  1  0  0  0
 37 47  1  0  0  0
 37 66  1  0  0  0
 37110  1  0  0  0
 38 43  2  0  0  0
 38 46  1  0  0  0
 38 47  1  0  0  0
 39 64  1  0  0  0
 39 67  2  0  0  0
 40 52  1  0  0  0
 40 53  2  0  0  0
 40 58  1  0  0  0
 41111  1  0  0  0
 41112  1  0  0  0
 41113  1  0  0  0
 41 48  1  0  0  0
 42 43  1  0  0  0
 42 66  1  0  0  0
 42114  1  0  0  0
 42115  1  0  0  0
 43 44  1  0  0  0
 44116  1  0  0  0
 45 46  2  0  0  0
 45117  1  0  0  0
 46118  1  0  0  0
 47119  1  0  0  0
 47120  1  0  0  0
 48 56  1  0  0  0
 48 65  1  0  0  0
 48121  1  0  0  0
 49 50  1  0  0  0
 49 53  1  0  0  0
 49 64  1  0  0  0
 49122  1  0  0  0
 50 51  1  0  0  0
 50123  1  0  0  0
 50124  1  0  0  0
 51 52  1  0  0  0
 51125  1  0  0  0
 51126  1  0  0  0
 52127  1  0  0  0
 52128  1  0  0  0
 53 54  1  0  0  0
 54 55  2  0  0  0
 54129  1  0  0  0
 55 57  1  0  0  0
 55130  1  0  0  0
 56 69  2  0  0  0
 57 58  2  0  0  0
 57131  1  0  0  0
 58132  1  0  0  0
 59 60  1  0  0  0
 59 61  1  0  0  0
 59 62  1  0  0  0
 60133  1  0  0  0
 60134  1  0  0  0
 60135  1  0  0  0
 61136  1  0  0  0
 61137  1  0  0  0
 61138  1  0  0  0
 62139  1  0  0  0
 62140  1  0  0  0
 62141  1  0  0  0
 63 65  1  0  0  0
 63142  1  0  0  0
 63143  1  0  0  0
 63144  1  0  0  0
 64145  1  0  0  0
 65146  1  0  0  0
 68 80  1  0  0  0
 71 73  2  0  0  0
 71 74  1  0  0  0
 71147  1  0  0  0
 72 73  1  0  0  0
 72 75  2  0  0  0
 72148  1  0  0  0
 73 80  1  0  0  0
 74 76  2  0  0  0
 74 79  1  0  0  0
 75 76  1  0  0  0
 75 82  1  0  0  0
 76 83  1  0  0  0
 77149  1  0  0  0
 77150  1  0  0  0
 77151  1  0  0  0
 77 82  1  0  0  0
 78 82  1  0  0  0
 78152  1  0  0  0
 78153  1  0  0  0
 78154  1  0  0  0
 79 81  1  0  0  0
 79155  1  0  0  0
 79156  1  0  0  0
 80157  1  0  0  0
 80158  1  0  0  0
 81 84  1  0  0  0
 81159  1  0  0  0
 81160  1  0  0  0
 82161  1  0  0  0
 83 85  1  0  0  0
 83 86  1  0  0  0
 83 87  1  0  0  0
 84162  1  0  0  0
M  ISO  4   1 100  68 101  80 101  84 100
M  END
> <chiral flag>
0

> <version>
0

> <s_m_source_file>
/data/baiqing/PycharmProjects/Reinvent-master-3.2/result/LINK_invent/BTK/process_docking_weight1_custom_sum_contain_oxygen_bond_distance_aromatic_linkinvent_7_9_3/rearranged_h_0103.sdf

> <i_m_source_file_index>
3

> <r_mmod_Potential_Energy-OPLS-2005>
19283.3828125

> <r_mmod_Stretch_Energy-OPLS-2005>
10737.61328125

> <r_mmod_Bend_Energy-OPLS-2005>
1346.31726074219

> <r_mmod_Torsional_Energy-OPLS-2005>
624.229614257812

> <r_mmod_Improper_Torsional_Energy-OPLS-2005>
85.5234146118164

> <r_mmod_Van_der_Waal_Energy-OPLS-2005>
3687.34741210938

> <r_mmod_Electrostatic_Energy-OPLS-2005>
-306.601928710938

> <r_mmod_Solvation_Energy-OPLS-2005>
-212.830413818359

> <b_mmod_Minimization_Converged-OPLS-2005>
0

> <r_mmod_RMS_Derivative-OPLS-2005>
19.7299938201904

$$$$
3
                    3D
 Structure written by MMmdl.
186194  0  0  1  0            999 V2000
  -30.6291  -14.6913   20.5046 C   0  0  0  0  0  0
  -30.4273  -12.4291   19.4759 C   0  0  0  0  0  0
  -29.5052  -12.5090   18.2391 C   0  0  0  0  0  0
  -28.0316  -12.3377   18.6525 C   0  0  0  0  0  0
  -27.6460  -13.2266   19.8650 C   0  0  2  0  0  0
  -28.6868  -13.1282   21.0021 C   0  0  0  0  0  0
  -25.2528  -13.8188   20.5724 C   0  0  0  0  0  0
  -24.1803  -13.0451   20.9216 C   0  0  0  0  0  0
  -24.6384  -11.6919   20.8766 C   0  0  0  0  0  0
  -23.9066  -10.4305   21.0422 C   0  0  0  0  0  0
  -24.3616   -9.4210   21.9196 C   0  0  0  0  0  0
  -23.6295   -8.2243   22.0755 C   0  0  0  0  0  0
  -22.4279   -8.0282   21.3544 C   0  0  0  0  0  0
  -21.9919   -9.0262   20.4646 C   0  0  0  0  0  0
  -22.7244  -10.2143   20.3066 C   0  0  0  0  0  0
  -21.6851   -6.0742   22.5278 C   0  0  0  0  0  0
  -21.4011   -6.5645   23.8210 C   0  0  0  0  0  0
  -21.3658   -5.6797   24.9172 C   0  0  0  0  0  0
  -21.6044   -4.3063   24.7226 C   0  0  0  0  0  0
  -21.8816   -3.8154   23.4346 C   0  0  0  0  0  0
  -21.9195   -4.6973   22.3399 C   0  0  0  0  0  0
  -22.7831  -13.5235   21.1874 C   0  0  0  0  0  0
  -22.1662   -4.2160   21.0978 F   0  0  0  0  0  0
  -21.5633   -3.4541   25.7736 F   0  0  0  0  0  0
  -29.9927  -13.4755   20.4301 N   0  0  0  0  0  0
  -26.2955  -12.9390   20.3354 N   0  0  0  0  0  0
  -25.9315  -11.6538   20.5798 N   0  0  0  0  0  0
  -22.0468  -12.8223   22.0416 N   0  0  0  0  0  0
  -25.4263  -15.1905   20.4112 N   0  0  0  0  0  0
  -31.8004  -14.7993   20.1340 O   0  0  0  0  0  0
  -21.6637   -6.8882   21.4237 O   0  0  0  0  0  0
  -22.3520  -14.5551   20.6721 O   0  0  0  0  0  0
  -24.6265  -31.8585   23.1998 C   0  0  0  0  0  0
  -25.9084  -32.4787   23.8370 C   0  0  1  0  0  0
  -27.2288  -27.2872   20.1206 C   0  0  0  0  0  0
  -25.5883  -33.8585   24.2283 N   0  0  0  0  0  0
  -23.4239  -30.4759   21.5481 C   0  0  2  0  0  0
  -24.8690  -28.9272   20.1188 C   0  0  0  0  0  0
  -22.7488  -29.4563   22.4974 C   0  0  0  0  0  0
  -18.0283  -28.1310   22.8511 C   0  0  0  0  0  0
  -24.1467  -36.7265   23.2650 C   0  0  0  0  0  0
  -25.9681  -30.7793   21.3773 C   0  0  0  0  0  0
  -26.0402  -29.4033   20.7190 C   0  0  0  0  0  0
  -27.2193  -28.5936   20.7125 C   0  0  0  0  0  0
  -26.0269  -26.8714   19.5041 C   0  0  0  0  0  0
  -24.8638  -27.6629   19.5094 C   0  0  0  0  0  0
  -23.6403  -29.8130   20.1648 C   0  0  0  0  0  0
  -25.4092  -36.3091   24.0353 C   0  0  1  0  0  0
  -20.5890  -28.3612   23.1288 C   0  0  2  0  0  0
  -20.6747  -26.9320   22.5420 C   0  0  0  0  0  0
  -19.5716  -26.6321   21.5212 C   0  0  0  0  0  0
  -18.1902  -26.7857   22.1635 C   0  0  0  0  0  0
  -19.1540  -28.8784   23.2894 C   0  0  0  0  0  0
  -18.9460  -30.1396   23.8892 C   0  0  0  0  0  0
  -17.6457  -30.6528   24.0547 C   0  0  0  0  0  0
  -25.9041  -34.9459   23.5131 C   0  0  0  0  0  0
  -16.5347  -29.9013   23.6327 C   0  0  0  0  0  0
  -16.7274  -28.6422   23.0368 C   0  0  0  0  0  0
  -26.4447  -31.6592   25.0744 C   0  0  0  0  0  0
  -25.3685  -31.3726   26.1489 C   0  0  0  0  0  0
  -27.0298  -30.3029   24.6182 C   0  0  0  0  0  0
  -27.6010  -32.4343   25.7484 C   0  0  0  0  0  0
  -27.5573  -37.1770   24.8469 C   0  0  0  0  0  0
  -21.4198  -29.2979   22.3702 N   0  0  0  0  0  0
  -26.4270  -37.3783   23.9442 N   0  0  0  0  0  0
  -24.6923  -31.0553   22.0983 N   0  0  0  0  0  0
  -23.4186  -28.8120   23.3087 O   0  0  0  0  0  0
  -28.3628  -26.4475   20.1963 O   0  0  0  0  0  0
  -26.5625  -34.8922   22.4710 O   0  0  0  0  0  0
  -23.5414  -32.1391   23.7293 O   0  0  0  0  0  0
  -28.5137  -21.0312   22.1510 C   0  0  0  0  0  0
  -29.4192  -19.7131   20.3563 C   0  0  0  0  0  0
  -28.9111  -20.9920   20.8072 C   0  0  0  0  0  0
  -28.7245  -19.9479   23.0291 C   0  0  0  0  0  0
  -29.6395  -18.5543   21.2040 C   0  0  0  0  0  0
  -29.3679  -18.7389   22.6044 C   0  0  0  0  0  0
  -28.2594  -20.1730   24.4637 C   0  0  0  0  0  0
  -29.5786  -22.2257   18.6383 C   0  0  0  0  0  0
  -29.2047  -16.4099   23.8296 C   0  0  0  0  0  0
  -34.4440  -18.0877   23.7070 C   0  0  0  0  0  0
  -33.2167  -19.5571   22.0360 C   0  0  0  0  0  0
  -30.0970  -23.9752   21.3127 C   0  0  0  0  0  0
  -32.2262  -18.8641   25.7741 C   0  0  0  0  0  0
  -30.3315  -17.2563   20.5791 C   0  0  0  0  0  0
  -28.4293  -25.0542   19.6483 C   0  0  0  0  0  0
  -28.7004  -22.2929   19.9043 C   0  0  2  0  0  0
  -29.8877  -17.7825   23.7100 C   0  0  1  0  0  0
  -33.3974  -19.2026   23.5226 C   0  0  0  0  0  0
  -28.7580  -23.7737   20.5770 C   0  0  1  0  0  0
  -32.0520  -18.9311   24.2428 C   0  0  1  0  0  0
  -29.8912  -15.8218   20.8086 N   0  0  0  0  0  0
  -31.3694  -17.7166   23.7177 N   0  3  0  0  0  0
  -31.4701  -12.5458   19.1761 H   0  0  0  0  0  0
  -30.3608  -11.4441   19.9405 H   0  0  0  0  0  0
  -29.7791  -11.7413   17.5137 H   0  0  0  0  0  0
  -29.6382  -13.4686   17.7375 H   0  0  0  0  0  0
  -27.8822  -11.2874   18.9053 H   0  0  0  0  0  0
  -27.3724  -12.5432   17.8088 H   0  0  0  0  0  0
  -27.6530  -14.2550   19.5044 H   0  0  0  0  0  0
  -28.7113  -12.1191   21.4162 H   0  0  0  0  0  0
  -28.4261  -13.7882   21.8309 H   0  0  0  0  0  0
  -25.2759   -9.5688   22.4778 H   0  0  0  0  0  0
  -24.0011   -7.4628   22.7466 H   0  0  0  0  0  0
  -21.0858   -8.8781   19.8939 H   0  0  0  0  0  0
  -22.3706  -10.9690   19.6182 H   0  0  0  0  0  0
  -21.1990   -7.6151   23.9718 H   0  0  0  0  0  0
  -21.1485   -6.0525   25.9075 H   0  0  0  0  0  0
  -22.0596   -2.7620   23.2839 H   0  0  0  0  0  0
  -22.4095  -11.9879   22.4793 H   0  0  0  0  0  0
  -21.1083  -13.1235   22.2623 H   0  0  0  0  0  0
  -24.6617  -15.8482   20.5152 H   0  0  0  0  0  0
  -26.2720  -15.6228   20.0618 H   0  0  0  0  0  0
  -26.7177  -32.5464   23.1147 H   0  0  0  0  0  0
  -25.0075  -33.9766   25.0459 H   0  0  0  0  0  0
  -22.7144  -31.2920   21.4029 H   0  0  0  0  0  0
  -23.3752  -35.9572   23.3321 H   0  0  0  0  0  0
  -24.3593  -36.8867   22.2068 H   0  0  0  0  0  0
  -23.7169  -37.6449   23.6658 H   0  0  0  0  0  0
  -26.1035  -31.5431   20.6094 H   0  0  0  0  0  0
  -26.8455  -30.8335   22.0095 H   0  0  0  0  0  0
  -28.1178  -28.9519   21.1946 H   0  0  0  0  0  0
  -25.9247  -25.9107   19.0314 H   0  0  0  0  0  0
  -23.9636  -27.2724   19.0527 H   0  0  0  0  0  0
  -23.7699  -30.5924   19.4132 H   0  0  0  0  0  0
  -22.7556  -29.2510   19.8626 H   0  0  0  0  0  0
  -25.1248  -36.1974   25.0843 H   0  0  0  0  0  0
  -21.0008  -28.3170   24.1393 H   0  0  0  0  0  0
  -20.5594  -26.2208   23.3623 H   0  0  0  0  0  0
  -21.6611  -26.7286   22.1228 H   0  0  0  0  0  0
  -19.6859  -25.6238   21.1208 H   0  0  0  0  0  0
  -19.6650  -27.3161   20.6764 H   0  0  0  0  0  0
  -17.4168  -26.6644   21.4033 H   0  0  0  0  0  0
  -18.0279  -25.9965   22.8999 H   0  0  0  0  0  0
  -19.7940  -30.7218   24.2227 H   0  0  0  0  0  0
  -17.5005  -31.6231   24.5102 H   0  0  0  0  0  0
  -15.5336  -30.2909   23.7621 H   0  0  0  0  0  0
  -15.8684  -28.0737   22.7062 H   0  0  0  0  0  0
  -24.5887  -30.7016   25.7862 H   0  0  0  0  0  0
  -24.8818  -32.2874   26.4879 H   0  0  0  0  0  0
  -25.8024  -30.8974   27.0296 H   0  0  0  0  0  0
  -26.2887  -29.6790   24.1169 H   0  0  0  0  0  0
  -27.3987  -29.7266   25.4667 H   0  0  0  0  0  0
  -27.8742  -30.4338   23.9412 H   0  0  0  0  0  0
  -27.2633  -33.3684   26.1984 H   0  0  0  0  0  0
  -28.3810  -32.6848   25.0278 H   0  0  0  0  0  0
  -28.0672  -31.8525   26.5438 H   0  0  0  0  0  0
  -28.2553  -38.0100   24.7592 H   0  0  0  0  0  0
  -28.1105  -36.2642   24.6199 H   0  0  0  0  0  0
  -27.2340  -37.1316   25.8883 H   0  0  0  0  0  0
  -20.9325  -29.8797   21.7034 H   0  0  0  0  0  0
  -26.0161  -38.2854   24.1487 H   0  0  0  0  0  0
  -28.0608  -21.9325   22.5378 H   0  0  0  0  0  0
  -29.6879  -19.6180   19.3154 H   0  0  0  0  0  0
  -27.5615  -21.0081   24.5326 H   0  0  0  0  0  0
  -29.1027  -20.4040   25.1157 H   0  0  0  0  0  0
  -27.7315  -19.2991   24.8482 H   0  0  0  0  0  0
  -29.3308  -21.3574   18.0313 H   0  0  0  0  0  0
  -30.6373  -22.1653   18.8898 H   0  0  0  0  0  0
  -29.4401  -23.0901   17.9911 H   0  0  0  0  0  0
  -28.1416  -16.4720   23.5975 H   0  0  0  0  0  0
  -29.2824  -16.0482   24.8563 H   0  0  0  0  0  0
  -29.6569  -15.6376   23.2212 H   0  0  0  0  0  0
  -35.3693  -18.3366   23.1869 H   0  0  0  0  0  0
  -34.1010  -17.1302   23.3163 H   0  0  0  0  0  0
  -34.7038  -17.9463   24.7562 H   0  0  0  0  0  0
  -34.1343  -19.9808   21.6270 H   0  0  0  0  0  0
  -32.4274  -20.2957   21.8865 H   0  0  0  0  0  0
  -32.9802  -18.6850   21.4323 H   0  0  0  0  0  0
  -30.0921  -24.8915   21.9042 H   0  0  0  0  0  0
  -30.9297  -24.0353   20.6115 H   0  0  0  0  0  0
  -30.3173  -23.1517   21.9914 H   0  0  0  0  0  0
  -32.7373  -19.7528   26.1463 H   0  0  0  0  0  0
  -32.8126  -17.9992   26.0838 H   0  0  0  0  0  0
  -31.2695  -18.8119   26.2937 H   0  0  0  0  0  0
  -31.3832  -17.3048   20.8505 H   0  0  0  0  0  0
  -30.3340  -17.3885   19.4967 H   0  0  0  0  0  0
  -27.5661  -24.7947   19.0472 H   0  0  0  0  0  0
  -29.2341  -25.1145   18.9164 H   0  0  0  0  0  0
  -27.6701  -22.1963   19.5589 H   0  0  0  0  0  0
  -29.6687  -18.2133   24.6818 H   0  0  0  0  0  0
  -33.8119  -20.1001   23.9856 H   0  0  0  0  0  0
  -27.9689  -23.7860   21.3271 H   0  0  0  0  0  0
  -31.4236  -19.7990   24.0368 H   0  0  0  0  0  0
  -28.9244  -15.6780   21.0575 H   0  0  0  0  0  0
  -31.6698  -17.5718   22.7696 H   0  0  0  0  0  0
  -31.6672  -16.9245   24.2638 H   0  0  0  0  0  0
  1 25  1  0  0  0
  1 30  2  0  0  0
  1 91  1  0  0  0
  2  3  1  0  0  0
  2 25  1  0  0  0
  2 93  1  0  0  0
  2 94  1  0  0  0
  3  4  1  0  0  0
  3 95  1  0  0  0
  3 96  1  0  0  0
  4  5  1  0  0  0
  4 97  1  0  0  0
  4 98  1  0  0  0
  5  6  1  0  0  0
  5 26  1  0  0  0
  5 99  1  0  0  0
  6 25  1  0  0  0
  6100  1  0  0  0
  6101  1  0  0  0
  7  8  2  0  0  0
  7 26  1  0  0  0
  7 29  1  0  0  0
  8  9  1  0  0  0
  8 22  1  0  0  0
  9 10  1  0  0  0
  9 27  2  0  0  0
 10 11  2  0  0  0
 10 15  1  0  0  0
 11 12  1  0  0  0
 11102  1  0  0  0
 12 13  2  0  0  0
 12103  1  0  0  0
 13 14  1  0  0  0
 13 31  1  0  0  0
 14 15  2  0  0  0
 14104  1  0  0  0
 15105  1  0  0  0
 16 17  2  0  0  0
 16 21  1  0  0  0
 16 31  1  0  0  0
 17 18  1  0  0  0
 17106  1  0  0  0
 18 19  2  0  0  0
 18107  1  0  0  0
 19 20  1  0  0  0
 19 24  1  0  0  0
 20 21  2  0  0  0
 20108  1  0  0  0
 21 23  1  0  0  0
 22 28  1  0  0  0
 22 32  2  0  0  0
 26 27  1  0  0  0
 28109  1  0  0  0
 28110  1  0  0  0
 29111  1  0  0  0
 29112  1  0  0  0
 33 34  1  0  0  0
 33 66  1  0  0  0
 33 70  2  0  0  0
 34 36  1  0  0  0
 34 59  1  0  0  0
 34113  1  0  0  0
 35 44  2  0  0  0
 35 45  1  0  0  0
 35 68  1  0  0  0
 36 56  1  0  0  0
 36114  1  0  0  0
 37 39  1  0  0  0
 37 47  1  0  0  0
 37 66  1  0  0  0
 37115  1  0  0  0
 38 43  2  0  0  0
 38 46  1  0  0  0
 38 47  1  0  0  0
 39 64  1  0  0  0
 39 67  2  0  0  0
 40 52  1  0  0  0
 40 53  2  0  0  0
 40 58  1  0  0  0
 41116  1  0  0  0
 41117  1  0  0  0
 41118  1  0  0  0
 41 48  1  0  0  0
 42 43  1  0  0  0
 42 66  1  0  0  0
 42119  1  0  0  0
 42120  1  0  0  0
 43 44  1  0  0  0
 44121  1  0  0  0
 45 46  2  0  0  0
 45122  1  0  0  0
 46123  1  0  0  0
 47124  1  0  0  0
 47125  1  0  0  0
 48 56  1  0  0  0
 48 65  1  0  0  0
 48126  1  0  0  0
 49 50  1  0  0  0
 49 53  1  0  0  0
 49 64  1  0  0  0
 49127  1  0  0  0
 50 51  1  0  0  0
 50128  1  0  0  0
 50129  1  0  0  0
 51 52  1  0  0  0
 51130  1  0  0  0
 51131  1  0  0  0
 52132  1  0  0  0
 52133  1  0  0  0
 53 54  1  0  0  0
 54 55  2  0  0  0
 54134  1  0  0  0
 55 57  1  0  0  0
 55135  1  0  0  0
 56 69  2  0  0  0
 57 58  2  0  0  0
 57136  1  0  0  0
 58137  1  0  0  0
 59 60  1  0  0  0
 59 61  1  0  0  0
 59 62  1  0  0  0
 60138  1  0  0  0
 60139  1  0  0  0
 60140  1  0  0  0
 61141  1  0  0  0
 61142  1  0  0  0
 61143  1  0  0  0
 62144  1  0  0  0
 62145  1  0  0  0
 62146  1  0  0  0
 63 65  1  0  0  0
 63147  1  0  0  0
 63148  1  0  0  0
 63149  1  0  0  0
 64150  1  0  0  0
 65151  1  0  0  0
 68 85  1  0  0  0
 71 73  2  0  0  0
 71 74  1  0  0  0
 71152  1  0  0  0
 72 73  1  0  0  0
 72 75  2  0  0  0
 72153  1  0  0  0
 73 86  1  0  0  0
 74 76  2  0  0  0
 74 77  1  0  0  0
 75 76  1  0  0  0
 75 84  1  0  0  0
 76 87  1  0  0  0
 77154  1  0  0  0
 77155  1  0  0  0
 77156  1  0  0  0
 78157  1  0  0  0
 78158  1  0  0  0
 78159  1  0  0  0
 78 86  1  0  0  0
 79160  1  0  0  0
 79161  1  0  0  0
 79162  1  0  0  0
 79 87  1  0  0  0
 80163  1  0  0  0
 80164  1  0  0  0
 80165  1  0  0  0
 80 88  1  0  0  0
 81 88  1  0  0  0
 81166  1  0  0  0
 81167  1  0  0  0
 81168  1  0  0  0
 82169  1  0  0  0
 82170  1  0  0  0
 82171  1  0  0  0
 82 89  1  0  0  0
 83172  1  0  0  0
 83173  1  0  0  0
 83174  1  0  0  0
 83 90  1  0  0  0
 84 91  1  0  0  0
 84175  1  0  0  0
 84176  1  0  0  0
 85 89  1  0  0  0
 85177  1  0  0  0
 85178  1  0  0  0
 86 89  1  0  0  0
 86179  1  0  0  0
 87 92  1  0  0  0
 87180  1  0  0  0
 88 90  1  0  0  0
 88181  1  0  0  0
 89182  1  0  0  0
 90 92  1  0  0  0
 90183  1  0  0  0
 91184  1  0  0  0
 92185  1  0  0  0
 92186  1  0  0  0
M  CHG  1  92   1
M  ISO  4   1 100  68 101  85 101  91 100
M  END
> <chiral flag>
0

> <version>
0

> <s_m_source_file>
/data/baiqing/PycharmProjects/Reinvent-master-3.2/result/LINK_invent/BTK/process_docking_weight1_custom_sum_contain_oxygen_bond_distance_aromatic_linkinvent_7_9_3/rearranged_h_0103.sdf

> <i_m_source_file_index>
4

> <r_mmod_Potential_Energy-OPLS-2005>
-8.35740756988525

> <r_mmod_Stretch_Energy-OPLS-2005>
123.005508422852

> <r_mmod_Bend_Energy-OPLS-2005>
196.636749267578

> <r_mmod_Torsional_Energy-OPLS-2005>
248.589294433594

> <r_mmod_Improper_Torsional_Energy-OPLS-2005>
6.06866264343262

> <r_mmod_Van_der_Waal_Energy-OPLS-2005>
142.197601318359

> <r_mmod_Electrostatic_Energy-OPLS-2005>
-379.139862060547

> <r_mmod_Solvation_Energy-OPLS-2005>
-409.572692871094

> <b_mmod_Minimization_Converged-OPLS-2005>
0

> <r_mmod_RMS_Derivative-OPLS-2005>
2.81789541244507

$$$$
4
                    3D
 Structure written by MMmdl.
169177  0  0  1  0            999 V2000
  -30.6258  -14.7395   20.5287 C   0  0  0  0  0  0
  -30.4366  -12.4749   19.4631 C   0  0  0  0  0  0
  -29.5089  -12.5327   18.2284 C   0  0  0  0  0  0
  -28.0317  -12.3527   18.6338 C   0  0  0  0  0  0
  -27.6442  -13.2245   19.8568 C   0  0  2  0  0  0
  -28.6891  -13.0770   20.9798 C   0  0  0  0  0  0
  -25.2506  -13.8194   20.5656 C   0  0  0  0  0  0
  -24.1794  -13.0443   20.9190 C   0  0  0  0  0  0
  -24.6378  -11.6917   20.8725 C   0  0  0  0  0  0
  -23.9055  -10.4306   21.0402 C   0  0  0  0  0  0
  -24.3615   -9.4228   21.9179 C   0  0  0  0  0  0
  -23.6302   -8.2260   22.0748 C   0  0  0  0  0  0
  -22.4281   -8.0296   21.3552 C   0  0  0  0  0  0
  -21.9910   -9.0257   20.4646 C   0  0  0  0  0  0
  -22.7227  -10.2145   20.3054 C   0  0  0  0  0  0
  -21.6865   -6.0747   22.5283 C   0  0  0  0  0  0
  -21.4029   -6.5638   23.8219 C   0  0  0  0  0  0
  -21.3652   -5.6782   24.9173 C   0  0  0  0  0  0
  -21.6036   -4.3047   24.7224 C   0  0  0  0  0  0
  -21.8816   -3.8151   23.4341 C   0  0  0  0  0  0
  -21.9203   -4.6977   22.3403 C   0  0  0  0  0  0
  -22.7825  -13.5246   21.1868 C   0  0  0  0  0  0
  -22.1669   -4.2164   21.0981 F   0  0  0  0  0  0
  -21.5616   -3.4522   25.7729 F   0  0  0  0  0  0
  -29.9801  -13.5148   20.4231 N   0  0  0  0  0  0
  -26.2930  -12.9380   20.3274 N   0  0  0  0  0  0
  -25.9300  -11.6519   20.5704 N   0  0  0  0  0  0
  -22.0467  -12.8239   22.0430 N   0  0  0  0  0  0
  -25.4189  -15.1910   20.4062 N   0  0  0  0  0  0
  -31.7919  -14.8132   20.1233 O   0  0  0  0  0  0
  -21.6642   -6.8896   21.4251 O   0  0  0  0  0  0
  -22.3503  -14.5543   20.6712 O   0  0  0  0  0  0
  -24.6292  -31.8554   23.1970 C   0  0  0  0  0  0
  -25.9117  -32.4758   23.8319 C   0  0  1  0  0  0
  -27.2184  -27.2697   20.1382 C   0  0  0  0  0  0
  -25.5919  -33.8560   24.2244 N   0  0  0  0  0  0
  -23.4254  -30.4757   21.5410 C   0  0  2  0  0  0
  -24.8730  -28.9165   20.1150 C   0  0  0  0  0  0
  -22.7485  -29.4614   22.4932 C   0  0  0  0  0  0
  -18.0288  -28.1388   22.8485 C   0  0  0  0  0  0
  -24.1489  -36.7287   23.2642 C   0  0  0  0  0  0
  -25.9692  -30.7706   21.3739 C   0  0  0  0  0  0
  -26.0438  -29.3908   20.7214 C   0  0  0  0  0  0
  -27.2230  -28.5810   20.7181 C   0  0  0  0  0  0
  -26.0283  -26.8523   19.5096 C   0  0  0  0  0  0
  -24.8693  -27.6553   19.4958 C   0  0  0  0  0  0
  -23.6432  -29.8047   20.1586 C   0  0  0  0  0  0
  -25.4121  -36.3075   24.0328 C   0  0  1  0  0  0
  -20.5890  -28.3698   23.1274 C   0  0  2  0  0  0
  -20.6782  -26.9416   22.5394 C   0  0  0  0  0  0
  -19.5745  -26.6368   21.5214 C   0  0  0  0  0  0
  -18.1927  -26.7923   22.1629 C   0  0  0  0  0  0
  -19.1539  -28.8866   23.2880 C   0  0  0  0  0  0
  -18.9454  -30.1470   23.8901 C   0  0  0  0  0  0
  -17.6445  -30.6591   24.0570 C   0  0  0  0  0  0
  -25.9061  -34.9445   23.5094 C   0  0  0  0  0  0
  -16.5344  -29.9079   23.6331 C   0  0  0  0  0  0
  -16.7273  -28.6499   23.0350 C   0  0  0  0  0  0
  -26.4498  -31.6575   25.0704 C   0  0  0  0  0  0
  -25.3721  -31.3713   26.1420 C   0  0  0  0  0  0
  -27.0345  -30.2991   24.6186 C   0  0  0  0  0  0
  -27.6059  -32.4319   25.7469 C   0  0  0  0  0  0
  -27.5579  -37.1798   24.8468 C   0  0  0  0  0  0
  -21.4199  -29.3042   22.3677 N   0  0  0  0  0  0
  -26.4295  -37.3766   23.9410 N   0  0  0  0  0  0
  -24.6936  -31.0523   22.0938 N   0  0  0  0  0  0
  -23.4192  -28.8177   23.3045 O   0  0  0  0  0  0
  -28.3191  -26.3906   20.1328 O   0  0  0  0  0  0
  -26.5636  -34.8924   22.4666 O   0  0  0  0  0  0
  -23.5439  -32.1376   23.7264 O   0  0  0  0  0  0
  -28.2233  -18.7927   20.0069 C   0  0  0  0  0  0
  -29.9569  -19.9661   20.6786 C   0  0  0  0  0  0
  -29.5904  -18.6485   20.3830 C   0  0  0  0  0  0
  -27.8125  -20.1045   20.1295 C   0  0  0  0  0  0
  -23.2021  -19.8140   22.0279 C   0  0  0  0  0  0
  -23.5410  -21.7711   20.4604 C   0  0  0  0  0  0
  -28.9868  -16.0326   21.9221 C   0  0  0  0  0  0
  -30.4639  -17.3096   20.4019 C   0  0  0  0  0  0
  -26.4238  -20.6333   19.9494 C   0  0  0  0  0  0
  -25.5224  -20.3052   21.1519 C   0  0  0  0  0  0
  -28.6105  -23.6369   20.0454 C   0  0  0  0  0  0
  -28.8328  -22.3559   21.0142 C   0  0  0  0  0  0
  -28.1667  -25.0316   20.7484 C   0  0  0  0  0  0
  -24.0139  -20.3607   20.8451 C   0  0  0  0  0  0
  -28.8833  -20.8914   20.5548 N   0  0  0  0  0  0
  -29.9262  -15.9291   20.7994 N   0  0  0  0  0  0
  -31.4728  -12.6165   19.1524 H   0  0  0  0  0  0
  -30.4087  -11.4850   19.9221 H   0  0  0  0  0  0
  -29.7956  -11.7699   17.5034 H   0  0  0  0  0  0
  -29.6311  -13.4930   17.7255 H   0  0  0  0  0  0
  -27.8804  -11.2998   18.8694 H   0  0  0  0  0  0
  -27.3782  -12.5697   17.7887 H   0  0  0  0  0  0
  -27.6595  -14.2604   19.5173 H   0  0  0  0  0  0
  -28.7467  -12.0335   21.2935 H   0  0  0  0  0  0
  -28.3894  -13.6027   21.8790 H   0  0  0  0  0  0
  -25.2761   -9.5708   22.4744 H   0  0  0  0  0  0
  -24.0014   -7.4654   22.7454 H   0  0  0  0  0  0
  -21.0844   -8.8767   19.8955 H   0  0  0  0  0  0
  -22.3678  -10.9676   19.6158 H   0  0  0  0  0  0
  -21.2026   -7.6148   23.9734 H   0  0  0  0  0  0
  -21.1473   -6.0506   25.9077 H   0  0  0  0  0  0
  -22.0608   -2.7618   23.2828 H   0  0  0  0  0  0
  -22.4063  -11.9893   22.4819 H   0  0  0  0  0  0
  -21.1088  -13.1276   22.2630 H   0  0  0  0  0  0
  -24.6542  -15.8456   20.5260 H   0  0  0  0  0  0
  -26.2734  -15.6328   20.0922 H   0  0  0  0  0  0
  -26.7196  -32.5418   23.1066 H   0  0  0  0  0  0
  -25.0055  -33.9705   25.0378 H   0  0  0  0  0  0
  -22.7205  -31.2965   21.3930 H   0  0  0  0  0  0
  -23.3757  -35.9611   23.3300 H   0  0  0  0  0  0
  -24.3579  -36.8907   22.2057 H   0  0  0  0  0  0
  -23.7235  -37.6486   23.6668 H   0  0  0  0  0  0
  -26.1049  -31.5293   20.6019 H   0  0  0  0  0  0
  -26.8481  -30.8237   22.0043 H   0  0  0  0  0  0
  -28.1234  -28.9420   21.1949 H   0  0  0  0  0  0
  -25.9908  -25.8822   19.0344 H   0  0  0  0  0  0
  -23.9736  -27.2871   19.0143 H   0  0  0  0  0  0
  -23.7686  -30.5791   19.4004 H   0  0  0  0  0  0
  -22.7617  -29.2369   19.8554 H   0  0  0  0  0  0
  -25.1297  -36.1925   25.0818 H   0  0  0  0  0  0
  -20.9971  -28.3273   24.1399 H   0  0  0  0  0  0
  -20.5701  -26.2311   23.3602 H   0  0  0  0  0  0
  -21.6645  -26.7441   22.1167 H   0  0  0  0  0  0
  -19.6895  -25.6275   21.1251 H   0  0  0  0  0  0
  -19.6649  -27.3160   20.6733 H   0  0  0  0  0  0
  -17.4200  -26.6671   21.4030 H   0  0  0  0  0  0
  -18.0316  -26.0061   22.9026 H   0  0  0  0  0  0
  -19.7934  -30.7287   24.2259 H   0  0  0  0  0  0
  -17.4985  -31.6274   24.5156 H   0  0  0  0  0  0
  -15.5340  -30.2973   23.7632 H   0  0  0  0  0  0
  -15.8674  -28.0824   22.7043 H   0  0  0  0  0  0
  -24.5917  -30.7048   25.7726 H   0  0  0  0  0  0
  -24.8899  -32.2876   26.4830 H   0  0  0  0  0  0
  -25.8035  -30.8893   27.0199 H   0  0  0  0  0  0
  -26.2923  -29.6734   24.1219 H   0  0  0  0  0  0
  -27.4032  -29.7258   25.4700 H   0  0  0  0  0  0
  -27.8794  -30.4257   23.9417 H   0  0  0  0  0  0
  -27.2677  -33.3626   26.2031 H   0  0  0  0  0  0
  -28.3865  -32.6861   25.0290 H   0  0  0  0  0  0
  -28.0734  -31.8458   26.5387 H   0  0  0  0  0  0
  -28.2594  -38.0094   24.7513 H   0  0  0  0  0  0
  -28.1076  -36.2629   24.6295 H   0  0  0  0  0  0
  -27.2305  -37.1443   25.8871 H   0  0  0  0  0  0
  -20.9381  -29.8749   21.6876 H   0  0  0  0  0  0
  -26.0178  -38.2837   24.1409 H   0  0  0  0  0  0
  -27.5716  -17.9835   19.7053 H   0  0  0  0  0  0
  -30.9147  -20.3346   21.0246 H   0  0  0  0  0  0
  -22.1363  -19.7855   21.7983 H   0  0  0  0  0  0
  -23.3366  -20.4267   22.9199 H   0  0  0  0  0  0
  -23.5038  -18.7950   22.2762 H   0  0  0  0  0  0
  -22.4731  -21.7776   20.2379 H   0  0  0  0  0  0
  -24.0519  -22.1390   19.5704 H   0  0  0  0  0  0
  -23.7173  -22.4847   21.2659 H   0  0  0  0  0  0
  -27.9689  -15.8133   21.6028 H   0  0  0  0  0  0
  -28.9728  -17.0280   22.3657 H   0  0  0  0  0  0
  -29.2634  -15.3623   22.7369 H   0  0  0  0  0  0
  -31.3262  -17.5036   21.0417 H   0  0  0  0  0  0
  -30.8753  -17.2166   19.3953 H   0  0  0  0  0  0
  -26.0028  -20.1868   19.0476 H   0  0  0  0  0  0
  -26.4287  -21.7069   19.7709 H   0  0  0  0  0  0
  -25.7779  -20.9477   21.9956 H   0  0  0  0  0  0
  -25.7508  -19.2878   21.4736 H   0  0  0  0  0  0
  -27.8710  -23.3957   19.2831 H   0  0  0  0  0  0
  -29.5389  -23.8077   19.5011 H   0  0  0  0  0  0
  -28.0371  -22.3958   21.7599 H   0  0  0  0  0  0
  -29.7407  -22.5378   21.5899 H   0  0  0  0  0  0
  -28.7524  -25.1009   21.6647 H   0  0  0  0  0  0
  -27.1407  -24.9097   21.1005 H   0  0  0  0  0  0
  -23.8238  -19.7015   19.9962 H   0  0  0  0  0  0
  1 25  1  0  0  0
  1 30  2  0  0  0
  1 86  1  0  0  0
  2  3  1  0  0  0
  2 25  1  0  0  0
  2 87  1  0  0  0
  2 88  1  0  0  0
  3  4  1  0  0  0
  3 89  1  0  0  0
  3 90  1  0  0  0
  4  5  1  0  0  0
  4 91  1  0  0  0
  4 92  1  0  0  0
  5  6  1  0  0  0
  5 26  1  0  0  0
  5 93  1  0  0  0
  6 25  1  0  0  0
  6 94  1  0  0  0
  6 95  1  0  0  0
  7  8  2  0  0  0
  7 26  1  0  0  0
  7 29  1  0  0  0
  8  9  1  0  0  0
  8 22  1  0  0  0
  9 10  1  0  0  0
  9 27  2  0  0  0
 10 11  2  0  0  0
 10 15  1  0  0  0
 11 12  1  0  0  0
 11 96  1  0  0  0
 12 13  2  0  0  0
 12 97  1  0  0  0
 13 14  1  0  0  0
 13 31  1  0  0  0
 14 15  2  0  0  0
 14 98  1  0  0  0
 15 99  1  0  0  0
 16 17  2  0  0  0
 16 21  1  0  0  0
 16 31  1  0  0  0
 17 18  1  0  0  0
 17100  1  0  0  0
 18 19  2  0  0  0
 18101  1  0  0  0
 19 20  1  0  0  0
 19 24  1  0  0  0
 20 21  2  0  0  0
 20102  1  0  0  0
 21 23  1  0  0  0
 22 28  1  0  0  0
 22 32  2  0  0  0
 26 27  1  0  0  0
 28103  1  0  0  0
 28104  1  0  0  0
 29105  1  0  0  0
 29106  1  0  0  0
 33 34  1  0  0  0
 33 66  1  0  0  0
 33 70  2  0  0  0
 34 36  1  0  0  0
 34 59  1  0  0  0
 34107  1  0  0  0
 35 44  2  0  0  0
 35 45  1  0  0  0
 35 68  1  0  0  0
 36 56  1  0  0  0
 36108  1  0  0  0
 37 39  1  0  0  0
 37 47  1  0  0  0
 37 66  1  0  0  0
 37109  1  0  0  0
 38 43  2  0  0  0
 38 46  1  0  0  0
 38 47  1  0  0  0
 39 64  1  0  0  0
 39 67  2  0  0  0
 40 52  1  0  0  0
 40 53  2  0  0  0
 40 58  1  0  0  0
 41110  1  0  0  0
 41111  1  0  0  0
 41112  1  0  0  0
 41 48  1  0  0  0
 42 43  1  0  0  0
 42 66  1  0  0  0
 42113  1  0  0  0
 42114  1  0  0  0
 43 44  1  0  0  0
 44115  1  0  0  0
 45 46  2  0  0  0
 45116  1  0  0  0
 46117  1  0  0  0
 47118  1  0  0  0
 47119  1  0  0  0
 48 56  1  0  0  0
 48 65  1  0  0  0
 48120  1  0  0  0
 49 50  1  0  0  0
 49 53  1  0  0  0
 49 64  1  0  0  0
 49121  1  0  0  0
 50 51  1  0  0  0
 50122  1  0  0  0
 50123  1  0  0  0
 51 52  1  0  0  0
 51124  1  0  0  0
 51125  1  0  0  0
 52126  1  0  0  0
 52127  1  0  0  0
 53 54  1  0  0  0
 54 55  2  0  0  0
 54128  1  0  0  0
 55 57  1  0  0  0
 55129  1  0  0  0
 56 69  2  0  0  0
 57 58  2  0  0  0
 57130  1  0  0  0
 58131  1  0  0  0
 59 60  1  0  0  0
 59 61  1  0  0  0
 59 62  1  0  0  0
 60132  1  0  0  0
 60133  1  0  0  0
 60134  1  0  0  0
 61135  1  0  0  0
 61136  1  0  0  0
 61137  1  0  0  0
 62138  1  0  0  0
 62139  1  0  0  0
 62140  1  0  0  0
 63 65  1  0  0  0
 63141  1  0  0  0
 63142  1  0  0  0
 63143  1  0  0  0
 64144  1  0  0  0
 65145  1  0  0  0
 68 83  1  0  0  0
 71 73  1  0  0  0
 71 74  2  0  0  0
 71146  1  0  0  0
 72 73  2  0  0  0
 72 85  1  0  0  0
 72147  1  0  0  0
 73 78  1  0  0  0
 74 79  1  0  0  0
 74 85  1  0  0  0
 75148  1  0  0  0
 75149  1  0  0  0
 75150  1  0  0  0
 75 84  1  0  0  0
 76 84  1  0  0  0
 76151  1  0  0  0
 76152  1  0  0  0
 76153  1  0  0  0
 77 86  1  0  0  0
 77154  1  0  0  0
 77155  1  0  0  0
 77156  1  0  0  0
 78 86  1  0  0  0
 78157  1  0  0  0
 78158  1  0  0  0
 79 80  1  0  0  0
 79159  1  0  0  0
 79160  1  0  0  0
 80 84  1  0  0  0
 80161  1  0  0  0
 80162  1  0  0  0
 81 82  1  0  0  0
 81 83  1  0  0  0
 81163  1  0  0  0
 81164  1  0  0  0
 82 85  1  0  0  0
 82165  1  0  0  0
 82166  1  0  0  0
 83167  1  0  0  0
 83168  1  0  0  0
 84169  1  0  0  0
M  ISO  4   1 100  68 101  83 101  86 100
M  END
> <chiral flag>
0

> <version>
0

> <s_m_source_file>
/data/baiqing/PycharmProjects/Reinvent-master-3.2/result/LINK_invent/BTK/process_docking_weight1_custom_sum_contain_oxygen_bond_distance_aromatic_linkinvent_7_9_3/rearranged_h_0103.sdf

> <i_m_source_file_index>
5

> <r_mmod_Potential_Energy-OPLS-2005>
281.959564208984

> <r_mmod_Stretch_Energy-OPLS-2005>
124.800987243652

> <r_mmod_Bend_Energy-OPLS-2005>
193.616561889648

> <r_mmod_Torsional_Energy-OPLS-2005>
288.518310546875

> <r_mmod_Improper_Torsional_Energy-OPLS-2005>
10.1168899536133

> <r_mmod_Van_der_Waal_Energy-OPLS-2005>
114.663528442383

> <r_mmod_Electrostatic_Energy-OPLS-2005>
-329.779083251953

> <r_mmod_Solvation_Energy-OPLS-2005>
-193.887878417969

> <b_mmod_Minimization_Converged-OPLS-2005>
0

> <r_mmod_RMS_Derivative-OPLS-2005>
1.84606325626373

$$$$
5
                    3D
 Structure written by MMmdl.
169177  0  0  1  0            999 V2000
  -30.5301  -15.0202   20.3930 C   0  0  0  0  0  0
  -30.4288  -12.6351   19.5136 C   0  0  0  0  0  0
  -29.5188  -12.5429   18.2674 C   0  0  0  0  0  0
  -28.0571  -12.3055   18.6865 C   0  0  0  0  0  0
  -27.6198  -13.2566   19.8297 C   0  0  2  0  0  0
  -28.6558  -13.3361   20.9705 C   0  0  0  0  0  0
  -25.2419  -13.8236   20.5733 C   0  0  0  0  0  0
  -24.1734  -13.0433   20.9235 C   0  0  0  0  0  0
  -24.6359  -11.6914   20.8740 C   0  0  0  0  0  0
  -23.9052  -10.4287   21.0386 C   0  0  0  0  0  0
  -24.3597   -9.4191   21.9172 C   0  0  0  0  0  0
  -23.6275   -8.2228   22.0739 C   0  0  0  0  0  0
  -22.4265   -8.0254   21.3530 C   0  0  0  0  0  0
  -21.9888   -9.0227   20.4635 C   0  0  0  0  0  0
  -22.7209  -10.2118   20.3037 C   0  0  0  0  0  0
  -21.6857   -6.0706   22.5285 C   0  0  0  0  0  0
  -21.4018   -6.5625   23.8203 C   0  0  0  0  0  0
  -21.3665   -5.6783   24.9177 C   0  0  0  0  0  0
  -21.6048   -4.3044   24.7237 C   0  0  0  0  0  0
  -21.8820   -3.8126   23.4361 C   0  0  0  0  0  0
  -21.9187   -4.6938   22.3404 C   0  0  0  0  0  0
  -22.7765  -13.5185   21.1913 C   0  0  0  0  0  0
  -22.1656   -4.2106   21.0991 F   0  0  0  0  0  0
  -21.5620   -3.4542   25.7756 F   0  0  0  0  0  0
  -29.9279  -13.7558   20.3663 N   0  0  0  0  0  0
  -26.2827  -12.9484   20.3231 N   0  0  0  0  0  0
  -25.9295  -11.6602   20.5719 N   0  0  0  0  0  0
  -22.0455  -12.8155   22.0488 N   0  0  0  0  0  0
  -25.4111  -15.1960   20.4159 N   0  0  0  0  0  0
  -31.7379  -15.0498   20.1309 O   0  0  0  0  0  0
  -21.6634   -6.8848   21.4231 O   0  0  0  0  0  0
  -22.3418  -14.5476   20.6745 O   0  0  0  0  0  0
  -24.6471  -31.8370   23.1849 C   0  0  0  0  0  0
  -25.9210  -32.4682   23.8236 C   0  0  1  0  0  0
  -27.2113  -27.0926   20.1578 C   0  0  0  0  0  0
  -25.5921  -33.8488   24.2127 N   0  0  0  0  0  0
  -23.4542  -30.4599   21.5274 C   0  0  2  0  0  0
  -24.9026  -28.8818   20.1093 C   0  0  0  0  0  0
  -22.7588  -29.4498   22.4758 C   0  0  0  0  0  0
  -18.0299  -28.1434   22.8483 C   0  0  0  0  0  0
  -24.1460  -36.7252   23.2666 C   0  0  0  0  0  0
  -26.0144  -30.7010   21.3876 C   0  0  0  0  0  0
  -26.0817  -29.3091   20.7305 C   0  0  0  0  0  0
  -27.2369  -28.4338   20.7328 C   0  0  0  0  0  0
  -26.0018  -26.7737   19.5036 C   0  0  0  0  0  0
  -24.8799  -27.6301   19.4790 C   0  0  0  0  0  0
  -23.6886  -29.7995   20.1424 C   0  0  0  0  0  0
  -25.4108  -36.3028   24.0316 C   0  0  1  0  0  0
  -20.5928  -28.3737   23.1206 C   0  0  2  0  0  0
  -20.6807  -26.9432   22.5398 C   0  0  0  0  0  0
  -19.5773  -26.6372   21.5230 C   0  0  0  0  0  0
  -18.1937  -26.7964   22.1612 C   0  0  0  0  0  0
  -19.1573  -28.8887   23.2849 C   0  0  0  0  0  0
  -18.9514  -30.1483   23.8884 C   0  0  0  0  0  0
  -17.6526  -30.6632   24.0577 C   0  0  0  0  0  0
  -25.9056  -34.9404   23.5015 C   0  0  0  0  0  0
  -16.5395  -29.9147   23.6347 C   0  0  0  0  0  0
  -16.7285  -28.6563   23.0356 C   0  0  0  0  0  0
  -26.4505  -31.6595   25.0714 C   0  0  0  0  0  0
  -25.3669  -31.3864   26.1395 C   0  0  0  0  0  0
  -27.0382  -30.2996   24.6300 C   0  0  0  0  0  0
  -27.6002  -32.4395   25.7496 C   0  0  0  0  0  0
  -27.5562  -37.1784   24.8489 C   0  0  0  0  0  0
  -21.4265  -29.3075   22.3574 N   0  0  0  0  0  0
  -26.4252  -37.3758   23.9443 N   0  0  0  0  0  0
  -24.7265  -31.0196   22.0889 N   0  0  0  0  0  0
  -23.4217  -28.7973   23.2862 O   0  0  0  0  0  0
  -28.2591  -26.0890   20.2164 O   0  0  0  0  0  0
  -26.5689  -34.8946   22.4640 O   0  0  0  0  0  0
  -23.5547  -32.1226   23.7025 O   0  0  0  0  0  0
  -29.6991  -20.5402   19.8884 C   0  0  0  0  0  0
  -29.4335  -19.2451   20.4278 C   0  0  0  0  0  0
  -28.3845  -19.5965   21.3466 C   0  0  0  0  0  0
  -28.1247  -20.9786   21.3310 C   0  0  0  0  0  0
  -27.1723  -21.7536   22.1936 C   0  0  0  0  0  0
  -31.6707  -23.3322   19.6231 C   0  0  0  0  0  0
  -28.9154  -19.3777   24.3912 C   0  0  0  0  0  0
  -27.9539  -17.0397   24.2593 C   0  0  0  0  0  0
  -27.7260  -18.5784   22.2544 C   0  0  0  0  0  0
  -30.1978  -17.7554   20.1680 C   0  0  0  0  0  0
  -30.2165  -23.5567   19.1662 C   0  0  0  0  0  0
  -27.9975  -24.5326   20.1372 C   0  0  0  0  0  0
  -28.5988  -18.1862   23.4686 C   0  0  0  0  0  0
  -29.1577  -23.2782   20.2625 C   0  0  1  0  0  0
  -28.9493  -21.6704   20.4309 N   0  0  0  0  0  0
  -29.7816  -16.2446   20.4835 N   0  0  0  0  0  0
  -31.4615  -12.7928   19.1983 H   0  0  0  0  0  0
  -30.4293  -11.6962   20.0703 H   0  0  0  0  0  0
  -29.8599  -11.7459   17.6044 H   0  0  0  0  0  0
  -29.5864  -13.4702   17.6948 H   0  0  0  0  0  0
  -27.9801  -11.2729   19.0235 H   0  0  0  0  0  0
  -27.3902  -12.4009   17.8278 H   0  0  0  0  0  0
  -27.5669  -14.2451   19.3707 H   0  0  0  0  0  0
  -28.7540  -12.3779   21.4857 H   0  0  0  0  0  0
  -28.3373  -14.0661   21.7169 H   0  0  0  0  0  0
  -25.2740   -9.5669   22.4731 H   0  0  0  0  0  0
  -23.9993   -7.4615   22.7442 H   0  0  0  0  0  0
  -21.0831   -8.8711   19.8932 H   0  0  0  0  0  0
  -22.3653  -10.9630   19.6123 H   0  0  0  0  0  0
  -21.2019   -7.6135   23.9701 H   0  0  0  0  0  0
  -21.1490   -6.0522   25.9076 H   0  0  0  0  0  0
  -22.0597   -2.7583   23.2886 H   0  0  0  0  0  0
  -22.4107  -11.9813   22.4842 H   0  0  0  0  0  0
  -21.1056  -13.1116   22.2715 H   0  0  0  0  0  0
  -24.6374  -15.8471   20.4938 H   0  0  0  0  0  0
  -26.2600  -15.6311   20.0816 H   0  0  0  0  0  0
  -26.7271  -32.5238   23.0946 H   0  0  0  0  0  0
  -25.0086  -33.9614   25.0278 H   0  0  0  0  0  0
  -22.7646  -31.2917   21.3730 H   0  0  0  0  0  0
  -23.3726  -35.9590   23.3305 H   0  0  0  0  0  0
  -24.3552  -36.8893   22.2087 H   0  0  0  0  0  0
  -23.7199  -37.6439   23.6694 H   0  0  0  0  0  0
  -26.1719  -31.4521   20.6113 H   0  0  0  0  0  0
  -26.8853  -30.7484   22.0282 H   0  0  0  0  0  0
  -28.1328  -28.7586   21.2392 H   0  0  0  0  0  0
  -25.8945  -25.8180   19.0140 H   0  0  0  0  0  0
  -23.9827  -27.2985   18.9758 H   0  0  0  0  0  0
  -23.8492  -30.5819   19.3985 H   0  0  0  0  0  0
  -22.8005  -29.2606   19.8100 H   0  0  0  0  0  0
  -25.1278  -36.1847   25.0804 H   0  0  0  0  0  0
  -21.0029  -28.3324   24.1325 H   0  0  0  0  0  0
  -20.5706  -26.2345   23.3622 H   0  0  0  0  0  0
  -21.6656  -26.7444   22.1187 H   0  0  0  0  0  0
  -19.6933  -25.6266   21.1290 H   0  0  0  0  0  0
  -19.6718  -27.3167   20.6754 H   0  0  0  0  0  0
  -17.4212  -26.6721   21.4007 H   0  0  0  0  0  0
  -18.0300  -26.0132   22.9024 H   0  0  0  0  0  0
  -19.8010  -30.7276   24.2234 H   0  0  0  0  0  0
  -17.5115  -31.6319   24.5167 H   0  0  0  0  0  0
  -15.5410  -30.3076   23.7699 H   0  0  0  0  0  0
  -15.8679  -28.0906   22.7081 H   0  0  0  0  0  0
  -24.5860  -30.7193   25.7746 H   0  0  0  0  0  0
  -24.8873  -32.3095   26.4646 H   0  0  0  0  0  0
  -25.7938  -30.9169   27.0271 H   0  0  0  0  0  0
  -26.3033  -29.6714   24.1264 H   0  0  0  0  0  0
  -27.3998  -29.7263   25.4851 H   0  0  0  0  0  0
  -27.8901  -30.4266   23.9629 H   0  0  0  0  0  0
  -27.2541  -33.3735   26.1930 H   0  0  0  0  0  0
  -28.3863  -32.6905   25.0364 H   0  0  0  0  0  0
  -28.0588  -31.8631   26.5524 H   0  0  0  0  0  0
  -28.2558  -38.0086   24.7508 H   0  0  0  0  0  0
  -28.1034  -36.2616   24.6278 H   0  0  0  0  0  0
  -27.2301  -37.1420   25.8894 H   0  0  0  0  0  0
  -20.9440  -29.8884   21.6868 H   0  0  0  0  0  0
  -26.0095  -38.2814   24.1494 H   0  0  0  0  0  0
  -30.4532  -20.7690   19.1485 H   0  0  0  0  0  0
  -26.5266  -21.1005   22.7782 H   0  0  0  0  0  0
  -26.5159  -22.3846   21.5960 H   0  0  0  0  0  0
  -27.7116  -22.3885   22.8985 H   0  0  0  0  0  0
  -32.3763  -23.5978   18.8334 H   0  0  0  0  0  0
  -31.8687  -22.3017   19.9079 H   0  0  0  0  0  0
  -31.9043  -23.9510   20.4906 H   0  0  0  0  0  0
  -29.5651  -19.0694   25.2114 H   0  0  0  0  0  0
  -28.0074  -19.8033   24.8217 H   0  0  0  0  0  0
  -29.4368  -20.1727   23.8559 H   0  0  0  0  0  0
  -28.6006  -16.7086   25.0727 H   0  0  0  0  0  0
  -27.7680  -16.1748   23.6201 H   0  0  0  0  0  0
  -27.0002  -17.3415   24.6959 H   0  0  0  0  0  0
  -27.5270  -17.6908   21.6541 H   0  0  0  0  0  0
  -26.7431  -18.9227   22.5802 H   0  0  0  0  0  0
  -31.1663  -17.8594   20.6628 H   0  0  0  0  0  0
  -30.4497  -17.7591   19.1067 H   0  0  0  0  0  0
  -29.9938  -22.9765   18.2698 H   0  0  0  0  0  0
  -30.1470  -24.5980   18.8520 H   0  0  0  0  0  0
  -27.2400  -24.3428   20.8951 H   0  0  0  0  0  0
  -27.4983  -24.3629   19.1821 H   0  0  0  0  0  0
  -29.5505  -17.8103   23.0884 H   0  0  0  0  0  0
  -29.6327  -23.5455   21.2058 H   0  0  0  0  0  0
  -28.7986  -16.1153   20.6634 H   0  0  0  0  0  0
  1 25  1  0  0  0
  1 30  2  0  0  0
  1 86  1  0  0  0
  2  3  1  0  0  0
  2 25  1  0  0  0
  2 87  1  0  0  0
  2 88  1  0  0  0
  3  4  1  0  0  0
  3 89  1  0  0  0
  3 90  1  0  0  0
  4  5  1  0  0  0
  4 91  1  0  0  0
  4 92  1  0  0  0
  5  6  1  0  0  0
  5 26  1  0  0  0
  5 93  1  0  0  0
  6 25  1  0  0  0
  6 94  1  0  0  0
  6 95  1  0  0  0
  7  8  2  0  0  0
  7 26  1  0  0  0
  7 29  1  0  0  0
  8  9  1  0  0  0
  8 22  1  0  0  0
  9 10  1  0  0  0
  9 27  2  0  0  0
 10 11  2  0  0  0
 10 15  1  0  0  0
 11 12  1  0  0  0
 11 96  1  0  0  0
 12 13  2  0  0  0
 12 97  1  0  0  0
 13 14  1  0  0  0
 13 31  1  0  0  0
 14 15  2  0  0  0
 14 98  1  0  0  0
 15 99  1  0  0  0
 16 17  2  0  0  0
 16 21  1  0  0  0
 16 31  1  0  0  0
 17 18  1  0  0  0
 17100  1  0  0  0
 18 19  2  0  0  0
 18101  1  0  0  0
 19 20  1  0  0  0
 19 24  1  0  0  0
 20 21  2  0  0  0
 20102  1  0  0  0
 21 23  1  0  0  0
 22 28  1  0  0  0
 22 32  2  0  0  0
 26 27  1  0  0  0
 28103  1  0  0  0
 28104  1  0  0  0
 29105  1  0  0  0
 29106  1  0  0  0
 33 34  1  0  0  0
 33 66  1  0  0  0
 33 70  2  0  0  0
 34 36  1  0  0  0
 34 59  1  0  0  0
 34107  1  0  0  0
 35 44  2  0  0  0
 35 45  1  0  0  0
 35 68  1  0  0  0
 36 56  1  0  0  0
 36108  1  0  0  0
 37 39  1  0  0  0
 37 47  1  0  0  0
 37 66  1  0  0  0
 37109  1  0  0  0
 38 43  2  0  0  0
 38 46  1  0  0  0
 38 47  1  0  0  0
 39 64  1  0  0  0
 39 67  2  0  0  0
 40 52  1  0  0  0
 40 53  2  0  0  0
 40 58  1  0  0  0
 41110  1  0  0  0
 41111  1  0  0  0
 41112  1  0  0  0
 41 48  1  0  0  0
 42 43  1  0  0  0
 42 66  1  0  0  0
 42113  1  0  0  0
 42114  1  0  0  0
 43 44  1  0  0  0
 44115  1  0  0  0
 45 46  2  0  0  0
 45116  1  0  0  0
 46117  1  0  0  0
 47118  1  0  0  0
 47119  1  0  0  0
 48 56  1  0  0  0
 48 65  1  0  0  0
 48120  1  0  0  0
 49 50  1  0  0  0
 49 53  1  0  0  0
 49 64  1  0  0  0
 49121  1  0  0  0
 50 51  1  0  0  0
 50122  1  0  0  0
 50123  1  0  0  0
 51 52  1  0  0  0
 51124  1  0  0  0
 51125  1  0  0  0
 52126  1  0  0  0
 52127  1  0  0  0
 53 54  1  0  0  0
 54 55  2  0  0  0
 54128  1  0  0  0
 55 57  1  0  0  0
 55129  1  0  0  0
 56 69  2  0  0  0
 57 58  2  0  0  0
 57130  1  0  0  0
 58131  1  0  0  0
 59 60  1  0  0  0
 59 61  1  0  0  0
 59 62  1  0  0  0
 60132  1  0  0  0
 60133  1  0  0  0
 60134  1  0  0  0
 61135  1  0  0  0
 61136  1  0  0  0
 61137  1  0  0  0
 62138  1  0  0  0
 62139  1  0  0  0
 62140  1  0  0  0
 63 65  1  0  0  0
 63141  1  0  0  0
 63142  1  0  0  0
 63143  1  0  0  0
 64144  1  0  0  0
 65145  1  0  0  0
 68 82  1  0  0  0
 71 72  2  0  0  0
 71 85  1  0  0  0
 71146  1  0  0  0
 72 73  1  0  0  0
 72 80  1  0  0  0
 73 74  2  0  0  0
 73 79  1  0  0  0
 74 75  1  0  0  0
 74 85  1  0  0  0
 75147  1  0  0  0
 75148  1  0  0  0
 75149  1  0  0  0
 76 81  1  0  0  0
 76150  1  0  0  0
 76151  1  0  0  0
 76152  1  0  0  0
 77153  1  0  0  0
 77154  1  0  0  0
 77155  1  0  0  0
 77 83  1  0  0  0
 78 83  1  0  0  0
 78156  1  0  0  0
 78157  1  0  0  0
 78158  1  0  0  0
 79 83  1  0  0  0
 79159  1  0  0  0
 79160  1  0  0  0
 80 86  1  0  0  0
 80161  1  0  0  0
 80162  1  0  0  0
 81163  1  0  0  0
 81164  1  0  0  0
 81 84  1  0  0  0
 82 84  1  0  0  0
 82165  1  0  0  0
 82166  1  0  0  0
 83167  1  0  0  0
 84 85  1  0  0  0
 84168  1  0  0  0
 86169  1  0  0  0
M  ISO  4   1 100  68 101  82 101  86 100
M  END
> <chiral flag>
0

> <version>
0

> <s_m_source_file>
/data/baiqing/PycharmProjects/Reinvent-master-3.2/result/LINK_invent/BTK/process_docking_weight1_custom_sum_contain_oxygen_bond_distance_aromatic_linkinvent_7_9_3/rearranged_h_0103.sdf

> <i_m_source_file_index>
6

> <r_mmod_Potential_Energy-OPLS-2005>
606.793334960938

> <r_mmod_Stretch_Energy-OPLS-2005>
316.690338134766

> <r_mmod_Bend_Energy-OPLS-2005>
303.110809326172

> <r_mmod_Torsional_Energy-OPLS-2005>
240.95637512207

> <r_mmod_Improper_Torsional_Energy-OPLS-2005>
7.10248756408691

> <r_mmod_Van_der_Waal_Energy-OPLS-2005>
99.9019927978516

> <r_mmod_Electrostatic_Energy-OPLS-2005>
-399.927215576172

> <r_mmod_Solvation_Energy-OPLS-2005>
-201.53173828125

> <b_mmod_Minimization_Converged-OPLS-2005>
0

> <r_mmod_RMS_Derivative-OPLS-2005>
4.35626602172852

$$$$
6
                    3D
 Structure written by MMmdl.
163171  0  0  1  0            999 V2000
  -30.5326  -15.0132   20.4099 C   0  0  0  0  0  0
  -30.4367  -12.6349   19.5030 C   0  0  0  0  0  0
  -29.5221  -12.5375   18.2602 C   0  0  0  0  0  0
  -28.0580  -12.3126   18.6800 C   0  0  0  0  0  0
  -27.6233  -13.2561   19.8319 C   0  0  2  0  0  0
  -28.6644  -13.3220   20.9683 C   0  0  0  0  0  0
  -25.2437  -13.8209   20.5718 C   0  0  0  0  0  0
  -24.1763  -13.0432   20.9237 C   0  0  0  0  0  0
  -24.6392  -11.6923   20.8755 C   0  0  0  0  0  0
  -23.9080  -10.4293   21.0410 C   0  0  0  0  0  0
  -24.3631   -9.4204   21.9185 C   0  0  0  0  0  0
  -23.6302   -8.2242   22.0759 C   0  0  0  0  0  0
  -22.4281   -8.0283   21.3547 C   0  0  0  0  0  0
  -21.9920   -9.0255   20.4647 C   0  0  0  0  0  0
  -22.7252  -10.2133   20.3059 C   0  0  0  0  0  0
  -21.6856   -6.0738   22.5279 C   0  0  0  0  0  0
  -21.4017   -6.5644   23.8211 C   0  0  0  0  0  0
  -21.3656   -5.6796   24.9174 C   0  0  0  0  0  0
  -21.6043   -4.3059   24.7224 C   0  0  0  0  0  0
  -21.8819   -3.8151   23.4344 C   0  0  0  0  0  0
  -21.9195   -4.6966   22.3400 C   0  0  0  0  0  0
  -22.7785  -13.5200   21.1883 C   0  0  0  0  0  0
  -22.1662   -4.2154   21.0976 F   0  0  0  0  0  0
  -21.5628   -3.4538   25.7731 F   0  0  0  0  0  0
  -29.9302  -13.7504   20.3596 N   0  0  0  0  0  0
  -26.2860  -12.9460   20.3227 N   0  0  0  0  0  0
  -25.9323  -11.6584   20.5724 N   0  0  0  0  0  0
  -22.0428  -12.8190   22.0435 N   0  0  0  0  0  0
  -25.4095  -15.1924   20.4144 N   0  0  0  0  0  0
  -31.7448  -15.0442   20.1709 O   0  0  0  0  0  0
  -21.6642   -6.8883   21.4243 O   0  0  0  0  0  0
  -22.3465  -14.5498   20.6718 O   0  0  0  0  0  0
  -24.6473  -31.8389   23.1829 C   0  0  0  0  0  0
  -25.9224  -32.4666   23.8243 C   0  0  1  0  0  0
  -27.2205  -27.0887   20.1569 C   0  0  0  0  0  0
  -25.5954  -33.8474   24.2160 N   0  0  0  0  0  0
  -23.4538  -30.4546   21.5299 C   0  0  2  0  0  0
  -24.9048  -28.8698   20.1111 C   0  0  0  0  0  0
  -22.7583  -29.4515   22.4846 C   0  0  0  0  0  0
  -18.0306  -28.1393   22.8467 C   0  0  0  0  0  0
  -24.1495  -36.7240   23.2642 C   0  0  0  0  0  0
  -26.0128  -30.6967   21.3885 C   0  0  0  0  0  0
  -26.0837  -29.3029   20.7304 C   0  0  0  0  0  0
  -27.2417  -28.4300   20.7322 C   0  0  0  0  0  0
  -26.0142  -26.7659   19.4991 C   0  0  0  0  0  0
  -24.8853  -27.6168   19.4792 C   0  0  0  0  0  0
  -23.6821  -29.7758   20.1526 C   0  0  0  0  0  0
  -25.4130  -36.3014   24.0311 C   0  0  1  0  0  0
  -20.5918  -28.3721   23.1224 C   0  0  2  0  0  0
  -20.6788  -26.9420   22.5402 C   0  0  0  0  0  0
  -19.5768  -26.6374   21.5207 C   0  0  0  0  0  0
  -18.1946  -26.7934   22.1612 C   0  0  0  0  0  0
  -19.1561  -28.8879   23.2836 C   0  0  0  0  0  0
  -18.9475  -30.1473   23.8864 C   0  0  0  0  0  0
  -17.6472  -30.6592   24.0550 C   0  0  0  0  0  0
  -25.9081  -34.9390   23.5050 C   0  0  0  0  0  0
  -16.5363  -29.9078   23.6340 C   0  0  0  0  0  0
  -16.7290  -28.6494   23.0363 C   0  0  0  0  0  0
  -26.4536  -31.6548   25.0702 C   0  0  0  0  0  0
  -25.3704  -31.3748   26.1382 C   0  0  0  0  0  0
  -27.0409  -30.2935   24.6323 C   0  0  0  0  0  0
  -27.6062  -32.4321   25.7491 C   0  0  0  0  0  0
  -27.5582  -37.1773   24.8464 C   0  0  0  0  0  0
  -21.4272  -29.3039   22.3591 N   0  0  0  0  0  0
  -26.4291  -37.3732   23.9407 N   0  0  0  0  0  0
  -24.7249  -31.0197   22.0885 N   0  0  0  0  0  0
  -23.4198  -28.8079   23.3030 O   0  0  0  0  0  0
  -28.2674  -26.0824   20.2306 O   0  0  0  0  0  0
  -26.5676  -34.8897   22.4634 O   0  0  0  0  0  0
  -23.5581  -32.1286   23.7019 O   0  0  0  0  0  0
  -29.8471  -20.5650   20.6119 C   0  0  0  0  0  0
  -27.8651  -20.9009   19.7921 C   0  0  0  0  0  0
  -29.4157  -19.2283   20.3477 C   0  0  0  0  0  0
  -28.1038  -19.5192   19.8165 C   0  0  0  0  0  0
  -25.4649  -18.8493   21.2638 C   0  0  0  0  0  0
  -28.5990  -17.7460   17.3241 C   0  0  0  0  0  0
  -30.2453  -17.7635   20.5246 C   0  0  0  0  0  0
  -25.6696  -18.7732   19.7432 C   0  0  0  0  0  0
  -27.2290  -18.2566   17.7977 C   0  0  0  0  0  0
  -29.1057  -23.2469   20.4298 C   0  0  0  0  0  0
  -28.0248  -24.5257   20.0719 C   0  0  0  0  0  0
  -27.1241  -18.4695   19.3226 C   0  0  0  0  0  0
  -28.9304  -21.6483   20.2849 N   0  0  0  0  0  0
  -29.7841  -16.2337   20.5256 N   0  0  0  0  0  0
  -31.4691  -12.7972   19.1888 H   0  0  0  0  0  0
  -30.4409  -11.6948   20.0565 H   0  0  0  0  0  0
  -29.8533  -11.7308   17.6048 H   0  0  0  0  0  0
  -29.5980  -13.4577   17.6786 H   0  0  0  0  0  0
  -27.9655  -11.2741   18.9998 H   0  0  0  0  0  0
  -27.3941  -12.4264   17.8221 H   0  0  0  0  0  0
  -27.5735  -14.2501   19.3857 H   0  0  0  0  0  0
  -28.7674  -12.3559   21.4652 H   0  0  0  0  0  0
  -28.3518  -14.0335   21.7347 H   0  0  0  0  0  0
  -25.2773   -9.5679   22.4763 H   0  0  0  0  0  0
  -24.0005   -7.4632   22.7484 H   0  0  0  0  0  0
  -21.0854   -8.8770   19.8944 H   0  0  0  0  0  0
  -22.3713  -10.9670   19.6169 H   0  0  0  0  0  0
  -21.2011   -7.6152   23.9713 H   0  0  0  0  0  0
  -21.1480   -6.0528   25.9076 H   0  0  0  0  0  0
  -22.0601   -2.7614   23.2838 H   0  0  0  0  0  0
  -22.4057  -11.9872   22.4846 H   0  0  0  0  0  0
  -21.1035  -13.1203   22.2610 H   0  0  0  0  0  0
  -24.6420  -15.8426   20.5380 H   0  0  0  0  0  0
  -26.2452  -15.6277   20.0513 H   0  0  0  0  0  0
  -26.7284  -32.5256   23.0962 H   0  0  0  0  0  0
  -25.0071  -33.9586   25.0288 H   0  0  0  0  0  0
  -22.7584  -31.2810   21.3693 H   0  0  0  0  0  0
  -23.3771  -35.9557   23.3279 H   0  0  0  0  0  0
  -24.3577  -36.8902   22.2062 H   0  0  0  0  0  0
  -23.7235  -37.6418   23.6702 H   0  0  0  0  0  0
  -26.1739  -31.4482   20.6145 H   0  0  0  0  0  0
  -26.8804  -30.7487   22.0346 H   0  0  0  0  0  0
  -28.1401  -28.7565   21.2367 H   0  0  0  0  0  0
  -25.9131  -25.8063   19.0139 H   0  0  0  0  0  0
  -23.9852  -27.2792   18.9845 H   0  0  0  0  0  0
  -23.8166  -30.5450   19.3915 H   0  0  0  0  0  0
  -22.7970  -29.2149   19.8469 H   0  0  0  0  0  0
  -25.1321  -36.1838   25.0803 H   0  0  0  0  0  0
  -21.0004  -28.3318   24.1347 H   0  0  0  0  0  0
  -20.5674  -26.2336   23.3624 H   0  0  0  0  0  0
  -21.6656  -26.7420   22.1210 H   0  0  0  0  0  0
  -19.6933  -25.6275   21.1263 H   0  0  0  0  0  0
  -19.6719  -27.3159   20.6718 H   0  0  0  0  0  0
  -17.4219  -26.6672   21.4015 H   0  0  0  0  0  0
  -18.0347  -26.0084   22.9015 H   0  0  0  0  0  0
  -19.7948  -30.7295   24.2223 H   0  0  0  0  0  0
  -17.5023  -31.6274   24.5149 H   0  0  0  0  0  0
  -15.5361  -30.2966   23.7692 H   0  0  0  0  0  0
  -15.8686  -28.0802   22.7107 H   0  0  0  0  0  0
  -24.5903  -30.7082   25.7689 H   0  0  0  0  0  0
  -24.8872  -32.2930   26.4727 H   0  0  0  0  0  0
  -25.7969  -30.8968   27.0209 H   0  0  0  0  0  0
  -26.3038  -29.6638   24.1327 H   0  0  0  0  0  0
  -27.3992  -29.7260   25.4922 H   0  0  0  0  0  0
  -27.8960  -30.4150   23.9670 H   0  0  0  0  0  0
  -27.2663  -33.3653   26.1991 H   0  0  0  0  0  0
  -28.3916  -32.6822   25.0347 H   0  0  0  0  0  0
  -28.0682  -31.8490   26.5468 H   0  0  0  0  0  0
  -28.2578  -38.0090   24.7525 H   0  0  0  0  0  0
  -28.1103  -36.2618   24.6280 H   0  0  0  0  0  0
  -27.2298  -37.1400   25.8865 H   0  0  0  0  0  0
  -20.9494  -29.8720   21.6735 H   0  0  0  0  0  0
  -26.0157  -38.2798   24.1412 H   0  0  0  0  0  0
  -30.8057  -20.8604   21.0185 H   0  0  0  0  0  0
  -26.9869  -21.4295   19.4451 H   0  0  0  0  0  0
  -24.4126  -18.9999   21.5049 H   0  0  0  0  0  0
  -26.0255  -19.6735   21.7059 H   0  0  0  0  0  0
  -25.7878  -17.9290   21.7510 H   0  0  0  0  0  0
  -28.6008  -17.5781   16.2469 H   0  0  0  0  0  0
  -28.8563  -16.8012   17.8030 H   0  0  0  0  0  0
  -29.3913  -18.4617   17.5443 H   0  0  0  0  0  0
  -30.7994  -17.8757   21.4576 H   0  0  0  0  0  0
  -31.0168  -17.8084   19.7551 H   0  0  0  0  0  0
  -25.3327  -19.7038   19.2853 H   0  0  0  0  0  0
  -25.0133  -17.9974   19.3479 H   0  0  0  0  0  0
  -26.4737  -17.5345   17.4841 H   0  0  0  0  0  0
  -26.9913  -19.1865   17.2792 H   0  0  0  0  0  0
  -29.3955  -23.4014   21.4689 H   0  0  0  0  0  0
  -30.0122  -23.4753   19.8695 H   0  0  0  0  0  0
  -27.1170  -24.3136   20.6369 H   0  0  0  0  0  0
  -27.7429  -24.3854   19.0280 H   0  0  0  0  0  0
  -27.3988  -17.5297   19.8007 H   0  0  0  0  0  0
  -28.7969  -16.0958   20.6738 H   0  0  0  0  0  0
  1 25  1  0  0  0
  1 30  2  0  0  0
  1 84  1  0  0  0
  2  3  1  0  0  0
  2 25  1  0  0  0
  2 85  1  0  0  0
  2 86  1  0  0  0
  3  4  1  0  0  0
  3 87  1  0  0  0
  3 88  1  0  0  0
  4  5  1  0  0  0
  4 89  1  0  0  0
  4 90  1  0  0  0
  5  6  1  0  0  0
  5 26  1  0  0  0
  5 91  1  0  0  0
  6 25  1  0  0  0
  6 92  1  0  0  0
  6 93  1  0  0  0
  7  8  2  0  0  0
  7 26  1  0  0  0
  7 29  1  0  0  0
  8  9  1  0  0  0
  8 22  1  0  0  0
  9 10  1  0  0  0
  9 27  2  0  0  0
 10 11  2  0  0  0
 10 15  1  0  0  0
 11 12  1  0  0  0
 11 94  1  0  0  0
 12 13  2  0  0  0
 12 95  1  0  0  0
 13 14  1  0  0  0
 13 31  1  0  0  0
 14 15  2  0  0  0
 14 96  1  0  0  0
 15 97  1  0  0  0
 16 17  2  0  0  0
 16 21  1  0  0  0
 16 31  1  0  0  0
 17 18  1  0  0  0
 17 98  1  0  0  0
 18 19  2  0  0  0
 18 99  1  0  0  0
 19 20  1  0  0  0
 19 24  1  0  0  0
 20 21  2  0  0  0
 20100  1  0  0  0
 21 23  1  0  0  0
 22 28  1  0  0  0
 22 32  2  0  0  0
 26 27  1  0  0  0
 28101  1  0  0  0
 28102  1  0  0  0
 29103  1  0  0  0
 29104  1  0  0  0
 33 34  1  0  0  0
 33 66  1  0  0  0
 33 70  2  0  0  0
 34 36  1  0  0  0
 34 59  1  0  0  0
 34105  1  0  0  0
 35 44  2  0  0  0
 35 45  1  0  0  0
 35 68  1  0  0  0
 36 56  1  0  0  0
 36106  1  0  0  0
 37 39  1  0  0  0
 37 47  1  0  0  0
 37 66  1  0  0  0
 37107  1  0  0  0
 38 43  2  0  0  0
 38 46  1  0  0  0
 38 47  1  0  0  0
 39 64  1  0  0  0
 39 67  2  0  0  0
 40 52  1  0  0  0
 40 53  2  0  0  0
 40 58  1  0  0  0
 41108  1  0  0  0
 41109  1  0  0  0
 41110  1  0  0  0
 41 48  1  0  0  0
 42 43  1  0  0  0
 42 66  1  0  0  0
 42111  1  0  0  0
 42112  1  0  0  0
 43 44  1  0  0  0
 44113  1  0  0  0
 45 46  2  0  0  0
 45114  1  0  0  0
 46115  1  0  0  0
 47116  1  0  0  0
 47117  1  0  0  0
 48 56  1  0  0  0
 48 65  1  0  0  0
 48118  1  0  0  0
 49 50  1  0  0  0
 49 53  1  0  0  0
 49 64  1  0  0  0
 49119  1  0  0  0
 50 51  1  0  0  0
 50120  1  0  0  0
 50121  1  0  0  0
 51 52  1  0  0  0
 51122  1  0  0  0
 51123  1  0  0  0
 52124  1  0  0  0
 52125  1  0  0  0
 53 54  1  0  0  0
 54 55  2  0  0  0
 54126  1  0  0  0
 55 57  1  0  0  0
 55127  1  0  0  0
 56 69  2  0  0  0
 57 58  2  0  0  0
 57128  1  0  0  0
 58129  1  0  0  0
 59 60  1  0  0  0
 59 61  1  0  0  0
 59 62  1  0  0  0
 60130  1  0  0  0
 60131  1  0  0  0
 60132  1  0  0  0
 61133  1  0  0  0
 61134  1  0  0  0
 61135  1  0  0  0
 62136  1  0  0  0
 62137  1  0  0  0
 62138  1  0  0  0
 63 65  1  0  0  0
 63139  1  0  0  0
 63140  1  0  0  0
 63141  1  0  0  0
 64142  1  0  0  0
 65143  1  0  0  0
 68 81  1  0  0  0
 71 73  2  0  0  0
 71 83  1  0  0  0
 71144  1  0  0  0
 72 74  2  0  0  0
 72 83  1  0  0  0
 72145  1  0  0  0
 73 74  1  0  0  0
 73 77  1  0  0  0
 74 82  1  0  0  0
 75 78  1  0  0  0
 75146  1  0  0  0
 75147  1  0  0  0
 75148  1  0  0  0
 76 79  1  0  0  0
 76149  1  0  0  0
 76150  1  0  0  0
 76151  1  0  0  0
 77 84  1  0  0  0
 77152  1  0  0  0
 77153  1  0  0  0
 78154  1  0  0  0
 78155  1  0  0  0
 78 82  1  0  0  0
 79 82  1  0  0  0
 79156  1  0  0  0
 79157  1  0  0  0
 80 81  1  0  0  0
 80 83  1  0  0  0
 80158  1  0  0  0
 80159  1  0  0  0
 81160  1  0  0  0
 81161  1  0  0  0
 82162  1  0  0  0
 84163  1  0  0  0
M  ISO  4   1 100  68 101  81 101  84 100
M  END
> <chiral flag>
0

> <version>
0

> <s_m_source_file>
/data/baiqing/PycharmProjects/Reinvent-master-3.2/result/LINK_invent/BTK/process_docking_weight1_custom_sum_contain_oxygen_bond_distance_aromatic_linkinvent_7_9_3/rearranged_h_0103.sdf

> <i_m_source_file_index>
7

> <r_mmod_Potential_Energy-OPLS-2005>
555.097290039062

> <r_mmod_Stretch_Energy-OPLS-2005>
307.280853271484

> <r_mmod_Bend_Energy-OPLS-2005>
298.714202880859

> <r_mmod_Torsional_Energy-OPLS-2005>
217.56787109375

> <r_mmod_Improper_Torsional_Energy-OPLS-2005>
4.26352787017822

> <r_mmod_Van_der_Waal_Energy-OPLS-2005>
93.8781356811523

> <r_mmod_Electrostatic_Energy-OPLS-2005>
-400.821838378906

> <r_mmod_Solvation_Energy-OPLS-2005>
-204.507171630859

> <b_mmod_Minimization_Converged-OPLS-2005>
0

> <r_mmod_RMS_Derivative-OPLS-2005>
0.847961246967316

$$$$
7
                    3D
 Structure written by MMmdl.
158166  0  0  1  0            999 V2000
  -30.6191  -14.7507   20.4838 C   0  0  0  0  0  0
  -30.4415  -12.4576   19.4967 C   0  0  0  0  0  0
  -29.5197  -12.5064   18.2559 C   0  0  0  0  0  0
  -28.0466  -12.3273   18.6662 C   0  0  0  0  0  0
  -27.6513  -13.2307   19.8649 C   0  0  2  0  0  0
  -28.6931  -13.1569   21.0057 C   0  0  0  0  0  0
  -25.2545  -13.8198   20.5720 C   0  0  0  0  0  0
  -24.1830  -13.0454   20.9215 C   0  0  0  0  0  0
  -24.6422  -11.6927   20.8743 C   0  0  0  0  0  0
  -23.9098  -10.4299   21.0381 C   0  0  0  0  0  0
  -24.3634   -9.4207   21.9165 C   0  0  0  0  0  0
  -23.6292   -8.2250   22.0751 C   0  0  0  0  0  0
  -22.4275   -8.0286   21.3548 C   0  0  0  0  0  0
  -21.9917   -9.0256   20.4645 C   0  0  0  0  0  0
  -22.7262  -10.2128   20.3039 C   0  0  0  0  0  0
  -21.6843   -6.0739   22.5282 C   0  0  0  0  0  0
  -21.4011   -6.5640   23.8219 C   0  0  0  0  0  0
  -21.3663   -5.6796   24.9175 C   0  0  0  0  0  0
  -21.6047   -4.3059   24.7218 C   0  0  0  0  0  0
  -21.8821   -3.8148   23.4336 C   0  0  0  0  0  0
  -21.9193   -4.6968   22.3395 C   0  0  0  0  0  0
  -22.7843  -13.5220   21.1867 C   0  0  0  0  0  0
  -22.1655   -4.2152   21.0966 F   0  0  0  0  0  0
  -21.5632   -3.4542   25.7722 F   0  0  0  0  0  0
  -30.0014  -13.5174   20.4402 N   0  0  0  0  0  0
  -26.2990  -12.9420   20.3351 N   0  0  0  0  0  0
  -25.9353  -11.6560   20.5759 N   0  0  0  0  0  0
  -22.0520  -12.8181   22.0418 N   0  0  0  0  0  0
  -25.4258  -15.1912   20.4109 N   0  0  0  0  0  0
  -31.7623  -14.8665   20.0338 O   0  0  0  0  0  0
  -21.6651   -6.8869   21.4241 O   0  0  0  0  0  0
  -22.3514  -14.5539   20.6732 O   0  0  0  0  0  0
  -24.6325  -31.8546   23.2002 C   0  0  0  0  0  0
  -25.9128  -32.4777   23.8371 C   0  0  1  0  0  0
  -27.2214  -27.2464   20.1287 C   0  0  0  0  0  0
  -25.5921  -33.8592   24.2280 N   0  0  0  0  0  0
  -23.4332  -30.4773   21.5429 C   0  0  2  0  0  0
  -24.8790  -28.9283   20.1086 C   0  0  0  0  0  0
  -22.7529  -29.4578   22.4904 C   0  0  0  0  0  0
  -18.0282  -28.1383   22.8495 C   0  0  0  0  0  0
  -24.1466  -36.7269   23.2645 C   0  0  0  0  0  0
  -25.9828  -30.7627   21.3865 C   0  0  0  0  0  0
  -26.0507  -29.3842   20.7271 C   0  0  0  0  0  0
  -27.2209  -28.5560   20.7265 C   0  0  0  0  0  0
  -26.0287  -26.8792   19.4592 C   0  0  0  0  0  0
  -24.8745  -27.6854   19.4623 C   0  0  0  0  0  0
  -23.6520  -29.8182   20.1568 C   0  0  0  0  0  0
  -25.4099  -36.3081   24.0330 C   0  0  1  0  0  0
  -20.5899  -28.3689   23.1255 C   0  0  2  0  0  0
  -20.6757  -26.9405   22.5400 C   0  0  0  0  0  0
  -19.5723  -26.6368   21.5212 C   0  0  0  0  0  0
  -18.1908  -26.7932   22.1627 C   0  0  0  0  0  0
  -19.1549  -28.8854   23.2869 C   0  0  0  0  0  0
  -18.9469  -30.1464   23.8870 C   0  0  0  0  0  0
  -17.6462  -30.6580   24.0564 C   0  0  0  0  0  0
  -25.9038  -34.9457   23.5100 C   0  0  0  0  0  0
  -16.5353  -29.9069   23.6344 C   0  0  0  0  0  0
  -16.7271  -28.6498   23.0359 C   0  0  0  0  0  0
  -26.4493  -31.6639   25.0784 C   0  0  0  0  0  0
  -25.3720  -31.3799   26.1521 C   0  0  0  0  0  0
  -27.0376  -30.3054   24.6307 C   0  0  0  0  0  0
  -27.6038  -32.4421   25.7541 C   0  0  0  0  0  0
  -27.5557  -37.1786   24.8470 C   0  0  0  0  0  0
  -21.4231  -29.3042   22.3666 N   0  0  0  0  0  0
  -26.4266  -37.3781   23.9417 N   0  0  0  0  0  0
  -24.7027  -31.0499   22.1000 N   0  0  0  0  0  0
  -23.4241  -28.8091   23.2982 O   0  0  0  0  0  0
  -28.3207  -26.3502   20.2311 O   0  0  0  0  0  0
  -26.5615  -34.8924   22.4674 O   0  0  0  0  0  0
  -23.5451  -32.1379   23.7263 O   0  0  0  0  0  0
  -31.9828  -19.3593   23.0916 C   0  0  0  0  0  0
  -30.6180  -20.9072   22.1273 C   0  0  0  0  0  0
  -31.4917  -18.3201   22.2824 C   0  0  0  0  0  0
  -30.0402  -19.9896   21.2283 C   0  0  0  0  0  0
  -30.4621  -18.5672   21.3167 C   0  0  0  0  0  0
  -32.1648  -16.9740   22.4936 C   0  0  0  0  0  0
  -28.9704  -20.7095   20.3154 C   0  0  0  0  0  0
  -29.9692  -17.3459   20.4065 C   0  0  0  0  0  0
  -29.1552  -22.2551   19.7939 C   0  0  0  0  0  0
  -28.8213  -23.6287   20.6029 C   0  0  0  0  0  0
  -28.2669  -24.9099   19.7671 C   0  0  0  0  0  0
  -31.5511  -20.6201   23.0387 N   0  0  0  0  0  0
  -29.8857  -15.8693   20.8547 N   0  0  0  0  0  0
  -31.4841  -12.5756   19.1933 H   0  0  0  0  0  0
  -30.3896  -11.4804   19.9794 H   0  0  0  0  0  0
  -29.8046  -11.7259   17.5508 H   0  0  0  0  0  0
  -29.6441  -13.4549   17.7318 H   0  0  0  0  0  0
  -27.9156  -11.2782   18.9360 H   0  0  0  0  0  0
  -27.3845  -12.5081   17.8191 H   0  0  0  0  0  0
  -27.6526  -14.2538   19.4884 H   0  0  0  0  0  0
  -28.7310  -12.1513   21.4264 H   0  0  0  0  0  0
  -28.4187  -13.8162   21.8301 H   0  0  0  0  0  0
  -25.2776   -9.5676   22.4747 H   0  0  0  0  0  0
  -24.0002   -7.4633   22.7462 H   0  0  0  0  0  0
  -21.0854   -8.8773   19.8927 H   0  0  0  0  0  0
  -22.3725  -10.9660   19.6140 H   0  0  0  0  0  0
  -21.2016   -7.6148   23.9719 H   0  0  0  0  0  0
  -21.1478   -6.0521   25.9079 H   0  0  0  0  0  0
  -22.0598   -2.7606   23.2833 H   0  0  0  0  0  0
  -22.4149  -11.9797   22.4718 H   0  0  0  0  0  0
  -21.1143  -13.1166   22.2672 H   0  0  0  0  0  0
  -24.6676  -15.8507   20.5490 H   0  0  0  0  0  0
  -26.2669  -15.6265   20.0557 H   0  0  0  0  0  0
  -26.7218  -32.5391   23.1141 H   0  0  0  0  0  0
  -25.0168  -33.9751   25.0493 H   0  0  0  0  0  0
  -22.7318  -31.3009   21.3948 H   0  0  0  0  0  0
  -23.3735  -35.9591   23.3326 H   0  0  0  0  0  0
  -24.3570  -36.8867   22.2053 H   0  0  0  0  0  0
  -23.7179  -37.6454   23.6675 H   0  0  0  0  0  0
  -26.1267  -31.5248   20.6185 H   0  0  0  0  0  0
  -26.8637  -30.8073   22.0176 H   0  0  0  0  0  0
  -28.1182  -28.9015   21.2215 H   0  0  0  0  0  0
  -25.9352  -25.9531   18.9176 H   0  0  0  0  0  0
  -23.9814  -27.3404   18.9578 H   0  0  0  0  0  0
  -23.7721  -30.5989   19.4030 H   0  0  0  0  0  0
  -22.7725  -29.2513   19.8487 H   0  0  0  0  0  0
  -25.1267  -36.1948   25.0813 H   0  0  0  0  0  0
  -20.9989  -28.3240   24.1371 H   0  0  0  0  0  0
  -20.5617  -26.2305   23.3606 H   0  0  0  0  0  0
  -21.6616  -26.7385   22.1198 H   0  0  0  0  0  0
  -19.6861  -25.6271   21.1232 H   0  0  0  0  0  0
  -19.6626  -27.3196   20.6750 H   0  0  0  0  0  0
  -17.4165  -26.6713   21.4029 H   0  0  0  0  0  0
  -18.0267  -26.0080   22.9020 H   0  0  0  0  0  0
  -19.7957  -30.7302   24.2200 H   0  0  0  0  0  0
  -17.5018  -31.6256   24.5180 H   0  0  0  0  0  0
  -15.5360  -30.2959   23.7674 H   0  0  0  0  0  0
  -15.8683  -28.0810   22.7061 H   0  0  0  0  0  0
  -24.5877  -30.7162   25.7874 H   0  0  0  0  0  0
  -24.8937  -32.2971   26.4963 H   0  0  0  0  0  0
  -25.8034  -30.8977   27.0302 H   0  0  0  0  0  0
  -26.2992  -29.6798   24.1286 H   0  0  0  0  0  0
  -27.3996  -29.7312   25.4846 H   0  0  0  0  0  0
  -27.8897  -30.4314   23.9628 H   0  0  0  0  0  0
  -27.2624  -33.3730   26.2082 H   0  0  0  0  0  0
  -28.3853  -32.6996   25.0388 H   0  0  0  0  0  0
  -28.0730  -31.8602   26.5478 H   0  0  0  0  0  0
  -28.2595  -38.0064   24.7526 H   0  0  0  0  0  0
  -28.1025  -36.2597   24.6300 H   0  0  0  0  0  0
  -27.2286  -37.1444   25.8877 H   0  0  0  0  0  0
  -20.9411  -29.8846   21.6954 H   0  0  0  0  0  0
  -26.0142  -38.2845   24.1459 H   0  0  0  0  0  0
  -32.7686  -19.1916   23.8137 H   0  0  0  0  0  0
  -30.3123  -21.9408   22.1334 H   0  0  0  0  0  0
  -31.4572  -16.2259   22.8503 H   0  0  0  0  0  0
  -32.9614  -17.0308   23.2393 H   0  0  0  0  0  0
  -32.6393  -16.6399   21.5733 H   0  0  0  0  0  0
  -28.0041  -20.6289   20.8160 H   0  0  0  0  0  0
  -28.8772  -20.0866   19.4265 H   0  0  0  0  0  0
  -30.5656  -17.3855   19.4940 H   0  0  0  0  0  0
  -28.9581  -17.6071   20.0924 H   0  0  0  0  0  0
  -28.5018  -22.3117   18.9206 H   0  0  0  0  0  0
  -30.1548  -22.3567   19.3701 H   0  0  0  0  0  0
  -28.1018  -23.3975   21.3893 H   0  0  0  0  0  0
  -29.7264  -23.9337   21.1290 H   0  0  0  0  0  0
  -27.2514  -24.6068   19.5399 H   0  0  0  0  0  0
  -28.7834  -24.9117   18.8070 H   0  0  0  0  0  0
  -29.0103  -15.6406   21.3000 H   0  0  0  0  0  0
  1 25  1  0  0  0
  1 30  2  0  0  0
  1 83  1  0  0  0
  2  3  1  0  0  0
  2 25  1  0  0  0
  2 84  1  0  0  0
  2 85  1  0  0  0
  3  4  1  0  0  0
  3 86  1  0  0  0
  3 87  1  0  0  0
  4  5  1  0  0  0
  4 88  1  0  0  0
  4 89  1  0  0  0
  5  6  1  0  0  0
  5 26  1  0  0  0
  5 90  1  0  0  0
  6 25  1  0  0  0
  6 91  1  0  0  0
  6 92  1  0  0  0
  7  8  2  0  0  0
  7 26  1  0  0  0
  7 29  1  0  0  0
  8  9  1  0  0  0
  8 22  1  0  0  0
  9 10  1  0  0  0
  9 27  2  0  0  0
 10 11  2  0  0  0
 10 15  1  0  0  0
 11 12  1  0  0  0
 11 93  1  0  0  0
 12 13  2  0  0  0
 12 94  1  0  0  0
 13 14  1  0  0  0
 13 31  1  0  0  0
 14 15  2  0  0  0
 14 95  1  0  0  0
 15 96  1  0  0  0
 16 17  2  0  0  0
 16 21  1  0  0  0
 16 31  1  0  0  0
 17 18  1  0  0  0
 17 97  1  0  0  0
 18 19  2  0  0  0
 18 98  1  0  0  0
 19 20  1  0  0  0
 19 24  1  0  0  0
 20 21  2  0  0  0
 20 99  1  0  0  0
 21 23  1  0  0  0
 22 28  1  0  0  0
 22 32  2  0  0  0
 26 27  1  0  0  0
 28100  1  0  0  0
 28101  1  0  0  0
 29102  1  0  0  0
 29103  1  0  0  0
 33 34  1  0  0  0
 33 66  1  0  0  0
 33 70  2  0  0  0
 34 36  1  0  0  0
 34 59  1  0  0  0
 34104  1  0  0  0
 35 44  2  0  0  0
 35 45  1  0  0  0
 35 68  1  0  0  0
 36 56  1  0  0  0
 36105  1  0  0  0
 37 39  1  0  0  0
 37 47  1  0  0  0
 37 66  1  0  0  0
 37106  1  0  0  0
 38 43  2  0  0  0
 38 46  1  0  0  0
 38 47  1  0  0  0
 39 64  1  0  0  0
 39 67  2  0  0  0
 40 52  1  0  0  0
 40 53  2  0  0  0
 40 58  1  0  0  0
 41107  1  0  0  0
 41108  1  0  0  0
 41109  1  0  0  0
 41 48  1  0  0  0
 42 43  1  0  0  0
 42 66  1  0  0  0
 42110  1  0  0  0
 42111  1  0  0  0
 43 44  1  0  0  0
 44112  1  0  0  0
 45 46  2  0  0  0
 45113  1  0  0  0
 46114  1  0  0  0
 47115  1  0  0  0
 47116  1  0  0  0
 48 56  1  0  0  0
 48 65  1  0  0  0
 48117  1  0  0  0
 49 50  1  0  0  0
 49 53  1  0  0  0
 49 64  1  0  0  0
 49118  1  0  0  0
 50 51  1  0  0  0
 50119  1  0  0  0
 50120  1  0  0  0
 51 52  1  0  0  0
 51121  1  0  0  0
 51122  1  0  0  0
 52123  1  0  0  0
 52124  1  0  0  0
 53 54  1  0  0  0
 54 55  2  0  0  0
 54125  1  0  0  0
 55 57  1  0  0  0
 55126  1  0  0  0
 56 69  2  0  0  0
 57 58  2  0  0  0
 57127  1  0  0  0
 58128  1  0  0  0
 59 60  1  0  0  0
 59 61  1  0  0  0
 59 62  1  0  0  0
 60129  1  0  0  0
 60130  1  0  0  0
 60131  1  0  0  0
 61132  1  0  0  0
 61133  1  0  0  0
 61134  1  0  0  0
 62135  1  0  0  0
 62136  1  0  0  0
 62137  1  0  0  0
 63 65  1  0  0  0
 63138  1  0  0  0
 63139  1  0  0  0
 63140  1  0  0  0
 64141  1  0  0  0
 65142  1  0  0  0
 68 81  1  0  0  0
 71 73  2  0  0  0
 71 82  1  0  0  0
 71143  1  0  0  0
 72 74  1  0  0  0
 72 82  2  0  0  0
 72144  1  0  0  0
 73 75  1  0  0  0
 73 76  1  0  0  0
 74 75  2  0  0  0
 74 77  1  0  0  0
 75 78  1  0  0  0
 76145  1  0  0  0
 76146  1  0  0  0
 76147  1  0  0  0
 77 79  1  0  0  0
 77148  1  0  0  0
 77149  1  0  0  0
 78 83  1  0  0  0
 78150  1  0  0  0
 78151  1  0  0  0
 79 80  1  0  0  0
 79152  1  0  0  0
 79153  1  0  0  0
 80 81  1  0  0  0
 80154  1  0  0  0
 80155  1  0  0  0
 81156  1  0  0  0
 81157  1  0  0  0
 83158  1  0  0  0
M  ISO  4   1 100  68 101  81 101  83 100
M  END
> <chiral flag>
0

> <version>
0

> <s_m_source_file>
/data/baiqing/PycharmProjects/Reinvent-master-3.2/result/LINK_invent/BTK/process_docking_weight1_custom_sum_contain_oxygen_bond_distance_aromatic_linkinvent_7_9_3/rearranged_h_0103.sdf

> <i_m_source_file_index>
8

> <r_mmod_Potential_Energy-OPLS-2005>
16.6033630371094

> <r_mmod_Stretch_Energy-OPLS-2005>
150.946151733398

> <r_mmod_Bend_Energy-OPLS-2005>
230.340530395508

> <r_mmod_Torsional_Energy-OPLS-2005>
212.436538696289

> <r_mmod_Improper_Torsional_Energy-OPLS-2005>
5.25330972671509

> <r_mmod_Van_der_Waal_Energy-OPLS-2005>
151.616989135742

> <r_mmod_Electrostatic_Energy-OPLS-2005>
-593.073791503906

> <r_mmod_Solvation_Energy-OPLS-2005>
-231.345565795898

> <b_mmod_Minimization_Converged-OPLS-2005>
0

> <r_mmod_RMS_Derivative-OPLS-2005>
3.45879530906677

$$$$
8
                    3D
 Structure written by MMmdl.
189197  0  0  1  0            999 V2000
  -30.7654  -14.4318   20.6292 C   0  0  0  0  0  0
  -30.4124  -12.3070   19.4140 C   0  0  0  0  0  0
  -29.4839  -12.4797   18.1977 C   0  0  0  0  0  0
  -28.0094  -12.3283   18.6154 C   0  0  0  0  0  0
  -27.6509  -13.1848   19.8548 C   0  0  2  0  0  0
  -28.6950  -13.0092   20.9833 C   0  0  0  0  0  0
  -25.2588  -13.8103   20.5654 C   0  0  0  0  0  0
  -24.1830  -13.0412   20.9189 C   0  0  0  0  0  0
  -24.6357  -11.6872   20.8751 C   0  0  0  0  0  0
  -23.9025  -10.4275   21.0422 C   0  0  0  0  0  0
  -24.3592   -9.4193   21.9193 C   0  0  0  0  0  0
  -23.6276   -8.2226   22.0757 C   0  0  0  0  0  0
  -22.4259   -8.0267   21.3545 C   0  0  0  0  0  0
  -21.9888   -9.0238   20.4646 C   0  0  0  0  0  0
  -22.7208  -10.2121   20.3061 C   0  0  0  0  0  0
  -21.6844   -6.0728   22.5280 C   0  0  0  0  0  0
  -21.4007   -6.5635   23.8213 C   0  0  0  0  0  0
  -21.3658   -5.6790   24.9176 C   0  0  0  0  0  0
  -21.6045   -4.3053   24.7229 C   0  0  0  0  0  0
  -21.8820   -3.8143   23.4350 C   0  0  0  0  0  0
  -21.9190   -4.6957   22.3405 C   0  0  0  0  0  0
  -22.7863  -13.5236   21.1854 C   0  0  0  0  0  0
  -22.1661   -4.2143   21.0984 F   0  0  0  0  0  0
  -21.5631   -3.4538   25.7744 F   0  0  0  0  0  0
  -30.0298  -13.3003   20.4329 N   0  0  0  0  0  0
  -26.2967  -12.9215   20.3277 N   0  0  0  0  0  0
  -25.9264  -11.6409   20.5749 N   0  0  0  0  0  0
  -22.0493  -12.8230   22.0404 N   0  0  0  0  0  0
  -25.4329  -15.1818   20.4047 N   0  0  0  0  0  0
  -31.8731  -14.5921   20.1074 O   0  0  0  0  0  0
  -21.6627   -6.8865   21.4239 O   0  0  0  0  0  0
  -22.3564  -14.5551   20.6709 O   0  0  0  0  0  0
  -24.6087  -31.8712   23.2141 C   0  0  0  0  0  0
  -25.8995  -32.4842   23.8426 C   0  0  1  0  0  0
  -27.2512  -27.4772   20.1017 C   0  0  0  0  0  0
  -25.5877  -33.8639   24.2362 N   0  0  0  0  0  0
  -23.3965  -30.4931   21.5521 C   0  0  2  0  0  0
  -24.8494  -28.9637   20.1186 C   0  0  0  0  0  0
  -22.7390  -29.4656   22.5003 C   0  0  0  0  0  0
  -18.0268  -28.1358   22.8496 C   0  0  0  0  0  0
  -24.1486  -36.7327   23.2639 C   0  0  0  0  0  0
  -25.9187  -30.8518   21.3604 C   0  0  0  0  0  0
  -26.0024  -29.4857   20.7177 C   0  0  0  0  0  0
  -27.2051  -28.7495   20.7172 C   0  0  0  0  0  0
  -26.0860  -26.9674   19.4942 C   0  0  0  0  0  0
  -24.8826  -27.6984   19.5069 C   0  0  0  0  0  0
  -23.6069  -29.8236   20.1667 C   0  0  0  0  0  0
  -25.4102  -36.3124   24.0345 C   0  0  1  0  0  0
  -20.5855  -28.3636   23.1330 C   0  0  2  0  0  0
  -20.6752  -26.9373   22.5425 C   0  0  0  0  0  0
  -19.5735  -26.6371   21.5208 C   0  0  0  0  0  0
  -18.1912  -26.7910   22.1617 C   0  0  0  0  0  0
  -19.1518  -28.8812   23.2914 C   0  0  0  0  0  0
  -18.9448  -30.1421   23.8920 C   0  0  0  0  0  0
  -17.6456  -30.6576   24.0556 C   0  0  0  0  0  0
  -25.9018  -34.9484   23.5148 C   0  0  0  0  0  0
  -16.5348  -29.9079   23.6314 C   0  0  0  0  0  0
  -16.7259  -28.6491   23.0343 C   0  0  0  0  0  0
  -26.4452  -31.6593   25.0719 C   0  0  0  0  0  0
  -25.3743  -31.3678   26.1485 C   0  0  0  0  0  0
  -27.0267  -30.3044   24.6023 C   0  0  0  0  0  0
  -27.6049  -32.4287   25.7472 C   0  0  0  0  0  0
  -27.5580  -37.1821   24.8464 C   0  0  0  0  0  0
  -21.4121  -29.3017   22.3747 N   0  0  0  0  0  0
  -26.4296  -37.3798   23.9402 N   0  0  0  0  0  0
  -24.6593  -31.0851   22.1022 N   0  0  0  0  0  0
  -23.4184  -28.8188   23.3019 O   0  0  0  0  0  0
  -28.3727  -26.6802   20.0483 O   0  0  0  0  0  0
  -26.5582  -34.8927   22.4709 O   0  0  0  0  0  0
  -23.5290  -32.1441   23.7563 O   0  0  0  0  0  0
  -30.5423  -19.9446   19.0998 C   0  0  0  0  0  0
  -29.7041  -18.7815   21.0609 C   0  0  0  0  0  0
  -30.0938  -19.9799   20.4305 C   0  0  0  0  0  0
  -30.5246  -18.7445   18.3662 C   0  0  0  0  0  0
  -29.6872  -17.5577   20.3511 C   0  0  0  0  0  0
  -30.0495  -17.5505   18.9706 C   0  0  0  0  0  0
  -29.9031  -16.3027   18.1068 C   0  0  0  0  0  0
  -30.6703  -18.0908   13.8289 C   0  0  0  0  0  0
  -29.2452  -20.1689   13.6913 C   0  0  0  0  0  0
  -31.1986  -15.9077   22.4953 C   0  0  0  0  0  0
  -27.4532  -22.9678   23.1165 C   0  0  0  0  0  0
  -29.9765  -21.3216   21.1365 C   0  0  0  0  0  0
  -30.9925  -18.7972   16.9159 C   0  0  0  0  0  0
  -29.2215  -16.3029   21.1065 C   0  0  0  0  0  0
  -28.7341  -22.0863   20.6321 C   0  0  0  0  0  0
  -29.8733  -19.2557   15.9640 C   0  0  0  0  0  0
  -28.9509  -26.4456   22.4641 C   0  0  0  0  0  0
  -28.6437  -23.5851   21.0099 C   0  0  0  0  0  0
  -27.8994  -25.3176   22.6279 C   0  0  0  0  0  0
  -29.3948  -26.8310   21.0323 C   0  0  0  0  0  0
  -30.3224  -19.4304   14.4996 C   0  0  0  0  0  0
  -30.2820  -15.3518   21.4959 N   0  0  0  0  0  0
  -28.3796  -23.9152   22.4433 N   0  3  1  0  0  0
  -31.4549  -12.3969   19.1035 H   0  0  0  0  0  0
  -30.3167  -11.3012   19.8259 H   0  0  0  0  0  0
  -29.7284  -11.7405   17.4338 H   0  0  0  0  0  0
  -29.6462  -13.4522   17.7349 H   0  0  0  0  0  0
  -27.8320  -11.2739   18.8308 H   0  0  0  0  0  0
  -27.3541  -12.5817   17.7809 H   0  0  0  0  0  0
  -27.6642  -14.2082   19.4986 H   0  0  0  0  0  0
  -28.6761  -11.9850   21.3589 H   0  0  0  0  0  0
  -28.4435  -13.6362   21.8392 H   0  0  0  0  0  0
  -25.2738   -9.5673   22.4763 H   0  0  0  0  0  0
  -23.9990   -7.4615   22.7471 H   0  0  0  0  0  0
  -21.0823   -8.8752   19.8950 H   0  0  0  0  0  0
  -22.3669  -10.9661   19.6170 H   0  0  0  0  0  0
  -21.1995   -7.6142   23.9715 H   0  0  0  0  0  0
  -21.1481   -6.0521   25.9080 H   0  0  0  0  0  0
  -22.0601   -2.7604   23.2853 H   0  0  0  0  0  0
  -22.4091  -11.9875   22.4773 H   0  0  0  0  0  0
  -21.1114  -13.1268   22.2608 H   0  0  0  0  0  0
  -24.6643  -15.8348   20.5110 H   0  0  0  0  0  0
  -26.2761  -15.6199   20.0583 H   0  0  0  0  0  0
  -26.7076  -32.5586   23.1212 H   0  0  0  0  0  0
  -25.0034  -33.9817   25.0509 H   0  0  0  0  0  0
  -22.6819  -31.3068   21.4130 H   0  0  0  0  0  0
  -23.3737  -35.9671   23.3324 H   0  0  0  0  0  0
  -24.3591  -36.8913   22.2051 H   0  0  0  0  0  0
  -23.7248  -37.6544   23.6634 H   0  0  0  0  0  0
  -26.0175  -31.6149   20.5874 H   0  0  0  0  0  0
  -26.8108  -30.9178   21.9708 H   0  0  0  0  0  0
  -28.0829  -29.1750   21.1810 H   0  0  0  0  0  0
  -26.1102  -25.9965   19.0196 H   0  0  0  0  0  0
  -23.9971  -27.2874   19.0419 H   0  0  0  0  0  0
  -23.7122  -30.5983   19.4064 H   0  0  0  0  0  0
  -22.7339  -29.2388   19.8712 H   0  0  0  0  0  0
  -25.1275  -36.2009   25.0839 H   0  0  0  0  0  0
  -20.9957  -28.3200   24.1447 H   0  0  0  0  0  0
  -20.5641  -26.2243   23.3606 H   0  0  0  0  0  0
  -21.6623  -26.7407   22.1225 H   0  0  0  0  0  0
  -19.6894  -25.6286   21.1220 H   0  0  0  0  0  0
  -19.6681  -27.3195   20.6747 H   0  0  0  0  0  0
  -17.4184  -26.6666   21.4018 H   0  0  0  0  0  0
  -18.0305  -26.0044   22.9003 H   0  0  0  0  0  0
  -19.7927  -30.7216   24.2319 H   0  0  0  0  0  0
  -17.5013  -31.6265   24.5140 H   0  0  0  0  0  0
  -15.5344  -30.2987   23.7625 H   0  0  0  0  0  0
  -15.8657  -28.0818   22.7044 H   0  0  0  0  0  0
  -24.5909  -30.7029   25.7829 H   0  0  0  0  0  0
  -24.8940  -32.2830   26.4961 H   0  0  0  0  0  0
  -25.8116  -30.8833   27.0226 H   0  0  0  0  0  0
  -26.2786  -29.6832   24.1085 H   0  0  0  0  0  0
  -27.4082  -29.7239   25.4433 H   0  0  0  0  0  0
  -27.8602  -30.4386   23.9123 H   0  0  0  0  0  0
  -27.2688  -33.3578   26.2087 H   0  0  0  0  0  0
  -28.3841  -32.6857   25.0286 H   0  0  0  0  0  0
  -28.0731  -31.8380   26.5356 H   0  0  0  0  0  0
  -28.2608  -38.0108   24.7493 H   0  0  0  0  0  0
  -28.1068  -36.2640   24.6307 H   0  0  0  0  0  0
  -27.2309  -37.1494   25.8873 H   0  0  0  0  0  0
  -20.9267  -29.8773   21.7011 H   0  0  0  0  0  0
  -26.0196  -38.2883   24.1393 H   0  0  0  0  0  0
  -30.8603  -20.8599   18.6193 H   0  0  0  0  0  0
  -29.3819  -18.8079   22.0929 H   0  0  0  0  0  0
  -29.5099  -16.5493   17.1215 H   0  0  0  0  0  0
  -29.2038  -15.5838   18.5191 H   0  0  0  0  0  0
  -30.8673  -15.8147   17.9662 H   0  0  0  0  0  0
  -30.9688  -18.2387   12.7903 H   0  0  0  0  0  0
  -29.8188  -17.4091   13.8334 H   0  0  0  0  0  0
  -31.4994  -17.5900   14.3285 H   0  0  0  0  0  0
  -29.5676  -20.3387   12.6635 H   0  0  0  0  0  0
  -29.0242  -21.1443   14.1268 H   0  0  0  0  0  0
  -28.3134  -19.6029   13.6586 H   0  0  0  0  0  0
  -30.6556  -16.4085   23.2969 H   0  0  0  0  0  0
  -31.8743  -16.6326   22.0384 H   0  0  0  0  0  0
  -31.8050  -15.1238   22.9526 H   0  0  0  0  0  0
  -27.8533  -21.9552   23.1493 H   0  0  0  0  0  0
  -26.4852  -22.9387   22.6144 H   0  0  0  0  0  0
  -27.2802  -23.2530   24.1550 H   0  0  0  0  0  0
  -30.8817  -21.8971   20.9373 H   0  0  0  0  0  0
  -29.9359  -21.1736   22.2161 H   0  0  0  0  0  0
  -31.4000  -17.8341   16.6119 H   0  0  0  0  0  0
  -31.8315  -19.4914   16.8503 H   0  0  0  0  0  0
  -28.4362  -15.8253   20.5368 H   0  0  0  0  0  0
  -28.7071  -16.6107   22.0180 H   0  0  0  0  0  0
  -27.8216  -21.5476   20.8880 H   0  0  0  0  0  0
  -28.7577  -22.0633   19.5418 H   0  0  0  0  0  0
  -29.4922  -20.2108   16.3292 H   0  0  0  0  0  0
  -29.0323  -18.5634   16.0139 H   0  0  0  0  0  0
  -29.8292  -26.2368   23.0762 H   0  0  0  0  0  0
  -28.5109  -27.3391   22.9090 H   0  0  0  0  0  0
  -27.8444  -24.0182   20.4055 H   0  0  0  0  0  0
  -29.5602  -24.0770   20.6907 H   0  0  0  0  0  0
  -27.0246  -25.5000   22.0035 H   0  0  0  0  0  0
  -27.5307  -25.4138   23.6504 H   0  0  0  0  0  0
  -30.2228  -26.1911   20.7304 H   0  0  0  0  0  0
  -29.8139  -27.8372   21.0149 H   0  0  0  0  0  0
  -31.2179  -20.0545   14.4906 H   0  0  0  0  0  0
  -29.2537  -23.8313   22.9418 H   0  0  0  0  0  0
  1 25  1  0  0  0
  1 30  2  0  0  0
  1 92  1  0  0  0
  2  3  1  0  0  0
  2 25  1  0  0  0
  2 94  1  0  0  0
  2 95  1  0  0  0
  3  4  1  0  0  0
  3 96  1  0  0  0
  3 97  1  0  0  0
  4  5  1  0  0  0
  4 98  1  0  0  0
  4 99  1  0  0  0
  5  6  1  0  0  0
  5 26  1  0  0  0
  5100  1  0  0  0
  6 25  1  0  0  0
  6101  1  0  0  0
  6102  1  0  0  0
  7  8  2  0  0  0
  7 26  1  0  0  0
  7 29  1  0  0  0
  8  9  1  0  0  0
  8 22  1  0  0  0
  9 10  1  0  0  0
  9 27  2  0  0  0
 10 11  2  0  0  0
 10 15  1  0  0  0
 11 12  1  0  0  0
 11103  1  0  0  0
 12 13  2  0  0  0
 12104  1  0  0  0
 13 14  1  0  0  0
 13 31  1  0  0  0
 14 15  2  0  0  0
 14105  1  0  0  0
 15106  1  0  0  0
 16 17  2  0  0  0
 16 21  1  0  0  0
 16 31  1  0  0  0
 17 18  1  0  0  0
 17107  1  0  0  0
 18 19  2  0  0  0
 18108  1  0  0  0
 19 20  1  0  0  0
 19 24  1  0  0  0
 20 21  2  0  0  0
 20109  1  0  0  0
 21 23  1  0  0  0
 22 28  1  0  0  0
 22 32  2  0  0  0
 26 27  1  0  0  0
 28110  1  0  0  0
 28111  1  0  0  0
 29112  1  0  0  0
 29113  1  0  0  0
 33 34  1  0  0  0
 33 66  1  0  0  0
 33 70  2  0  0  0
 34 36  1  0  0  0
 34 59  1  0  0  0
 34114  1  0  0  0
 35 44  2  0  0  0
 35 45  1  0  0  0
 35 68  1  0  0  0
 36 56  1  0  0  0
 36115  1  0  0  0
 37 39  1  0  0  0
 37 47  1  0  0  0
 37 66  1  0  0  0
 37116  1  0  0  0
 38 43  2  0  0  0
 38 46  1  0  0  0
 38 47  1  0  0  0
 39 64  1  0  0  0
 39 67  2  0  0  0
 40 52  1  0  0  0
 40 53  2  0  0  0
 40 58  1  0  0  0
 41117  1  0  0  0
 41118  1  0  0  0
 41119  1  0  0  0
 41 48  1  0  0  0
 42 43  1  0  0  0
 42 66  1  0  0  0
 42120  1  0  0  0
 42121  1  0  0  0
 43 44  1  0  0  0
 44122  1  0  0  0
 45 46  2  0  0  0
 45123  1  0  0  0
 46124  1  0  0  0
 47125  1  0  0  0
 47126  1  0  0  0
 48 56  1  0  0  0
 48 65  1  0  0  0
 48127  1  0  0  0
 49 50  1  0  0  0
 49 53  1  0  0  0
 49 64  1  0  0  0
 49128  1  0  0  0
 50 51  1  0  0  0
 50129  1  0  0  0
 50130  1  0  0  0
 51 52  1  0  0  0
 51131  1  0  0  0
 51132  1  0  0  0
 52133  1  0  0  0
 52134  1  0  0  0
 53 54  1  0  0  0
 54 55  2  0  0  0
 54135  1  0  0  0
 55 57  1  0  0  0
 55136  1  0  0  0
 56 69  2  0  0  0
 57 58  2  0  0  0
 57137  1  0  0  0
 58138  1  0  0  0
 59 60  1  0  0  0
 59 61  1  0  0  0
 59 62  1  0  0  0
 60139  1  0  0  0
 60140  1  0  0  0
 60141  1  0  0  0
 61142  1  0  0  0
 61143  1  0  0  0
 61144  1  0  0  0
 62145  1  0  0  0
 62146  1  0  0  0
 62147  1  0  0  0
 63 65  1  0  0  0
 63148  1  0  0  0
 63149  1  0  0  0
 63150  1  0  0  0
 64151  1  0  0  0
 65152  1  0  0  0
 68 90  1  0  0  0
 71 73  2  0  0  0
 71 74  1  0  0  0
 71153  1  0  0  0
 72 73  1  0  0  0
 72 75  2  0  0  0
 72154  1  0  0  0
 73 82  1  0  0  0
 74 76  2  0  0  0
 74 83  1  0  0  0
 75 76  1  0  0  0
 75 84  1  0  0  0
 76 77  1  0  0  0
 77155  1  0  0  0
 77156  1  0  0  0
 77157  1  0  0  0
 78158  1  0  0  0
 78159  1  0  0  0
 78160  1  0  0  0
 78 91  1  0  0  0
 79 91  1  0  0  0
 79161  1  0  0  0
 79162  1  0  0  0
 79163  1  0  0  0
 80 92  1  0  0  0
 80164  1  0  0  0
 80165  1  0  0  0
 80166  1  0  0  0
 81167  1  0  0  0
 81168  1  0  0  0
 81169  1  0  0  0
 81 93  1  0  0  0
 82 85  1  0  0  0
 82170  1  0  0  0
 82171  1  0  0  0
 83 86  1  0  0  0
 83172  1  0  0  0
 83173  1  0  0  0
 84 92  1  0  0  0
 84174  1  0  0  0
 84175  1  0  0  0
 85 88  1  0  0  0
 85176  1  0  0  0
 85177  1  0  0  0
 86 91  1  0  0  0
 86178  1  0  0  0
 86179  1  0  0  0
 87 89  1  0  0  0
 87 90  1  0  0  0
 87180  1  0  0  0
 87181  1  0  0  0
 88 93  1  0  0  0
 88182  1  0  0  0
 88183  1  0  0  0
 89 93  1  0  0  0
 89184  1  0  0  0
 89185  1  0  0  0
 90186  1  0  0  0
 90187  1  0  0  0
 91188  1  0  0  0
 93189  1  0  0  0
M  CHG  1  93   1
M  ISO  4   1 100  68 101  90 101  92 100
M  END
> <chiral flag>
0

> <version>
0

> <s_m_source_file>
/data/baiqing/PycharmProjects/Reinvent-master-3.2/result/LINK_invent/BTK/process_docking_weight1_custom_sum_contain_oxygen_bond_distance_aromatic_linkinvent_7_9_3/rearranged_h_0103.sdf

> <i_m_source_file_index>
9

> <r_mmod_Potential_Energy-OPLS-2005>
-17.5601787567139

> <r_mmod_Stretch_Energy-OPLS-2005>
40.204216003418

> <r_mmod_Bend_Energy-OPLS-2005>
128.207397460938

> <r_mmod_Torsional_Energy-OPLS-2005>
296.4052734375

> <r_mmod_Improper_Torsional_Energy-OPLS-2005>
4.785315990448

> <r_mmod_Van_der_Waal_Energy-OPLS-2005>
151.495040893555

> <r_mmod_Electrostatic_Energy-OPLS-2005>
-243.852951049805

> <r_mmod_Solvation_Energy-OPLS-2005>
-405.545715332031

> <b_mmod_Minimization_Converged-OPLS-2005>
0

> <r_mmod_RMS_Derivative-OPLS-2005>
0.817126929759979

$$$$
9
                    3D
 Structure written by MMmdl.
159166  0  0  1  0            999 V2000
  -30.6881  -14.6234   20.5217 C   0  0  0  0  0  0
  -30.4278  -12.3884   19.4639 C   0  0  0  0  0  0
  -29.5144  -12.5181   18.2274 C   0  0  0  0  0  0
  -28.0374  -12.3687   18.6373 C   0  0  0  0  0  0
  -27.6567  -13.2360   19.8677 C   0  0  2  0  0  0
  -28.7016  -13.1177   21.0026 C   0  0  0  0  0  0
  -25.2558  -13.8217   20.5727 C   0  0  0  0  0  0
  -24.1844  -13.0450   20.9204 C   0  0  0  0  0  0
  -24.6462  -11.6937   20.8758 C   0  0  0  0  0  0
  -23.9138  -10.4287   21.0441 C   0  0  0  0  0  0
  -24.3672   -9.4175   21.9209 C   0  0  0  0  0  0
  -23.6306   -8.2229   22.0791 C   0  0  0  0  0  0
  -22.4270   -8.0295   21.3586 C   0  0  0  0  0  0
  -21.9942   -9.0280   20.4674 C   0  0  0  0  0  0
  -22.7323  -10.2130   20.3082 C   0  0  0  0  0  0
  -21.6829   -6.0746   22.5292 C   0  0  0  0  0  0
  -21.4019   -6.5661   23.8230 C   0  0  0  0  0  0
  -21.3647   -5.6808   24.9188 C   0  0  0  0  0  0
  -21.6024   -4.3074   24.7229 C   0  0  0  0  0  0
  -21.8821   -3.8159   23.4347 C   0  0  0  0  0  0
  -21.9198   -4.6969   22.3406 C   0  0  0  0  0  0
  -22.7852  -13.5195   21.1833 C   0  0  0  0  0  0
  -22.1670   -4.2163   21.0978 F   0  0  0  0  0  0
  -21.5616   -3.4564   25.7736 F   0  0  0  0  0  0
  -30.0214  -13.4284   20.4364 N   0  0  0  0  0  0
  -26.3020  -12.9455   20.3366 N   0  0  0  0  0  0
  -25.9403  -11.6587   20.5775 N   0  0  0  0  0  0
  -22.0506  -12.8189   22.0379 N   0  0  0  0  0  0
  -25.4186  -15.1952   20.4178 N   0  0  0  0  0  0
  -31.8426  -14.7317   20.0988 O   0  0  0  0  0  0
  -21.6622   -6.8896   21.4264 O   0  0  0  0  0  0
  -22.3527  -14.5524   20.6688 O   0  0  0  0  0  0
  -24.6242  -31.8607   23.2039 C   0  0  0  0  0  0
  -25.9078  -32.4798   23.8379 C   0  0  1  0  0  0
  -27.2430  -27.3256   20.1500 C   0  0  0  0  0  0
  -25.5897  -33.8603   24.2296 N   0  0  0  0  0  0
  -23.4225  -30.4782   21.5443 C   0  0  2  0  0  0
  -24.8761  -28.9339   20.1151 C   0  0  0  0  0  0
  -22.7495  -29.4596   22.4949 C   0  0  0  0  0  0
  -18.0301  -28.1383   22.8488 C   0  0  0  0  0  0
  -24.1484  -36.7293   23.2637 C   0  0  0  0  0  0
  -25.9604  -30.7920   21.3781 C   0  0  0  0  0  0
  -26.0378  -29.4178   20.7269 C   0  0  0  0  0  0
  -27.2199  -28.6246   20.7365 C   0  0  0  0  0  0
  -26.0634  -26.9002   19.4902 C   0  0  0  0  0  0
  -24.8905  -27.6803   19.4834 C   0  0  0  0  0  0
  -23.6407  -29.8078   20.1612 C   0  0  0  0  0  0
  -25.4113  -36.3099   24.0332 C   0  0  1  0  0  0
  -20.5894  -28.3679   23.1294 C   0  0  2  0  0  0
  -20.6767  -26.9403   22.5412 C   0  0  0  0  0  0
  -19.5743  -26.6383   21.5210 C   0  0  0  0  0  0
  -18.1931  -26.7930   22.1627 C   0  0  0  0  0  0
  -19.1544  -28.8858   23.2883 C   0  0  0  0  0  0
  -18.9466  -30.1471   23.8878 C   0  0  0  0  0  0
  -17.6456  -30.6575   24.0567 C   0  0  0  0  0  0
  -25.9053  -34.9465   23.5129 C   0  0  0  0  0  0
  -16.5356  -29.9064   23.6331 C   0  0  0  0  0  0
  -16.7290  -28.6494   23.0341 C   0  0  0  0  0  0
  -26.4477  -31.6598   25.0740 C   0  0  0  0  0  0
  -25.3708  -31.3694   26.1458 C   0  0  0  0  0  0
  -27.0324  -30.3031   24.6178 C   0  0  0  0  0  0
  -27.6054  -32.4321   25.7503 C   0  0  0  0  0  0
  -27.5596  -37.1801   24.8467 C   0  0  0  0  0  0
  -21.4210  -29.3020   22.3690 N   0  0  0  0  0  0
  -26.4298  -37.3794   23.9420 N   0  0  0  0  0  0
  -24.6870  -31.0610   22.0988 N   0  0  0  0  0  0
  -23.4218  -28.8138   23.3034 O   0  0  0  0  0  0
  -28.3714  -26.4956   20.2641 O   0  0  0  0  0  0
  -26.5640  -34.8924   22.4706 O   0  0  0  0  0  0
  -23.5396  -32.1394   23.7363 O   0  0  0  0  0  0
  -28.5791  -21.1021   22.4743 C   0  0  0  0  0  0
  -28.2068  -19.5537   19.6907 C   0  0  0  0  0  0
  -29.1138  -23.9887   20.8608 C   0  0  0  0  0  0
  -28.9668  -22.4761   20.3602 C   0  0  0  0  0  0
  -29.8833  -18.4473   21.2565 C   0  0  0  0  0  0
  -30.3024  -17.1490   20.4065 C   0  0  0  0  0  0
  -28.2360  -25.0403   20.0458 C   0  0  0  0  0  0
  -29.4627  -21.2142   21.2212 C   0  0  2  0  0  0
  -29.5261  -19.7946   20.4505 C   0  0  2  0  0  0
  -29.9801  -15.7448   20.8721 N   0  0  0  0  0  0
  -30.5607  -19.9436   19.4987 O   0  0  0  0  0  0
  -31.4743  -12.4726   19.1694 H   0  0  0  0  0  0
  -30.3289  -11.3958   19.9056 H   0  0  0  0  0  0
  -29.7760  -11.7647   17.4818 H   0  0  0  0  0  0
  -29.6735  -13.4866   17.7482 H   0  0  0  0  0  0
  -27.8720  -11.3157   18.8665 H   0  0  0  0  0  0
  -27.3895  -12.6093   17.7924 H   0  0  0  0  0  0
  -27.6679  -14.2713   19.5246 H   0  0  0  0  0  0
  -28.7057  -12.1130   21.4294 H   0  0  0  0  0  0
  -28.4593  -13.7929   21.8225 H   0  0  0  0  0  0
  -25.2840   -9.5596   22.4766 H   0  0  0  0  0  0
  -23.9999   -7.4596   22.7521 H   0  0  0  0  0  0
  -21.0885   -8.8842   19.8941 H   0  0  0  0  0  0
  -22.3862  -10.9688   19.6180 H   0  0  0  0  0  0
  -21.2030   -7.6177   23.9739 H   0  0  0  0  0  0
  -21.1467   -6.0546   25.9095 H   0  0  0  0  0  0
  -22.0607   -2.7622   23.2848 H   0  0  0  0  0  0
  -22.4139  -11.9842   22.4735 H   0  0  0  0  0  0
  -21.1122  -13.1210   22.2627 H   0  0  0  0  0  0
  -24.6457  -15.8414   20.5289 H   0  0  0  0  0  0
  -26.2676  -15.6443   20.1023 H   0  0  0  0  0  0
  -26.7156  -32.5477   23.1142 H   0  0  0  0  0  0
  -24.9995  -33.9763   25.0404 H   0  0  0  0  0  0
  -22.7164  -31.2964   21.3961 H   0  0  0  0  0  0
  -23.3770  -35.9606   23.3286 H   0  0  0  0  0  0
  -24.3548  -36.8935   22.2052 H   0  0  0  0  0  0
  -23.7214  -37.6479   23.6665 H   0  0  0  0  0  0
  -26.0909  -31.5523   20.6065 H   0  0  0  0  0  0
  -26.8405  -30.8438   22.0077 H   0  0  0  0  0  0
  -28.1043  -28.9888   21.2412 H   0  0  0  0  0  0
  -26.0194  -25.9489   18.9826 H   0  0  0  0  0  0
  -24.0019  -27.3057   18.9935 H   0  0  0  0  0  0
  -23.7613  -30.5777   19.3993 H   0  0  0  0  0  0
  -22.7668  -29.2274   19.8607 H   0  0  0  0  0  0
  -25.1291  -36.1961   25.0828 H   0  0  0  0  0  0
  -20.9987  -28.3225   24.1413 H   0  0  0  0  0  0
  -20.5642  -26.2288   23.3604 H   0  0  0  0  0  0
  -21.6641  -26.7402   22.1217 H   0  0  0  0  0  0
  -19.6887  -25.6289   21.1239 H   0  0  0  0  0  0
  -19.6671  -27.3194   20.6739 H   0  0  0  0  0  0
  -17.4196  -26.6705   21.4031 H   0  0  0  0  0  0
  -18.0321  -26.0067   22.9021 H   0  0  0  0  0  0
  -19.7936  -30.7324   24.2205 H   0  0  0  0  0  0
  -17.4998  -31.6246   24.5193 H   0  0  0  0  0  0
  -15.5348  -30.2959   23.7657 H   0  0  0  0  0  0
  -15.8702  -28.0825   22.7018 H   0  0  0  0  0  0
  -24.5902  -30.7040   25.7743 H   0  0  0  0  0  0
  -24.8868  -32.2839   26.4903 H   0  0  0  0  0  0
  -25.8023  -30.8837   27.0224 H   0  0  0  0  0  0
  -26.2895  -29.6792   24.1203 H   0  0  0  0  0  0
  -27.4032  -29.7272   25.4666 H   0  0  0  0  0  0
  -27.8760  -30.4329   23.9397 H   0  0  0  0  0  0
  -27.2691  -33.3628   26.2088 H   0  0  0  0  0  0
  -28.3854  -32.6877   25.0316 H   0  0  0  0  0  0
  -28.0740  -31.8440   26.5406 H   0  0  0  0  0  0
  -28.2602  -38.0113   24.7558 H   0  0  0  0  0  0
  -28.1110  -36.2651   24.6247 H   0  0  0  0  0  0
  -27.2312  -37.1402   25.8867 H   0  0  0  0  0  0
  -20.9401  -29.8762   21.6905 H   0  0  0  0  0  0
  -26.0187  -38.2874   24.1420 H   0  0  0  0  0  0
  -28.5612  -22.0358   23.0339 H   0  0  0  0  0  0
  -28.9333  -20.3250   23.1508 H   0  0  0  0  0  0
  -27.5461  -20.8692   22.2120 H   0  0  0  0  0  0
  -27.3758  -19.4591   20.3904 H   0  0  0  0  0  0
  -28.2193  -18.6351   19.1076 H   0  0  0  0  0  0
  -27.9625  -20.3597   19.0024 H   0  0  0  0  0  0
  -30.1627  -24.2889   20.8248 H   0  0  0  0  0  0
  -28.8322  -24.0520   21.9140 H   0  0  0  0  0  0
  -29.4342  -22.4358   19.3771 H   0  0  0  0  0  0
  -27.9028  -22.3236   20.1750 H   0  0  0  0  0  0
  -30.7108  -18.6730   21.9320 H   0  0  0  0  0  0
  -29.0521  -18.1995   21.9151 H   0  0  0  0  0  0
  -31.3755  -17.2307   20.2215 H   0  0  0  0  0  0
  -29.8560  -17.2221   19.4166 H   0  0  0  0  0  0
  -27.2110  -24.7323   20.2449 H   0  0  0  0  0  0
  -28.4157  -24.8783   18.9823 H   0  0  0  0  0  0
  -30.4725  -21.4405   21.5699 H   0  0  0  0  0  0
  -29.0355  -15.5716   21.1854 H   0  0  0  0  0  0
  -30.4463  -20.7829   19.0698 H   0  0  0  0  0  0
  1 25  1  0  0  0
  1 30  2  0  0  0
  1 80  1  0  0  0
  2  3  1  0  0  0
  2 25  1  0  0  0
  2 82  1  0  0  0
  2 83  1  0  0  0
  3  4  1  0  0  0
  3 84  1  0  0  0
  3 85  1  0  0  0
  4  5  1  0  0  0
  4 86  1  0  0  0
  4 87  1  0  0  0
  5  6  1  0  0  0
  5 26  1  0  0  0
  5 88  1  0  0  0
  6 25  1  0  0  0
  6 89  1  0  0  0
  6 90  1  0  0  0
  7  8  2  0  0  0
  7 26  1  0  0  0
  7 29  1  0  0  0
  8  9  1  0  0  0
  8 22  1  0  0  0
  9 10  1  0  0  0
  9 27  2  0  0  0
 10 11  2  0  0  0
 10 15  1  0  0  0
 11 12  1  0  0  0
 11 91  1  0  0  0
 12 13  2  0  0  0
 12 92  1  0  0  0
 13 14  1  0  0  0
 13 31  1  0  0  0
 14 15  2  0  0  0
 14 93  1  0  0  0
 15 94  1  0  0  0
 16 17  2  0  0  0
 16 21  1  0  0  0
 16 31  1  0  0  0
 17 18  1  0  0  0
 17 95  1  0  0  0
 18 19  2  0  0  0
 18 96  1  0  0  0
 19 20  1  0  0  0
 19 24  1  0  0  0
 20 21  2  0  0  0
 20 97  1  0  0  0
 21 23  1  0  0  0
 22 28  1  0  0  0
 22 32  2  0  0  0
 26 27  1  0  0  0
 28 98  1  0  0  0
 28 99  1  0  0  0
 29100  1  0  0  0
 29101  1  0  0  0
 33 34  1  0  0  0
 33 66  1  0  0  0
 33 70  2  0  0  0
 34 36  1  0  0  0
 34 59  1  0  0  0
 34102  1  0  0  0
 35 44  2  0  0  0
 35 45  1  0  0  0
 35 68  1  0  0  0
 36 56  1  0  0  0
 36103  1  0  0  0
 37 39  1  0  0  0
 37 47  1  0  0  0
 37 66  1  0  0  0
 37104  1  0  0  0
 38 43  2  0  0  0
 38 46  1  0  0  0
 38 47  1  0  0  0
 39 64  1  0  0  0
 39 67  2  0  0  0
 40 52  1  0  0  0
 40 53  2  0  0  0
 40 58  1  0  0  0
 41105  1  0  0  0
 41106  1  0  0  0
 41107  1  0  0  0
 41 48  1  0  0  0
 42 43  1  0  0  0
 42 66  1  0  0  0
 42108  1  0  0  0
 42109  1  0  0  0
 43 44  1  0  0  0
 44110  1  0  0  0
 45 46  2  0  0  0
 45111  1  0  0  0
 46112  1  0  0  0
 47113  1  0  0  0
 47114  1  0  0  0
 48 56  1  0  0  0
 48 65  1  0  0  0
 48115  1  0  0  0
 49 50  1  0  0  0
 49 53  1  0  0  0
 49 64  1  0  0  0
 49116  1  0  0  0
 50 51  1  0  0  0
 50117  1  0  0  0
 50118  1  0  0  0
 51 52  1  0  0  0
 51119  1  0  0  0
 51120  1  0  0  0
 52121  1  0  0  0
 52122  1  0  0  0
 53 54  1  0  0  0
 54 55  2  0  0  0
 54123  1  0  0  0
 55 57  1  0  0  0
 55124  1  0  0  0
 56 69  2  0  0  0
 57 58  2  0  0  0
 57125  1  0  0  0
 58126  1  0  0  0
 59 60  1  0  0  0
 59 61  1  0  0  0
 59 62  1  0  0  0
 60127  1  0  0  0
 60128  1  0  0  0
 60129  1  0  0  0
 61130  1  0  0  0
 61131  1  0  0  0
 61132  1  0  0  0
 62133  1  0  0  0
 62134  1  0  0  0
 62135  1  0  0  0
 63 65  1  0  0  0
 63136  1  0  0  0
 63137  1  0  0  0
 63138  1  0  0  0
 64139  1  0  0  0
 65140  1  0  0  0
 68 77  1  0  0  0
 71141  1  0  0  0
 71142  1  0  0  0
 71143  1  0  0  0
 71 78  1  0  0  0
 72144  1  0  0  0
 72145  1  0  0  0
 72146  1  0  0  0
 72 79  1  0  0  0
 73 74  1  0  0  0
 73 77  1  0  0  0
 73147  1  0  0  0
 73148  1  0  0  0
 74 78  1  0  0  0
 74149  1  0  0  0
 74150  1  0  0  0
 75 76  1  0  0  0
 75 79  1  0  0  0
 75151  1  0  0  0
 75152  1  0  0  0
 76 80  1  0  0  0
 76153  1  0  0  0
 76154  1  0  0  0
 77155  1  0  0  0
 77156  1  0  0  0
 78 79  1  0  0  0
 78157  1  0  0  0
 79 81  1  0  0  0
 80158  1  0  0  0
 81159  1  0  0  0
M  ISO  4   1 100  68 101  77 101  80 100
M  END
> <chiral flag>
0

> <version>
0

> <s_m_source_file>
/data/baiqing/PycharmProjects/Reinvent-master-3.2/result/LINK_invent/BTK/process_docking_weight1_custom_sum_contain_oxygen_bond_distance_aromatic_linkinvent_7_9_3/rearranged_h_0103.sdf

> <i_m_source_file_index>
10

> <r_mmod_Potential_Energy-OPLS-2005>
45.8242301940918

> <r_mmod_Stretch_Energy-OPLS-2005>
92.9603881835938

> <r_mmod_Bend_Energy-OPLS-2005>
150.51789855957

> <r_mmod_Torsional_Energy-OPLS-2005>
235.552673339844

> <r_mmod_Improper_Torsional_Energy-OPLS-2005>
6.09322452545166

> <r_mmod_Van_der_Waal_Energy-OPLS-2005>
131.668869018555

> <r_mmod_Electrostatic_Energy-OPLS-2005>
-403.476470947266

> <r_mmod_Solvation_Energy-OPLS-2005>
-215.332000732422

> <b_mmod_Minimization_Converged-OPLS-2005>
0

> <r_mmod_RMS_Derivative-OPLS-2005>
3.94164228439331

$$$$
10
                    3D
 Structure written by MMmdl.
167175  0  0  1  0            999 V2000
  -30.6396  -14.6332   20.5316 C   0  0  0  0  0  0
  -30.4306  -12.4074   19.4542 C   0  0  0  0  0  0
  -29.5052  -12.5109   18.2221 C   0  0  0  0  0  0
  -28.0234  -12.3632   18.6258 C   0  0  0  0  0  0
  -27.6440  -13.2309   19.8557 C   0  0  2  0  0  0
  -28.6826  -13.0950   20.9887 C   0  0  0  0  0  0
  -25.2459  -13.8214   20.5687 C   0  0  0  0  0  0
  -24.1766  -13.0449   20.9229 C   0  0  0  0  0  0
  -24.6381  -11.6932   20.8753 C   0  0  0  0  0  0
  -23.9066  -10.4303   21.0415 C   0  0  0  0  0  0
  -24.3623   -9.4214   21.9194 C   0  0  0  0  0  0
  -23.6314   -8.2234   22.0767 C   0  0  0  0  0  0
  -22.4292   -8.0283   21.3542 C   0  0  0  0  0  0
  -21.9910   -9.0267   20.4648 C   0  0  0  0  0  0
  -22.7242  -10.2147   20.3056 C   0  0  0  0  0  0
  -21.6857   -6.0744   22.5267 C   0  0  0  0  0  0
  -21.4017   -6.5639   23.8198 C   0  0  0  0  0  0
  -21.3663   -5.6796   24.9159 C   0  0  0  0  0  0
  -21.6044   -4.3054   24.7215 C   0  0  0  0  0  0
  -21.8817   -3.8149   23.4326 C   0  0  0  0  0  0
  -21.9187   -4.6972   22.3386 C   0  0  0  0  0  0
  -22.7775  -13.5233   21.1865 C   0  0  0  0  0  0
  -22.1654   -4.2150   21.0970 F   0  0  0  0  0  0
  -21.5631   -3.4537   25.7732 F   0  0  0  0  0  0
  -29.9952  -13.4319   20.4206 N   0  0  0  0  0  0
  -26.2912  -12.9444   20.3279 N   0  0  0  0  0  0
  -25.9296  -11.6582   20.5743 N   0  0  0  0  0  0
  -22.0395  -12.8244   22.0423 N   0  0  0  0  0  0
  -25.4094  -15.1931   20.4066 N   0  0  0  0  0  0
  -31.8181  -14.7530   20.1809 O   0  0  0  0  0  0
  -21.6645   -6.8882   21.4237 O   0  0  0  0  0  0
  -22.3420  -14.5528   20.6686 O   0  0  0  0  0  0
  -24.6291  -31.8588   23.2063 C   0  0  0  0  0  0
  -25.9160  -32.4750   23.8379 C   0  0  1  0  0  0
  -27.2134  -27.3252   20.1119 C   0  0  0  0  0  0
  -25.5970  -33.8544   24.2283 N   0  0  0  0  0  0
  -23.4153  -30.4886   21.5479 C   0  0  2  0  0  0
  -24.8537  -28.9446   20.1076 C   0  0  0  0  0  0
  -22.7457  -29.4631   22.4928 C   0  0  0  0  0  0
  -18.0304  -28.1406   22.8523 C   0  0  0  0  0  0
  -24.1487  -36.7294   23.2614 C   0  0  0  0  0  0
  -25.9567  -30.7950   21.3726 C   0  0  0  0  0  0
  -26.0237  -29.4241   20.7092 C   0  0  0  0  0  0
  -27.2018  -28.6252   20.7032 C   0  0  0  0  0  0
  -26.0059  -26.8741   19.5302 C   0  0  0  0  0  0
  -24.8442  -27.6705   19.5169 C   0  0  0  0  0  0
  -23.6279  -29.8341   20.1572 C   0  0  0  0  0  0
  -25.4097  -36.3020   24.0292 C   0  0  1  0  0  0
  -20.5904  -28.3686   23.1333 C   0  0  2  0  0  0
  -20.6793  -26.9420   22.5431 C   0  0  0  0  0  0
  -19.5754  -26.6394   21.5252 C   0  0  0  0  0  0
  -18.1936  -26.7960   22.1654 C   0  0  0  0  0  0
  -19.1556  -28.8858   23.2923 C   0  0  0  0  0  0
  -18.9452  -30.1485   23.8914 C   0  0  0  0  0  0
  -17.6446  -30.6591   24.0575 C   0  0  0  0  0  0
  -25.9056  -34.9418   23.5062 C   0  0  0  0  0  0
  -16.5345  -29.9088   23.6347 C   0  0  0  0  0  0
  -16.7293  -28.6516   23.0349 C   0  0  0  0  0  0
  -26.4529  -31.6566   25.0767 C   0  0  0  0  0  0
  -25.3810  -31.3707   26.1539 C   0  0  0  0  0  0
  -27.0325  -30.2962   24.6229 C   0  0  0  0  0  0
  -27.6059  -32.4307   25.7597 C   0  0  0  0  0  0
  -27.5564  -37.1792   24.8454 C   0  0  0  0  0  0
  -21.4177  -29.3022   22.3685 N   0  0  0  0  0  0
  -26.4253  -37.3737   23.9413 N   0  0  0  0  0  0
  -24.6859  -31.0629   22.0996 N   0  0  0  0  0  0
  -23.4200  -28.8156   23.2968 O   0  0  0  0  0  0
  -28.3575  -26.5178   20.1763 O   0  0  0  0  0  0
  -26.5595  -34.8896   22.4622 O   0  0  0  0  0  0
  -23.5472  -32.1408   23.7410 O   0  0  0  0  0  0
  -28.5426  -19.9941   19.3212 C   0  0  0  0  0  0
  -28.8763  -18.6756   19.7455 C   0  0  0  0  0  0
  -29.8369  -18.4815   20.7812 C   0  0  0  0  0  0
  -29.1382  -21.1465   19.9017 C   0  0  0  0  0  0
  -30.3292  -19.7030   21.3625 C   0  0  0  0  0  0
  -28.2103  -17.5083   19.0407 C   0  0  0  0  0  0
  -32.5074  -20.6674   22.3542 C   0  0  0  0  0  0
  -30.5428  -22.8401   18.7118 C   0  0  0  0  0  0
  -28.2078  -22.5574   17.9542 C   0  0  0  0  0  0
  -30.4053  -17.0851   21.2808 C   0  0  0  0  0  0
  -31.3030  -19.7233   22.5454 C   0  0  0  0  0  0
  -28.6424  -23.8398   20.1164 C   0  0  0  0  0  0
  -28.5056  -25.2719   19.4015 C   0  0  0  0  0  0
  -29.1036  -22.5880   19.2205 C   0  0  0  0  0  0
  -29.9698  -20.9573   20.9517 N   0  0  0  0  0  0
  -29.8944  -15.7252   20.8895 N   0  0  0  0  0  0
  -31.4696  -12.5455   19.1494 H   0  0  0  0  0  0
  -30.3857  -11.4180   19.9102 H   0  0  0  0  0  0
  -29.7753  -11.7529   17.4861 H   0  0  0  0  0  0
  -29.6528  -13.4760   17.7336 H   0  0  0  0  0  0
  -27.8415  -11.3122   18.8511 H   0  0  0  0  0  0
  -27.3788  -12.6126   17.7811 H   0  0  0  0  0  0
  -27.6638  -14.2673   19.5180 H   0  0  0  0  0  0
  -28.6896  -12.0790   21.3834 H   0  0  0  0  0  0
  -28.4278  -13.7435   21.8284 H   0  0  0  0  0  0
  -25.2767   -9.5706   22.4755 H   0  0  0  0  0  0
  -24.0032   -7.4629   22.7490 H   0  0  0  0  0  0
  -21.0828   -8.8803   19.8952 H   0  0  0  0  0  0
  -22.3725  -10.9692   19.6144 H   0  0  0  0  0  0
  -21.2019   -7.6144   23.9709 H   0  0  0  0  0  0
  -21.1485   -6.0515   25.9067 H   0  0  0  0  0  0
  -22.0591   -2.7608   23.2821 H   0  0  0  0  0  0
  -22.4003  -11.9959   22.4912 H   0  0  0  0  0  0
  -21.0974  -13.1234   22.2565 H   0  0  0  0  0  0
  -24.6385  -15.8442   20.5153 H   0  0  0  0  0  0
  -26.2463  -15.6262   20.0431 H   0  0  0  0  0  0
  -26.7225  -32.5383   23.1125 H   0  0  0  0  0  0
  -25.0153  -33.9705   25.0448 H   0  0  0  0  0  0
  -22.7077  -31.3094   21.4148 H   0  0  0  0  0  0
  -23.3706  -35.9677   23.3254 H   0  0  0  0  0  0
  -24.3594  -36.8961   22.2038 H   0  0  0  0  0  0
  -23.7322  -37.6500   23.6705 H   0  0  0  0  0  0
  -26.0926  -31.5649   20.6102 H   0  0  0  0  0  0
  -26.8344  -30.8342   22.0080 H   0  0  0  0  0  0
  -28.0951  -28.9941   21.1862 H   0  0  0  0  0  0
  -25.9064  -25.8758   19.1343 H   0  0  0  0  0  0
  -23.9369  -27.2797   19.0756 H   0  0  0  0  0  0
  -23.7681  -30.6260   19.4211 H   0  0  0  0  0  0
  -22.7418  -29.2865   19.8315 H   0  0  0  0  0  0
  -25.1279  -36.1808   25.0779 H   0  0  0  0  0  0
  -21.0040  -28.3250   24.1442 H   0  0  0  0  0  0
  -20.5784  -26.2266   23.3607 H   0  0  0  0  0  0
  -21.6645  -26.7503   22.1167 H   0  0  0  0  0  0
  -19.6894  -25.6300   21.1276 H   0  0  0  0  0  0
  -19.6690  -27.3235   20.6802 H   0  0  0  0  0  0
  -17.4222  -26.6791   21.4023 H   0  0  0  0  0  0
  -18.0268  -26.0110   22.9044 H   0  0  0  0  0  0
  -19.7905  -30.7330   24.2267 H   0  0  0  0  0  0
  -17.4971  -31.6278   24.5161 H   0  0  0  0  0  0
  -15.5336  -30.2947   23.7658 H   0  0  0  0  0  0
  -15.8725  -28.0822   22.7021 H   0  0  0  0  0  0
  -24.5999  -30.6992   25.7958 H   0  0  0  0  0  0
  -24.9009  -32.2869   26.4974 H   0  0  0  0  0  0
  -25.8219  -30.8947   27.0311 H   0  0  0  0  0  0
  -26.2876  -29.6755   24.1231 H   0  0  0  0  0  0
  -27.3926  -29.7168   25.4735 H   0  0  0  0  0  0
  -27.8814  -30.4162   23.9503 H   0  0  0  0  0  0
  -27.2614  -33.3586   26.2184 H   0  0  0  0  0  0
  -28.3943  -32.6891   25.0520 H   0  0  0  0  0  0
  -28.0682  -31.8448   26.5557 H   0  0  0  0  0  0
  -28.2518  -38.0131   24.7455 H   0  0  0  0  0  0
  -28.1091  -36.2634   24.6288 H   0  0  0  0  0  0
  -27.2295  -37.1486   25.8861 H   0  0  0  0  0  0
  -20.9339  -29.8731   21.6906 H   0  0  0  0  0  0
  -26.0074  -38.2775   24.1452 H   0  0  0  0  0  0
  -27.8624  -20.0954   18.4872 H   0  0  0  0  0  0
  -27.4724  -17.8449   18.3119 H   0  0  0  0  0  0
  -27.6875  -16.8821   19.7610 H   0  0  0  0  0  0
  -28.9532  -16.9067   18.5175 H   0  0  0  0  0  0
  -33.1564  -20.6464   23.2312 H   0  0  0  0  0  0
  -32.1849  -21.7006   22.2183 H   0  0  0  0  0  0
  -33.1018  -20.3878   21.4839 H   0  0  0  0  0  0
  -30.8585  -22.0401   18.0401 H   0  0  0  0  0  0
  -31.2561  -22.8681   19.5371 H   0  0  0  0  0  0
  -30.6380  -23.7724   18.1601 H   0  0  0  0  0  0
  -28.5341  -21.8013   17.2389 H   0  0  0  0  0  0
  -28.2435  -23.4921   17.3982 H   0  0  0  0  0  0
  -27.1634  -22.3635   18.2035 H   0  0  0  0  0  0
  -30.3179  -17.0856   22.3686 H   0  0  0  0  0  0
  -31.4775  -17.1122   21.0787 H   0  0  0  0  0  0
  -31.7092  -18.7366   22.7491 H   0  0  0  0  0  0
  -30.7519  -19.9997   23.4462 H   0  0  0  0  0  0
  -27.6909  -23.5960   20.5886 H   0  0  0  0  0  0
  -29.3505  -23.9381   20.9374 H   0  0  0  0  0  0
  -27.7726  -25.2168   18.6021 H   0  0  0  0  0  0
  -29.4342  -25.4436   18.8623 H   0  0  0  0  0  0
  -28.9236  -15.5432   21.0970 H   0  0  0  0  0  0
  1 25  1  0  0  0
  1 30  2  0  0  0
  1 86  1  0  0  0
  2  3  1  0  0  0
  2 25  1  0  0  0
  2 87  1  0  0  0
  2 88  1  0  0  0
  3  4  1  0  0  0
  3 89  1  0  0  0
  3 90  1  0  0  0
  4  5  1  0  0  0
  4 91  1  0  0  0
  4 92  1  0  0  0
  5  6  1  0  0  0
  5 26  1  0  0  0
  5 93  1  0  0  0
  6 25  1  0  0  0
  6 94  1  0  0  0
  6 95  1  0  0  0
  7  8  2  0  0  0
  7 26  1  0  0  0
  7 29  1  0  0  0
  8  9  1  0  0  0
  8 22  1  0  0  0
  9 10  1  0  0  0
  9 27  2  0  0  0
 10 11  2  0  0  0
 10 15  1  0  0  0
 11 12  1  0  0  0
 11 96  1  0  0  0
 12 13  2  0  0  0
 12 97  1  0  0  0
 13 14  1  0  0  0
 13 31  1  0  0  0
 14 15  2  0  0  0
 14 98  1  0  0  0
 15 99  1  0  0  0
 16 17  2  0  0  0
 16 21  1  0  0  0
 16 31  1  0  0  0
 17 18  1  0  0  0
 17100  1  0  0  0
 18 19  2  0  0  0
 18101  1  0  0  0
 19 20  1  0  0  0
 19 24  1  0  0  0
 20 21  2  0  0  0
 20102  1  0  0  0
 21 23  1  0  0  0
 22 28  1  0  0  0
 22 32  2  0  0  0
 26 27  1  0  0  0
 28103  1  0  0  0
 28104  1  0  0  0
 29105  1  0  0  0
 29106  1  0  0  0
 33 34  1  0  0  0
 33 66  1  0  0  0
 33 70  2  0  0  0
 34 36  1  0  0  0
 34 59  1  0  0  0
 34107  1  0  0  0
 35 44  2  0  0  0
 35 45  1  0  0  0
 35 68  1  0  0  0
 36 56  1  0  0  0
 36108  1  0  0  0
 37 39  1  0  0  0
 37 47  1  0  0  0
 37 66  1  0  0  0
 37109  1  0  0  0
 38 43  2  0  0  0
 38 46  1  0  0  0
 38 47  1  0  0  0
 39 64  1  0  0  0
 39 67  2  0  0  0
 40 52  1  0  0  0
 40 53  2  0  0  0
 40 58  1  0  0  0
 41110  1  0  0  0
 41111  1  0  0  0
 41112  1  0  0  0
 41 48  1  0  0  0
 42 43  1  0  0  0
 42 66  1  0  0  0
 42113  1  0  0  0
 42114  1  0  0  0
 43 44  1  0  0  0
 44115  1  0  0  0
 45 46  2  0  0  0
 45116  1  0  0  0
 46117  1  0  0  0
 47118  1  0  0  0
 47119  1  0  0  0
 48 56  1  0  0  0
 48 65  1  0  0  0
 48120  1  0  0  0
 49 50  1  0  0  0
 49 53  1  0  0  0
 49 64  1  0  0  0
 49121  1  0  0  0
 50 51  1  0  0  0
 50122  1  0  0  0
 50123  1  0  0  0
 51 52  1  0  0  0
 51124  1  0  0  0
 51125  1  0  0  0
 52126  1  0  0  0
 52127  1  0  0  0
 53 54  1  0  0  0
 54 55  2  0  0  0
 54128  1  0  0  0
 55 57  1  0  0  0
 55129  1  0  0  0
 56 69  2  0  0  0
 57 58  2  0  0  0
 57130  1  0  0  0
 58131  1  0  0  0
 59 60  1  0  0  0
 59 61  1  0  0  0
 59 62  1  0  0  0
 60132  1  0  0  0
 60133  1  0  0  0
 60134  1  0  0  0
 61135  1  0  0  0
 61136  1  0  0  0
 61137  1  0  0  0
 62138  1  0  0  0
 62139  1  0  0  0
 62140  1  0  0  0
 63 65  1  0  0  0
 63141  1  0  0  0
 63142  1  0  0  0
 63143  1  0  0  0
 64144  1  0  0  0
 65145  1  0  0  0
 68 83  1  0  0  0
 71 72  2  0  0  0
 71 74  1  0  0  0
 71146  1  0  0  0
 72 73  1  0  0  0
 72 76  1  0  0  0
 73 75  2  0  0  0
 73 80  1  0  0  0
 74 84  1  0  0  0
 74 85  2  0  0  0
 75 81  1  0  0  0
 75 85  1  0  0  0
 76147  1  0  0  0
 76148  1  0  0  0
 76149  1  0  0  0
 77 81  1  0  0  0
 77150  1  0  0  0
 77151  1  0  0  0
 77152  1  0  0  0
 78153  1  0  0  0
 78154  1  0  0  0
 78155  1  0  0  0
 78 84  1  0  0  0
 79 84  1  0  0  0
 79156  1  0  0  0
 79157  1  0  0  0
 79158  1  0  0  0
 80 86  1  0  0  0
 80159  1  0  0  0
 80160  1  0  0  0
 81161  1  0  0  0
 81162  1  0  0  0
 82 83  1  0  0  0
 82 84  1  0  0  0
 82163  1  0  0  0
 82164  1  0  0  0
 83165  1  0  0  0
 83166  1  0  0  0
 86167  1  0  0  0
M  ISO  4   1 100  68 101  83 101  86 100
M  END
> <chiral flag>
0

> <version>
0

> <s_m_source_file>
/data/baiqing/PycharmProjects/Reinvent-master-3.2/result/LINK_invent/BTK/process_docking_weight1_custom_sum_contain_oxygen_bond_distance_aromatic_linkinvent_7_9_3/rearranged_h_0103.sdf

> <i_m_source_file_index>
11

> <r_mmod_Potential_Energy-OPLS-2005>
-105.187774658203

> <r_mmod_Stretch_Energy-OPLS-2005>
89.9866714477539

> <r_mmod_Bend_Energy-OPLS-2005>
172.148132324219

> <r_mmod_Torsional_Energy-OPLS-2005>
194.296890258789

> <r_mmod_Improper_Torsional_Energy-OPLS-2005>
5.52770280838013

> <r_mmod_Van_der_Waal_Energy-OPLS-2005>
158.99089050293

> <r_mmod_Electrostatic_Energy-OPLS-2005>
-558.118896484375

> <r_mmod_Solvation_Energy-OPLS-2005>
-215.36979675293

> <b_mmod_Minimization_Converged-OPLS-2005>
0

> <r_mmod_RMS_Derivative-OPLS-2005>
4.3537917137146

$$$$
11
                    3D
 Structure written by MMmdl.
166174  0  0  1  0            999 V2000
  -30.6724  -14.5619   20.5053 C   0  0  0  0  0  0
  -30.4236  -12.3419   19.4538 C   0  0  0  0  0  0
  -29.5037  -12.4970   18.2241 C   0  0  0  0  0  0
  -28.0248  -12.3513   18.6330 C   0  0  0  0  0  0
  -27.6552  -13.2165   19.8683 C   0  0  2  0  0  0
  -28.6979  -13.0615   20.9999 C   0  0  0  0  0  0
  -25.2559  -13.8175   20.5694 C   0  0  0  0  0  0
  -24.1824  -13.0437   20.9185 C   0  0  0  0  0  0
  -24.6393  -11.6910   20.8735 C   0  0  0  0  0  0
  -23.9066  -10.4291   21.0402 C   0  0  0  0  0  0
  -24.3619   -9.4210   21.9181 C   0  0  0  0  0  0
  -23.6293   -8.2248   22.0756 C   0  0  0  0  0  0
  -22.4276   -8.0285   21.3546 C   0  0  0  0  0  0
  -21.9913   -9.0257   20.4648 C   0  0  0  0  0  0
  -22.7240  -10.2134   20.3052 C   0  0  0  0  0  0
  -21.6852   -6.0740   22.5278 C   0  0  0  0  0  0
  -21.4017   -6.5643   23.8212 C   0  0  0  0  0  0
  -21.3657   -5.6794   24.9174 C   0  0  0  0  0  0
  -21.6045   -4.3058   24.7224 C   0  0  0  0  0  0
  -21.8815   -3.8150   23.4344 C   0  0  0  0  0  0
  -21.9195   -4.6967   22.3402 C   0  0  0  0  0  0
  -22.7846  -13.5229   21.1851 C   0  0  0  0  0  0
  -22.1660   -4.2152   21.0979 F   0  0  0  0  0  0
  -21.5628   -3.4538   25.7736 F   0  0  0  0  0  0
  -30.0214  -13.3642   20.4369 N   0  0  0  0  0  0
  -26.2996  -12.9361   20.3352 N   0  0  0  0  0  0
  -25.9323  -11.6512   20.5774 N   0  0  0  0  0  0
  -22.0494  -12.8223   22.0408 N   0  0  0  0  0  0
  -25.4255  -15.1897   20.4106 N   0  0  0  0  0  0
  -31.8324  -14.6946   20.1056 O   0  0  0  0  0  0
  -21.6644   -6.8884   21.4241 O   0  0  0  0  0  0
  -22.3531  -14.5532   20.6695 O   0  0  0  0  0  0
  -24.6183  -31.8642   23.2048 C   0  0  0  0  0  0
  -25.9059  -32.4802   23.8373 C   0  0  1  0  0  0
  -27.2270  -27.3743   20.1233 C   0  0  0  0  0  0
  -25.5905  -33.8605   24.2304 N   0  0  0  0  0  0
  -23.4105  -30.4855   21.5463 C   0  0  2  0  0  0
  -24.8582  -28.9405   20.1183 C   0  0  0  0  0  0
  -22.7437  -29.4632   22.4964 C   0  0  0  0  0  0
  -18.0279  -28.1381   22.8488 C   0  0  0  0  0  0
  -24.1487  -36.7313   23.2640 C   0  0  0  0  0  0
  -25.9442  -30.8092   21.3699 C   0  0  0  0  0  0
  -26.0190  -29.4354   20.7275 C   0  0  0  0  0  0
  -27.2079  -28.6586   20.7296 C   0  0  0  0  0  0
  -26.0605  -26.9234   19.4775 C   0  0  0  0  0  0
  -24.8761  -27.6848   19.4890 C   0  0  0  0  0  0
  -23.6231  -29.8155   20.1627 C   0  0  0  0  0  0
  -25.4100  -36.3100   24.0337 C   0  0  1  0  0  0
  -20.5872  -28.3668   23.1311 C   0  0  2  0  0  0
  -20.6764  -26.9403   22.5414 C   0  0  0  0  0  0
  -19.5739  -26.6376   21.5216 C   0  0  0  0  0  0
  -18.1918  -26.7929   22.1620 C   0  0  0  0  0  0
  -19.1532  -28.8843   23.2898 C   0  0  0  0  0  0
  -18.9456  -30.1463   23.8889 C   0  0  0  0  0  0
  -17.6458  -30.6585   24.0567 C   0  0  0  0  0  0
  -25.9036  -34.9468   23.5115 C   0  0  0  0  0  0
  -16.5349  -29.9082   23.6326 C   0  0  0  0  0  0
  -16.7268  -28.6502   23.0346 C   0  0  0  0  0  0
  -26.4465  -31.6597   25.0724 C   0  0  0  0  0  0
  -25.3728  -31.3724   26.1471 C   0  0  0  0  0  0
  -27.0303  -30.3033   24.6145 C   0  0  0  0  0  0
  -27.6030  -32.4329   25.7491 C   0  0  0  0  0  0
  -27.5574  -37.1806   24.8468 C   0  0  0  0  0  0
  -21.4157  -29.3036   22.3718 N   0  0  0  0  0  0
  -26.4281  -37.3794   23.9415 N   0  0  0  0  0  0
  -24.6762  -31.0705   22.0973 N   0  0  0  0  0  0
  -23.4191  -28.8168   23.3020 O   0  0  0  0  0  0
  -28.3730  -26.5994   20.0562 O   0  0  0  0  0  0
  -26.5609  -34.8926   22.4686 O   0  0  0  0  0  0
  -23.5357  -32.1406   23.7404 O   0  0  0  0  0  0
  -29.0483  -18.0622   22.4980 C   0  0  0  0  0  0
  -29.5312  -19.5428   20.9052 C   0  0  0  0  0  0
  -29.6194  -18.1918   21.2058 C   0  0  0  0  0  0
  -28.6665  -19.2939   22.9569 C   0  0  0  0  0  0
  -29.2078  -19.6370   25.3769 C   0  0  0  0  0  0
  -26.9637  -18.6833   24.7127 C   0  0  0  0  0  0
  -26.5574  -23.8369   21.0198 C   0  0  0  0  0  0
  -30.2374  -17.0461   20.3824 C   0  0  0  0  0  0
  -28.9273  -22.7742   21.0004 C   0  0  0  0  0  0
  -28.6890  -21.7036   22.1555 C   0  0  0  0  0  0
  -28.5361  -25.4838   20.9780 C   0  0  0  0  0  0
  -28.1017  -19.6323   24.3130 C   0  0  0  0  0  0
  -28.0266  -24.0330   20.5652 C   0  0  2  0  0  0
  -28.9514  -20.2432   21.9712 N   0  0  0  0  0  0
  -29.9162  -15.6513   20.7962 N   0  0  0  0  0  0
  -31.4701  -12.4353   19.1585 H   0  0  0  0  0  0
  -30.3250  -11.3456   19.8869 H   0  0  0  0  0  0
  -29.7569  -11.7528   17.4679 H   0  0  0  0  0  0
  -29.6645  -13.4723   17.7612 H   0  0  0  0  0  0
  -27.8477  -11.2982   18.8551 H   0  0  0  0  0  0
  -27.3747  -12.5978   17.7927 H   0  0  0  0  0  0
  -27.6798  -14.2542   19.5351 H   0  0  0  0  0  0
  -28.6874  -12.0451   21.3962 H   0  0  0  0  0  0
  -28.4608  -13.7143   21.8418 H   0  0  0  0  0  0
  -25.2760   -9.5691   22.4753 H   0  0  0  0  0  0
  -24.0003   -7.4644   22.7472 H   0  0  0  0  0  0
  -21.0846   -8.8772   19.8950 H   0  0  0  0  0  0
  -22.3696  -10.9675   19.6160 H   0  0  0  0  0  0
  -21.2006   -7.6150   23.9717 H   0  0  0  0  0  0
  -21.1484   -6.0525   25.9078 H   0  0  0  0  0  0
  -22.0596   -2.7611   23.2842 H   0  0  0  0  0  0
  -22.4118  -11.9891   22.4800 H   0  0  0  0  0  0
  -21.1105  -13.1240   22.2601 H   0  0  0  0  0  0
  -24.6584  -15.8429   20.5272 H   0  0  0  0  0  0
  -26.2767  -15.6350   20.0913 H   0  0  0  0  0  0
  -26.7130  -32.5481   23.1125 H   0  0  0  0  0  0
  -25.0075  -33.9767   25.0463 H   0  0  0  0  0  0
  -22.7023  -31.3042   21.4027 H   0  0  0  0  0  0
  -23.3742  -35.9653   23.3311 H   0  0  0  0  0  0
  -24.3583  -36.8922   22.2053 H   0  0  0  0  0  0
  -23.7247  -37.6524   23.6651 H   0  0  0  0  0  0
  -26.0689  -31.5675   20.5955 H   0  0  0  0  0  0
  -26.8288  -30.8639   21.9916 H   0  0  0  0  0  0
  -28.1059  -29.0395   21.1945 H   0  0  0  0  0  0
  -26.0697  -25.9778   18.9540 H   0  0  0  0  0  0
  -23.9905  -27.3040   18.9988 H   0  0  0  0  0  0
  -23.7389  -30.5897   19.4039 H   0  0  0  0  0  0
  -22.7464  -29.2392   19.8631 H   0  0  0  0  0  0
  -25.1285  -36.1960   25.0830 H   0  0  0  0  0  0
  -20.9977  -28.3228   24.1428 H   0  0  0  0  0  0
  -20.5688  -26.2267   23.3598 H   0  0  0  0  0  0
  -21.6625  -26.7432   22.1195 H   0  0  0  0  0  0
  -19.6905  -25.6287   21.1242 H   0  0  0  0  0  0
  -19.6686  -27.3193   20.6755 H   0  0  0  0  0  0
  -17.4191  -26.6695   21.4024 H   0  0  0  0  0  0
  -18.0300  -26.0074   22.9016 H   0  0  0  0  0  0
  -19.7939  -30.7283   24.2239 H   0  0  0  0  0  0
  -17.5012  -31.6264   24.5173 H   0  0  0  0  0  0
  -15.5355  -30.2976   23.7660 H   0  0  0  0  0  0
  -15.8664  -28.0826   22.7037 H   0  0  0  0  0  0
  -24.5893  -30.7077   25.7825 H   0  0  0  0  0  0
  -24.8928  -32.2888   26.4916 H   0  0  0  0  0  0
  -25.8078  -30.8894   27.0227 H   0  0  0  0  0  0
  -26.2857  -29.6798   24.1184 H   0  0  0  0  0  0
  -27.4061  -29.7258   25.4610 H   0  0  0  0  0  0
  -27.8705  -30.4359   23.9316 H   0  0  0  0  0  0
  -27.2638  -33.3623   26.2073 H   0  0  0  0  0  0
  -28.3834  -32.6909   25.0317 H   0  0  0  0  0  0
  -28.0715  -31.8452   26.5401 H   0  0  0  0  0  0
  -28.2593  -38.0101   24.7498 H   0  0  0  0  0  0
  -28.1064  -36.2629   24.6299 H   0  0  0  0  0  0
  -27.2302  -37.1468   25.8877 H   0  0  0  0  0  0
  -20.9327  -29.8771   21.6946 H   0  0  0  0  0  0
  -26.0173  -38.2876   24.1407 H   0  0  0  0  0  0
  -28.9636  -17.1461   23.0669 H   0  0  0  0  0  0
  -29.8547  -20.0816   20.0235 H   0  0  0  0  0  0
  -29.9818  -20.3644   25.1299 H   0  0  0  0  0  0
  -29.6863  -18.6598   25.4557 H   0  0  0  0  0  0
  -28.8157  -19.8971   26.3610 H   0  0  0  0  0  0
  -26.1538  -18.7205   23.9834 H   0  0  0  0  0  0
  -26.5424  -18.9600   25.6800 H   0  0  0  0  0  0
  -27.3006  -17.6490   24.7824 H   0  0  0  0  0  0
  -26.1245  -22.9228   20.6141 H   0  0  0  0  0  0
  -25.9091  -24.6496   20.7097 H   0  0  0  0  0  0
  -26.4851  -23.7834   22.1070 H   0  0  0  0  0  0
  -31.3187  -17.1940   20.3911 H   0  0  0  0  0  0
  -29.9258  -17.1678   19.3436 H   0  0  0  0  0  0
  -28.9025  -23.3892   21.8951 H   0  0  0  0  0  0
  -28.2258  -22.1617   20.4333 H   0  0  0  0  0  0
  -27.6440  -21.7793   22.4624 H   0  0  0  0  0  0
  -29.2705  -21.9558   23.0515 H   0  0  0  0  0  0
  -29.6151  -25.4213   21.1220 H   0  0  0  0  0  0
  -28.1416  -25.7600   21.9579 H   0  0  0  0  0  0
  -27.6670  -20.6295   24.3089 H   0  0  0  0  0  0
  -28.0286  -24.0348   19.4734 H   0  0  0  0  0  0
  -28.9729  -15.4795   21.1067 H   0  0  0  0  0  0
  1 25  1  0  0  0
  1 30  2  0  0  0
  1 85  1  0  0  0
  2  3  1  0  0  0
  2 25  1  0  0  0
  2 86  1  0  0  0
  2 87  1  0  0  0
  3  4  1  0  0  0
  3 88  1  0  0  0
  3 89  1  0  0  0
  4  5  1  0  0  0
  4 90  1  0  0  0
  4 91  1  0  0  0
  5  6  1  0  0  0
  5 26  1  0  0  0
  5 92  1  0  0  0
  6 25  1  0  0  0
  6 93  1  0  0  0
  6 94  1  0  0  0
  7  8  2  0  0  0
  7 26  1  0  0  0
  7 29  1  0  0  0
  8  9  1  0  0  0
  8 22  1  0  0  0
  9 10  1  0  0  0
  9 27  2  0  0  0
 10 11  2  0  0  0
 10 15  1  0  0  0
 11 12  1  0  0  0
 11 95  1  0  0  0
 12 13  2  0  0  0
 12 96  1  0  0  0
 13 14  1  0  0  0
 13 31  1  0  0  0
 14 15  2  0  0  0
 14 97  1  0  0  0
 15 98  1  0  0  0
 16 17  2  0  0  0
 16 21  1  0  0  0
 16 31  1  0  0  0
 17 18  1  0  0  0
 17 99  1  0  0  0
 18 19  2  0  0  0
 18100  1  0  0  0
 19 20  1  0  0  0
 19 24  1  0  0  0
 20 21  2  0  0  0
 20101  1  0  0  0
 21 23  1  0  0  0
 22 28  1  0  0  0
 22 32  2  0  0  0
 26 27  1  0  0  0
 28102  1  0  0  0
 28103  1  0  0  0
 29104  1  0  0  0
 29105  1  0  0  0
 33 34  1  0  0  0
 33 66  1  0  0  0
 33 70  2  0  0  0
 34 36  1  0  0  0
 34 59  1  0  0  0
 34106  1  0  0  0
 35 44  2  0  0  0
 35 45  1  0  0  0
 35 68  1  0  0  0
 36 56  1  0  0  0
 36107  1  0  0  0
 37 39  1  0  0  0
 37 47  1  0  0  0
 37 66  1  0  0  0
 37108  1  0  0  0
 38 43  2  0  0  0
 38 46  1  0  0  0
 38 47  1  0  0  0
 39 64  1  0  0  0
 39 67  2  0  0  0
 40 52  1  0  0  0
 40 53  2  0  0  0
 40 58  1  0  0  0
 41109  1  0  0  0
 41110  1  0  0  0
 41111  1  0  0  0
 41 48  1  0  0  0
 42 43  1  0  0  0
 42 66  1  0  0  0
 42112  1  0  0  0
 42113  1  0  0  0
 43 44  1  0  0  0
 44114  1  0  0  0
 45 46  2  0  0  0
 45115  1  0  0  0
 46116  1  0  0  0
 47117  1  0  0  0
 47118  1  0  0  0
 48 56  1  0  0  0
 48 65  1  0  0  0
 48119  1  0  0  0
 49 50  1  0  0  0
 49 53  1  0  0  0
 49 64  1  0  0  0
 49120  1  0  0  0
 50 51  1  0  0  0
 50121  1  0  0  0
 50122  1  0  0  0
 51 52  1  0  0  0
 51123  1  0  0  0
 51124  1  0  0  0
 52125  1  0  0  0
 52126  1  0  0  0
 53 54  1  0  0  0
 54 55  2  0  0  0
 54127  1  0  0  0
 55 57  1  0  0  0
 55128  1  0  0  0
 56 69  2  0  0  0
 57 58  2  0  0  0
 57129  1  0  0  0
 58130  1  0  0  0
 59 60  1  0  0  0
 59 61  1  0  0  0
 59 62  1  0  0  0
 60131  1  0  0  0
 60132  1  0  0  0
 60133  1  0  0  0
 61134  1  0  0  0
 61135  1  0  0  0
 61136  1  0  0  0
 62137  1  0  0  0
 62138  1  0  0  0
 62139  1  0  0  0
 63 65  1  0  0  0
 63140  1  0  0  0
 63141  1  0  0  0
 63142  1  0  0  0
 64143  1  0  0  0
 65144  1  0  0  0
 68 81  1  0  0  0
 71 73  1  0  0  0
 71 74  2  0  0  0
 71145  1  0  0  0
 72 73  2  0  0  0
 72 84  1  0  0  0
 72146  1  0  0  0
 73 78  1  0  0  0
 74 82  1  0  0  0
 74 84  1  0  0  0
 75147  1  0  0  0
 75148  1  0  0  0
 75149  1  0  0  0
 75 82  1  0  0  0
 76 82  1  0  0  0
 76150  1  0  0  0
 76151  1  0  0  0
 76152  1  0  0  0
 77153  1  0  0  0
 77154  1  0  0  0
 77155  1  0  0  0
 77 83  1  0  0  0
 78 85  1  0  0  0
 78156  1  0  0  0
 78157  1  0  0  0
 79 80  1  0  0  0
 79 83  1  0  0  0
 79158  1  0  0  0
 79159  1  0  0  0
 80 84  1  0  0  0
 80160  1  0  0  0
 80161  1  0  0  0
 81 83  1  0  0  0
 81162  1  0  0  0
 81163  1  0  0  0
 82164  1  0  0  0
 83165  1  0  0  0
 85166  1  0  0  0
M  ISO  4   1 100  68 101  81 101  85 100
M  END
> <chiral flag>
0

> <version>
0

> <s_m_source_file>
/data/baiqing/PycharmProjects/Reinvent-master-3.2/result/LINK_invent/BTK/process_docking_weight1_custom_sum_contain_oxygen_bond_distance_aromatic_linkinvent_7_9_3/rearranged_h_0103.sdf

> <i_m_source_file_index>
12

> <r_mmod_Potential_Energy-OPLS-2005>
222.981552124023

> <r_mmod_Stretch_Energy-OPLS-2005>
62.8379058837891

> <r_mmod_Bend_Energy-OPLS-2005>
362.7841796875

> <r_mmod_Torsional_Energy-OPLS-2005>
264.409088134766

> <r_mmod_Improper_Torsional_Energy-OPLS-2005>
6.70674610137939

> <r_mmod_Van_der_Waal_Energy-OPLS-2005>
138.34782409668

> <r_mmod_Electrostatic_Energy-OPLS-2005>
-438.579467773438

> <r_mmod_Solvation_Energy-OPLS-2005>
-199.549301147461

> <b_mmod_Minimization_Converged-OPLS-2005>
0

> <r_mmod_RMS_Derivative-OPLS-2005>
1.55014169216156

$$$$
12
                    3D
 Structure written by MMmdl.
172180  0  0  1  0            999 V2000
  -30.6641  -14.5772   20.5464 C   0  0  0  0  0  0
  -30.4296  -12.3643   19.4431 C   0  0  0  0  0  0
  -29.5052  -12.5052   18.2167 C   0  0  0  0  0  0
  -28.0262  -12.3558   18.6281 C   0  0  0  0  0  0
  -27.6557  -13.2166   19.8653 C   0  0  2  0  0  0
  -28.6977  -13.0522   20.9929 C   0  0  0  0  0  0
  -25.2570  -13.8175   20.5678 C   0  0  0  0  0  0
  -24.1834  -13.0436   20.9188 C   0  0  0  0  0  0
  -24.6396  -11.6911   20.8721 C   0  0  0  0  0  0
  -23.9053  -10.4294   21.0385 C   0  0  0  0  0  0
  -24.3599   -9.4216   21.9176 C   0  0  0  0  0  0
  -23.6276   -8.2247   22.0743 C   0  0  0  0  0  0
  -22.4267   -8.0272   21.3531 C   0  0  0  0  0  0
  -21.9897   -9.0248   20.4644 C   0  0  0  0  0  0
  -22.7216  -10.2134   20.3047 C   0  0  0  0  0  0
  -21.6856   -6.0730   22.5275 C   0  0  0  0  0  0
  -21.4013   -6.5636   23.8213 C   0  0  0  0  0  0
  -21.3665   -5.6784   24.9177 C   0  0  0  0  0  0
  -21.6042   -4.3045   24.7231 C   0  0  0  0  0  0
  -21.8817   -3.8141   23.4350 C   0  0  0  0  0  0
  -21.9190   -4.6953   22.3407 C   0  0  0  0  0  0
  -22.7862  -13.5237   21.1859 C   0  0  0  0  0  0
  -22.1655   -4.2146   21.0980 F   0  0  0  0  0  0
  -21.5640   -3.4526   25.7738 F   0  0  0  0  0  0
  -30.0142  -13.3806   20.4271 N   0  0  0  0  0  0
  -26.2997  -12.9357   20.3313 N   0  0  0  0  0  0
  -25.9321  -11.6511   20.5740 N   0  0  0  0  0  0
  -22.0487  -12.8246   22.0417 N   0  0  0  0  0  0
  -25.4289  -15.1893   20.4097 N   0  0  0  0  0  0
  -31.8208  -14.7277   20.1460 O   0  0  0  0  0  0
  -21.6631   -6.8867   21.4237 O   0  0  0  0  0  0
  -22.3554  -14.5542   20.6709 O   0  0  0  0  0  0
  -24.6217  -31.8622   23.2044 C   0  0  0  0  0  0
  -25.9079  -32.4796   23.8362 C   0  0  1  0  0  0
  -27.2324  -27.3589   20.1184 C   0  0  0  0  0  0
  -25.5906  -33.8596   24.2287 N   0  0  0  0  0  0
  -23.4135  -30.4841   21.5466 C   0  0  2  0  0  0
  -24.8604  -28.9368   20.1182 C   0  0  0  0  0  0
  -22.7447  -29.4632   22.4962 C   0  0  0  0  0  0
  -18.0277  -28.1384   22.8494 C   0  0  0  0  0  0
  -24.1483  -36.7297   23.2640 C   0  0  0  0  0  0
  -25.9500  -30.8054   21.3698 C   0  0  0  0  0  0
  -26.0255  -29.4342   20.7154 C   0  0  0  0  0  0
  -27.2150  -28.6573   20.7009 C   0  0  0  0  0  0
  -26.0461  -26.8941   19.5101 C   0  0  0  0  0  0
  -24.8700  -27.6704   19.5090 C   0  0  0  0  0  0
  -23.6274  -29.8147   20.1630 C   0  0  0  0  0  0
  -25.4111  -36.3094   24.0332 C   0  0  1  0  0  0
  -20.5873  -28.3678   23.1301 C   0  0  2  0  0  0
  -20.6768  -26.9405   22.5416 C   0  0  0  0  0  0
  -19.5745  -26.6389   21.5217 C   0  0  0  0  0  0
  -18.1923  -26.7931   22.1627 C   0  0  0  0  0  0
  -19.1528  -28.8848   23.2895 C   0  0  0  0  0  0
  -18.9455  -30.1454   23.8906 C   0  0  0  0  0  0
  -17.6457  -30.6588   24.0570 C   0  0  0  0  0  0
  -25.9047  -34.9464   23.5113 C   0  0  0  0  0  0
  -16.5346  -29.9089   23.6333 C   0  0  0  0  0  0
  -16.7265  -28.6506   23.0352 C   0  0  0  0  0  0
  -26.4483  -31.6600   25.0722 C   0  0  0  0  0  0
  -25.3730  -31.3733   26.1459 C   0  0  0  0  0  0
  -27.0329  -30.3028   24.6162 C   0  0  0  0  0  0
  -27.6045  -32.4338   25.7487 C   0  0  0  0  0  0
  -27.5578  -37.1805   24.8465 C   0  0  0  0  0  0
  -21.4165  -29.3035   22.3698 N   0  0  0  0  0  0
  -26.4291  -37.3786   23.9407 N   0  0  0  0  0  0
  -24.6799  -31.0666   22.0980 N   0  0  0  0  0  0
  -23.4185  -28.8183   23.3037 O   0  0  0  0  0  0
  -28.3966  -26.5942   20.1077 O   0  0  0  0  0  0
  -26.5616  -34.8924   22.4679 O   0  0  0  0  0  0
  -23.5391  -32.1401   23.7395 O   0  0  0  0  0  0
  -29.4998  -18.3386   19.2714 C   0  0  0  0  0  0
  -29.5832  -19.4963   21.1594 C   0  0  0  0  0  0
  -29.8308  -18.2318   20.6500 C   0  0  0  0  0  0
  -29.1060  -19.6225   18.9774 C   0  0  0  0  0  0
  -27.1490  -20.2991   17.5449 C   0  0  0  0  0  0
  -29.2281  -19.4008   16.4595 C   0  0  0  0  0  0
  -31.2806  -22.2945   20.1022 C   0  0  0  0  0  0
  -30.8190  -25.3026   20.6387 C   0  0  0  0  0  0
  -29.8781  -24.4487   18.4741 C   0  0  0  0  0  0
  -30.4128  -16.9914   21.3766 C   0  0  0  0  0  0
  -28.7731  -21.8301   20.3084 C   0  0  0  0  0  0
  -28.3493  -25.1448   20.3523 C   0  0  0  0  0  0
  -28.6788  -20.1989   17.6535 C   0  0  0  0  0  0
  -29.9173  -22.8988   20.5387 C   0  0  2  0  0  0
  -29.7125  -24.4129   20.0087 C   0  0  0  0  0  0
  -29.1519  -20.3774   20.1538 N   0  0  0  0  0  0
  -29.9313  -15.6296   21.0023 N   0  0  0  0  0  0
  -31.4730  -12.4739   19.1429 H   0  0  0  0  0  0
  -30.3439  -11.3653   19.8739 H   0  0  0  0  0  0
  -29.7623  -11.7584   17.4644 H   0  0  0  0  0  0
  -29.6640  -13.4790   17.7497 H   0  0  0  0  0  0
  -27.8546  -11.3024   18.8506 H   0  0  0  0  0  0
  -27.3734  -12.5994   17.7888 H   0  0  0  0  0  0
  -27.6824  -14.2583   19.5436 H   0  0  0  0  0  0
  -28.6985  -12.0284   21.3701 H   0  0  0  0  0  0
  -28.4520  -13.6830   21.8483 H   0  0  0  0  0  0
  -25.2730   -9.5707   22.4768 H   0  0  0  0  0  0
  -23.9985   -7.4645   22.7467 H   0  0  0  0  0  0
  -21.0827   -8.8766   19.8954 H   0  0  0  0  0  0
  -22.3654  -10.9672   19.6171 H   0  0  0  0  0  0
  -21.2000   -7.6143   23.9716 H   0  0  0  0  0  0
  -21.1494   -6.0517   25.9084 H   0  0  0  0  0  0
  -22.0593   -2.7601   23.2852 H   0  0  0  0  0  0
  -22.4047  -11.9890   22.4812 H   0  0  0  0  0  0
  -21.1112  -13.1318   22.2593 H   0  0  0  0  0  0
  -24.6658  -15.8475   20.5272 H   0  0  0  0  0  0
  -26.2838  -15.6283   20.0900 H   0  0  0  0  0  0
  -26.7151  -32.5484   23.1119 H   0  0  0  0  0  0
  -25.0052  -33.9746   25.0430 H   0  0  0  0  0  0
  -22.7062  -31.3035   21.4035 H   0  0  0  0  0  0
  -23.3750  -35.9627   23.3313 H   0  0  0  0  0  0
  -24.3571  -36.8907   22.2053 H   0  0  0  0  0  0
  -23.7234  -37.6500   23.6656 H   0  0  0  0  0  0
  -26.0776  -31.5713   20.6035 H   0  0  0  0  0  0
  -26.8318  -30.8531   21.9976 H   0  0  0  0  0  0
  -28.1171  -29.0414   21.1561 H   0  0  0  0  0  0
  -26.0171  -25.9345   19.0168 H   0  0  0  0  0  0
  -23.9771  -27.2850   19.0357 H   0  0  0  0  0  0
  -23.7461  -30.5900   19.4050 H   0  0  0  0  0  0
  -22.7486  -29.2417   19.8614 H   0  0  0  0  0  0
  -25.1293  -36.1953   25.0826 H   0  0  0  0  0  0
  -20.9969  -28.3251   24.1423 H   0  0  0  0  0  0
  -20.5675  -26.2286   23.3610 H   0  0  0  0  0  0
  -21.6638  -26.7448   22.1204 H   0  0  0  0  0  0
  -19.6906  -25.6307   21.1234 H   0  0  0  0  0  0
  -19.6683  -27.3214   20.6760 H   0  0  0  0  0  0
  -17.4195  -26.6685   21.4025 H   0  0  0  0  0  0
  -18.0318  -26.0067   22.9017 H   0  0  0  0  0  0
  -19.7931  -30.7268   24.2274 H   0  0  0  0  0  0
  -17.5011  -31.6267   24.5170 H   0  0  0  0  0  0
  -15.5346  -30.2996   23.7653 H   0  0  0  0  0  0
  -15.8665  -28.0833   22.7060 H   0  0  0  0  0  0
  -24.5883  -30.7111   25.7783 H   0  0  0  0  0  0
  -24.8952  -32.2906   26.4909 H   0  0  0  0  0  0
  -25.8059  -30.8881   27.0215 H   0  0  0  0  0  0
  -26.2901  -29.6780   24.1191 H   0  0  0  0  0  0
  -27.4040  -29.7282   25.4658 H   0  0  0  0  0  0
  -27.8761  -30.4318   23.9374 H   0  0  0  0  0  0
  -27.2648  -33.3632   26.2068 H   0  0  0  0  0  0
  -28.3846  -32.6911   25.0313 H   0  0  0  0  0  0
  -28.0724  -31.8470   26.5399 H   0  0  0  0  0  0
  -28.2603  -38.0095   24.7509 H   0  0  0  0  0  0
  -28.1065  -36.2628   24.6295 H   0  0  0  0  0  0
  -27.2295  -37.1462   25.8867 H   0  0  0  0  0  0
  -20.9335  -29.8743   21.6903 H   0  0  0  0  0  0
  -26.0177  -38.2863   24.1406 H   0  0  0  0  0  0
  -29.5758  -17.5397   18.5470 H   0  0  0  0  0  0
  -29.7007  -19.8670   22.1693 H   0  0  0  0  0  0
  -26.7205  -20.9209   18.3293 H   0  0  0  0  0  0
  -26.6852  -19.3152   17.6223 H   0  0  0  0  0  0
  -26.8510  -20.7309   16.5891 H   0  0  0  0  0  0
  -30.3125  -19.3011   16.5151 H   0  0  0  0  0  0
  -28.9943  -19.8970   15.5171 H   0  0  0  0  0  0
  -28.8021  -18.3973   16.4159 H   0  0  0  0  0  0
  -31.2726  -22.0077   19.0510 H   0  0  0  0  0  0
  -31.5156  -21.3999   20.6772 H   0  0  0  0  0  0
  -32.1311  -22.9532   20.2522 H   0  0  0  0  0  0
  -30.7532  -26.3407   20.3124 H   0  0  0  0  0  0
  -31.8269  -24.9988   20.3703 H   0  0  0  0  0  0
  -30.7510  -25.3048   21.7271 H   0  0  0  0  0  0
  -29.6934  -25.4478   18.0770 H   0  0  0  0  0  0
  -29.1854  -23.7697   17.9776 H   0  0  0  0  0  0
  -30.8866  -24.1733   18.1657 H   0  0  0  0  0  0
  -30.2338  -17.1149   22.4453 H   0  0  0  0  0  0
  -31.4975  -17.0372   21.2615 H   0  0  0  0  0  0
  -28.2025  -22.1363   19.4365 H   0  0  0  0  0  0
  -28.0600  -21.8980   21.1308 H   0  0  0  0  0  0
  -28.1165  -24.9959   21.4076 H   0  0  0  0  0  0
  -27.5473  -24.6636   19.7946 H   0  0  0  0  0  0
  -29.0952  -21.2035   17.5661 H   0  0  0  0  0  0
  -29.9893  -22.9825   21.6243 H   0  0  0  0  0  0
  -28.9735  -15.4243   21.2409 H   0  0  0  0  0  0
  1 25  1  0  0  0
  1 30  2  0  0  0
  1 87  1  0  0  0
  2  3  1  0  0  0
  2 25  1  0  0  0
  2 88  1  0  0  0
  2 89  1  0  0  0
  3  4  1  0  0  0
  3 90  1  0  0  0
  3 91  1  0  0  0
  4  5  1  0  0  0
  4 92  1  0  0  0
  4 93  1  0  0  0
  5  6  1  0  0  0
  5 26  1  0  0  0
  5 94  1  0  0  0
  6 25  1  0  0  0
  6 95  1  0  0  0
  6 96  1  0  0  0
  7  8  2  0  0  0
  7 26  1  0  0  0
  7 29  1  0  0  0
  8  9  1  0  0  0
  8 22  1  0  0  0
  9 10  1  0  0  0
  9 27  2  0  0  0
 10 11  2  0  0  0
 10 15  1  0  0  0
 11 12  1  0  0  0
 11 97  1  0  0  0
 12 13  2  0  0  0
 12 98  1  0  0  0
 13 14  1  0  0  0
 13 31  1  0  0  0
 14 15  2  0  0  0
 14 99  1  0  0  0
 15100  1  0  0  0
 16 17  2  0  0  0
 16 21  1  0  0  0
 16 31  1  0  0  0
 17 18  1  0  0  0
 17101  1  0  0  0
 18 19  2  0  0  0
 18102  1  0  0  0
 19 20  1  0  0  0
 19 24  1  0  0  0
 20 21  2  0  0  0
 20103  1  0  0  0
 21 23  1  0  0  0
 22 28  1  0  0  0
 22 32  2  0  0  0
 26 27  1  0  0  0
 28104  1  0  0  0
 28105  1  0  0  0
 29106  1  0  0  0
 29107  1  0  0  0
 33 34  1  0  0  0
 33 66  1  0  0  0
 33 70  2  0  0  0
 34 36  1  0  0  0
 34 59  1  0  0  0
 34108  1  0  0  0
 35 44  2  0  0  0
 35 45  1  0  0  0
 35 68  1  0  0  0
 36 56  1  0  0  0
 36109  1  0  0  0
 37 39  1  0  0  0
 37 47  1  0  0  0
 37 66  1  0  0  0
 37110  1  0  0  0
 38 43  2  0  0  0
 38 46  1  0  0  0
 38 47  1  0  0  0
 39 64  1  0  0  0
 39 67  2  0  0  0
 40 52  1  0  0  0
 40 53  2  0  0  0
 40 58  1  0  0  0
 41111  1  0  0  0
 41112  1  0  0  0
 41113  1  0  0  0
 41 48  1  0  0  0
 42 43  1  0  0  0
 42 66  1  0  0  0
 42114  1  0  0  0
 42115  1  0  0  0
 43 44  1  0  0  0
 44116  1  0  0  0
 45 46  2  0  0  0
 45117  1  0  0  0
 46118  1  0  0  0
 47119  1  0  0  0
 47120  1  0  0  0
 48 56  1  0  0  0
 48 65  1  0  0  0
 48121  1  0  0  0
 49 50  1  0  0  0
 49 53  1  0  0  0
 49 64  1  0  0  0
 49122  1  0  0  0
 50 51  1  0  0  0
 50123  1  0  0  0
 50124  1  0  0  0
 51 52  1  0  0  0
 51125  1  0  0  0
 51126  1  0  0  0
 52127  1  0  0  0
 52128  1  0  0  0
 53 54  1  0  0  0
 54 55  2  0  0  0
 54129  1  0  0  0
 55 57  1  0  0  0
 55130  1  0  0  0
 56 69  2  0  0  0
 57 58  2  0  0  0
 57131  1  0  0  0
 58132  1  0  0  0
 59 60  1  0  0  0
 59 61  1  0  0  0
 59 62  1  0  0  0
 60133  1  0  0  0
 60134  1  0  0  0
 60135  1  0  0  0
 61136  1  0  0  0
 61137  1  0  0  0
 61138  1  0  0  0
 62139  1  0  0  0
 62140  1  0  0  0
 62141  1  0  0  0
 63 65  1  0  0  0
 63142  1  0  0  0
 63143  1  0  0  0
 63144  1  0  0  0
 64145  1  0  0  0
 65146  1  0  0  0
 68 82  1  0  0  0
 71 73  1  0  0  0
 71 74  2  0  0  0
 71147  1  0  0  0
 72 73  2  0  0  0
 72 86  1  0  0  0
 72148  1  0  0  0
 73 80  1  0  0  0
 74 83  1  0  0  0
 74 86  1  0  0  0
 75149  1  0  0  0
 75150  1  0  0  0
 75151  1  0  0  0
 75 83  1  0  0  0
 76 83  1  0  0  0
 76152  1  0  0  0
 76153  1  0  0  0
 76154  1  0  0  0
 77155  1  0  0  0
 77156  1  0  0  0
 77157  1  0  0  0
 77 84  1  0  0  0
 78158  1  0  0  0
 78159  1  0  0  0
 78160  1  0  0  0
 78 85  1  0  0  0
 79 85  1  0  0  0
 79161  1  0  0  0
 79162  1  0  0  0
 79163  1  0  0  0
 80 87  1  0  0  0
 80164  1  0  0  0
 80165  1  0  0  0
 81 84  1  0  0  0
 81 86  1  0  0  0
 81166  1  0  0  0
 81167  1  0  0  0
 82 85  1  0  0  0
 82168  1  0  0  0
 82169  1  0  0  0
 83170  1  0  0  0
 84 85  1  0  0  0
 84171  1  0  0  0
 87172  1  0  0  0
M  ISO  4   1 100  68 101  82 101  87 100
M  END
> <chiral flag>
0

> <version>
0

> <s_m_source_file>
/data/baiqing/PycharmProjects/Reinvent-master-3.2/result/LINK_invent/BTK/process_docking_weight1_custom_sum_contain_oxygen_bond_distance_aromatic_linkinvent_7_9_3/rearranged_h_0103.sdf

> <i_m_source_file_index>
13

> <r_mmod_Potential_Energy-OPLS-2005>
-23.0997695922852

> <r_mmod_Stretch_Energy-OPLS-2005>
71.2240676879883

> <r_mmod_Bend_Energy-OPLS-2005>
140.953353881836

> <r_mmod_Torsional_Energy-OPLS-2005>
240.615600585938

> <r_mmod_Improper_Torsional_Energy-OPLS-2005>
3.29934644699097

> <r_mmod_Van_der_Waal_Energy-OPLS-2005>
128.41357421875

> <r_mmod_Electrostatic_Energy-OPLS-2005>
-441.148986816406

> <r_mmod_Solvation_Energy-OPLS-2005>
-195.655807495117

> <b_mmod_Minimization_Converged-OPLS-2005>
0

> <r_mmod_RMS_Derivative-OPLS-2005>
1.7356424331665

$$$$
13
                    3D
 Structure written by MMmdl.
177185  0  0  1  0            999 V2000
  -30.5842  -14.6701   19.7586 C   0  0  0  0  0  0
  -30.8611  -12.3122   19.3911 C   0  0  0  0  0  0
  -29.8842  -12.1362   18.2349 C   0  0  0  0  0  0
  -28.5585  -11.9749   18.9393 C   0  0  0  0  0  0
  -28.2718  -13.0625   20.1332 C   0  0  2  0  0  0
  -29.3200  -13.1370   21.1403 C   0  0  0  0  0  0
  -25.0734  -14.2382   20.6369 C   0  0  0  0  0  0
  -23.7683  -13.5001   20.9103 C   0  0  0  0  0  0
  -24.1248  -12.3047   21.0781 C   0  0  0  0  0  0
  -23.7964  -10.7601   21.0348 C   0  0  0  0  0  0
  -24.2309   -9.7620   21.9714 C   0  0  0  0  0  0
  -23.6420   -8.4617   22.0918 C   0  0  0  0  0  0
  -22.4971   -8.1302   21.3331 C   0  0  0  0  0  0
  -22.0612   -9.0846   20.3962 C   0  0  0  0  0  0
  -22.7023  -10.3372   20.2375 C   0  0  0  0  0  0
  -21.7464   -6.1241   22.5172 C   0  0  0  0  0  0
  -21.4456   -6.5997   23.8134 C   0  0  0  0  0  0
  -21.3781   -5.7052   24.9051 C   0  0  0  0  0  0
  -21.6009   -4.3283   24.7071 C   0  0  0  0  0  0
  -21.8754   -3.8453   23.4150 C   0  0  0  0  0  0
  -21.9407   -4.7365   22.3290 C   0  0  0  0  0  0
  -22.3473  -13.8925   21.1837 C   0  0  0  0  0  0
  -22.1836   -4.2505   21.0880 F   0  0  0  0  0  0
  -21.5483   -3.4707   25.7538 F   0  0  0  0  0  0
  -30.3907  -13.4231   20.2299 N   0  0  0  0  0  0
  -26.6534  -14.1622   20.4486 N   0  0  0  0  0  0
  -24.8174  -13.6137   20.6895 N   0  0  0  0  0  0
  -21.6941  -13.1214   22.0601 N   0  0  0  0  0  0
  -26.8239  -14.6520   20.4485 N   0  0  0  0  0  0
  -31.6964  -15.1386   19.9905 O   0  0  0  0  0  0
  -21.7700   -6.9508   21.4101 O   0  0  0  0  0  0
  -21.8949  -14.8864   20.6580 O   0  0  0  0  0  0
  -24.7041  -31.7658   23.1422 C   0  0  0  0  0  0
  -25.9557  -32.4233   23.7958 C   0  0  1  0  0  0
  -26.6718  -26.1751   20.3822 C   0  0  0  0  0  0
  -25.6081  -33.8108   24.1759 N   0  0  0  0  0  0
  -23.5231  -30.3896   21.5032 C   0  0  2  0  0  0
  -24.9004  -28.6745   20.0977 C   0  0  0  0  0  0
  -22.7785  -29.4142   22.4572 C   0  0  0  0  0  0
  -18.0350  -28.1429   22.8459 C   0  0  0  0  0  0
  -24.1518  -36.7025   23.2653 C   0  0  0  0  0  0
  -26.1046  -30.3068   21.4967 C   0  0  0  0  0  0
  -26.0628  -28.8334   20.8511 C   0  0  0  0  0  0
  -26.9601  -27.6046   20.9566 C   0  0  0  0  0  0
  -25.6301  -26.3763   19.4592 C   0  0  0  0  0  0
  -24.7754  -27.5047   19.3432 C   0  0  0  0  0  0
  -23.7818  -29.7253   20.1199 C   0  0  0  0  0  0
  -25.4180  -36.2727   24.0226 C   0  0  1  0  0  0
  -20.5985  -28.3767   23.1101 C   0  0  2  0  0  0
  -20.6791  -26.9395   22.5412 C   0  0  0  0  0  0
  -19.5754  -26.6346   21.5238 C   0  0  0  0  0  0
  -18.1946  -26.7958   22.1638 C   0  0  0  0  0  0
  -19.1619  -28.8930   23.2777 C   0  0  0  0  0  0
  -18.9513  -30.1521   23.8811 C   0  0  0  0  0  0
  -17.6493  -30.6602   24.0542 C   0  0  0  0  0  0
  -25.9195  -34.9149   23.4829 C   0  0  0  0  0  0
  -16.5387  -29.9064   23.6363 C   0  0  0  0  0  0
  -16.7329  -28.6500   23.0365 C   0  0  0  0  0  0
  -26.4665  -31.6466   25.0746 C   0  0  0  0  0  0
  -25.3635  -31.3931   26.1288 C   0  0  0  0  0  0
  -27.0652  -30.2733   24.7020 C   0  0  0  0  0  0
  -27.6039  -32.4455   25.7552 C   0  0  0  0  0  0
  -27.5553  -37.1666   24.8455 C   0  0  0  0  0  0
  -21.4416  -29.2970   22.3352 N   0  0  0  0  0  0
  -26.4250  -37.3536   23.9409 N   0  0  0  0  0  0
  -24.8096  -30.8711   22.0931 N   0  0  0  0  0  0
  -23.4167  -28.7693   23.2940 O   0  0  0  0  0  0
  -27.1459  -24.6098   20.5294 O   0  0  0  0  0  0
  -26.5847  -34.8774   22.4461 O   0  0  0  0  0  0
  -23.6033  -32.1021   23.6190 O   0  0  0  0  0  0
  -25.4630  -15.7402   18.9790 C   0  0  0  0  0  0
  -25.6310  -16.5227   20.9451 C   0  0  0  0  0  0
  -25.8542  -13.7168   18.4330 C   0  0  0  0  0  0
  -25.9960  -14.9955   22.5610 C   0  0  0  0  0  0
  -26.4015  -12.7980   22.1313 C   0  0  0  0  0  0
  -26.2048  -12.0755   19.9006 C   0  0  0  0  0  0
  -26.3894  -15.7039   25.0967 C   0  0  0  0  0  0
  -27.7893  -12.6796   24.2353 C   0  0  0  0  0  0
  -27.5259   -9.6695   21.9549 C   0  0  0  0  0  0
  -25.6600  -18.6043   21.0838 C   0  0  0  0  0  0
  -27.1352  -14.1187   17.4791 C   0  0  0  0  0  0
  -25.4374  -15.4010   23.9329 C   0  0  0  0  0  0
  -26.4733  -20.5947   20.6162 C   0  0  0  0  0  0
  -28.3653  -15.2465   17.9301 C   0  0  0  0  0  0
  -26.3715  -22.7950   20.6979 C   0  0  0  0  0  0
  -26.7774  -11.9023   23.3616 C   0  0  2  0  0  0
  -27.4238  -10.4478   23.2729 C   0  0  1  0  0  0
  -29.7966  -15.1748   18.6696 N   0  0  0  0  0  0
  -26.9745   -9.5693   24.3807 N   0  3  0  0  0  0
  -26.2684  -10.7695   19.5273 F   0  0  0  0  0  0
  -31.8635  -12.5070   19.0059 H   0  0  0  0  0  0
  -30.9529  -11.3911   19.9663 H   0  0  0  0  0  0
  -30.1391  -11.2342   17.6733 H   0  0  0  0  0  0
  -29.9148  -12.9459   17.5085 H   0  0  0  0  0  0
  -28.6632  -11.0027   19.4141 H   0  0  0  0  0  0
  -27.8204  -11.7834   18.1707 H   0  0  0  0  0  0
  -28.4582  -13.5526   19.2814 H   0  0  0  0  0  0
  -29.4741  -12.2017   21.6780 H   0  0  0  0  0  0
  -29.1649  -13.9534   21.8478 H   0  0  0  0  0  0
  -24.9569  -10.0489   22.7057 H   0  0  0  0  0  0
  -24.0239   -7.7662   22.8241 H   0  0  0  0  0  0
  -21.1970   -8.8603   19.7887 H   0  0  0  0  0  0
  -22.2763  -11.0421   19.5404 H   0  0  0  0  0  0
  -21.2634   -7.6521   23.9768 H   0  0  0  0  0  0
  -21.1568   -6.0760   25.8970 H   0  0  0  0  0  0
  -22.0325   -2.7910   23.2510 H   0  0  0  0  0  0
  -22.1417  -12.3452   22.5194 H   0  0  0  0  0  0
  -20.7622  -13.3724   22.3594 H   0  0  0  0  0  0
  -26.7624  -15.6278   20.7111 H   0  0  0  0  0  0
  -26.9630  -14.6375   19.4435 H   0  0  0  0  0  0
  -26.7602  -32.4492   23.0604 H   0  0  0  0  0  0
  -25.0090  -33.9130   24.9814 H   0  0  0  0  0  0
  -22.8642  -31.2436   21.3280 H   0  0  0  0  0  0
  -23.3812  -35.9320   23.3198 H   0  0  0  0  0  0
  -24.3579  -36.8840   22.2097 H   0  0  0  0  0  0
  -23.7272  -37.6140   23.6858 H   0  0  0  0  0  0
  -26.3993  -30.9984   20.7073 H   0  0  0  0  0  0
  -26.9342  -30.3368   22.1859 H   0  0  0  0  0  0
  -27.7993  -27.6864   21.6351 H   0  0  0  0  0  0
  -25.3232  -25.5105   18.8888 H   0  0  0  0  0  0
  -23.9303  -27.4222   18.6734 H   0  0  0  0  0  0
  -24.0388  -30.4962   19.3921 H   0  0  0  0  0  0
  -22.8622  -29.2689   19.7520 H   0  0  0  0  0  0
  -25.1424  -36.1393   25.0708 H   0  0  0  0  0  0
  -21.0108  -28.3434   24.1215 H   0  0  0  0  0  0
  -20.5668  -26.2378   23.3694 H   0  0  0  0  0  0
  -21.6635  -26.7304   22.1204 H   0  0  0  0  0  0
  -19.6874  -25.6239   21.1303 H   0  0  0  0  0  0
  -19.6716  -27.3134   20.6752 H   0  0  0  0  0  0
  -17.4220  -26.6746   21.4032 H   0  0  0  0  0  0
  -18.0284  -26.0130   22.9053 H   0  0  0  0  0  0
  -19.7980  -30.7381   24.2124 H   0  0  0  0  0  0
  -17.5025  -31.6270   24.5163 H   0  0  0  0  0  0
  -15.5375  -30.2916   23.7737 H   0  0  0  0  0  0
  -15.8744  -28.0783   22.7099 H   0  0  0  0  0  0
  -24.5855  -30.7244   25.7582 H   0  0  0  0  0  0
  -24.8803  -32.3216   26.4337 H   0  0  0  0  0  0
  -25.7704  -30.9328   27.0300 H   0  0  0  0  0  0
  -26.3358  -29.6143   24.2290 H   0  0  0  0  0  0
  -27.4140  -29.7439   25.5901 H   0  0  0  0  0  0
  -27.9380  -30.3714   24.0558 H   0  0  0  0  0  0
  -27.2511  -33.3884   26.1742 H   0  0  0  0  0  0
  -28.4030  -32.6818   25.0510 H   0  0  0  0  0  0
  -28.0515  -31.8881   26.5791 H   0  0  0  0  0  0
  -28.2456  -38.0057   24.7529 H   0  0  0  0  0  0
  -28.1151  -36.2567   24.6245 H   0  0  0  0  0  0
  -27.2262  -37.1238   25.8847 H   0  0  0  0  0  0
  -20.9712  -29.8665   21.6447 H   0  0  0  0  0  0
  -26.0010  -38.2538   24.1465 H   0  0  0  0  0  0
  -25.4738  -16.4802   18.1882 H   0  0  0  0  0  0
  -25.9004  -16.3525   25.8272 H   0  0  0  0  0  0
  -27.3061  -16.1832   24.7540 H   0  0  0  0  0  0
  -26.6288  -14.8074   25.6669 H   0  0  0  0  0  0
  -27.6203  -13.7407   24.2213 H   0  0  0  0  0  0
  -28.8160  -12.6068   23.8708 H   0  0  0  0  0  0
  -27.7797  -12.3287   25.2703 H   0  0  0  0  0  0
  -28.0314  -10.2698   21.2171 H   0  0  0  0  0  0
  -26.5944   -9.3154   21.5328 H   0  0  0  0  0  0
  -28.1513   -8.7838   22.0886 H   0  0  0  0  0  0
  -25.5549  -18.7019   22.1676 H   0  0  0  0  0  0
  -24.6460  -18.7515   20.7080 H   0  0  0  0  0  0
  -26.6175  -14.6497   16.6836 H   0  0  0  0  0  0
  -27.5164  -13.2829   16.8966 H   0  0  0  0  0  0
  -24.7348  -14.6214   24.2400 H   0  0  0  0  0  0
  -24.8117  -16.2824   23.7785 H   0  0  0  0  0  0
  -26.5429  -20.4859   19.5318 H   0  0  0  0  0  0
  -27.4969  -20.4495   20.9631 H   0  0  0  0  0  0
  -27.8965  -16.1377   18.3340 H   0  0  0  0  0  0
  -28.7051  -15.5727   16.9478 H   0  0  0  0  0  0
  -26.0301  -22.8956   21.7288 H   0  0  0  0  0  0
  -25.4563  -22.9615   20.1254 H   0  0  0  0  0  0
  -25.8378  -11.8442   23.9101 H   0  0  0  0  0  0
  -28.4875  -10.5407   23.5026 H   0  0  0  0  0  0
  -30.3403  -15.9396   18.3049 H   0  0  0  0  0  0
  -25.9789   -9.4441   24.3973 H   0  0  0  0  0  0
  -27.2621   -9.9319   25.2739 H   0  0  0  0  0  0
  -27.3936   -8.6603   24.2828 H   0  0  0  0  0  0
  1 25  1  0  0  0
  1 30  2  0  0  0
  1 88  1  0  0  0
  2  3  1  0  0  0
  2 25  1  0  0  0
  2 91  1  0  0  0
  2 92  1  0  0  0
  3  4  1  0  0  0
  3 93  1  0  0  0
  3 94  1  0  0  0
  4  5  1  0  0  0
  4 95  1  0  0  0
  4 96  1  0  0  0
  5  6  1  0  0  0
  5 26  1  0  0  0
  5 97  1  0  0  0
  6 25  1  0  0  0
  6 98  1  0  0  0
  6 99  1  0  0  0
  7  8  2  0  0  0
  7 26  1  0  0  0
  7 29  1  0  0  0
  8  9  1  0  0  0
  8 22  1  0  0  0
  9 10  1  0  0  0
  9 27  2  0  0  0
 10 11  2  0  0  0
 10 15  1  0  0  0
 11 12  1  0  0  0
 11100  1  0  0  0
 12 13  2  0  0  0
 12101  1  0  0  0
 13 14  1  0  0  0
 13 31  1  0  0  0
 14 15  2  0  0  0
 14102  1  0  0  0
 15103  1  0  0  0
 16 17  2  0  0  0
 16 21  1  0  0  0
 16 31  1  0  0  0
 17 18  1  0  0  0
 17104  1  0  0  0
 18 19  2  0  0  0
 18105  1  0  0  0
 19 20  1  0  0  0
 19 24  1  0  0  0
 20 21  2  0  0  0
 20106  1  0  0  0
 21 23  1  0  0  0
 22 28  1  0  0  0
 22 32  2  0  0  0
 26 27  1  0  0  0
 28107  1  0  0  0
 28108  1  0  0  0
 29109  1  0  0  0
 29110  1  0  0  0
 33 34  1  0  0  0
 33 66  1  0  0  0
 33 70  2  0  0  0
 34 36  1  0  0  0
 34 59  1  0  0  0
 34111  1  0  0  0
 35 44  2  0  0  0
 35 45  1  0  0  0
 35 68  1  0  0  0
 36 56  1  0  0  0
 36112  1  0  0  0
 37 39  1  0  0  0
 37 47  1  0  0  0
 37 66  1  0  0  0
 37113  1  0  0  0
 38 43  2  0  0  0
 38 46  1  0  0  0
 38 47  1  0  0  0
 39 64  1  0  0  0
 39 67  2  0  0  0
 40 52  1  0  0  0
 40 53  2  0  0  0
 40 58  1  0  0  0
 41114  1  0  0  0
 41115  1  0  0  0
 41116  1  0  0  0
 41 48  1  0  0  0
 42 43  1  0  0  0
 42 66  1  0  0  0
 42117  1  0  0  0
 42118  1  0  0  0
 43 44  1  0  0  0
 44119  1  0  0  0
 45 46  2  0  0  0
 45120  1  0  0  0
 46121  1  0  0  0
 47122  1  0  0  0
 47123  1  0  0  0
 48 56  1  0  0  0
 48 65  1  0  0  0
 48124  1  0  0  0
 49 50  1  0  0  0
 49 53  1  0  0  0
 49 64  1  0  0  0
 49125  1  0  0  0
 50 51  1  0  0  0
 50126  1  0  0  0
 50127  1  0  0  0
 51 52  1  0  0  0
 51128  1  0  0  0
 51129  1  0  0  0
 52130  1  0  0  0
 52131  1  0  0  0
 53 54  1  0  0  0
 54 55  2  0  0  0
 54132  1  0  0  0
 55 57  1  0  0  0
 55133  1  0  0  0
 56 69  2  0  0  0
 57 58  2  0  0  0
 57134  1  0  0  0
 58135  1  0  0  0
 59 60  1  0  0  0
 59 61  1  0  0  0
 59 62  1  0  0  0
 60136  1  0  0  0
 60137  1  0  0  0
 60138  1  0  0  0
 61139  1  0  0  0
 61140  1  0  0  0
 61141  1  0  0  0
 62142  1  0  0  0
 62143  1  0  0  0
 62144  1  0  0  0
 63 65  1  0  0  0
 63145  1  0  0  0
 63146  1  0  0  0
 63147  1  0  0  0
 64148  1  0  0  0
 65149  1  0  0  0
 68 85  1  0  0  0
 71 72  2  0  0  0
 71 73  1  0  0  0
 71150  1  0  0  0
 72 74  1  0  0  0
 72 80  1  0  0  0
 73 76  2  0  0  0
 73 81  1  0  0  0
 74 75  2  0  0  0
 74 82  1  0  0  0
 75 76  1  0  0  0
 75 86  1  0  0  0
 76 90  1  0  0  0
 77 82  1  0  0  0
 77151  1  0  0  0
 77152  1  0  0  0
 77153  1  0  0  0
 78154  1  0  0  0
 78155  1  0  0  0
 78156  1  0  0  0
 78 86  1  0  0  0
 79157  1  0  0  0
 79158  1  0  0  0
 79159  1  0  0  0
 79 87  1  0  0  0
 80 83  1  0  0  0
 80160  1  0  0  0
 80161  1  0  0  0
 81 84  1  0  0  0
 81162  1  0  0  0
 81163  1  0  0  0
 82164  1  0  0  0
 82165  1  0  0  0
 83 85  1  0  0  0
 83166  1  0  0  0
 83167  1  0  0  0
 84 88  1  0  0  0
 84168  1  0  0  0
 84169  1  0  0  0
 85170  1  0  0  0
 85171  1  0  0  0
 86 87  1  0  0  0
 86172  1  0  0  0
 87 89  1  0  0  0
 87173  1  0  0  0
 88174  1  0  0  0
 89175  1  0  0  0
 89176  1  0  0  0
 89177  1  0  0  0
M  CHG  1  89   1
M  ISO  4   1 100  68 101  85 101  88 100
M  END
> <chiral flag>
0

> <version>
0

> <s_m_source_file>
/data/baiqing/PycharmProjects/Reinvent-master-3.2/result/LINK_invent/BTK/process_docking_weight1_custom_sum_contain_oxygen_bond_distance_aromatic_linkinvent_7_9_3/rearranged_h_0103.sdf

> <i_m_source_file_index>
14

> <r_mmod_Potential_Energy-OPLS-2005>
22858.50390625

> <r_mmod_Stretch_Energy-OPLS-2005>
12050.1923828125

> <r_mmod_Bend_Energy-OPLS-2005>
3817.17016601562

> <r_mmod_Torsional_Energy-OPLS-2005>
590.906005859375

> <r_mmod_Improper_Torsional_Energy-OPLS-2005>
73.5139312744141

> <r_mmod_Van_der_Waal_Energy-OPLS-2005>
4467.63623046875

> <r_mmod_Electrostatic_Energy-OPLS-2005>
-315.52587890625

> <r_mmod_Solvation_Energy-OPLS-2005>
-513.1259765625

> <b_mmod_Minimization_Converged-OPLS-2005>
0

> <r_mmod_RMS_Derivative-OPLS-2005>
16.3711719512939

$$$$
14
                    3D
 Structure written by MMmdl.
170178  0  0  1  0            999 V2000
  -29.9506  -16.3768   20.1078 C   0  0  0  0  0  0
  -30.3415  -13.6446   19.4584 C   0  0  0  0  0  0
  -29.5543  -12.8238   18.3665 C   0  0  0  0  0  0
  -28.2159  -12.3040   18.8907 C   0  0  0  0  0  0
  -27.5664  -13.3752   19.7761 C   0  0  2  0  0  0
  -28.5307  -14.0362   20.8082 C   0  0  0  0  0  0
  -25.2174  -13.8334   20.5892 C   0  0  0  0  0  0
  -24.1644  -13.0387   20.9412 C   0  0  0  0  0  0
  -24.6421  -11.6922   20.8708 C   0  0  0  0  0  0
  -23.9144  -10.4243   21.0370 C   0  0  0  0  0  0
  -24.3653   -9.4154   21.9156 C   0  0  0  0  0  0
  -23.6297   -8.2198   22.0743 C   0  0  0  0  0  0
  -22.4258   -8.0234   21.3554 C   0  0  0  0  0  0
  -21.9937   -9.0215   20.4634 C   0  0  0  0  0  0
  -22.7303  -10.2083   20.3049 C   0  0  0  0  0  0
  -21.6800   -6.0684   22.5300 C   0  0  0  0  0  0
  -21.3966   -6.5606   23.8225 C   0  0  0  0  0  0
  -21.3676   -5.6786   24.9206 C   0  0  0  0  0  0
  -21.6071   -4.3048   24.7276 C   0  0  0  0  0  0
  -21.8800   -3.8112   23.4396 C   0  0  0  0  0  0
  -21.9177   -4.6915   22.3438 C   0  0  0  0  0  0
  -22.7629  -13.5082   21.1992 C   0  0  0  0  0  0
  -22.1634   -4.2101   21.1010 F   0  0  0  0  0  0
  -21.5678   -3.4530   25.7788 F   0  0  0  0  0  0
  -29.5525  -14.8715   20.0635 N   0  0  0  0  0  0
  -26.2732  -12.9818   20.3310 N   0  0  0  0  0  0
  -25.9389  -11.6787   20.5560 N   0  0  0  0  0  0
  -22.0306  -12.8071   22.0547 N   0  0  0  0  0  0
  -25.3698  -15.2104   20.4361 N   0  0  0  0  0  0
  -31.1974  -16.1693   20.2189 O   0  0  0  0  0  0
  -21.6595   -6.8831   21.4258 O   0  0  0  0  0  0
  -22.3327  -14.5403   20.6833 O   0  0  0  0  0  0
  -24.7342  -31.6835   22.9500 C   0  0  0  0  0  0
  -25.9435  -32.4038   23.6789 C   0  0  1  0  0  0
  -27.6374  -26.5937   21.1008 C   0  0  0  0  0  0
  -25.5488  -33.7850   24.0757 N   0  0  0  0  0  0
  -23.5635  -30.1664   21.3232 C   0  0  2  0  0  0
  -24.9678  -28.2030   19.8861 C   0  0  0  0  0  0
  -22.7406  -29.4168   22.4143 C   0  0  0  0  0  0
  -18.0231  -28.1475   22.8272 C   0  0  0  0  0  0
  -24.1371  -36.7053   23.2778 C   0  0  0  0  0  0
  -26.0529  -30.4777   20.9178 C   0  0  0  0  0  0
  -26.2755  -28.9874   20.1585 C   0  0  0  0  0  0
  -27.5803  -28.1542   20.5185 C   0  0  0  0  0  0
  -26.0191  -25.6000   21.0224 C   0  0  0  0  0  0
  -24.7898  -26.5906   20.1948 C   0  0  0  0  0  0
  -23.7558  -29.2314   20.0096 C   0  0  0  0  0  0
  -25.4087  -36.2698   24.0205 C   0  0  1  0  0  0
  -20.5821  -28.3826   23.0754 C   0  0  2  0  0  0
  -20.6581  -26.9293   22.5619 C   0  0  0  0  0  0
  -19.5611  -26.5872   21.5417 C   0  0  0  0  0  0
  -18.1698  -26.7989   22.1453 C   0  0  0  0  0  0
  -19.1531  -28.8936   23.2488 C   0  0  0  0  0  0
  -18.9661  -30.1510   23.8548 C   0  0  0  0  0  0
  -17.6718  -30.6633   24.0558 C   0  0  0  0  0  0
  -25.9074  -34.9166   23.4564 C   0  0  0  0  0  0
  -16.5502  -29.9160   23.6521 C   0  0  0  0  0  0
  -16.7280  -28.6615   23.0390 C   0  0  0  0  0  0
  -26.4752  -31.6715   24.9847 C   0  0  0  0  0  0
  -25.3799  -31.3537   26.0337 C   0  0  0  0  0  0
  -27.1902  -30.3786   24.5799 C   0  0  0  0  0  0
  -27.5607  -32.5071   25.7143 C   0  0  0  0  0  0
  -27.5465  -37.1664   24.8468 C   0  0  0  0  0  0
  -21.4118  -29.2704   22.2583 N   0  0  0  0  0  0
  -26.4129  -37.3551   23.9490 N   0  0  0  0  0  0
  -24.8312  -30.8090   21.8298 N   0  0  0  0  0  0
  -23.3160  -28.9419   23.3905 O   0  0  0  0  0  0
  -28.8264  -26.1567   21.3489 O   0  0  0  0  0  0
  -26.6158  -34.9034   22.4503 O   0  0  0  0  0  0
  -23.6319  -31.9891   23.4606 O   0  0  0  0  0  0
  -27.3086  -26.6844   17.9088 C   0  0  0  0  0  0
  -28.2939  -25.7939   17.3554 C   0  0  0  0  0  0
  -26.8318  -26.1836   19.0892 C   0  0  0  0  0  0
  -28.3587  -24.5714   17.9894 C   0  0  0  0  0  0
  -29.2448  -26.1450   16.2435 C   0  0  0  0  0  0
  -29.3014  -23.4220   17.6808 C   0  0  0  0  0  0
  -30.5861  -18.7770   18.9803 C   0  0  0  0  0  0
  -25.5497  -27.2457   24.6779 C   0  0  0  0  0  0
  -25.8511  -27.5427   22.0173 C   0  0  0  0  0  0
  -28.7857  -20.5862   19.9320 C   0  0  0  0  0  0
  -27.8523  -26.6388   23.6708 C   0  0  0  0  0  0
  -27.6533  -22.5313   19.7530 C   0  0  0  0  0  0
  -28.7076  -25.7148   22.7026 C   0  0  0  0  0  0
  -29.2304  -18.3685   19.6597 C   0  0  2  0  0  0
  -26.2883  -26.7728   23.4208 C   0  0  1  0  0  0
  -27.4900  -24.4438   19.0578 N   0  0  0  0  0  0
  -31.2278  -14.0371   18.9522 H   0  0  0  0  0  0
  -30.7339  -12.9837   20.2353 H   0  0  0  0  0  0
  -30.1530  -11.9877   18.0115 H   0  0  0  0  0  0
  -29.3651  -13.4576   17.4979 H   0  0  0  0  0  0
  -28.4133  -11.4175   19.4986 H   0  0  0  0  0  0
  -27.5605  -11.9847   18.0809 H   0  0  0  0  0  0
  -27.3177  -14.1675   19.0639 H   0  0  0  0  0  0
  -28.9628  -13.2987   21.4855 H   0  0  0  0  0  0
  -27.9604  -14.7011   21.4554 H   0  0  0  0  0  0
  -25.2797   -9.5561   22.4726 H   0  0  0  0  0  0
  -23.9959   -7.4568   22.7485 H   0  0  0  0  0  0
  -21.0843   -8.8713   19.8949 H   0  0  0  0  0  0
  -22.3750  -10.9579   19.6128 H   0  0  0  0  0  0
  -21.1866   -7.6092   23.9725 H   0  0  0  0  0  0
  -21.1563   -6.0500   25.9127 H   0  0  0  0  0  0
  -22.0560   -2.7562   23.2921 H   0  0  0  0  0  0
  -22.3917  -11.9803   22.5052 H   0  0  0  0  0  0
  -21.0914  -13.1022   22.2702 H   0  0  0  0  0  0
  -24.6002  -15.8576   20.5789 H   0  0  0  0  0  0
  -26.2191  -15.6630   20.1147 H   0  0  0  0  0  0
  -26.7609  -32.4705   22.9641 H   0  0  0  0  0  0
  -24.9082  -33.8583   24.8499 H   0  0  0  0  0  0
  -22.9441  -31.0069   20.9970 H   0  0  0  0  0  0
  -23.3670  -35.9334   23.3302 H   0  0  0  0  0  0
  -24.3260  -36.8932   22.2204 H   0  0  0  0  0  0
  -23.7111  -37.6152   23.7013 H   0  0  0  0  0  0
  -26.0002  -31.2296   20.1261 H   0  0  0  0  0  0
  -26.9702  -30.7035   21.4664 H   0  0  0  0  0  0
  -28.4812  -28.7278   20.6649 H   0  0  0  0  0  0
  -25.8949  -24.5580   21.2895 H   0  0  0  0  0  0
  -23.8123  -26.1569   20.0794 H   0  0  0  0  0  0
  -23.7953  -29.8870   19.1389 H   0  0  0  0  0  0
  -22.8390  -28.6561   19.8536 H   0  0  0  0  0  0
  -25.1370  -36.1250   25.0644 H   0  0  0  0  0  0
  -20.9977  -28.3908   24.0840 H   0  0  0  0  0  0
  -20.5095  -26.2774   23.4191 H   0  0  0  0  0  0
  -21.6541  -26.6902   22.1830 H   0  0  0  0  0  0
  -19.6530  -25.5434   21.2315 H   0  0  0  0  0  0
  -19.6837  -27.1986   20.6428 H   0  0  0  0  0  0
  -17.4316  -26.7024   21.3481 H   0  0  0  0  0  0
  -17.9504  -26.0076   22.8652 H   0  0  0  0  0  0
  -19.8277  -30.7280   24.1639 H   0  0  0  0  0  0
  -17.5451  -31.6267   24.5265 H   0  0  0  0  0  0
  -15.5523  -30.3086   23.7970 H   0  0  0  0  0  0
  -15.8655  -28.0925   22.7214 H   0  0  0  0  0  0
  -24.6006  -30.6965   25.6383 H   0  0  0  0  0  0
  -24.8939  -32.2614   26.3897 H   0  0  0  0  0  0
  -25.7982  -30.8571   26.9106 H   0  0  0  0  0  0
  -26.5848  -29.8224   23.8864 H   0  0  0  0  0  0
  -27.4069  -29.7423   25.4385 H   0  0  0  0  0  0
  -28.1362  -30.5629   24.0683 H   0  0  0  0  0  0
  -27.1473  -33.4234   26.1353 H   0  0  0  0  0  0
  -28.3732  -32.7860   25.0450 H   0  0  0  0  0  0
  -28.0000  -31.9541   26.5408 H   0  0  0  0  0  0
  -28.2437  -38.0004   24.7495 H   0  0  0  0  0  0
  -28.0973  -36.2520   24.6266 H   0  0  0  0  0  0
  -27.2232  -37.1298   25.8882 H   0  0  0  0  0  0
  -20.9652  -29.7436   21.4814 H   0  0  0  0  0  0
  -25.9904  -38.2531   24.1638 H   0  0  0  0  0  0
  -27.1725  -27.7198   17.6048 H   0  0  0  0  0  0
  -29.0441  -27.1441   15.8490 H   0  0  0  0  0  0
  -29.2027  -25.3936   15.4502 H   0  0  0  0  0  0
  -30.2608  -26.1406   16.6426 H   0  0  0  0  0  0
  -30.0914  -23.7067   16.9828 H   0  0  0  0  0  0
  -28.7902  -22.5795   17.2167 H   0  0  0  0  0  0
  -29.7959  -23.0559   18.5808 H   0  0  0  0  0  0
  -30.4455  -19.5576   18.2376 H   0  0  0  0  0  0
  -31.1096  -17.9758   18.4610 H   0  0  0  0  0  0
  -31.3068  -19.1726   19.7121 H   0  0  0  0  0  0
  -24.4826  -27.0462   24.6029 H   0  0  0  0  0  0
  -25.6562  -28.3059   24.8780 H   0  0  0  0  0  0
  -25.9043  -26.7094   25.5620 H   0  0  0  0  0  0
  -24.7772  -27.6299   22.2216 H   0  0  0  0  0  0
  -26.2668  -28.4851   22.3801 H   0  0  0  0  0  0
  -28.7200  -20.5507   21.0184 H   0  0  0  0  0  0
  -29.7781  -21.0279   19.7800 H   0  0  0  0  0  0
  -28.2942  -27.6320   23.6976 H   0  0  0  0  0  0
  -27.9945  -26.1867   24.6560 H   0  0  0  0  0  0
  -27.6864  -22.8127   20.8049 H   0  0  0  0  0  0
  -26.6259  -22.1690   19.6951 H   0  0  0  0  0  0
  -28.3043  -24.7044   22.7029 H   0  0  0  0  0  0
  -29.7194  -25.6463   23.0901 H   0  0  0  0  0  0
  -28.4957  -18.0693   18.9078 H   0  0  0  0  0  0
  -25.9221  -25.7467   23.3949 H   0  0  0  0  0  0
  1 25  1  0  0  0
  1 30  2  0  0  0
  1 84  1  0  0  0
  2  3  1  0  0  0
  2 25  1  0  0  0
  2 87  1  0  0  0
  2 88  1  0  0  0
  3  4  1  0  0  0
  3 89  1  0  0  0
  3 90  1  0  0  0
  4  5  1  0  0  0
  4 91  1  0  0  0
  4 92  1  0  0  0
  5  6  1  0  0  0
  5 26  1  0  0  0
  5 93  1  0  0  0
  6 25  1  0  0  0
  6 94  1  0  0  0
  6 95  1  0  0  0
  7  8  2  0  0  0
  7 26  1  0  0  0
  7 29  1  0  0  0
  8  9  1  0  0  0
  8 22  1  0  0  0
  9 10  1  0  0  0
  9 27  2  0  0  0
 10 11  2  0  0  0
 10 15  1  0  0  0
 11 12  1  0  0  0
 11 96  1  0  0  0
 12 13  2  0  0  0
 12 97  1  0  0  0
 13 14  1  0  0  0
 13 31  1  0  0  0
 14 15  2  0  0  0
 14 98  1  0  0  0
 15 99  1  0  0  0
 16 17  2  0  0  0
 16 21  1  0  0  0
 16 31  1  0  0  0
 17 18  1  0  0  0
 17100  1  0  0  0
 18 19  2  0  0  0
 18101  1  0  0  0
 19 20  1  0  0  0
 19 24  1  0  0  0
 20 21  2  0  0  0
 20102  1  0  0  0
 21 23  1  0  0  0
 22 28  1  0  0  0
 22 32  2  0  0  0
 26 27  1  0  0  0
 28103  1  0  0  0
 28104  1  0  0  0
 29105  1  0  0  0
 29106  1  0  0  0
 33 34  1  0  0  0
 33 66  1  0  0  0
 33 70  2  0  0  0
 34 36  1  0  0  0
 34 59  1  0  0  0
 34107  1  0  0  0
 35 44  2  0  0  0
 35 45  1  0  0  0
 35 68  1  0  0  0
 36 56  1  0  0  0
 36108  1  0  0  0
 37 39  1  0  0  0
 37 47  1  0  0  0
 37 66  1  0  0  0
 37109  1  0  0  0
 38 43  2  0  0  0
 38 46  1  0  0  0
 38 47  1  0  0  0
 39 64  1  0  0  0
 39 67  2  0  0  0
 40 52  1  0  0  0
 40 53  2  0  0  0
 40 58  1  0  0  0
 41110  1  0  0  0
 41111  1  0  0  0
 41112  1  0  0  0
 41 48  1  0  0  0
 42 43  1  0  0  0
 42 66  1  0  0  0
 42113  1  0  0  0
 42114  1  0  0  0
 43 44  1  0  0  0
 44115  1  0  0  0
 45 46  2  0  0  0
 45116  1  0  0  0
 46117  1  0  0  0
 47118  1  0  0  0
 47119  1  0  0  0
 48 56  1  0  0  0
 48 65  1  0  0  0
 48120  1  0  0  0
 49 50  1  0  0  0
 49 53  1  0  0  0
 49 64  1  0  0  0
 49121  1  0  0  0
 50 51  1  0  0  0
 50122  1  0  0  0
 50123  1  0  0  0
 51 52  1  0  0  0
 51124  1  0  0  0
 51125  1  0  0  0
 52126  1  0  0  0
 52127  1  0  0  0
 53 54  1  0  0  0
 54 55  2  0  0  0
 54128  1  0  0  0
 55 57  1  0  0  0
 55129  1  0  0  0
 56 69  2  0  0  0
 57 58  2  0  0  0
 57130  1  0  0  0
 58131  1  0  0  0
 59 60  1  0  0  0
 59 61  1  0  0  0
 59 62  1  0  0  0
 60132  1  0  0  0
 60133  1  0  0  0
 60134  1  0  0  0
 61135  1  0  0  0
 61136  1  0  0  0
 61137  1  0  0  0
 62138  1  0  0  0
 62139  1  0  0  0
 62140  1  0  0  0
 63 65  1  0  0  0
 63141  1  0  0  0
 63142  1  0  0  0
 63143  1  0  0  0
 64144  1  0  0  0
 65145  1  0  0  0
 68 83  1  0  0  0
 71 72  1  0  0  0
 71 73  2  0  0  0
 71146  1  0  0  0
 72 74  2  0  0  0
 72 75  1  0  0  0
 73 79  1  0  0  0
 73 86  1  0  0  0
 74 76  1  0  0  0
 74 86  1  0  0  0
 75147  1  0  0  0
 75148  1  0  0  0
 75149  1  0  0  0
 76150  1  0  0  0
 76151  1  0  0  0
 76152  1  0  0  0
 77153  1  0  0  0
 77154  1  0  0  0
 77155  1  0  0  0
 77 84  1  0  0  0
 78156  1  0  0  0
 78157  1  0  0  0
 78158  1  0  0  0
 78 85  1  0  0  0
 79 85  1  0  0  0
 79159  1  0  0  0
 79160  1  0  0  0
 80 82  1  0  0  0
 80 84  1  0  0  0
 80161  1  0  0  0
 80162  1  0  0  0
 81 83  1  0  0  0
 81 85  1  0  0  0
 81163  1  0  0  0
 81164  1  0  0  0
 82 86  1  0  0  0
 82165  1  0  0  0
 82166  1  0  0  0
 83167  1  0  0  0
 83168  1  0  0  0
 84169  1  0  0  0
 85170  1  0  0  0
M  ISO  4   1 100  68 101  83 101  84 100
M  END
> <chiral flag>
0

> <version>
0

> <s_m_source_file>
/data/baiqing/PycharmProjects/Reinvent-master-3.2/result/LINK_invent/BTK/process_docking_weight1_custom_sum_contain_oxygen_bond_distance_aromatic_linkinvent_7_9_3/rearranged_h_0103.sdf

> <i_m_source_file_index>
15

> <r_mmod_Potential_Energy-OPLS-2005>
14713.9443359375

> <r_mmod_Stretch_Energy-OPLS-2005>
8511.8837890625

> <r_mmod_Bend_Energy-OPLS-2005>
1201.80346679688

> <r_mmod_Torsional_Energy-OPLS-2005>
395.848937988281

> <r_mmod_Improper_Torsional_Energy-OPLS-2005>
39.2443084716797

> <r_mmod_Van_der_Waal_Energy-OPLS-2005>
2293.7431640625

> <r_mmod_Electrostatic_Energy-OPLS-2005>
-322.581237792969

> <r_mmod_Solvation_Energy-OPLS-2005>
-200.93505859375

> <b_mmod_Minimization_Converged-OPLS-2005>
0

> <r_mmod_RMS_Derivative-OPLS-2005>
22.5647315979004

$$$$
15
                    3D
 Structure written by MMmdl.
140147  0  0  1  0            999 V2000
  -29.9400  -16.5752   20.2650 C   0  0  0  0  0  0
  -30.3177  -13.8026   19.5274 C   0  0  0  0  0  0
  -29.5740  -12.9498   18.4173 C   0  0  0  0  0  0
  -28.2408  -12.3835   18.9091 C   0  0  0  0  0  0
  -27.5756  -13.4263   19.8179 C   0  0  2  0  0  0
  -28.5150  -14.1349   20.8633 C   0  0  0  0  0  0
  -25.2175  -13.8474   20.5944 C   0  0  0  0  0  0
  -24.1679  -13.0463   20.9343 C   0  0  0  0  0  0
  -24.6546  -11.7028   20.8743 C   0  0  0  0  0  0
  -23.9258  -10.4320   21.0341 C   0  0  0  0  0  0
  -24.3740   -9.4226   21.9149 C   0  0  0  0  0  0
  -23.6364   -8.2283   22.0747 C   0  0  0  0  0  0
  -22.4340   -8.0323   21.3544 C   0  0  0  0  0  0
  -22.0015   -9.0305   20.4634 C   0  0  0  0  0  0
  -22.7397  -10.2158   20.3018 C   0  0  0  0  0  0
  -21.6878   -6.0765   22.5278 C   0  0  0  0  0  0
  -21.4033   -6.5657   23.8214 C   0  0  0  0  0  0
  -21.3665   -5.6802   24.9171 C   0  0  0  0  0  0
  -21.6043   -4.3064   24.7217 C   0  0  0  0  0  0
  -21.8816   -3.8163   23.4335 C   0  0  0  0  0  0
  -21.9200   -4.6987   22.3395 C   0  0  0  0  0  0
  -22.7654  -13.5090   21.1939 C   0  0  0  0  0  0
  -22.1664   -4.2171   21.0973 F   0  0  0  0  0  0
  -21.5623   -3.4543   25.7726 F   0  0  0  0  0  0
  -29.5196  -15.0469   20.1534 N   0  0  0  0  0  0
  -26.2809  -13.0061   20.3466 N   0  0  0  0  0  0
  -25.9553  -11.6988   20.5671 N   0  0  0  0  0  0
  -22.0354  -12.8037   22.0490 N   0  0  0  0  0  0
  -25.3546  -15.2235   20.4364 N   0  0  0  0  0  0
  -31.1897  -16.3526   20.2191 O   0  0  0  0  0  0
  -21.6677   -6.8929   21.4249 O   0  0  0  0  0  0
  -22.3288  -14.5373   20.6774 O   0  0  0  0  0  0
  -24.7458  -31.7204   23.0972 C   0  0  0  0  0  0
  -25.9716  -32.4085   23.7764 C   0  0  1  0  0  0
  -27.2645  -26.0514   20.2683 C   0  0  0  0  0  0
  -25.6018  -33.7948   24.1575 N   0  0  0  0  0  0
  -23.6010  -30.2906   21.4676 C   0  0  2  0  0  0
  -25.0642  -28.4900   20.1403 C   0  0  0  0  0  0
  -22.8040  -29.3889   22.4549 C   0  0  0  0  0  0
  -18.0376  -28.1454   22.8420 C   0  0  0  0  0  0
  -24.1496  -36.6990   23.2671 C   0  0  0  0  0  0
  -26.2016  -30.2370   21.4598 C   0  0  0  0  0  0
  -26.2617  -28.7276   20.8226 C   0  0  0  0  0  0
  -27.3113  -27.5616   20.8345 C   0  0  0  0  0  0
  -26.0287  -26.1902   19.5202 C   0  0  0  0  0  0
  -25.0255  -27.2508   19.4628 C   0  0  0  0  0  0
  -23.8895  -29.5227   20.1336 C   0  0  0  0  0  0
  -25.4170  -36.2674   24.0235 C   0  0  1  0  0  0
  -20.6039  -28.3836   23.1028 C   0  0  2  0  0  0
  -20.6806  -26.9436   22.5417 C   0  0  0  0  0  0
  -19.5795  -26.6347   21.5223 C   0  0  0  0  0  0
  -18.1977  -26.7968   22.1607 C   0  0  0  0  0  0
  -19.1658  -28.8985   23.2684 C   0  0  0  0  0  0
  -18.9554  -30.1552   23.8757 C   0  0  0  0  0  0
  -17.6537  -30.6619   24.0536 C   0  0  0  0  0  0
  -25.9187  -34.9081   23.4795 C   0  0  0  0  0  0
  -16.5422  -29.9090   23.6367 C   0  0  0  0  0  0
  -16.7352  -28.6518   23.0377 C   0  0  0  0  0  0
  -26.4695  -31.6407   25.0653 C   0  0  0  0  0  0
  -25.3596  -31.3896   26.1148 C   0  0  0  0  0  0
  -27.0737  -30.2690   24.7009 C   0  0  0  0  0  0
  -27.6014  -32.4430   25.7504 C   0  0  0  0  0  0
  -27.5541  -37.1647   24.8467 C   0  0  0  0  0  0
  -21.4632  -29.2948   22.3279 N   0  0  0  0  0  0
  -26.4241  -37.3507   23.9408 N   0  0  0  0  0  0
  -24.8817  -30.7986   22.0600 N   0  0  0  0  0  0
  -23.4174  -28.7609   23.3201 O   0  0  0  0  0  0
  -28.1692  -24.5530   20.3155 O   0  0  0  0  0  0
  -26.5927  -34.8790   22.4482 O   0  0  0  0  0  0
  -23.6343  -32.0580   23.5510 O   0  0  0  0  0  0
  -27.3963  -22.3335   18.9189 C   0  0  0  0  0  0
  -29.1965  -20.3138   20.3095 C   0  0  0  0  0  0
  -28.1950  -22.4475   20.2185 C   0  0  1  0  0  0
  -29.2100  -18.2039   20.2680 N   0  0  0  0  0  0
  -31.2171  -14.1935   19.0506 H   0  0  0  0  0  0
  -30.7100  -13.1496   20.3097 H   0  0  0  0  0  0
  -30.2160  -12.1450   18.0569 H   0  0  0  0  0  0
  -29.3859  -13.5951   17.5581 H   0  0  0  0  0  0
  -28.4338  -11.4756   19.4820 H   0  0  0  0  0  0
  -27.5962  -12.1038   18.0748 H   0  0  0  0  0  0
  -27.3221  -14.2173   19.1098 H   0  0  0  0  0  0
  -28.9717  -13.4213   21.5515 H   0  0  0  0  0  0
  -27.9153  -14.7847   21.5010 H   0  0  0  0  0  0
  -25.2872   -9.5688   22.4748 H   0  0  0  0  0  0
  -24.0047   -7.4682   22.7490 H   0  0  0  0  0  0
  -21.0939   -8.8853   19.8945 H   0  0  0  0  0  0
  -22.3858  -10.9697   19.6127 H   0  0  0  0  0  0
  -21.2036   -7.6166   23.9725 H   0  0  0  0  0  0
  -21.1485   -6.0529   25.9075 H   0  0  0  0  0  0
  -22.0587   -2.7625   23.2829 H   0  0  0  0  0  0
  -22.4042  -11.9739   22.4895 H   0  0  0  0  0  0
  -21.0940  -13.0978   22.2675 H   0  0  0  0  0  0
  -24.5727  -15.8605   20.5445 H   0  0  0  0  0  0
  -26.1977  -15.6792   20.1125 H   0  0  0  0  0  0
  -26.7882  -32.4438   23.0541 H   0  0  0  0  0  0
  -24.9958  -33.8873   24.9594 H   0  0  0  0  0  0
  -22.9650  -31.1430   21.2199 H   0  0  0  0  0  0
  -23.3791  -35.9281   23.3225 H   0  0  0  0  0  0
  -24.3541  -36.8802   22.2107 H   0  0  0  0  0  0
  -23.7230  -37.6101   23.6875 H   0  0  0  0  0  0
  -26.4684  -30.9162   20.6491 H   0  0  0  0  0  0
  -27.0314  -30.3255   22.1468 H   0  0  0  0  0  0
  -28.2008  -27.7833   21.4069 H   0  0  0  0  0  0
  -25.7594  -25.3084   18.9568 H   0  0  0  0  0  0
  -24.1442  -27.0431   18.8714 H   0  0  0  0  0  0
  -24.1153  -30.2527   19.3556 H   0  0  0  0  0  0
  -22.9821  -29.0192   19.7960 H   0  0  0  0  0  0
  -25.1412  -36.1341   25.0722 H   0  0  0  0  0  0
  -21.0093  -28.3507   24.1167 H   0  0  0  0  0  0
  -20.5607  -26.2478   23.3736 H   0  0  0  0  0  0
  -21.6662  -26.7276   22.1277 H   0  0  0  0  0  0
  -19.6939  -25.6221   21.1341 H   0  0  0  0  0  0
  -19.6760  -27.3083   20.6697 H   0  0  0  0  0  0
  -17.4251  -26.6714   21.4005 H   0  0  0  0  0  0
  -18.0341  -26.0144   22.9032 H   0  0  0  0  0  0
  -19.8032  -30.7398   24.2068 H   0  0  0  0  0  0
  -17.5088  -31.6284   24.5167 H   0  0  0  0  0  0
  -15.5418  -30.2951   23.7772 H   0  0  0  0  0  0
  -15.8752  -28.0793   22.7170 H   0  0  0  0  0  0
  -24.5840  -30.7197   25.7417 H   0  0  0  0  0  0
  -24.8733  -32.3170   26.4181 H   0  0  0  0  0  0
  -25.7625  -30.9302   27.0183 H   0  0  0  0  0  0
  -26.3561  -29.6088   24.2133 H   0  0  0  0  0  0
  -27.4048  -29.7413   25.5964 H   0  0  0  0  0  0
  -27.9576  -30.3691   24.0712 H   0  0  0  0  0  0
  -27.2466  -33.3877   26.1639 H   0  0  0  0  0  0
  -28.4039  -32.6762   25.0494 H   0  0  0  0  0  0
  -28.0448  -31.8874   26.5778 H   0  0  0  0  0  0
  -28.2488  -38.0004   24.7514 H   0  0  0  0  0  0
  -28.1105  -36.2516   24.6295 H   0  0  0  0  0  0
  -27.2253  -37.1267   25.8867 H   0  0  0  0  0  0
  -21.0095  -29.8496   21.6153 H   0  0  0  0  0  0
  -26.0009  -38.2524   24.1434 H   0  0  0  0  0  0
  -27.0308  -21.3167   18.7745 H   0  0  0  0  0  0
  -28.0154  -22.5911   18.0598 H   0  0  0  0  0  0
  -26.5328  -22.9978   18.9250 H   0  0  0  0  0  0
  -29.7338  -20.4289   21.2509 H   0  0  0  0  0  0
  -29.9696  -20.4654   19.5561 H   0  0  0  0  0  0
  -27.4820  -22.2948   21.0292 H   0  0  0  0  0  0
  -28.2258  -17.9669   20.2331 H   0  0  0  0  0  0
  1 25  1  0  0  0
  1 30  2  0  0  0
  1 74  1  0  0  0
  2  3  1  0  0  0
  2 25  1  0  0  0
  2 75  1  0  0  0
  2 76  1  0  0  0
  3  4  1  0  0  0
  3 77  1  0  0  0
  3 78  1  0  0  0
  4  5  1  0  0  0
  4 79  1  0  0  0
  4 80  1  0  0  0
  5  6  1  0  0  0
  5 26  1  0  0  0
  5 81  1  0  0  0
  6 25  1  0  0  0
  6 82  1  0  0  0
  6 83  1  0  0  0
  7  8  2  0  0  0
  7 26  1  0  0  0
  7 29  1  0  0  0
  8  9  1  0  0  0
  8 22  1  0  0  0
  9 10  1  0  0  0
  9 27  2  0  0  0
 10 11  2  0  0  0
 10 15  1  0  0  0
 11 12  1  0  0  0
 11 84  1  0  0  0
 12 13  2  0  0  0
 12 85  1  0  0  0
 13 14  1  0  0  0
 13 31  1  0  0  0
 14 15  2  0  0  0
 14 86  1  0  0  0
 15 87  1  0  0  0
 16 17  2  0  0  0
 16 21  1  0  0  0
 16 31  1  0  0  0
 17 18  1  0  0  0
 17 88  1  0  0  0
 18 19  2  0  0  0
 18 89  1  0  0  0
 19 20  1  0  0  0
 19 24  1  0  0  0
 20 21  2  0  0  0
 20 90  1  0  0  0
 21 23  1  0  0  0
 22 28  1  0  0  0
 22 32  2  0  0  0
 26 27  1  0  0  0
 28 91  1  0  0  0
 28 92  1  0  0  0
 29 93  1  0  0  0
 29 94  1  0  0  0
 33 34  1  0  0  0
 33 66  1  0  0  0
 33 70  2  0  0  0
 34 36  1  0  0  0
 34 59  1  0  0  0
 34 95  1  0  0  0
 35 44  2  0  0  0
 35 45  1  0  0  0
 35 68  1  0  0  0
 36 56  1  0  0  0
 36 96  1  0  0  0
 37 39  1  0  0  0
 37 47  1  0  0  0
 37 66  1  0  0  0
 37 97  1  0  0  0
 38 43  2  0  0  0
 38 46  1  0  0  0
 38 47  1  0  0  0
 39 64  1  0  0  0
 39 67  2  0  0  0
 40 52  1  0  0  0
 40 53  2  0  0  0
 40 58  1  0  0  0
 41 98  1  0  0  0
 41 99  1  0  0  0
 41100  1  0  0  0
 41 48  1  0  0  0
 42 43  1  0  0  0
 42 66  1  0  0  0
 42101  1  0  0  0
 42102  1  0  0  0
 43 44  1  0  0  0
 44103  1  0  0  0
 45 46  2  0  0  0
 45104  1  0  0  0
 46105  1  0  0  0
 47106  1  0  0  0
 47107  1  0  0  0
 48 56  1  0  0  0
 48 65  1  0  0  0
 48108  1  0  0  0
 49 50  1  0  0  0
 49 53  1  0  0  0
 49 64  1  0  0  0
 49109  1  0  0  0
 50 51  1  0  0  0
 50110  1  0  0  0
 50111  1  0  0  0
 51 52  1  0  0  0
 51112  1  0  0  0
 51113  1  0  0  0
 52114  1  0  0  0
 52115  1  0  0  0
 53 54  1  0  0  0
 54 55  2  0  0  0
 54116  1  0  0  0
 55 57  1  0  0  0
 55117  1  0  0  0
 56 69  2  0  0  0
 57 58  2  0  0  0
 57118  1  0  0  0
 58119  1  0  0  0
 59 60  1  0  0  0
 59 61  1  0  0  0
 59 62  1  0  0  0
 60120  1  0  0  0
 60121  1  0  0  0
 60122  1  0  0  0
 61123  1  0  0  0
 61124  1  0  0  0
 61125  1  0  0  0
 62126  1  0  0  0
 62127  1  0  0  0
 62128  1  0  0  0
 63 65  1  0  0  0
 63129  1  0  0  0
 63130  1  0  0  0
 63131  1  0  0  0
 64132  1  0  0  0
 65133  1  0  0  0
 68 73  1  0  0  0
 71134  1  0  0  0
 71135  1  0  0  0
 71136  1  0  0  0
 71 73  1  0  0  0
 72 73  1  0  0  0
 72 74  1  0  0  0
 72137  1  0  0  0
 72138  1  0  0  0
 73139  1  0  0  0
 74140  1  0  0  0
M  ISO  4   1 100  68 101  73 101  74 100
M  END
> <chiral flag>
0

> <version>
0

> <s_m_source_file>
/data/baiqing/PycharmProjects/Reinvent-master-3.2/result/LINK_invent/BTK/process_docking_weight1_custom_sum_contain_oxygen_bond_distance_aromatic_linkinvent_7_9_3/rearranged_h_0103.sdf

> <i_m_source_file_index>
16

> <r_mmod_Potential_Energy-OPLS-2005>
6840.93408203125

> <r_mmod_Stretch_Energy-OPLS-2005>
3158.40625

> <r_mmod_Bend_Energy-OPLS-2005>
1105.36547851562

> <r_mmod_Torsional_Energy-OPLS-2005>
221.440460205078

> <r_mmod_Improper_Torsional_Energy-OPLS-2005>
4.6008825302124

> <r_mmod_Van_der_Waal_Energy-OPLS-2005>
117.73503112793

> <r_mmod_Electrostatic_Energy-OPLS-2005>
-390.303283691406

> <r_mmod_Solvation_Energy-OPLS-2005>
-229.478820800781

> <b_mmod_Minimization_Converged-OPLS-2005>
0

> <r_mmod_RMS_Derivative-OPLS-2005>
0.0908154770731926

$$$$
16
                    3D
 Structure written by MMmdl.
162170  0  0  1  0            999 V2000
  -30.6221  -14.7257   20.4515 C   0  0  0  0  0  0
  -30.4290  -12.4363   19.4857 C   0  0  0  0  0  0
  -29.5135  -12.5017   18.2427 C   0  0  0  0  0  0
  -28.0373  -12.3340   18.6501 C   0  0  0  0  0  0
  -27.6445  -13.2318   19.8546 C   0  0  2  0  0  0
  -28.6862  -13.1613   20.9944 C   0  0  0  0  0  0
  -25.2520  -13.8203   20.5698 C   0  0  0  0  0  0
  -24.1810  -13.0446   20.9207 C   0  0  0  0  0  0
  -24.6398  -11.6921   20.8745 C   0  0  0  0  0  0
  -23.9079  -10.4296   21.0405 C   0  0  0  0  0  0
  -24.3627   -9.4210   21.9185 C   0  0  0  0  0  0
  -23.6302   -8.2246   22.0754 C   0  0  0  0  0  0
  -22.4283   -8.0285   21.3544 C   0  0  0  0  0  0
  -21.9919   -9.0259   20.4647 C   0  0  0  0  0  0
  -22.7249  -10.2138   20.3057 C   0  0  0  0  0  0
  -21.6855   -6.0745   22.5283 C   0  0  0  0  0  0
  -21.4010   -6.5647   23.8218 C   0  0  0  0  0  0
  -21.3656   -5.6796   24.9180 C   0  0  0  0  0  0
  -21.6042   -4.3060   24.7225 C   0  0  0  0  0  0
  -21.8819   -3.8154   23.4347 C   0  0  0  0  0  0
  -21.9192   -4.6972   22.3404 C   0  0  0  0  0  0
  -22.7832  -13.5228   21.1865 C   0  0  0  0  0  0
  -22.1663   -4.2158   21.0982 F   0  0  0  0  0  0
  -21.5623   -3.4541   25.7738 F   0  0  0  0  0  0
  -29.9937  -13.5009   20.4205 N   0  0  0  0  0  0
  -26.2947  -12.9411   20.3289 N   0  0  0  0  0  0
  -25.9331  -11.6553   20.5756 N   0  0  0  0  0  0
  -22.0476  -12.8214   22.0416 N   0  0  0  0  0  0
  -25.4212  -15.1929   20.4117 N   0  0  0  0  0  0
  -31.7997  -14.8159   20.0942 O   0  0  0  0  0  0
  -21.6641   -6.8883   21.4246 O   0  0  0  0  0  0
  -22.3518  -14.5533   20.6716 O   0  0  0  0  0  0
  -24.6298  -31.8546   23.1984 C   0  0  0  0  0  0
  -25.9125  -32.4749   23.8329 C   0  0  1  0  0  0
  -27.2124  -27.2655   20.1401 C   0  0  0  0  0  0
  -25.5922  -33.8556   24.2252 N   0  0  0  0  0  0
  -23.4277  -30.4778   21.5390 C   0  0  2  0  0  0
  -24.8767  -28.9292   20.1030 C   0  0  0  0  0  0
  -22.7505  -29.4594   22.4882 C   0  0  0  0  0  0
  -18.0295  -28.1394   22.8480 C   0  0  0  0  0  0
  -24.1484  -36.7293   23.2642 C   0  0  0  0  0  0
  -25.9724  -30.7687   21.3795 C   0  0  0  0  0  0
  -26.0449  -29.3915   20.7245 C   0  0  0  0  0  0
  -27.2175  -28.5703   20.7363 C   0  0  0  0  0  0
  -26.0422  -26.8921   19.4467 C   0  0  0  0  0  0
  -24.8802  -27.6872   19.4506 C   0  0  0  0  0  0
  -23.6459  -29.8136   20.1544 C   0  0  0  0  0  0
  -25.4110  -36.3075   24.0331 C   0  0  1  0  0  0
  -20.5899  -28.3703   23.1248 C   0  0  2  0  0  0
  -20.6783  -26.9416   22.5400 C   0  0  0  0  0  0
  -19.5755  -26.6383   21.5209 C   0  0  0  0  0  0
  -18.1933  -26.7932   22.1622 C   0  0  0  0  0  0
  -19.1553  -28.8867   23.2861 C   0  0  0  0  0  0
  -18.9477  -30.1467   23.8877 C   0  0  0  0  0  0
  -17.6478  -30.6594   24.0564 C   0  0  0  0  0  0
  -25.9054  -34.9442   23.5101 C   0  0  0  0  0  0
  -16.5365  -29.9093   23.6337 C   0  0  0  0  0  0
  -16.7282  -28.6514   23.0349 C   0  0  0  0  0  0
  -26.4497  -31.6577   25.0722 C   0  0  0  0  0  0
  -25.3715  -31.3736   26.1441 C   0  0  0  0  0  0
  -27.0356  -30.2993   24.6225 C   0  0  0  0  0  0
  -27.6050  -32.4325   25.7487 C   0  0  0  0  0  0
  -27.5568  -37.1796   24.8466 C   0  0  0  0  0  0
  -21.4210  -29.3045   22.3630 N   0  0  0  0  0  0
  -26.4285  -37.3771   23.9410 N   0  0  0  0  0  0
  -24.6954  -31.0519   22.0955 N   0  0  0  0  0  0
  -23.4206  -28.8129   23.2979 O   0  0  0  0  0  0
  -28.2800  -26.3399   20.1981 O   0  0  0  0  0  0
  -26.5638  -34.8921   22.4675 O   0  0  0  0  0  0
  -23.5450  -32.1363   23.7282 O   0  0  0  0  0  0
  -28.9418  -19.6850   19.9954 C   0  0  0  0  0  0
  -29.7466  -18.6551   20.4978 C   0  0  0  0  0  0
  -30.3456  -19.3311   21.6078 C   0  0  0  0  0  0
  -30.7750  -18.7429   24.0161 C   0  0  0  0  0  0
  -32.6928  -19.4914   22.5097 C   0  0  0  0  0  0
  -26.6746  -24.7060   21.3803 C   0  0  0  0  0  0
  -30.0746  -17.2064   19.9153 C   0  0  0  0  0  0
  -28.7927  -23.6292   20.2696 C   0  0  0  0  0  0
  -28.2738  -22.1769   20.7838 C   0  0  0  0  0  0
  -31.3430  -18.7612   22.5885 C   0  0  0  0  0  0
  -28.1077  -24.9874   20.8662 C   0  0  1  0  0  0
  -29.9612  -20.6133   21.7338 N   0  0  0  0  0  0
  -29.0835  -20.8825   20.7375 N   0  0  0  0  0  0
  -29.8575  -15.8702   20.6257 N   0  0  0  0  0  0
  -31.4736  -12.5425   19.1885 H   0  0  0  0  0  0
  -30.3572  -11.4598   19.9669 H   0  0  0  0  0  0
  -29.7940  -11.7269   17.5278 H   0  0  0  0  0  0
  -29.6489  -13.4556   17.7304 H   0  0  0  0  0  0
  -27.8864  -11.2854   18.9076 H   0  0  0  0  0  0
  -27.3847  -12.5331   17.7988 H   0  0  0  0  0  0
  -27.6406  -14.2543   19.4771 H   0  0  0  0  0  0
  -28.7130  -12.1638   21.4354 H   0  0  0  0  0  0
  -28.4243  -13.8458   21.8025 H   0  0  0  0  0  0
  -25.2771   -9.5688   22.4761 H   0  0  0  0  0  0
  -24.0011   -7.4636   22.7473 H   0  0  0  0  0  0
  -21.0848   -8.8779   19.8954 H   0  0  0  0  0  0
  -22.3706  -10.9678   19.6166 H   0  0  0  0  0  0
  -21.2004   -7.6154   23.9724 H   0  0  0  0  0  0
  -21.1475   -6.0527   25.9081 H   0  0  0  0  0  0
  -22.0600   -2.7618   23.2847 H   0  0  0  0  0  0
  -22.4100  -11.9885   22.4814 H   0  0  0  0  0  0
  -21.1091  -13.1237   22.2609 H   0  0  0  0  0  0
  -24.6536  -15.8457   20.5253 H   0  0  0  0  0  0
  -26.2652  -15.6332   20.0683 H   0  0  0  0  0  0
  -26.7186  -32.5400   23.1060 H   0  0  0  0  0  0
  -25.0044  -33.9694   25.0381 H   0  0  0  0  0  0
  -22.7245  -31.3009   21.3924 H   0  0  0  0  0  0
  -23.3749  -35.9623   23.3312 H   0  0  0  0  0  0
  -24.3572  -36.8917   22.2056 H   0  0  0  0  0  0
  -23.7242  -37.6498   23.6665 H   0  0  0  0  0  0
  -26.1140  -31.5290   20.6098 H   0  0  0  0  0  0
  -26.8489  -30.8150   22.0138 H   0  0  0  0  0  0
  -28.1072  -28.9132   21.2460 H   0  0  0  0  0  0
  -26.0131  -25.9443   18.9288 H   0  0  0  0  0  0
  -23.9926  -27.3365   18.9418 H   0  0  0  0  0  0
  -23.7674  -30.5914   19.3990 H   0  0  0  0  0  0
  -22.7645  -29.2463   19.8488 H   0  0  0  0  0  0
  -25.1289  -36.1918   25.0823 H   0  0  0  0  0  0
  -21.0002  -28.3285   24.1365 H   0  0  0  0  0  0
  -20.5690  -26.2312   23.3608 H   0  0  0  0  0  0
  -21.6647  -26.7438   22.1189 H   0  0  0  0  0  0
  -19.6927  -25.6294   21.1243 H   0  0  0  0  0  0
  -19.6693  -27.3192   20.6737 H   0  0  0  0  0  0
  -17.4201  -26.6680   21.4024 H   0  0  0  0  0  0
  -18.0332  -26.0078   22.9021 H   0  0  0  0  0  0
  -19.7958  -30.7292   24.2224 H   0  0  0  0  0  0
  -17.5039  -31.6268   24.5179 H   0  0  0  0  0  0
  -15.5370  -30.3001   23.7671 H   0  0  0  0  0  0
  -15.8676  -28.0842   22.7055 H   0  0  0  0  0  0
  -24.5890  -30.7086   25.7768 H   0  0  0  0  0  0
  -24.8913  -32.2916   26.4841 H   0  0  0  0  0  0
  -25.8026  -30.8927   27.0228 H   0  0  0  0  0  0
  -26.2949  -29.6731   24.1240 H   0  0  0  0  0  0
  -27.4029  -29.7263   25.4750 H   0  0  0  0  0  0
  -27.8830  -30.4280   23.9489 H   0  0  0  0  0  0
  -27.2648  -33.3628   26.2041 H   0  0  0  0  0  0
  -28.3855  -32.6878   25.0309 H   0  0  0  0  0  0
  -28.0720  -31.8472   26.5418 H   0  0  0  0  0  0
  -28.2583  -38.0091   24.7499 H   0  0  0  0  0  0
  -28.1061  -36.2622   24.6299 H   0  0  0  0  0  0
  -27.2290  -37.1453   25.8871 H   0  0  0  0  0  0
  -20.9397  -29.8769   21.6831 H   0  0  0  0  0  0
  -26.0172  -38.2847   24.1413 H   0  0  0  0  0  0
  -28.2634  -19.6618   19.1538 H   0  0  0  0  0  0
  -30.5645  -19.7514   24.3727 H   0  0  0  0  0  0
  -31.4742  -18.2822   24.7141 H   0  0  0  0  0  0
  -29.8444  -18.1757   24.0583 H   0  0  0  0  0  0
  -32.5896  -20.5443   22.7732 H   0  0  0  0  0  0
  -33.1047  -19.4395   21.5018 H   0  0  0  0  0  0
  -33.4208  -19.0476   23.1891 H   0  0  0  0  0  0
  -26.6556  -23.9227   22.1353 H   0  0  0  0  0  0
  -26.0094  -24.3916   20.5769 H   0  0  0  0  0  0
  -26.2398  -25.5742   21.8756 H   0  0  0  0  0  0
  -31.1210  -17.2219   19.6069 H   0  0  0  0  0  0
  -29.5420  -17.0939   18.9706 H   0  0  0  0  0  0
  -28.6909  -23.6446   19.1845 H   0  0  0  0  0  0
  -29.8657  -23.6907   20.4527 H   0  0  0  0  0  0
  -27.3204  -21.9736   20.2943 H   0  0  0  0  0  0
  -28.0203  -22.2873   21.8372 H   0  0  0  0  0  0
  -31.5326  -17.7219   22.3156 H   0  0  0  0  0  0
  -28.6628  -25.1508   21.7907 H   0  0  0  0  0  0
  -28.9210  -15.7051   20.9630 H   0  0  0  0  0  0
  1 25  1  0  0  0
  1 30  2  0  0  0
  1 84  1  0  0  0
  2  3  1  0  0  0
  2 25  1  0  0  0
  2 85  1  0  0  0
  2 86  1  0  0  0
  3  4  1  0  0  0
  3 87  1  0  0  0
  3 88  1  0  0  0
  4  5  1  0  0  0
  4 89  1  0  0  0
  4 90  1  0  0  0
  5  6  1  0  0  0
  5 26  1  0  0  0
  5 91  1  0  0  0
  6 25  1  0  0  0
  6 92  1  0  0  0
  6 93  1  0  0  0
  7  8  2  0  0  0
  7 26  1  0  0  0
  7 29  1  0  0  0
  8  9  1  0  0  0
  8 22  1  0  0  0
  9 10  1  0  0  0
  9 27  2  0  0  0
 10 11  2  0  0  0
 10 15  1  0  0  0
 11 12  1  0  0  0
 11 94  1  0  0  0
 12 13  2  0  0  0
 12 95  1  0  0  0
 13 14  1  0  0  0
 13 31  1  0  0  0
 14 15  2  0  0  0
 14 96  1  0  0  0
 15 97  1  0  0  0
 16 17  2  0  0  0
 16 21  1  0  0  0
 16 31  1  0  0  0
 17 18  1  0  0  0
 17 98  1  0  0  0
 18 19  2  0  0  0
 18 99  1  0  0  0
 19 20  1  0  0  0
 19 24  1  0  0  0
 20 21  2  0  0  0
 20100  1  0  0  0
 21 23  1  0  0  0
 22 28  1  0  0  0
 22 32  2  0  0  0
 26 27  1  0  0  0
 28101  1  0  0  0
 28102  1  0  0  0
 29103  1  0  0  0
 29104  1  0  0  0
 33 34  1  0  0  0
 33 66  1  0  0  0
 33 70  2  0  0  0
 34 36  1  0  0  0
 34 59  1  0  0  0
 34105  1  0  0  0
 35 44  2  0  0  0
 35 45  1  0  0  0
 35 68  1  0  0  0
 36 56  1  0  0  0
 36106  1  0  0  0
 37 39  1  0  0  0
 37 47  1  0  0  0
 37 66  1  0  0  0
 37107  1  0  0  0
 38 43  2  0  0  0
 38 46  1  0  0  0
 38 47  1  0  0  0
 39 64  1  0  0  0
 39 67  2  0  0  0
 40 52  1  0  0  0
 40 53  2  0  0  0
 40 58  1  0  0  0
 41108  1  0  0  0
 41109  1  0  0  0
 41110  1  0  0  0
 41 48  1  0  0  0
 42 43  1  0  0  0
 42 66  1  0  0  0
 42111  1  0  0  0
 42112  1  0  0  0
 43 44  1  0  0  0
 44113  1  0  0  0
 45 46  2  0  0  0
 45114  1  0  0  0
 46115  1  0  0  0
 47116  1  0  0  0
 47117  1  0  0  0
 48 56  1  0  0  0
 48 65  1  0  0  0
 48118  1  0  0  0
 49 50  1  0  0  0
 49 53  1  0  0  0
 49 64  1  0  0  0
 49119  1  0  0  0
 50 51  1  0  0  0
 50120  1  0  0  0
 50121  1  0  0  0
 51 52  1  0  0  0
 51122  1  0  0  0
 51123  1  0  0  0
 52124  1  0  0  0
 52125  1  0  0  0
 53 54  1  0  0  0
 54 55  2  0  0  0
 54126  1  0  0  0
 55 57  1  0  0  0
 55127  1  0  0  0
 56 69  2  0  0  0
 57 58  2  0  0  0
 57128  1  0  0  0
 58129  1  0  0  0
 59 60  1  0  0  0
 59 61  1  0  0  0
 59 62  1  0  0  0
 60130  1  0  0  0
 60131  1  0  0  0
 60132  1  0  0  0
 61133  1  0  0  0
 61134  1  0  0  0
 61135  1  0  0  0
 62136  1  0  0  0
 62137  1  0  0  0
 62138  1  0  0  0
 63 65  1  0  0  0
 63139  1  0  0  0
 63140  1  0  0  0
 63141  1  0  0  0
 64142  1  0  0  0
 65143  1  0  0  0
 68 81  1  0  0  0
 71 72  2  0  0  0
 71 83  1  0  0  0
 71144  1  0  0  0
 72 73  1  0  0  0
 72 77  1  0  0  0
 73 80  1  0  0  0
 73 82  2  0  0  0
 74145  1  0  0  0
 74146  1  0  0  0
 74147  1  0  0  0
 74 80  1  0  0  0
 75 80  1  0  0  0
 75148  1  0  0  0
 75149  1  0  0  0
 75150  1  0  0  0
 76151  1  0  0  0
 76152  1  0  0  0
 76153  1  0  0  0
 76 81  1  0  0  0
 77 84  1  0  0  0
 77154  1  0  0  0
 77155  1  0  0  0
 78 79  1  0  0  0
 78 81  1  0  0  0
 78156  1  0  0  0
 78157  1  0  0  0
 79 83  1  0  0  0
 79158  1  0  0  0
 79159  1  0  0  0
 80160  1  0  0  0
 81161  1  0  0  0
 82 83  1  0  0  0
 84162  1  0  0  0
M  ISO  4   1 100  68 101  81 101  84 100
M  END
> <chiral flag>
0

> <version>
0

> <s_m_source_file>
/data/baiqing/PycharmProjects/Reinvent-master-3.2/result/LINK_invent/BTK/process_docking_weight1_custom_sum_contain_oxygen_bond_distance_aromatic_linkinvent_7_9_3/rearranged_h_0103.sdf

> <i_m_source_file_index>
17

> <r_mmod_Potential_Energy-OPLS-2005>
130.97688293457

> <r_mmod_Stretch_Energy-OPLS-2005>
122.434532165527

> <r_mmod_Bend_Energy-OPLS-2005>
188.69987487793

> <r_mmod_Torsional_Energy-OPLS-2005>
254.968551635742

> <r_mmod_Improper_Torsional_Energy-OPLS-2005>
9.94114780426025

> <r_mmod_Van_der_Waal_Energy-OPLS-2005>
120.39575958252

> <r_mmod_Electrostatic_Energy-OPLS-2005>
-433.252410888672

> <r_mmod_Solvation_Energy-OPLS-2005>
-215.846801757812

> <b_mmod_Minimization_Converged-OPLS-2005>
0

> <r_mmod_RMS_Derivative-OPLS-2005>
1.12443470954895

$$$$
17
                    3D
 Structure written by MMmdl.
163171  0  0  1  0            999 V2000
  -30.6117  -14.7592   20.4653 C   0  0  0  0  0  0
  -30.4399  -12.4681   19.4610 C   0  0  0  0  0  0
  -29.5081  -12.5076   18.2294 C   0  0  0  0  0  0
  -28.0365  -12.3247   18.6489 C   0  0  0  0  0  0
  -27.6410  -13.2311   19.8432 C   0  0  2  0  0  0
  -28.6892  -13.1688   20.9760 C   0  0  0  0  0  0
  -25.2481  -13.8167   20.5671 C   0  0  0  0  0  0
  -24.1799  -13.0429   20.9207 C   0  0  0  0  0  0
  -24.6388  -11.6897   20.8741 C   0  0  0  0  0  0
  -23.9069  -10.4282   21.0398 C   0  0  0  0  0  0
  -24.3615   -9.4197   21.9178 C   0  0  0  0  0  0
  -23.6289   -8.2236   22.0756 C   0  0  0  0  0  0
  -22.4273   -8.0271   21.3545 C   0  0  0  0  0  0
  -21.9905   -9.0242   20.4644 C   0  0  0  0  0  0
  -22.7239  -10.2125   20.3046 C   0  0  0  0  0  0
  -21.6850   -6.0725   22.5271 C   0  0  0  0  0  0
  -21.4015   -6.5631   23.8209 C   0  0  0  0  0  0
  -21.3663   -5.6791   24.9172 C   0  0  0  0  0  0
  -21.6045   -4.3057   24.7232 C   0  0  0  0  0  0
  -21.8811   -3.8142   23.4351 C   0  0  0  0  0  0
  -21.9191   -4.6945   22.3404 C   0  0  0  0  0  0
  -22.7806  -13.5179   21.1883 C   0  0  0  0  0  0
  -22.1656   -4.2135   21.0981 F   0  0  0  0  0  0
  -21.5635   -3.4538   25.7743 F   0  0  0  0  0  0
  -29.9911  -13.5286   20.3923 N   0  0  0  0  0  0
  -26.2937  -12.9401   20.3239 N   0  0  0  0  0  0
  -25.9324  -11.6549   20.5728 N   0  0  0  0  0  0
  -22.0474  -12.8174   22.0443 N   0  0  0  0  0  0
  -25.4099  -15.1910   20.4054 N   0  0  0  0  0  0
  -31.8033  -14.8689   20.1675 O   0  0  0  0  0  0
  -21.6645   -6.8867   21.4235 O   0  0  0  0  0  0
  -22.3495  -14.5498   20.6728 O   0  0  0  0  0  0
  -24.6244  -31.8657   23.1986 C   0  0  0  0  0  0
  -25.9100  -32.4803   23.8318 C   0  0  1  0  0  0
  -27.2431  -27.3046   20.1071 C   0  0  0  0  0  0
  -25.5888  -33.8592   24.2258 N   0  0  0  0  0  0
  -23.4203  -30.4843   21.5458 C   0  0  2  0  0  0
  -24.8777  -28.9481   20.0985 C   0  0  0  0  0  0
  -22.7460  -29.4637   22.4928 C   0  0  0  0  0  0
  -18.0301  -28.1341   22.8521 C   0  0  0  0  0  0
  -24.1519  -36.7261   23.2645 C   0  0  0  0  0  0
  -25.9625  -30.7898   21.3794 C   0  0  0  0  0  0
  -26.0455  -29.4185   20.7115 C   0  0  0  0  0  0
  -27.2279  -28.6096   20.7068 C   0  0  0  0  0  0
  -26.0524  -26.9089   19.4505 C   0  0  0  0  0  0
  -24.8875  -27.7021   19.4519 C   0  0  0  0  0  0
  -23.6351  -29.8177   20.1608 C   0  0  0  0  0  0
  -25.4147  -36.3076   24.0327 C   0  0  1  0  0  0
  -20.5902  -28.3672   23.1279 C   0  0  2  0  0  0
  -20.6791  -26.9385   22.5410 C   0  0  0  0  0  0
  -19.5758  -26.6361   21.5214 C   0  0  0  0  0  0
  -18.1947  -26.7897   22.1643 C   0  0  0  0  0  0
  -19.1555  -28.8818   23.2913 C   0  0  0  0  0  0
  -18.9481  -30.1435   23.8914 C   0  0  0  0  0  0
  -17.6467  -30.6565   24.0548 C   0  0  0  0  0  0
  -25.9078  -34.9465   23.5105 C   0  0  0  0  0  0
  -16.5369  -29.9046   23.6326 C   0  0  0  0  0  0
  -16.7293  -28.6457   23.0367 C   0  0  0  0  0  0
  -26.4497  -31.6558   25.0654 C   0  0  0  0  0  0
  -25.3666  -31.3649   26.1311 C   0  0  0  0  0  0
  -27.0354  -30.2981   24.6094 C   0  0  0  0  0  0
  -27.6098  -32.4245   25.7374 C   0  0  0  0  0  0
  -27.5612  -37.1763   24.8453 C   0  0  0  0  0  0
  -21.4171  -29.3028   22.3638 N   0  0  0  0  0  0
  -26.4334  -37.3753   23.9389 N   0  0  0  0  0  0
  -24.6882  -31.0594   22.1001 N   0  0  0  0  0  0
  -23.4180  -28.8195   23.3030 O   0  0  0  0  0  0
  -28.3527  -26.4240   20.1791 O   0  0  0  0  0  0
  -26.5674  -34.8934   22.4687 O   0  0  0  0  0  0
  -23.5394  -32.1526   23.7261 O   0  0  0  0  0  0
  -29.6547  -21.1460   20.3870 C   0  0  0  0  0  0
  -29.1260  -19.9367   19.9193 C   0  0  0  0  0  0
  -27.8448  -20.3446   19.4047 C   0  0  0  0  0  0
  -27.7679  -21.7269   19.3605 C   0  0  0  0  0  0
  -26.7263  -22.5635   18.6679 C   0  0  0  0  0  0
  -26.7893  -19.2329   17.3818 C   0  0  0  0  0  0
  -25.3764  -19.7142   19.4648 C   0  0  0  0  0  0
  -29.7132  -18.4381   19.7420 C   0  0  0  0  0  0
  -29.1634  -23.7689   20.3297 C   0  0  0  0  0  0
  -30.0840  -17.3746   20.8986 C   0  0  0  0  0  0
  -28.1500  -24.9649   19.8936 C   0  0  0  0  0  0
  -26.7728  -19.3828   18.9109 C   0  0  0  0  0  0
  -28.8541  -22.2803   20.0446 N   0  0  0  0  0  0
  -29.8145  -15.8728   20.6867 N   0  0  0  0  0  0
  -31.4759  -12.6077   19.1505 H   0  0  0  0  0  0
  -30.4037  -11.4923   19.9485 H   0  0  0  0  0  0
  -29.7933  -11.7314   17.5175 H   0  0  0  0  0  0
  -29.6278  -13.4593   17.7106 H   0  0  0  0  0  0
  -27.9021  -11.2763   18.9200 H   0  0  0  0  0  0
  -27.3773  -12.5049   17.7992 H   0  0  0  0  0  0
  -27.6315  -14.2501   19.4560 H   0  0  0  0  0  0
  -28.7252  -12.1714   21.4178 H   0  0  0  0  0  0
  -28.4177  -13.8505   21.7845 H   0  0  0  0  0  0
  -25.2747   -9.5680   22.4762 H   0  0  0  0  0  0
  -23.9990   -7.4630   22.7473 H   0  0  0  0  0  0
  -21.0836   -8.8751   19.8948 H   0  0  0  0  0  0
  -22.3675  -10.9661   19.6164 H   0  0  0  0  0  0
  -21.2008   -7.6144   23.9698 H   0  0  0  0  0  0
  -21.1497   -6.0532   25.9074 H   0  0  0  0  0  0
  -22.0590   -2.7599   23.2859 H   0  0  0  0  0  0
  -22.4119  -11.9852   22.4848 H   0  0  0  0  0  0
  -21.1071  -13.1163   22.2633 H   0  0  0  0  0  0
  -24.6234  -15.8243   20.4965 H   0  0  0  0  0  0
  -26.2370  -15.6395   20.0380 H   0  0  0  0  0  0
  -26.7171  -32.5547   23.1072 H   0  0  0  0  0  0
  -24.9809  -33.9708   25.0243 H   0  0  0  0  0  0
  -22.7162  -31.3081   21.4047 H   0  0  0  0  0  0
  -23.3814  -35.9563   23.3290 H   0  0  0  0  0  0
  -24.3607  -36.8913   22.2062 H   0  0  0  0  0  0
  -23.7261  -37.6443   23.6702 H   0  0  0  0  0  0
  -26.0914  -31.5676   20.6252 H   0  0  0  0  0  0
  -26.8391  -30.8354   22.0125 H   0  0  0  0  0  0
  -28.1189  -28.9703   21.2051 H   0  0  0  0  0  0
  -25.9968  -25.9678   18.9277 H   0  0  0  0  0  0
  -23.9949  -27.3492   18.9532 H   0  0  0  0  0  0
  -23.7084  -30.5962   19.3995 H   0  0  0  0  0  0
  -22.7646  -29.2222   19.8840 H   0  0  0  0  0  0
  -25.1340  -36.1912   25.0824 H   0  0  0  0  0  0
  -21.0061  -28.3267   24.1372 H   0  0  0  0  0  0
  -20.5679  -26.2264   23.3617 H   0  0  0  0  0  0
  -21.6659  -26.7384   22.1213 H   0  0  0  0  0  0
  -19.6907  -25.6271   21.1232 H   0  0  0  0  0  0
  -19.6690  -27.3194   20.6765 H   0  0  0  0  0  0
  -17.4212  -26.6679   21.4043 H   0  0  0  0  0  0
  -18.0326  -26.0009   22.9005 H   0  0  0  0  0  0
  -19.7951  -30.7243   24.2285 H   0  0  0  0  0  0
  -17.5024  -31.6253   24.5118 H   0  0  0  0  0  0
  -15.5366  -30.2935   23.7633 H   0  0  0  0  0  0
  -15.8707  -28.0768   22.7059 H   0  0  0  0  0  0
  -24.5884  -30.7018   25.7497 H   0  0  0  0  0  0
  -24.8787  -32.2788   26.4706 H   0  0  0  0  0  0
  -25.7906  -30.8756   27.0082 H   0  0  0  0  0  0
  -26.2938  -29.6651   24.1213 H   0  0  0  0  0  0
  -27.4164  -29.7302   25.4584 H   0  0  0  0  0  0
  -27.8751  -30.4245   23.9262 H   0  0  0  0  0  0
  -27.2838  -33.3621   26.1876 H   0  0  0  0  0  0
  -28.3918  -32.6656   25.0154 H   0  0  0  0  0  0
  -28.0745  -31.8369   26.5293 H   0  0  0  0  0  0
  -28.2589  -38.0103   24.7584 H   0  0  0  0  0  0
  -28.1171  -36.2632   24.6229 H   0  0  0  0  0  0
  -27.2297  -37.1315   25.8845 H   0  0  0  0  0  0
  -20.9312  -29.8720   21.6851 H   0  0  0  0  0  0
  -26.0230  -38.2826   24.1406 H   0  0  0  0  0  0
  -30.5954  -21.3157   20.8981 H   0  0  0  0  0  0
  -27.1765  -23.2355   17.9398 H   0  0  0  0  0  0
  -26.1003  -23.1167   19.3675 H   0  0  0  0  0  0
  -26.0660  -21.9655   18.0480 H   0  0  0  0  0  0
  -27.7529  -18.8643   17.0308 H   0  0  0  0  0  0
  -26.6052  -20.1743   16.8660 H   0  0  0  0  0  0
  -26.0264  -18.5255   17.0574 H   0  0  0  0  0  0
  -25.4315  -19.9977   20.5184 H   0  0  0  0  0  0
  -24.7228  -18.8470   19.3871 H   0  0  0  0  0  0
  -24.8754  -20.5187   18.9340 H   0  0  0  0  0  0
  -30.6004  -18.5418   19.1147 H   0  0  0  0  0  0
  -29.0303  -17.9185   19.0757 H   0  0  0  0  0  0
  -29.2991  -23.8533   21.4084 H   0  0  0  0  0  0
  -30.1526  -23.9711   19.9120 H   0  0  0  0  0  0
  -29.5187  -17.6501   21.7882 H   0  0  0  0  0  0
  -31.1299  -17.5123   21.1760 H   0  0  0  0  0  0
  -27.2019  -24.7042   20.3584 H   0  0  0  0  0  0
  -28.0328  -24.9322   18.8128 H   0  0  0  0  0  0
  -26.9985  -18.4081   19.3370 H   0  0  0  0  0  0
  -28.8545  -15.6182   20.8581 H   0  0  0  0  0  0
  1 25  1  0  0  0
  1 30  2  0  0  0
  1 84  1  0  0  0
  2  3  1  0  0  0
  2 25  1  0  0  0
  2 85  1  0  0  0
  2 86  1  0  0  0
  3  4  1  0  0  0
  3 87  1  0  0  0
  3 88  1  0  0  0
  4  5  1  0  0  0
  4 89  1  0  0  0
  4 90  1  0  0  0
  5  6  1  0  0  0
  5 26  1  0  0  0
  5 91  1  0  0  0
  6 25  1  0  0  0
  6 92  1  0  0  0
  6 93  1  0  0  0
  7  8  2  0  0  0
  7 26  1  0  0  0
  7 29  1  0  0  0
  8  9  1  0  0  0
  8 22  1  0  0  0
  9 10  1  0  0  0
  9 27  2  0  0  0
 10 11  2  0  0  0
 10 15  1  0  0  0
 11 12  1  0  0  0
 11 94  1  0  0  0
 12 13  2  0  0  0
 12 95  1  0  0  0
 13 14  1  0  0  0
 13 31  1  0  0  0
 14 15  2  0  0  0
 14 96  1  0  0  0
 15 97  1  0  0  0
 16 17  2  0  0  0
 16 21  1  0  0  0
 16 31  1  0  0  0
 17 18  1  0  0  0
 17 98  1  0  0  0
 18 19  2  0  0  0
 18 99  1  0  0  0
 19 20  1  0  0  0
 19 24  1  0  0  0
 20 21  2  0  0  0
 20100  1  0  0  0
 21 23  1  0  0  0
 22 28  1  0  0  0
 22 32  2  0  0  0
 26 27  1  0  0  0
 28101  1  0  0  0
 28102  1  0  0  0
 29103  1  0  0  0
 29104  1  0  0  0
 33 34  1  0  0  0
 33 66  1  0  0  0
 33 70  2  0  0  0
 34 36  1  0  0  0
 34 59  1  0  0  0
 34105  1  0  0  0
 35 44  2  0  0  0
 35 45  1  0  0  0
 35 68  1  0  0  0
 36 56  1  0  0  0
 36106  1  0  0  0
 37 39  1  0  0  0
 37 47  1  0  0  0
 37 66  1  0  0  0
 37107  1  0  0  0
 38 43  2  0  0  0
 38 46  1  0  0  0
 38 47  1  0  0  0
 39 64  1  0  0  0
 39 67  2  0  0  0
 40 52  1  0  0  0
 40 53  2  0  0  0
 40 58  1  0  0  0
 41108  1  0  0  0
 41109  1  0  0  0
 41110  1  0  0  0
 41 48  1  0  0  0
 42 43  1  0  0  0
 42 66  1  0  0  0
 42111  1  0  0  0
 42112  1  0  0  0
 43 44  1  0  0  0
 44113  1  0  0  0
 45 46  2  0  0  0
 45114  1  0  0  0
 46115  1  0  0  0
 47116  1  0  0  0
 47117  1  0  0  0
 48 56  1  0  0  0
 48 65  1  0  0  0
 48118  1  0  0  0
 49 50  1  0  0  0
 49 53  1  0  0  0
 49 64  1  0  0  0
 49119  1  0  0  0
 50 51  1  0  0  0
 50120  1  0  0  0
 50121  1  0  0  0
 51 52  1  0  0  0
 51122  1  0  0  0
 51123  1  0  0  0
 52124  1  0  0  0
 52125  1  0  0  0
 53 54  1  0  0  0
 54 55  2  0  0  0
 54126  1  0  0  0
 55 57  1  0  0  0
 55127  1  0  0  0
 56 69  2  0  0  0
 57 58  2  0  0  0
 57128  1  0  0  0
 58129  1  0  0  0
 59 60  1  0  0  0
 59 61  1  0  0  0
 59 62  1  0  0  0
 60130  1  0  0  0
 60131  1  0  0  0
 60132  1  0  0  0
 61133  1  0  0  0
 61134  1  0  0  0
 61135  1  0  0  0
 62136  1  0  0  0
 62137  1  0  0  0
 62138  1  0  0  0
 63 65  1  0  0  0
 63139  1  0  0  0
 63140  1  0  0  0
 63141  1  0  0  0
 64142  1  0  0  0
 65143  1  0  0  0
 68 81  1  0  0  0
 71 72  2  0  0  0
 71 83  1  0  0  0
 71144  1  0  0  0
 72 73  1  0  0  0
 72 78  1  0  0  0
 73 74  2  0  0  0
 73 82  1  0  0  0
 74 75  1  0  0  0
 74 83  1  0  0  0
 75145  1  0  0  0
 75146  1  0  0  0
 75147  1  0  0  0
 76148  1  0  0  0
 76149  1  0  0  0
 76150  1  0  0  0
 76 82  1  0  0  0
 77 82  1  0  0  0
 77151  1  0  0  0
 77152  1  0  0  0
 77153  1  0  0  0
 78 80  1  0  0  0
 78154  1  0  0  0
 78155  1  0  0  0
 79 81  1  0  0  0
 79 83  1  0  0  0
 79156  1  0  0  0
 79157  1  0  0  0
 80 84  1  0  0  0
 80158  1  0  0  0
 80159  1  0  0  0
 81160  1  0  0  0
 81161  1  0  0  0
 82162  1  0  0  0
 84163  1  0  0  0
M  ISO  4   1 100  68 101  81 101  84 100
M  END
> <chiral flag>
0

> <version>
0

> <s_m_source_file>
/data/baiqing/PycharmProjects/Reinvent-master-3.2/result/LINK_invent/BTK/process_docking_weight1_custom_sum_contain_oxygen_bond_distance_aromatic_linkinvent_7_9_3/rearranged_h_0103.sdf

> <i_m_source_file_index>
18

> <r_mmod_Potential_Energy-OPLS-2005>
166.069412231445

> <r_mmod_Stretch_Energy-OPLS-2005>
131.535736083984

> <r_mmod_Bend_Energy-OPLS-2005>
204.176696777344

> <r_mmod_Torsional_Energy-OPLS-2005>
239.73664855957

> <r_mmod_Improper_Torsional_Energy-OPLS-2005>
5.64231634140015

> <r_mmod_Van_der_Waal_Energy-OPLS-2005>
129.511642456055

> <r_mmod_Electrostatic_Energy-OPLS-2005>
-411.123474121094

> <r_mmod_Solvation_Energy-OPLS-2005>
-212.746276855469

> <b_mmod_Minimization_Converged-OPLS-2005>
0

> <r_mmod_RMS_Derivative-OPLS-2005>
5.16145420074463

$$$$
18
                    3D
 Structure written by MMmdl.
165173  0  0  1  0            999 V2000
  -30.7112  -14.7674   20.3347 C   0  0  0  0  0  0
  -30.4156  -12.4562   19.4739 C   0  0  0  0  0  0
  -29.4937  -12.4458   18.2380 C   0  0  0  0  0  0
  -28.0331  -12.2288   18.6753 C   0  0  0  0  0  0
  -27.6089  -13.1744   19.8227 C   0  0  2  0  0  0
  -28.6795  -13.2917   20.9380 C   0  0  0  0  0  0
  -25.2473  -13.7989   20.5781 C   0  0  0  0  0  0
  -24.1726  -13.0316   20.9283 C   0  0  0  0  0  0
  -24.6267  -11.6776   20.8845 C   0  0  0  0  0  0
  -23.8953  -10.4206   21.0470 C   0  0  0  0  0  0
  -24.3536   -9.4134   21.9231 C   0  0  0  0  0  0
  -23.6226   -8.2176   22.0781 C   0  0  0  0  0  0
  -22.4223   -8.0232   21.3551 C   0  0  0  0  0  0
  -21.9841   -9.0199   20.4662 C   0  0  0  0  0  0
  -22.7153  -10.2078   20.3084 C   0  0  0  0  0  0
  -21.6826   -6.0701   22.5276 C   0  0  0  0  0  0
  -21.3997   -6.5619   23.8204 C   0  0  0  0  0  0
  -21.3643   -5.6784   24.9172 C   0  0  0  0  0  0
  -21.6039   -4.3047   24.7234 C   0  0  0  0  0  0
  -21.8824   -3.8126   23.4361 C   0  0  0  0  0  0
  -21.9184   -4.6934   22.3408 C   0  0  0  0  0  0
  -22.7770  -13.5175   21.1895 C   0  0  0  0  0  0
  -22.1659   -4.2119   21.0988 F   0  0  0  0  0  0
  -21.5626   -3.4541   25.7752 F   0  0  0  0  0  0
  -29.9871  -13.5869   20.3296 N   0  0  0  0  0  0
  -26.2800  -12.9038   20.3355 N   0  0  0  0  0  0
  -25.9174  -11.6262   20.5878 N   0  0  0  0  0  0
  -22.0382  -12.8204   22.0449 N   0  0  0  0  0  0
  -25.4182  -15.1713   20.4164 N   0  0  0  0  0  0
  -31.9351  -14.6568   20.2968 O   0  0  0  0  0  0
  -21.6599   -6.8830   21.4232 O   0  0  0  0  0  0
  -22.3507  -14.5495   20.6723 O   0  0  0  0  0  0
  -24.6249  -31.8597   23.2025 C   0  0  0  0  0  0
  -25.9097  -32.4776   23.8358 C   0  0  1  0  0  0
  -27.2296  -27.3183   20.1263 C   0  0  0  0  0  0
  -25.5901  -33.8579   24.2279 N   0  0  0  0  0  0
  -23.4192  -30.4816   21.5443 C   0  0  2  0  0  0
  -24.8671  -28.9355   20.1099 C   0  0  0  0  0  0
  -22.7469  -29.4621   22.4941 C   0  0  0  0  0  0
  -18.0284  -28.1388   22.8486 C   0  0  0  0  0  0
  -24.1483  -36.7295   23.2642 C   0  0  0  0  0  0
  -25.9592  -30.7905   21.3736 C   0  0  0  0  0  0
  -26.0334  -29.4168   20.7183 C   0  0  0  0  0  0
  -27.2132  -28.6177   20.7188 C   0  0  0  0  0  0
  -26.0437  -26.8928   19.4816 C   0  0  0  0  0  0
  -24.8745  -27.6789   19.4840 C   0  0  0  0  0  0
  -23.6332  -29.8139   20.1599 C   0  0  0  0  0  0
  -25.4106  -36.3082   24.0333 C   0  0  1  0  0  0
  -20.5884  -28.3692   23.1284 C   0  0  2  0  0  0
  -20.6764  -26.9413   22.5414 C   0  0  0  0  0  0
  -19.5742  -26.6387   21.5214 C   0  0  0  0  0  0
  -18.1921  -26.7933   22.1623 C   0  0  0  0  0  0
  -19.1535  -28.8855   23.2878 C   0  0  0  0  0  0
  -18.9462  -30.1455   23.8898 C   0  0  0  0  0  0
  -17.6463  -30.6587   24.0565 C   0  0  0  0  0  0
  -25.9047  -34.9452   23.5111 C   0  0  0  0  0  0
  -16.5354  -29.9087   23.6336 C   0  0  0  0  0  0
  -16.7273  -28.6504   23.0359 C   0  0  0  0  0  0
  -26.4492  -31.6592   25.0736 C   0  0  0  0  0  0
  -25.3724  -31.3731   26.1460 C   0  0  0  0  0  0
  -27.0344  -30.3016   24.6192 C   0  0  0  0  0  0
  -27.6047  -32.4339   25.7496 C   0  0  0  0  0  0
  -27.5579  -37.1794   24.8466 C   0  0  0  0  0  0
  -21.4183  -29.3039   22.3673 N   0  0  0  0  0  0
  -26.4289  -37.3769   23.9414 N   0  0  0  0  0  0
  -24.6862  -31.0607   22.0970 N   0  0  0  0  0  0
  -23.4188  -28.8159   23.3020 O   0  0  0  0  0  0
  -28.3619  -26.4919   20.2051 O   0  0  0  0  0  0
  -26.5626  -34.8915   22.4687 O   0  0  0  0  0  0
  -23.5415  -32.1400   23.7352 O   0  0  0  0  0  0
  -29.6009  -18.7943   20.4124 C   0  0  0  0  0  0
  -30.3182  -19.9570   22.3718 C   0  0  0  0  0  0
  -29.6320  -20.0190   21.1533 C   0  0  0  0  0  0
  -30.2031  -17.5547   20.8728 C   0  0  0  0  0  0
  -30.8613  -17.6754   22.1348 C   0  0  0  0  0  0
  -33.1584  -16.6676   22.4296 C   0  0  0  0  0  0
  -31.0836  -16.6716   18.7265 C   0  0  0  0  0  0
  -28.7760  -16.1680   19.2896 C   0  0  0  0  0  0
  -28.8543  -21.3367   20.7740 C   0  0  0  0  0  0
  -31.6765  -16.5915   22.8246 C   0  0  0  0  0  0
  -29.6539  -22.6301   20.3151 C   0  0  0  0  0  0
  -29.2396  -24.1038   20.7924 C   0  0  0  0  0  0
  -28.2612  -25.0336   19.9564 C   0  0  0  0  0  0
  -30.1710  -16.2610   19.9175 C   0  0  0  0  0  0
  -30.9065  -18.8362   22.8335 N   0  0  0  0  0  0
  -31.4558  -12.5376   19.1542 H   0  0  0  0  0  0
  -30.3413  -11.5150   20.0217 H   0  0  0  0  0  0
  -29.7936  -11.6513   17.5536 H   0  0  0  0  0  0
  -29.5932  -13.3791   17.6828 H   0  0  0  0  0  0
  -27.9433  -11.1938   19.0070 H   0  0  0  0  0  0
  -27.3595  -12.3334   17.8242 H   0  0  0  0  0  0
  -27.4678  -14.1052   19.3136 H   0  0  0  0  0  0
  -28.7364  -12.3662   21.5127 H   0  0  0  0  0  0
  -28.4106  -14.0803   21.6422 H   0  0  0  0  0  0
  -25.2679   -9.5617   22.4805 H   0  0  0  0  0  0
  -23.9930   -7.4558   22.7495 H   0  0  0  0  0  0
  -21.0779   -8.8709   19.8961 H   0  0  0  0  0  0
  -22.3618  -10.9629   19.6202 H   0  0  0  0  0  0
  -21.1992   -7.6127   23.9696 H   0  0  0  0  0  0
  -21.1457   -6.0522   25.9069 H   0  0  0  0  0  0
  -22.0621   -2.7592   23.2875 H   0  0  0  0  0  0
  -22.3963  -11.9849   22.4833 H   0  0  0  0  0  0
  -21.1021  -13.1288   22.2665 H   0  0  0  0  0  0
  -24.6535  -15.8275   20.5327 H   0  0  0  0  0  0
  -26.2723  -15.6117   20.1009 H   0  0  0  0  0  0
  -26.7160  -32.5453   23.1102 H   0  0  0  0  0  0
  -25.0030  -33.9716   25.0407 H   0  0  0  0  0  0
  -22.7146  -31.3025   21.3998 H   0  0  0  0  0  0
  -23.3744  -35.9632   23.3307 H   0  0  0  0  0  0
  -24.3572  -36.8926   22.2058 H   0  0  0  0  0  0
  -23.7247  -37.6501   23.6668 H   0  0  0  0  0  0
  -26.0889  -31.5527   20.6041 H   0  0  0  0  0  0
  -26.8402  -30.8400   22.0026 H   0  0  0  0  0  0
  -28.1059  -28.9786   21.2097 H   0  0  0  0  0  0
  -25.9931  -25.9392   18.9765 H   0  0  0  0  0  0
  -23.9817  -27.3075   18.9988 H   0  0  0  0  0  0
  -23.7445  -30.5891   19.4004 H   0  0  0  0  0  0
  -22.7542  -29.2396   19.8630 H   0  0  0  0  0  0
  -25.1279  -36.1944   25.0828 H   0  0  0  0  0  0
  -20.9971  -28.3274   24.1407 H   0  0  0  0  0  0
  -20.5682  -26.2301   23.3612 H   0  0  0  0  0  0
  -21.6634  -26.7450   22.1203 H   0  0  0  0  0  0
  -19.6921  -25.6299   21.1249 H   0  0  0  0  0  0
  -19.6691  -27.3190   20.6738 H   0  0  0  0  0  0
  -17.4192  -26.6680   21.4020 H   0  0  0  0  0  0
  -18.0319  -26.0074   22.9020 H   0  0  0  0  0  0
  -19.7946  -30.7258   24.2278 H   0  0  0  0  0  0
  -17.5027  -31.6277   24.5150 H   0  0  0  0  0  0
  -15.5356  -30.2991   23.7670 H   0  0  0  0  0  0
  -15.8668  -28.0826   22.7087 H   0  0  0  0  0  0
  -24.5893  -30.7086   25.7790 H   0  0  0  0  0  0
  -24.8905  -32.2884   26.4900 H   0  0  0  0  0  0
  -25.8035  -30.8904   27.0237 H   0  0  0  0  0  0
  -26.2924  -29.6752   24.1225 H   0  0  0  0  0  0
  -27.4049  -29.7291   25.4708 H   0  0  0  0  0  0
  -27.8782  -30.4305   23.9413 H   0  0  0  0  0  0
  -27.2663  -33.3650   26.2060 H   0  0  0  0  0  0
  -28.3850  -32.6898   25.0315 H   0  0  0  0  0  0
  -28.0716  -31.8480   26.5423 H   0  0  0  0  0  0
  -28.2588  -38.0097   24.7509 H   0  0  0  0  0  0
  -28.1080  -36.2625   24.6287 H   0  0  0  0  0  0
  -27.2294  -37.1448   25.8868 H   0  0  0  0  0  0
  -20.9371  -29.8757   21.6878 H   0  0  0  0  0  0
  -26.0179  -38.2852   24.1406 H   0  0  0  0  0  0
  -29.1019  -18.8432   19.4587 H   0  0  0  0  0  0
  -30.3795  -20.8250   23.0123 H   0  0  0  0  0  0
  -33.7335  -15.8647   22.8903 H   0  0  0  0  0  0
  -33.5940  -17.6159   22.7469 H   0  0  0  0  0  0
  -33.2842  -16.5991   21.3495 H   0  0  0  0  0  0
  -30.7179  -17.5526   18.1992 H   0  0  0  0  0  0
  -31.1622  -15.8785   17.9800 H   0  0  0  0  0  0
  -32.0968  -16.9035   19.0583 H   0  0  0  0  0  0
  -28.4620  -17.0487   18.7372 H   0  0  0  0  0  0
  -28.0244  -15.9984   20.0573 H   0  0  0  0  0  0
  -28.7725  -15.3964   18.5240 H   0  0  0  0  0  0
  -28.2750  -21.6031   21.6596 H   0  0  0  0  0  0
  -28.1081  -21.0956   20.0153 H   0  0  0  0  0  0
  -31.2561  -15.6016   22.6883 H   0  0  0  0  0  0
  -31.6091  -16.7409   23.9037 H   0  0  0  0  0  0
  -29.7785  -22.6155   19.2316 H   0  0  0  0  0  0
  -30.6653  -22.4904   20.6986 H   0  0  0  0  0  0
  -30.1759  -24.6613   20.8432 H   0  0  0  0  0  0
  -28.8966  -24.0647   21.8273 H   0  0  0  0  0  0
  -27.2548  -24.6700   20.1622 H   0  0  0  0  0  0
  -28.4388  -24.8750   18.8924 H   0  0  0  0  0  0
  1 25  1  0  0  0
  1 30  2  0  0  0
  1 84  1  0  0  0
  2  3  1  0  0  0
  2 25  1  0  0  0
  2 86  1  0  0  0
  2 87  1  0  0  0
  3  4  1  0  0  0
  3 88  1  0  0  0
  3 89  1  0  0  0
  4  5  1  0  0  0
  4 90  1  0  0  0
  4 91  1  0  0  0
  5  6  1  0  0  0
  5 26  1  0  0  0
  5 92  1  0  0  0
  6 25  1  0  0  0
  6 93  1  0  0  0
  6 94  1  0  0  0
  7  8  2  0  0  0
  7 26  1  0  0  0
  7 29  1  0  0  0
  8  9  1  0  0  0
  8 22  1  0  0  0
  9 10  1  0  0  0
  9 27  2  0  0  0
 10 11  2  0  0  0
 10 15  1  0  0  0
 11 12  1  0  0  0
 11 95  1  0  0  0
 12 13  2  0  0  0
 12 96  1  0  0  0
 13 14  1  0  0  0
 13 31  1  0  0  0
 14 15  2  0  0  0
 14 97  1  0  0  0
 15 98  1  0  0  0
 16 17  2  0  0  0
 16 21  1  0  0  0
 16 31  1  0  0  0
 17 18  1  0  0  0
 17 99  1  0  0  0
 18 19  2  0  0  0
 18100  1  0  0  0
 19 20  1  0  0  0
 19 24  1  0  0  0
 20 21  2  0  0  0
 20101  1  0  0  0
 21 23  1  0  0  0
 22 28  1  0  0  0
 22 32  2  0  0  0
 26 27  1  0  0  0
 28102  1  0  0  0
 28103  1  0  0  0
 29104  1  0  0  0
 29105  1  0  0  0
 33 34  1  0  0  0
 33 66  1  0  0  0
 33 70  2  0  0  0
 34 36  1  0  0  0
 34 59  1  0  0  0
 34106  1  0  0  0
 35 44  2  0  0  0
 35 45  1  0  0  0
 35 68  1  0  0  0
 36 56  1  0  0  0
 36107  1  0  0  0
 37 39  1  0  0  0
 37 47  1  0  0  0
 37 66  1  0  0  0
 37108  1  0  0  0
 38 43  2  0  0  0
 38 46  1  0  0  0
 38 47  1  0  0  0
 39 64  1  0  0  0
 39 67  2  0  0  0
 40 52  1  0  0  0
 40 53  2  0  0  0
 40 58  1  0  0  0
 41109  1  0  0  0
 41110  1  0  0  0
 41111  1  0  0  0
 41 48  1  0  0  0
 42 43  1  0  0  0
 42 66  1  0  0  0
 42112  1  0  0  0
 42113  1  0  0  0
 43 44  1  0  0  0
 44114  1  0  0  0
 45 46  2  0  0  0
 45115  1  0  0  0
 46116  1  0  0  0
 47117  1  0  0  0
 47118  1  0  0  0
 48 56  1  0  0  0
 48 65  1  0  0  0
 48119  1  0  0  0
 49 50  1  0  0  0
 49 53  1  0  0  0
 49 64  1  0  0  0
 49120  1  0  0  0
 50 51  1  0  0  0
 50121  1  0  0  0
 50122  1  0  0  0
 51 52  1  0  0  0
 51123  1  0  0  0
 51124  1  0  0  0
 52125  1  0  0  0
 52126  1  0  0  0
 53 54  1  0  0  0
 54 55  2  0  0  0
 54127  1  0  0  0
 55 57  1  0  0  0
 55128  1  0  0  0
 56 69  2  0  0  0
 57 58  2  0  0  0
 57129  1  0  0  0
 58130  1  0  0  0
 59 60  1  0  0  0
 59 61  1  0  0  0
 59 62  1  0  0  0
 60131  1  0  0  0
 60132  1  0  0  0
 60133  1  0  0  0
 61134  1  0  0  0
 61135  1  0  0  0
 61136  1  0  0  0
 62137  1  0  0  0
 62138  1  0  0  0
 62139  1  0  0  0
 63 65  1  0  0  0
 63140  1  0  0  0
 63141  1  0  0  0
 63142  1  0  0  0
 64143  1  0  0  0
 65144  1  0  0  0
 68 83  1  0  0  0
 71 73  2  0  0  0
 71 74  1  0  0  0
 71145  1  0  0  0
 72 73  1  0  0  0
 72 85  2  0  0  0
 72146  1  0  0  0
 73 79  1  0  0  0
 74 75  2  0  0  0
 74 84  1  0  0  0
 75 80  1  0  0  0
 75 85  1  0  0  0
 76 80  1  0  0  0
 76147  1  0  0  0
 76148  1  0  0  0
 76149  1  0  0  0
 77150  1  0  0  0
 77151  1  0  0  0
 77152  1  0  0  0
 77 84  1  0  0  0
 78 84  1  0  0  0
 78153  1  0  0  0
 78154  1  0  0  0
 78155  1  0  0  0
 79 81  1  0  0  0
 79156  1  0  0  0
 79157  1  0  0  0
 80158  1  0  0  0
 80159  1  0  0  0
 81 82  1  0  0  0
 81160  1  0  0  0
 81161  1  0  0  0
 82 83  1  0  0  0
 82162  1  0  0  0
 82163  1  0  0  0
 83164  1  0  0  0
 83165  1  0  0  0
M  ISO  4   1 100  68 101  83 101  84 100
M  END
> <chiral flag>
0

> <version>
0

> <s_m_source_file>
/data/baiqing/PycharmProjects/Reinvent-master-3.2/result/LINK_invent/BTK/process_docking_weight1_custom_sum_contain_oxygen_bond_distance_aromatic_linkinvent_7_9_3/rearranged_h_0103.sdf

> <i_m_source_file_index>
19

> <r_mmod_Potential_Energy-OPLS-2005>
174.607284545898

> <r_mmod_Stretch_Energy-OPLS-2005>
109.438720703125

> <r_mmod_Bend_Energy-OPLS-2005>
215.069915771484

> <r_mmod_Torsional_Energy-OPLS-2005>
226.648178100586

> <r_mmod_Improper_Torsional_Energy-OPLS-2005>
12.9822273254395

> <r_mmod_Van_der_Waal_Energy-OPLS-2005>
169.559982299805

> <r_mmod_Electrostatic_Energy-OPLS-2005>
-466.527526855469

> <r_mmod_Solvation_Energy-OPLS-2005>
-192.790756225586

> <b_mmod_Minimization_Converged-OPLS-2005>
0

> <r_mmod_RMS_Derivative-OPLS-2005>
1.66445374488831

$$$$
19
                    3D
 Structure written by MMmdl.
166174  0  0  1  0            999 V2000
  -30.6724  -14.5619   20.5053 C   0  0  0  0  0  0
  -30.4236  -12.3419   19.4538 C   0  0  0  0  0  0
  -29.5037  -12.4970   18.2241 C   0  0  0  0  0  0
  -28.0248  -12.3513   18.6330 C   0  0  0  0  0  0
  -27.6552  -13.2165   19.8683 C   0  0  2  0  0  0
  -28.6979  -13.0615   20.9999 C   0  0  0  0  0  0
  -25.2559  -13.8175   20.5694 C   0  0  0  0  0  0
  -24.1824  -13.0437   20.9185 C   0  0  0  0  0  0
  -24.6393  -11.6910   20.8735 C   0  0  0  0  0  0
  -23.9066  -10.4291   21.0402 C   0  0  0  0  0  0
  -24.3619   -9.4210   21.9181 C   0  0  0  0  0  0
  -23.6293   -8.2248   22.0756 C   0  0  0  0  0  0
  -22.4276   -8.0285   21.3546 C   0  0  0  0  0  0
  -21.9913   -9.0257   20.4648 C   0  0  0  0  0  0
  -22.7240  -10.2134   20.3052 C   0  0  0  0  0  0
  -21.6852   -6.0740   22.5278 C   0  0  0  0  0  0
  -21.4017   -6.5643   23.8212 C   0  0  0  0  0  0
  -21.3657   -5.6794   24.9174 C   0  0  0  0  0  0
  -21.6045   -4.3058   24.7224 C   0  0  0  0  0  0
  -21.8815   -3.8150   23.4344 C   0  0  0  0  0  0
  -21.9195   -4.6967   22.3402 C   0  0  0  0  0  0
  -22.7846  -13.5229   21.1851 C   0  0  0  0  0  0
  -22.1660   -4.2152   21.0979 F   0  0  0  0  0  0
  -21.5628   -3.4538   25.7736 F   0  0  0  0  0  0
  -30.0214  -13.3642   20.4369 N   0  0  0  0  0  0
  -26.2996  -12.9361   20.3352 N   0  0  0  0  0  0
  -25.9323  -11.6512   20.5774 N   0  0  0  0  0  0
  -22.0494  -12.8223   22.0408 N   0  0  0  0  0  0
  -25.4255  -15.1897   20.4106 N   0  0  0  0  0  0
  -31.8324  -14.6946   20.1056 O   0  0  0  0  0  0
  -21.6644   -6.8884   21.4241 O   0  0  0  0  0  0
  -22.3531  -14.5532   20.6695 O   0  0  0  0  0  0
  -24.6183  -31.8642   23.2048 C   0  0  0  0  0  0
  -25.9059  -32.4802   23.8373 C   0  0  1  0  0  0
  -27.2270  -27.3743   20.1233 C   0  0  0  0  0  0
  -25.5905  -33.8605   24.2304 N   0  0  0  0  0  0
  -23.4105  -30.4855   21.5463 C   0  0  2  0  0  0
  -24.8582  -28.9405   20.1183 C   0  0  0  0  0  0
  -22.7437  -29.4632   22.4964 C   0  0  0  0  0  0
  -18.0279  -28.1381   22.8488 C   0  0  0  0  0  0
  -24.1487  -36.7313   23.2640 C   0  0  0  0  0  0
  -25.9442  -30.8092   21.3699 C   0  0  0  0  0  0
  -26.0190  -29.4354   20.7275 C   0  0  0  0  0  0
  -27.2079  -28.6586   20.7296 C   0  0  0  0  0  0
  -26.0605  -26.9234   19.4775 C   0  0  0  0  0  0
  -24.8761  -27.6848   19.4890 C   0  0  0  0  0  0
  -23.6231  -29.8155   20.1627 C   0  0  0  0  0  0
  -25.4100  -36.3100   24.0337 C   0  0  1  0  0  0
  -20.5872  -28.3668   23.1311 C   0  0  2  0  0  0
  -20.6764  -26.9403   22.5414 C   0  0  0  0  0  0
  -19.5739  -26.6376   21.5216 C   0  0  0  0  0  0
  -18.1918  -26.7929   22.1620 C   0  0  0  0  0  0
  -19.1532  -28.8843   23.2898 C   0  0  0  0  0  0
  -18.9456  -30.1463   23.8889 C   0  0  0  0  0  0
  -17.6458  -30.6585   24.0567 C   0  0  0  0  0  0
  -25.9036  -34.9468   23.5115 C   0  0  0  0  0  0
  -16.5349  -29.9082   23.6326 C   0  0  0  0  0  0
  -16.7268  -28.6502   23.0346 C   0  0  0  0  0  0
  -26.4465  -31.6597   25.0724 C   0  0  0  0  0  0
  -25.3728  -31.3724   26.1471 C   0  0  0  0  0  0
  -27.0303  -30.3033   24.6145 C   0  0  0  0  0  0
  -27.6030  -32.4329   25.7491 C   0  0  0  0  0  0
  -27.5574  -37.1806   24.8468 C   0  0  0  0  0  0
  -21.4157  -29.3036   22.3718 N   0  0  0  0  0  0
  -26.4281  -37.3794   23.9415 N   0  0  0  0  0  0
  -24.6762  -31.0705   22.0973 N   0  0  0  0  0  0
  -23.4191  -28.8168   23.3020 O   0  0  0  0  0  0
  -28.3730  -26.5994   20.0562 O   0  0  0  0  0  0
  -26.5609  -34.8926   22.4686 O   0  0  0  0  0  0
  -23.5357  -32.1406   23.7404 O   0  0  0  0  0  0
  -29.0483  -18.0622   22.4980 C   0  0  0  0  0  0
  -29.5312  -19.5428   20.9052 C   0  0  0  0  0  0
  -29.6194  -18.1918   21.2058 C   0  0  0  0  0  0
  -28.6665  -19.2939   22.9569 C   0  0  0  0  0  0
  -29.2078  -19.6370   25.3769 C   0  0  0  0  0  0
  -26.9637  -18.6833   24.7127 C   0  0  0  0  0  0
  -26.5574  -23.8369   21.0198 C   0  0  0  0  0  0
  -30.2374  -17.0461   20.3824 C   0  0  0  0  0  0
  -28.9273  -22.7742   21.0004 C   0  0  0  0  0  0
  -28.6890  -21.7036   22.1555 C   0  0  0  0  0  0
  -28.5361  -25.4838   20.9780 C   0  0  0  0  0  0
  -28.1017  -19.6323   24.3130 C   0  0  0  0  0  0
  -28.0266  -24.0330   20.5652 C   0  0  2  0  0  0
  -28.9514  -20.2432   21.9712 N   0  0  0  0  0  0
  -29.9162  -15.6513   20.7962 N   0  0  0  0  0  0
  -31.4701  -12.4353   19.1585 H   0  0  0  0  0  0
  -30.3250  -11.3456   19.8869 H   0  0  0  0  0  0
  -29.7569  -11.7528   17.4679 H   0  0  0  0  0  0
  -29.6645  -13.4723   17.7612 H   0  0  0  0  0  0
  -27.8477  -11.2982   18.8551 H   0  0  0  0  0  0
  -27.3747  -12.5978   17.7927 H   0  0  0  0  0  0
  -27.6798  -14.2542   19.5351 H   0  0  0  0  0  0
  -28.6874  -12.0451   21.3962 H   0  0  0  0  0  0
  -28.4608  -13.7143   21.8418 H   0  0  0  0  0  0
  -25.2760   -9.5691   22.4753 H   0  0  0  0  0  0
  -24.0003   -7.4644   22.7472 H   0  0  0  0  0  0
  -21.0846   -8.8772   19.8950 H   0  0  0  0  0  0
  -22.3696  -10.9675   19.6160 H   0  0  0  0  0  0
  -21.2006   -7.6150   23.9717 H   0  0  0  0  0  0
  -21.1484   -6.0525   25.9078 H   0  0  0  0  0  0
  -22.0596   -2.7611   23.2842 H   0  0  0  0  0  0
  -22.4118  -11.9891   22.4800 H   0  0  0  0  0  0
  -21.1105  -13.1240   22.2601 H   0  0  0  0  0  0
  -24.6584  -15.8429   20.5272 H   0  0  0  0  0  0
  -26.2767  -15.6350   20.0913 H   0  0  0  0  0  0
  -26.7130  -32.5481   23.1125 H   0  0  0  0  0  0
  -25.0075  -33.9767   25.0463 H   0  0  0  0  0  0
  -22.7023  -31.3042   21.4027 H   0  0  0  0  0  0
  -23.3742  -35.9653   23.3311 H   0  0  0  0  0  0
  -24.3583  -36.8922   22.2053 H   0  0  0  0  0  0
  -23.7247  -37.6524   23.6651 H   0  0  0  0  0  0
  -26.0689  -31.5675   20.5955 H   0  0  0  0  0  0
  -26.8288  -30.8639   21.9916 H   0  0  0  0  0  0
  -28.1059  -29.0395   21.1945 H   0  0  0  0  0  0
  -26.0697  -25.9778   18.9540 H   0  0  0  0  0  0
  -23.9905  -27.3040   18.9988 H   0  0  0  0  0  0
  -23.7389  -30.5897   19.4039 H   0  0  0  0  0  0
  -22.7464  -29.2392   19.8631 H   0  0  0  0  0  0
  -25.1285  -36.1960   25.0830 H   0  0  0  0  0  0
  -20.9977  -28.3228   24.1428 H   0  0  0  0  0  0
  -20.5688  -26.2267   23.3598 H   0  0  0  0  0  0
  -21.6625  -26.7432   22.1195 H   0  0  0  0  0  0
  -19.6905  -25.6287   21.1242 H   0  0  0  0  0  0
  -19.6686  -27.3193   20.6755 H   0  0  0  0  0  0
  -17.4191  -26.6695   21.4024 H   0  0  0  0  0  0
  -18.0300  -26.0074   22.9016 H   0  0  0  0  0  0
  -19.7939  -30.7283   24.2239 H   0  0  0  0  0  0
  -17.5012  -31.6264   24.5173 H   0  0  0  0  0  0
  -15.5355  -30.2976   23.7660 H   0  0  0  0  0  0
  -15.8664  -28.0826   22.7037 H   0  0  0  0  0  0
  -24.5893  -30.7077   25.7825 H   0  0  0  0  0  0
  -24.8928  -32.2888   26.4916 H   0  0  0  0  0  0
  -25.8078  -30.8894   27.0227 H   0  0  0  0  0  0
  -26.2857  -29.6798   24.1184 H   0  0  0  0  0  0
  -27.4061  -29.7258   25.4610 H   0  0  0  0  0  0
  -27.8705  -30.4359   23.9316 H   0  0  0  0  0  0
  -27.2638  -33.3623   26.2073 H   0  0  0  0  0  0
  -28.3834  -32.6909   25.0317 H   0  0  0  0  0  0
  -28.0715  -31.8452   26.5401 H   0  0  0  0  0  0
  -28.2593  -38.0101   24.7498 H   0  0  0  0  0  0
  -28.1064  -36.2629   24.6299 H   0  0  0  0  0  0
  -27.2302  -37.1468   25.8877 H   0  0  0  0  0  0
  -20.9327  -29.8771   21.6946 H   0  0  0  0  0  0
  -26.0173  -38.2876   24.1407 H   0  0  0  0  0  0
  -28.9636  -17.1461   23.0669 H   0  0  0  0  0  0
  -29.8547  -20.0816   20.0235 H   0  0  0  0  0  0
  -29.9818  -20.3644   25.1299 H   0  0  0  0  0  0
  -29.6863  -18.6598   25.4557 H   0  0  0  0  0  0
  -28.8157  -19.8971   26.3610 H   0  0  0  0  0  0
  -26.1538  -18.7205   23.9834 H   0  0  0  0  0  0
  -26.5424  -18.9600   25.6800 H   0  0  0  0  0  0
  -27.3006  -17.6490   24.7824 H   0  0  0  0  0  0
  -26.1245  -22.9228   20.6141 H   0  0  0  0  0  0
  -25.9091  -24.6496   20.7097 H   0  0  0  0  0  0
  -26.4851  -23.7834   22.1070 H   0  0  0  0  0  0
  -31.3187  -17.1940   20.3911 H   0  0  0  0  0  0
  -29.9258  -17.1678   19.3436 H   0  0  0  0  0  0
  -28.9025  -23.3892   21.8951 H   0  0  0  0  0  0
  -28.2258  -22.1617   20.4333 H   0  0  0  0  0  0
  -27.6440  -21.7793   22.4624 H   0  0  0  0  0  0
  -29.2705  -21.9558   23.0515 H   0  0  0  0  0  0
  -29.6151  -25.4213   21.1220 H   0  0  0  0  0  0
  -28.1416  -25.7600   21.9579 H   0  0  0  0  0  0
  -27.6670  -20.6295   24.3089 H   0  0  0  0  0  0
  -28.0286  -24.0348   19.4734 H   0  0  0  0  0  0
  -28.9729  -15.4795   21.1067 H   0  0  0  0  0  0
  1 25  1  0  0  0
  1 30  2  0  0  0
  1 85  1  0  0  0
  2  3  1  0  0  0
  2 25  1  0  0  0
  2 86  1  0  0  0
  2 87  1  0  0  0
  3  4  1  0  0  0
  3 88  1  0  0  0
  3 89  1  0  0  0
  4  5  1  0  0  0
  4 90  1  0  0  0
  4 91  1  0  0  0
  5  6  1  0  0  0
  5 26  1  0  0  0
  5 92  1  0  0  0
  6 25  1  0  0  0
  6 93  1  0  0  0
  6 94  1  0  0  0
  7  8  2  0  0  0
  7 26  1  0  0  0
  7 29  1  0  0  0
  8  9  1  0  0  0
  8 22  1  0  0  0
  9 10  1  0  0  0
  9 27  2  0  0  0
 10 11  2  0  0  0
 10 15  1  0  0  0
 11 12  1  0  0  0
 11 95  1  0  0  0
 12 13  2  0  0  0
 12 96  1  0  0  0
 13 14  1  0  0  0
 13 31  1  0  0  0
 14 15  2  0  0  0
 14 97  1  0  0  0
 15 98  1  0  0  0
 16 17  2  0  0  0
 16 21  1  0  0  0
 16 31  1  0  0  0
 17 18  1  0  0  0
 17 99  1  0  0  0
 18 19  2  0  0  0
 18100  1  0  0  0
 19 20  1  0  0  0
 19 24  1  0  0  0
 20 21  2  0  0  0
 20101  1  0  0  0
 21 23  1  0  0  0
 22 28  1  0  0  0
 22 32  2  0  0  0
 26 27  1  0  0  0
 28102  1  0  0  0
 28103  1  0  0  0
 29104  1  0  0  0
 29105  1  0  0  0
 33 34  1  0  0  0
 33 66  1  0  0  0
 33 70  2  0  0  0
 34 36  1  0  0  0
 34 59  1  0  0  0
 34106  1  0  0  0
 35 44  2  0  0  0
 35 45  1  0  0  0
 35 68  1  0  0  0
 36 56  1  0  0  0
 36107  1  0  0  0
 37 39  1  0  0  0
 37 47  1  0  0  0
 37 66  1  0  0  0
 37108  1  0  0  0
 38 43  2  0  0  0
 38 46  1  0  0  0
 38 47  1  0  0  0
 39 64  1  0  0  0
 39 67  2  0  0  0
 40 52  1  0  0  0
 40 53  2  0  0  0
 40 58  1  0  0  0
 41109  1  0  0  0
 41110  1  0  0  0
 41111  1  0  0  0
 41 48  1  0  0  0
 42 43  1  0  0  0
 42 66  1  0  0  0
 42112  1  0  0  0
 42113  1  0  0  0
 43 44  1  0  0  0
 44114  1  0  0  0
 45 46  2  0  0  0
 45115  1  0  0  0
 46116  1  0  0  0
 47117  1  0  0  0
 47118  1  0  0  0
 48 56  1  0  0  0
 48 65  1  0  0  0
 48119  1  0  0  0
 49 50  1  0  0  0
 49 53  1  0  0  0
 49 64  1  0  0  0
 49120  1  0  0  0
 50 51  1  0  0  0
 50121  1  0  0  0
 50122  1  0  0  0
 51 52  1  0  0  0
 51123  1  0  0  0
 51124  1  0  0  0
 52125  1  0  0  0
 52126  1  0  0  0
 53 54  1  0  0  0
 54 55  2  0  0  0
 54127  1  0  0  0
 55 57  1  0  0  0
 55128  1  0  0  0
 56 69  2  0  0  0
 57 58  2  0  0  0
 57129  1  0  0  0
 58130  1  0  0  0
 59 60  1  0  0  0
 59 61  1  0  0  0
 59 62  1  0  0  0
 60131  1  0  0  0
 60132  1  0  0  0
 60133  1  0  0  0
 61134  1  0  0  0
 61135  1  0  0  0
 61136  1  0  0  0
 62137  1  0  0  0
 62138  1  0  0  0
 62139  1  0  0  0
 63 65  1  0  0  0
 63140  1  0  0  0
 63141  1  0  0  0
 63142  1  0  0  0
 64143  1  0  0  0
 65144  1  0  0  0
 68 81  1  0  0  0
 71 73  1  0  0  0
 71 74  2  0  0  0
 71145  1  0  0  0
 72 73  2  0  0  0
 72 84  1  0  0  0
 72146  1  0  0  0
 73 78  1  0  0  0
 74 82  1  0  0  0
 74 84  1  0  0  0
 75147  1  0  0  0
 75148  1  0  0  0
 75149  1  0  0  0
 75 82  1  0  0  0
 76 82  1  0  0  0
 76150  1  0  0  0
 76151  1  0  0  0
 76152  1  0  0  0
 77153  1  0  0  0
 77154  1  0  0  0
 77155  1  0  0  0
 77 83  1  0  0  0
 78 85  1  0  0  0
 78156  1  0  0  0
 78157  1  0  0  0
 79 80  1  0  0  0
 79 83  1  0  0  0
 79158  1  0  0  0
 79159  1  0  0  0
 80 84  1  0  0  0
 80160  1  0  0  0
 80161  1  0  0  0
 81 83  1  0  0  0
 81162  1  0  0  0
 81163  1  0  0  0
 82164  1  0  0  0
 83165  1  0  0  0
 85166  1  0  0  0
M  ISO  4   1 100  68 101  81 101  85 100
M  END
> <chiral flag>
0

> <version>
0

> <s_m_source_file>
/data/baiqing/PycharmProjects/Reinvent-master-3.2/result/LINK_invent/BTK/process_docking_weight1_custom_sum_contain_oxygen_bond_distance_aromatic_linkinvent_7_9_3/rearranged_h_0103.sdf

> <i_m_source_file_index>
20

> <r_mmod_Potential_Energy-OPLS-2005>
222.981552124023

> <r_mmod_Stretch_Energy-OPLS-2005>
62.8379058837891

> <r_mmod_Bend_Energy-OPLS-2005>
362.7841796875

> <r_mmod_Torsional_Energy-OPLS-2005>
264.409088134766

> <r_mmod_Improper_Torsional_Energy-OPLS-2005>
6.70674610137939

> <r_mmod_Van_der_Waal_Energy-OPLS-2005>
138.34782409668

> <r_mmod_Electrostatic_Energy-OPLS-2005>
-438.579467773438

> <r_mmod_Solvation_Energy-OPLS-2005>
-199.549301147461

> <b_mmod_Minimization_Converged-OPLS-2005>
0

> <r_mmod_RMS_Derivative-OPLS-2005>
1.55014169216156

$$$$
20
                    3D
 Structure written by MMmdl.
155163  0  0  1  0            999 V2000
  -30.4858  -15.1897   20.3779 C   0  0  0  0  0  0
  -30.4304  -12.7569   19.5194 C   0  0  0  0  0  0
  -29.5244  -12.5586   18.2787 C   0  0  0  0  0  0
  -28.0708  -12.2989   18.7097 C   0  0  0  0  0  0
  -27.6116  -13.2716   19.8249 C   0  0  2  0  0  0
  -28.6486  -13.4284   20.9586 C   0  0  0  0  0  0
  -25.2397  -13.8244   20.5780 C   0  0  0  0  0  0
  -24.1738  -13.0439   20.9265 C   0  0  0  0  0  0
  -24.6383  -11.6931   20.8767 C   0  0  0  0  0  0
  -23.9080  -10.4290   21.0409 C   0  0  0  0  0  0
  -24.3628   -9.4201   21.9184 C   0  0  0  0  0  0
  -23.6302   -8.2239   22.0753 C   0  0  0  0  0  0
  -22.4282   -8.0277   21.3543 C   0  0  0  0  0  0
  -21.9923   -9.0247   20.4643 C   0  0  0  0  0  0
  -22.7255  -10.2126   20.3053 C   0  0  0  0  0  0
  -21.6854   -6.0735   22.5275 C   0  0  0  0  0  0
  -21.4014   -6.5645   23.8205 C   0  0  0  0  0  0
  -21.3659   -5.6801   24.9170 C   0  0  0  0  0  0
  -21.6040   -4.3059   24.7225 C   0  0  0  0  0  0
  -21.8821   -3.8149   23.4347 C   0  0  0  0  0  0
  -21.9196   -4.6965   22.3400 C   0  0  0  0  0  0
  -22.7754  -13.5185   21.1906 C   0  0  0  0  0  0
  -22.1666   -4.2146   21.0981 F   0  0  0  0  0  0
  -21.5627   -3.4543   25.7742 F   0  0  0  0  0  0
  -29.8896  -13.9053   20.3313 N   0  0  0  0  0  0
  -26.2812  -12.9510   20.3244 N   0  0  0  0  0  0
  -25.9316  -11.6615   20.5736 N   0  0  0  0  0  0
  -22.0428  -12.8153   22.0462 N   0  0  0  0  0  0
  -25.4049  -15.1974   20.4248 N   0  0  0  0  0  0
  -31.7017  -15.1729   20.1456 O   0  0  0  0  0  0
  -21.6645   -6.8871   21.4236 O   0  0  0  0  0  0
  -22.3437  -14.5495   20.6760 O   0  0  0  0  0  0
  -24.6611  -31.8269   23.1727 C   0  0  0  0  0  0
  -25.9309  -32.4611   23.8181 C   0  0  1  0  0  0
  -27.2129  -26.9614   20.1767 C   0  0  0  0  0  0
  -25.5988  -33.8424   24.2091 N   0  0  0  0  0  0
  -23.4735  -30.4408   21.5201 C   0  0  2  0  0  0
  -24.9251  -28.8383   20.1069 C   0  0  0  0  0  0
  -22.7657  -29.4461   22.4770 C   0  0  0  0  0  0
  -18.0322  -28.1412   22.8484 C   0  0  0  0  0  0
  -24.1479  -36.7192   23.2642 C   0  0  0  0  0  0
  -26.0412  -30.6450   21.3963 C   0  0  0  0  0  0
  -26.1077  -29.2392   20.7416 C   0  0  0  0  0  0
  -27.2471  -28.3193   20.7560 C   0  0  0  0  0  0
  -26.0049  -26.7130   19.4857 C   0  0  0  0  0  0
  -24.8979  -27.5951   19.4589 C   0  0  0  0  0  0
  -23.7105  -29.7616   20.1442 C   0  0  0  0  0  0
  -25.4120  -36.2975   24.0308 C   0  0  1  0  0  0
  -20.5952  -28.3744   23.1185 C   0  0  2  0  0  0
  -20.6796  -26.9434   22.5389 C   0  0  0  0  0  0
  -19.5764  -26.6388   21.5210 C   0  0  0  0  0  0
  -18.1952  -26.7943   22.1632 C   0  0  0  0  0  0
  -19.1586  -28.8896   23.2821 C   0  0  0  0  0  0
  -18.9500  -30.1492   23.8855 C   0  0  0  0  0  0
  -17.6501  -30.6608   24.0561 C   0  0  0  0  0  0
  -25.9097  -34.9376   23.5016 C   0  0  0  0  0  0
  -16.5384  -29.9103   23.6355 C   0  0  0  0  0  0
  -16.7309  -28.6519   23.0384 C   0  0  0  0  0  0
  -26.4570  -31.6549   25.0687 C   0  0  0  0  0  0
  -25.3720  -31.3810   26.1365 C   0  0  0  0  0  0
  -27.0434  -30.2911   24.6396 C   0  0  0  0  0  0
  -27.6065  -32.4338   25.7489 C   0  0  0  0  0  0
  -27.5556  -37.1746   24.8471 C   0  0  0  0  0  0
  -21.4322  -29.3046   22.3528 N   0  0  0  0  0  0
  -26.4245  -37.3722   23.9443 N   0  0  0  0  0  0
  -24.7467  -30.9976   22.0833 N   0  0  0  0  0  0
  -23.4222  -28.8034   23.2991 O   0  0  0  0  0  0
  -28.1986  -25.8533   20.2725 O   0  0  0  0  0  0
  -26.5685  -34.8914   22.4595 O   0  0  0  0  0  0
  -23.5687  -32.1207   23.6853 O   0  0  0  0  0  0
  -28.4342  -20.2644   21.1945 C   0  0  0  0  0  0
  -28.0241  -21.6882   21.1459 C   0  0  0  0  0  0
  -29.9262  -20.7498   19.5317 C   0  0  0  0  0  0
  -29.4483  -19.6421   20.3616 C   0  0  0  0  0  0
  -28.5694  -22.7285   20.2857 C   0  0  0  0  0  0
  -33.4770  -17.6805   22.6212 C   0  0  0  0  0  0
  -27.8426  -24.2867   19.9872 C   0  0  0  0  0  0
  -31.3045  -18.3589   21.6009 C   0  0  0  0  0  0
  -30.2411  -18.0894   20.4908 C   0  0  1  0  0  0
  -29.5251  -22.1177   19.4738 N   0  0  0  0  0  0
  -29.7901  -16.4860   20.5225 N   0  0  0  0  0  0
  -32.2866  -17.2821   21.8439 N   0  3  0  0  0  0
  -31.4551  -12.9377   19.1897 H   0  0  0  0  0  0
  -30.4722  -11.8442   20.1152 H   0  0  0  0  0  0
  -29.8870  -11.7288   17.6692 H   0  0  0  0  0  0
  -29.5677  -13.4466   17.6470 H   0  0  0  0  0  0
  -28.0170  -11.2726   19.0768 H   0  0  0  0  0  0
  -27.3991  -12.3541   17.8517 H   0  0  0  0  0  0
  -27.5323  -14.2425   19.3345 H   0  0  0  0  0  0
  -28.7988  -12.4921   21.4982 H   0  0  0  0  0  0
  -28.3013  -14.1592   21.6910 H   0  0  0  0  0  0
  -25.2761   -9.5682   22.4766 H   0  0  0  0  0  0
  -24.0009   -7.4628   22.7468 H   0  0  0  0  0  0
  -21.0853   -8.8754   19.8946 H   0  0  0  0  0  0
  -22.3695  -10.9662   19.6166 H   0  0  0  0  0  0
  -21.2005   -7.6155   23.9703 H   0  0  0  0  0  0
  -21.1478   -6.0535   25.9071 H   0  0  0  0  0  0
  -22.0601   -2.7609   23.2845 H   0  0  0  0  0  0
  -22.4065  -11.9809   22.4819 H   0  0  0  0  0  0
  -21.1036  -13.1142   22.2680 H   0  0  0  0  0  0
  -24.6376  -15.8490   20.5485 H   0  0  0  0  0  0
  -26.2490  -15.6416   20.0895 H   0  0  0  0  0  0
  -26.7379  -32.5167   23.0899 H   0  0  0  0  0  0
  -25.0164  -33.9521   25.0259 H   0  0  0  0  0  0
  -22.7861  -31.2733   21.3529 H   0  0  0  0  0  0
  -23.3765  -35.9492   23.3272 H   0  0  0  0  0  0
  -24.3563  -36.8866   22.2062 H   0  0  0  0  0  0
  -23.7218  -37.6368   23.6705 H   0  0  0  0  0  0
  -26.2183  -31.3887   20.6185 H   0  0  0  0  0  0
  -26.9025  -30.6986   22.0501 H   0  0  0  0  0  0
  -28.1387  -28.6197   21.2865 H   0  0  0  0  0  0
  -25.8704  -25.7680   18.9821 H   0  0  0  0  0  0
  -24.0025  -27.2831   18.9387 H   0  0  0  0  0  0
  -23.8636  -30.5309   19.3865 H   0  0  0  0  0  0
  -22.8195  -29.2162   19.8282 H   0  0  0  0  0  0
  -25.1323  -36.1739   25.0793 H   0  0  0  0  0  0
  -21.0061  -28.3341   24.1299 H   0  0  0  0  0  0
  -20.5656  -26.2388   23.3632 H   0  0  0  0  0  0
  -21.6664  -26.7416   22.1196 H   0  0  0  0  0  0
  -19.6922  -25.6291   21.1262 H   0  0  0  0  0  0
  -19.6675  -27.3174   20.6717 H   0  0  0  0  0  0
  -17.4213  -26.6688   21.4048 H   0  0  0  0  0  0
  -18.0347  -26.0101   22.9043 H   0  0  0  0  0  0
  -19.7980  -30.7315   24.2198 H   0  0  0  0  0  0
  -17.5062  -31.6286   24.5160 H   0  0  0  0  0  0
  -15.5382  -30.2995   23.7698 H   0  0  0  0  0  0
  -15.8714  -28.0818   22.7135 H   0  0  0  0  0  0
  -24.5852  -30.7221   25.7682 H   0  0  0  0  0  0
  -24.8969  -32.3028   26.4729 H   0  0  0  0  0  0
  -25.7953  -30.8997   27.0188 H   0  0  0  0  0  0
  -26.3081  -29.6612   24.1373 H   0  0  0  0  0  0
  -27.3949  -29.7264   25.5036 H   0  0  0  0  0  0
  -27.9050  -30.4106   23.9822 H   0  0  0  0  0  0
  -27.2664  -33.3730   26.1878 H   0  0  0  0  0  0
  -28.3984  -32.6741   25.0380 H   0  0  0  0  0  0
  -28.0601  -31.8566   26.5563 H   0  0  0  0  0  0
  -28.2542  -38.0070   24.7560 H   0  0  0  0  0  0
  -28.1079  -36.2606   24.6231 H   0  0  0  0  0  0
  -27.2293  -37.1322   25.8875 H   0  0  0  0  0  0
  -20.9551  -29.8767   21.6700 H   0  0  0  0  0  0
  -26.0080  -38.2767   24.1481 H   0  0  0  0  0  0
  -27.9525  -19.6409   21.9343 H   0  0  0  0  0  0
  -27.2143  -21.9848   21.8001 H   0  0  0  0  0  0
  -30.7466  -20.5317   18.8631 H   0  0  0  0  0  0
  -34.1557  -16.8333   22.7296 H   0  0  0  0  0  0
  -33.2016  -18.0195   23.6200 H   0  0  0  0  0  0
  -34.0253  -18.4816   22.1250 H   0  0  0  0  0  0
  -26.8505  -24.1677   20.4227 H   0  0  0  0  0  0
  -27.6634  -24.2631   18.9119 H   0  0  0  0  0  0
  -30.7997  -18.5750   22.5431 H   0  0  0  0  0  0
  -31.8558  -19.2634   21.3403 H   0  0  0  0  0  0
  -30.8079  -18.0842   19.5586 H   0  0  0  0  0  0
  -28.7958  -16.3650   20.6420 H   0  0  0  0  0  0
  -31.8263  -16.5334   22.3335 H   0  0  0  0  0  0
  -32.5831  -16.9020   20.9552 H   0  0  0  0  0  0
  1 25  1  0  0  0
  1 30  2  0  0  0
  1 81  1  0  0  0
  2  3  1  0  0  0
  2 25  1  0  0  0
  2 83  1  0  0  0
  2 84  1  0  0  0
  3  4  1  0  0  0
  3 85  1  0  0  0
  3 86  1  0  0  0
  4  5  1  0  0  0
  4 87  1  0  0  0
  4 88  1  0  0  0
  5  6  1  0  0  0
  5 26  1  0  0  0
  5 89  1  0  0  0
  6 25  1  0  0  0
  6 90  1  0  0  0
  6 91  1  0  0  0
  7  8  2  0  0  0
  7 26  1  0  0  0
  7 29  1  0  0  0
  8  9  1  0  0  0
  8 22  1  0  0  0
  9 10  1  0  0  0
  9 27  2  0  0  0
 10 11  2  0  0  0
 10 15  1  0  0  0
 11 12  1  0  0  0
 11 92  1  0  0  0
 12 13  2  0  0  0
 12 93  1  0  0  0
 13 14  1  0  0  0
 13 31  1  0  0  0
 14 15  2  0  0  0
 14 94  1  0  0  0
 15 95  1  0  0  0
 16 17  2  0  0  0
 16 21  1  0  0  0
 16 31  1  0  0  0
 17 18  1  0  0  0
 17 96  1  0  0  0
 18 19  2  0  0  0
 18 97  1  0  0  0
 19 20  1  0  0  0
 19 24  1  0  0  0
 20 21  2  0  0  0
 20 98  1  0  0  0
 21 23  1  0  0  0
 22 28  1  0  0  0
 22 32  2  0  0  0
 26 27  1  0  0  0
 28 99  1  0  0  0
 28100  1  0  0  0
 29101  1  0  0  0
 29102  1  0  0  0
 33 34  1  0  0  0
 33 66  1  0  0  0
 33 70  2  0  0  0
 34 36  1  0  0  0
 34 59  1  0  0  0
 34103  1  0  0  0
 35 44  2  0  0  0
 35 45  1  0  0  0
 35 68  1  0  0  0
 36 56  1  0  0  0
 36104  1  0  0  0
 37 39  1  0  0  0
 37 47  1  0  0  0
 37 66  1  0  0  0
 37105  1  0  0  0
 38 43  2  0  0  0
 38 46  1  0  0  0
 38 47  1  0  0  0
 39 64  1  0  0  0
 39 67  2  0  0  0
 40 52  1  0  0  0
 40 53  2  0  0  0
 40 58  1  0  0  0
 41106  1  0  0  0
 41107  1  0  0  0
 41108  1  0  0  0
 41 48  1  0  0  0
 42 43  1  0  0  0
 42 66  1  0  0  0
 42109  1  0  0  0
 42110  1  0  0  0
 43 44  1  0  0  0
 44111  1  0  0  0
 45 46  2  0  0  0
 45112  1  0  0  0
 46113  1  0  0  0
 47114  1  0  0  0
 47115  1  0  0  0
 48 56  1  0  0  0
 48 65  1  0  0  0
 48116  1  0  0  0
 49 50  1  0  0  0
 49 53  1  0  0  0
 49 64  1  0  0  0
 49117  1  0  0  0
 50 51  1  0  0  0
 50118  1  0  0  0
 50119  1  0  0  0
 51 52  1  0  0  0
 51120  1  0  0  0
 51121  1  0  0  0
 52122  1  0  0  0
 52123  1  0  0  0
 53 54  1  0  0  0
 54 55  2  0  0  0
 54124  1  0  0  0
 55 57  1  0  0  0
 55125  1  0  0  0
 56 69  2  0  0  0
 57 58  2  0  0  0
 57126  1  0  0  0
 58127  1  0  0  0
 59 60  1  0  0  0
 59 61  1  0  0  0
 59 62  1  0  0  0
 60128  1  0  0  0
 60129  1  0  0  0
 60130  1  0  0  0
 61131  1  0  0  0
 61132  1  0  0  0
 61133  1  0  0  0
 62134  1  0  0  0
 62135  1  0  0  0
 62136  1  0  0  0
 63 65  1  0  0  0
 63137  1  0  0  0
 63138  1  0  0  0
 63139  1  0  0  0
 64140  1  0  0  0
 65141  1  0  0  0
 68 77  1  0  0  0
 71 72  2  0  0  0
 71 74  1  0  0  0
 71142  1  0  0  0
 72 75  1  0  0  0
 72143  1  0  0  0
 73 74  2  0  0  0
 73 80  1  0  0  0
 73144  1  0  0  0
 74 79  1  0  0  0
 75 77  1  0  0  0
 75 80  2  0  0  0
 76 82  1  0  0  0
 76145  1  0  0  0
 76146  1  0  0  0
 76147  1  0  0  0
 77148  1  0  0  0
 77149  1  0  0  0
 78 82  1  0  0  0
 78150  1  0  0  0
 78151  1  0  0  0
 78 79  1  0  0  0
 79 81  1  0  0  0
 79152  1  0  0  0
 81153  1  0  0  0
 82154  1  0  0  0
 82155  1  0  0  0
M  CHG  1  82   1
M  ISO  4   1 100  68 101  77 101  81 100
M  END
> <chiral flag>
0

> <version>
0

> <s_m_source_file>
/data/baiqing/PycharmProjects/Reinvent-master-3.2/result/LINK_invent/BTK/process_docking_weight1_custom_sum_contain_oxygen_bond_distance_aromatic_linkinvent_7_9_3/rearranged_h_0103.sdf

> <i_m_source_file_index>
21

> <r_mmod_Potential_Energy-OPLS-2005>
770.723937988281

> <r_mmod_Stretch_Energy-OPLS-2005>
479.831359863281

> <r_mmod_Bend_Energy-OPLS-2005>
437.110229492188

> <r_mmod_Torsional_Energy-OPLS-2005>
250.624420166016

> <r_mmod_Improper_Torsional_Energy-OPLS-2005>
8.27056121826172

> <r_mmod_Van_der_Waal_Energy-OPLS-2005>
142.877304077148

> <r_mmod_Electrostatic_Energy-OPLS-2005>
-485.935150146484

> <r_mmod_Solvation_Energy-OPLS-2005>
-460.117034912109

> <b_mmod_Minimization_Converged-OPLS-2005>
0

> <r_mmod_RMS_Derivative-OPLS-2005>
2.13289093971252

$$$$
21
                    3D
 Structure written by MMmdl.
172180  0  0  1  0            999 V2000
  -30.6542  -14.5930   20.5106 C   0  0  0  0  0  0
  -30.4520  -12.3691   19.4632 C   0  0  0  0  0  0
  -29.5253  -12.5052   18.2341 C   0  0  0  0  0  0
  -28.0461  -12.3492   18.6426 C   0  0  0  0  0  0
  -27.6629  -13.2176   19.8690 C   0  0  2  0  0  0
  -28.7045  -13.0782   21.0040 C   0  0  0  0  0  0
  -25.2599  -13.8205   20.5687 C   0  0  0  0  0  0
  -24.1864  -13.0451   20.9209 C   0  0  0  0  0  0
  -24.6432  -11.6927   20.8762 C   0  0  0  0  0  0
  -23.9073  -10.4312   21.0427 C   0  0  0  0  0  0
  -24.3624   -9.4243   21.9187 C   0  0  0  0  0  0
  -23.6313   -8.2283   22.0768 C   0  0  0  0  0  0
  -22.4315   -8.0298   21.3550 C   0  0  0  0  0  0
  -21.9917   -9.0284   20.4680 C   0  0  0  0  0  0
  -22.7232  -10.2164   20.3094 C   0  0  0  0  0  0
  -21.6861   -6.0745   22.5279 C   0  0  0  0  0  0
  -21.4001   -6.5644   23.8206 C   0  0  0  0  0  0
  -21.3659   -5.6797   24.9166 C   0  0  0  0  0  0
  -21.6065   -4.3062   24.7213 C   0  0  0  0  0  0
  -21.8819   -3.8153   23.4331 C   0  0  0  0  0  0
  -21.9207   -4.6975   22.3400 C   0  0  0  0  0  0
  -22.7881  -13.5273   21.1884 C   0  0  0  0  0  0
  -22.1685   -4.2161   21.0976 F   0  0  0  0  0  0
  -21.5644   -3.4548   25.7728 F   0  0  0  0  0  0
  -30.0301  -13.3842   20.4422 N   0  0  0  0  0  0
  -26.3042  -12.9390   20.3297 N   0  0  0  0  0  0
  -25.9360  -11.6522   20.5747 N   0  0  0  0  0  0
  -22.0494  -12.8304   22.0440 N   0  0  0  0  0  0
  -25.4301  -15.1899   20.4054 N   0  0  0  0  0  0
  -31.8058  -14.7740   20.1085 O   0  0  0  0  0  0
  -21.6677   -6.8889   21.4250 O   0  0  0  0  0  0
  -22.3575  -14.5592   20.6765 O   0  0  0  0  0  0
  -24.6142  -31.8615   23.2118 C   0  0  0  0  0  0
  -25.9042  -32.4782   23.8409 C   0  0  1  0  0  0
  -27.2570  -27.4233   20.1014 C   0  0  0  0  0  0
  -25.5912  -33.8597   24.2302 N   0  0  0  0  0  0
  -23.4060  -30.4832   21.5470 C   0  0  2  0  0  0
  -24.8559  -28.9377   20.1214 C   0  0  0  0  0  0
  -22.7380  -29.4660   22.5022 C   0  0  0  0  0  0
  -18.0233  -28.1342   22.8457 C   0  0  0  0  0  0
  -24.1503  -36.7304   23.2613 C   0  0  0  0  0  0
  -25.9385  -30.8179   21.3756 C   0  0  0  0  0  0
  -26.0119  -29.4549   20.7136 C   0  0  0  0  0  0
  -27.2061  -28.7023   20.7064 C   0  0  0  0  0  0
  -26.0801  -26.9106   19.5067 C   0  0  0  0  0  0
  -24.8824  -27.6601   19.5257 C   0  0  0  0  0  0
  -23.6144  -29.8013   20.1665 C   0  0  0  0  0  0
  -25.4120  -36.3087   24.0306 C   0  0  1  0  0  0
  -20.5851  -28.3604   23.1239 C   0  0  2  0  0  0
  -20.6794  -26.9430   22.5156 C   0  0  0  0  0  0
  -19.5705  -26.6550   21.4989 C   0  0  0  0  0  0
  -18.1882  -26.7942   22.1481 C   0  0  0  0  0  0
  -19.1504  -28.8739   23.2891 C   0  0  0  0  0  0
  -18.9476  -30.1328   23.8948 C   0  0  0  0  0  0
  -17.6516  -30.6520   24.0630 C   0  0  0  0  0  0
  -25.9049  -34.9449   23.5094 C   0  0  0  0  0  0
  -16.5366  -29.9098   23.6308 C   0  0  0  0  0  0
  -16.7220  -28.6540   23.0281 C   0  0  0  0  0  0
  -26.4470  -31.6619   25.0804 C   0  0  0  0  0  0
  -25.3735  -31.3810   26.1595 C   0  0  0  0  0  0
  -27.0281  -30.3018   24.6285 C   0  0  0  0  0  0
  -27.6054  -32.4375   25.7548 C   0  0  0  0  0  0
  -27.5594  -37.1803   24.8439 C   0  0  0  0  0  0
  -21.4108  -29.3040   22.3703 N   0  0  0  0  0  0
  -26.4306  -37.3787   23.9384 N   0  0  0  0  0  0
  -24.6693  -31.0715   22.0997 N   0  0  0  0  0  0
  -23.4119  -28.8196   23.3092 O   0  0  0  0  0  0
  -28.4511  -26.7296   20.1834 O   0  0  0  0  0  0
  -26.5605  -34.8881   22.4655 O   0  0  0  0  0  0
  -23.5317  -32.1408   23.7475 O   0  0  0  0  0  0
  -27.7406  -21.2842   20.6575 C   0  0  0  0  0  0
  -29.6525  -20.4915   19.8435 C   0  0  0  0  0  0
  -27.6274  -19.9188   20.5983 C   0  0  0  0  0  0
  -28.8687  -19.3838   20.0940 C   0  0  0  0  0  0
  -25.1830  -19.8675   18.8121 C   0  0  0  0  0  0
  -26.2720  -19.1644   22.5461 C   0  0  0  0  0  0
  -30.2964  -25.7678   19.1719 C   0  0  0  0  0  0
  -25.0958  -19.7506   20.3471 C   0  0  0  0  0  0
  -28.3805  -24.1979   19.9928 C   0  0  0  0  0  0
  -29.4556  -23.0476   19.9988 C   0  0  0  0  0  0
  -30.1202  -17.1113   20.7989 C   0  0  0  0  0  0
  -26.3725  -19.1764   21.0128 C   0  0  1  0  0  0
  -29.1870  -17.8892   19.8026 C   0  0  2  0  0  0
  -28.7807  -25.5880   19.3716 C   0  0  1  0  0  0
  -28.9605  -21.6650   20.1532 N   0  0  0  0  0  0
  -29.8623  -15.6396   20.8478 N   0  0  0  0  0  0
  -29.6640  -17.7544   18.4204 N   0  3  0  0  0  0
  -31.4949  -12.4967   19.1602 H   0  0  0  0  0  0
  -30.3842  -11.3725   19.9050 H   0  0  0  0  0  0
  -29.7931  -11.7635   17.4816 H   0  0  0  0  0  0
  -29.6816  -13.4768   17.7679 H   0  0  0  0  0  0
  -27.8818  -11.2961   18.8727 H   0  0  0  0  0  0
  -27.4012  -12.5863   17.7976 H   0  0  0  0  0  0
  -27.6885  -14.2548   19.5305 H   0  0  0  0  0  0
  -28.6975  -12.0734   21.4288 H   0  0  0  0  0  0
  -28.4527  -13.7496   21.8289 H   0  0  0  0  0  0
  -25.2756   -9.5744   22.4764 H   0  0  0  0  0  0
  -24.0027   -7.4689   22.7501 H   0  0  0  0  0  0
  -21.0809   -8.8780   19.9033 H   0  0  0  0  0  0
  -22.3626  -10.9712   19.6239 H   0  0  0  0  0  0
  -21.1970   -7.6146   23.9677 H   0  0  0  0  0  0
  -21.1486   -6.0543   25.9050 H   0  0  0  0  0  0
  -22.0594   -2.7617   23.2836 H   0  0  0  0  0  0
  -22.3989  -11.9972   22.4902 H   0  0  0  0  0  0
  -21.1122  -13.1427   22.2595 H   0  0  0  0  0  0
  -24.6757  -15.8521   20.5622 H   0  0  0  0  0  0
  -26.2270  -15.5990   19.9391 H   0  0  0  0  0  0
  -26.7103  -32.5444   23.1139 H   0  0  0  0  0  0
  -25.0058  -33.9728   25.0447 H   0  0  0  0  0  0
  -22.6976  -31.3024   21.3974 H   0  0  0  0  0  0
  -23.3760  -35.9660   23.3275 H   0  0  0  0  0  0
  -24.3556  -36.8927   22.2032 H   0  0  0  0  0  0
  -23.7288  -37.6514   23.6622 H   0  0  0  0  0  0
  -26.0852  -31.6007   20.6289 H   0  0  0  0  0  0
  -26.8098  -30.8406   22.0210 H   0  0  0  0  0  0
  -28.0953  -29.0995   21.1790 H   0  0  0  0  0  0
  -26.0796  -25.9289   19.0528 H   0  0  0  0  0  0
  -23.9908  -27.2421   19.0829 H   0  0  0  0  0  0
  -23.7144  -30.5676   19.3966 H   0  0  0  0  0  0
  -22.7467  -29.2084   19.8759 H   0  0  0  0  0  0
  -25.1309  -36.1964   25.0811 H   0  0  0  0  0  0
  -20.9895  -28.3081   24.1380 H   0  0  0  0  0  0
  -20.5911  -26.2102   23.3175 H   0  0  0  0  0  0
  -21.6598  -26.7699   22.0701 H   0  0  0  0  0  0
  -19.6899  -25.6606   21.0654 H   0  0  0  0  0  0
  -19.6544  -27.3658   20.6764 H   0  0  0  0  0  0
  -17.4174  -26.6740   21.3833 H   0  0  0  0  0  0
  -18.0318  -25.9959   22.8739 H   0  0  0  0  0  0
  -19.7979  -30.7041   24.2403 H   0  0  0  0  0  0
  -17.5116  -31.6173   24.5321 H   0  0  0  0  0  0
  -15.5391  -30.3057   23.7658 H   0  0  0  0  0  0
  -15.8585  -28.0937   22.6959 H   0  0  0  0  0  0
  -24.5859  -30.7154   25.8015 H   0  0  0  0  0  0
  -24.8974  -32.3014   26.5026 H   0  0  0  0  0  0
  -25.8134  -30.9036   27.0368 H   0  0  0  0  0  0
  -26.2863  -29.6850   24.1189 H   0  0  0  0  0  0
  -27.3790  -29.7238   25.4841 H   0  0  0  0  0  0
  -27.8828  -30.4259   23.9630 H   0  0  0  0  0  0
  -27.2614  -33.3620   26.2203 H   0  0  0  0  0  0
  -28.3823  -32.7040   25.0369 H   0  0  0  0  0  0
  -28.0761  -31.8468   26.5410 H   0  0  0  0  0  0
  -28.2633  -38.0088   24.7503 H   0  0  0  0  0  0
  -28.1075  -36.2622   24.6267 H   0  0  0  0  0  0
  -27.2262  -37.1469   25.8824 H   0  0  0  0  0  0
  -20.9242  -29.8621   21.6816 H   0  0  0  0  0  0
  -26.0188  -38.2873   24.1376 H   0  0  0  0  0  0
  -27.0269  -22.0274   20.9897 H   0  0  0  0  0  0
  -30.6534  -20.5575   19.4382 H   0  0  0  0  0  0
  -24.3377  -20.4243   18.4074 H   0  0  0  0  0  0
  -25.1841  -18.8835   18.3404 H   0  0  0  0  0  0
  -26.0805  -20.3940   18.4886 H   0  0  0  0  0  0
  -27.1555  -18.6969   22.9842 H   0  0  0  0  0  0
  -25.4048  -18.6008   22.8870 H   0  0  0  0  0  0
  -26.2043  -20.1727   22.9545 H   0  0  0  0  0  0
  -30.7177  -25.0537   18.4673 H   0  0  0  0  0  0
  -30.8316  -25.6740   20.1185 H   0  0  0  0  0  0
  -30.5187  -26.7540   18.7646 H   0  0  0  0  0  0
  -24.2397  -19.1288   20.6052 H   0  0  0  0  0  0
  -24.8766  -20.7349   20.7635 H   0  0  0  0  0  0
  -28.0441  -24.3558   21.0173 H   0  0  0  0  0  0
  -27.5006  -23.8480   19.4532 H   0  0  0  0  0  0
  -30.1692  -23.2309   20.8036 H   0  0  0  0  0  0
  -30.0275  -23.0665   19.0727 H   0  0  0  0  0  0
  -29.9511  -17.5029   21.8035 H   0  0  0  0  0  0
  -31.1681  -17.3182   20.5724 H   0  0  0  0  0  0
  -26.4552  -18.1418   20.6918 H   0  0  0  0  0  0
  -28.2304  -17.3749   19.8191 H   0  0  0  0  0  0
  -28.3060  -25.6919   18.3951 H   0  0  0  0  0  0
  -28.9373  -15.3697   21.1489 H   0  0  0  0  0  0
  -30.5655  -18.1839   18.3117 H   0  0  0  0  0  0
  -29.0164  -18.2098   17.8041 H   0  0  0  0  0  0
  -29.7357  -16.7886   18.1608 H   0  0  0  0  0  0
  1 25  1  0  0  0
  1 30  2  0  0  0
  1 86  1  0  0  0
  2  3  1  0  0  0
  2 25  1  0  0  0
  2 88  1  0  0  0
  2 89  1  0  0  0
  3  4  1  0  0  0
  3 90  1  0  0  0
  3 91  1  0  0  0
  4  5  1  0  0  0
  4 92  1  0  0  0
  4 93  1  0  0  0
  5  6  1  0  0  0
  5 26  1  0  0  0
  5 94  1  0  0  0
  6 25  1  0  0  0
  6 95  1  0  0  0
  6 96  1  0  0  0
  7  8  2  0  0  0
  7 26  1  0  0  0
  7 29  1  0  0  0
  8  9  1  0  0  0
  8 22  1  0  0  0
  9 10  1  0  0  0
  9 27  2  0  0  0
 10 11  2  0  0  0
 10 15  1  0  0  0
 11 12  1  0  0  0
 11 97  1  0  0  0
 12 13  2  0  0  0
 12 98  1  0  0  0
 13 14  1  0  0  0
 13 31  1  0  0  0
 14 15  2  0  0  0
 14 99  1  0  0  0
 15100  1  0  0  0
 16 17  2  0  0  0
 16 21  1  0  0  0
 16 31  1  0  0  0
 17 18  1  0  0  0
 17101  1  0  0  0
 18 19  2  0  0  0
 18102  1  0  0  0
 19 20  1  0  0  0
 19 24  1  0  0  0
 20 21  2  0  0  0
 20103  1  0  0  0
 21 23  1  0  0  0
 22 28  1  0  0  0
 22 32  2  0  0  0
 26 27  1  0  0  0
 28104  1  0  0  0
 28105  1  0  0  0
 29106  1  0  0  0
 29107  1  0  0  0
 33 34  1  0  0  0
 33 66  1  0  0  0
 33 70  2  0  0  0
 34 36  1  0  0  0
 34 59  1  0  0  0
 34108  1  0  0  0
 35 44  2  0  0  0
 35 45  1  0  0  0
 35 68  1  0  0  0
 36 56  1  0  0  0
 36109  1  0  0  0
 37 39  1  0  0  0
 37 47  1  0  0  0
 37 66  1  0  0  0
 37110  1  0  0  0
 38 43  2  0  0  0
 38 46  1  0  0  0
 38 47  1  0  0  0
 39 64  1  0  0  0
 39 67  2  0  0  0
 40 52  1  0  0  0
 40 53  2  0  0  0
 40 58  1  0  0  0
 41111  1  0  0  0
 41112  1  0  0  0
 41113  1  0  0  0
 41 48  1  0  0  0
 42 43  1  0  0  0
 42 66  1  0  0  0
 42114  1  0  0  0
 42115  1  0  0  0
 43 44  1  0  0  0
 44116  1  0  0  0
 45 46  2  0  0  0
 45117  1  0  0  0
 46118  1  0  0  0
 47119  1  0  0  0
 47120  1  0  0  0
 48 56  1  0  0  0
 48 65  1  0  0  0
 48121  1  0  0  0
 49 50  1  0  0  0
 49 53  1  0  0  0
 49 64  1  0  0  0
 49122  1  0  0  0
 50 51  1  0  0  0
 50123  1  0  0  0
 50124  1  0  0  0
 51 52  1  0  0  0
 51125  1  0  0  0
 51126  1  0  0  0
 52127  1  0  0  0
 52128  1  0  0  0
 53 54  1  0  0  0
 54 55  2  0  0  0
 54129  1  0  0  0
 55 57  1  0  0  0
 55130  1  0  0  0
 56 69  2  0  0  0
 57 58  2  0  0  0
 57131  1  0  0  0
 58132  1  0  0  0
 59 60  1  0  0  0
 59 61  1  0  0  0
 59 62  1  0  0  0
 60133  1  0  0  0
 60134  1  0  0  0
 60135  1  0  0  0
 61136  1  0  0  0
 61137  1  0  0  0
 61138  1  0  0  0
 62139  1  0  0  0
 62140  1  0  0  0
 62141  1  0  0  0
 63 65  1  0  0  0
 63142  1  0  0  0
 63143  1  0  0  0
 63144  1  0  0  0
 64145  1  0  0  0
 65146  1  0  0  0
 68 84  1  0  0  0
 71 73  2  0  0  0
 71 85  1  0  0  0
 71147  1  0  0  0
 72 74  2  0  0  0
 72 85  1  0  0  0
 72148  1  0  0  0
 73 74  1  0  0  0
 73 82  1  0  0  0
 74 83  1  0  0  0
 75 78  1  0  0  0
 75149  1  0  0  0
 75150  1  0  0  0
 75151  1  0  0  0
 76152  1  0  0  0
 76153  1  0  0  0
 76154  1  0  0  0
 76 82  1  0  0  0
 77155  1  0  0  0
 77156  1  0  0  0
 77157  1  0  0  0
 77 84  1  0  0  0
 78 82  1  0  0  0
 78158  1  0  0  0
 78159  1  0  0  0
 79 80  1  0  0  0
 79 84  1  0  0  0
 79160  1  0  0  0
 79161  1  0  0  0
 80 85  1  0  0  0
 80162  1  0  0  0
 80163  1  0  0  0
 81 83  1  0  0  0
 81 86  1  0  0  0
 81164  1  0  0  0
 81165  1  0  0  0
 82166  1  0  0  0
 83 87  1  0  0  0
 83167  1  0  0  0
 84168  1  0  0  0
 86169  1  0  0  0
 87170  1  0  0  0
 87171  1  0  0  0
 87172  1  0  0  0
M  CHG  1  87   1
M  ISO  4   1 100  68 101  84 101  86 100
M  END
> <chiral flag>
0

> <version>
0

> <s_m_source_file>
/data/baiqing/PycharmProjects/Reinvent-master-3.2/result/LINK_invent/BTK/process_docking_weight1_custom_sum_contain_oxygen_bond_distance_aromatic_linkinvent_7_9_3/rearranged_h_0103.sdf

> <i_m_source_file_index>
22

> <r_mmod_Potential_Energy-OPLS-2005>
-343.708312988281

> <r_mmod_Stretch_Energy-OPLS-2005>
51.4022102355957

> <r_mmod_Bend_Energy-OPLS-2005>
135.48258972168

> <r_mmod_Torsional_Energy-OPLS-2005>
264.210327148438

> <r_mmod_Improper_Torsional_Energy-OPLS-2005>
5.59474849700928

> <r_mmod_Van_der_Waal_Energy-OPLS-2005>
115.605949401855

> <r_mmod_Electrostatic_Energy-OPLS-2005>
-468.080902099609

> <r_mmod_Solvation_Energy-OPLS-2005>
-477.823760986328

> <b_mmod_Minimization_Converged-OPLS-2005>
0

> <r_mmod_RMS_Derivative-OPLS-2005>
6.46748065948486

$$$$
22
                    3D
 Structure written by MMmdl.
154162  0  0  1  0            999 V2000
  -30.4168  -15.3036   20.3603 C   0  0  0  0  0  0
  -30.4443  -12.8260   19.5566 C   0  0  0  0  0  0
  -29.5507  -12.5987   18.3086 C   0  0  0  0  0  0
  -28.0962  -12.3176   18.7226 C   0  0  0  0  0  0
  -27.6192  -13.2839   19.8348 C   0  0  2  0  0  0
  -28.6455  -13.4590   20.9770 C   0  0  0  0  0  0
  -25.2409  -13.8268   20.5739 C   0  0  0  0  0  0
  -24.1765  -13.0449   20.9240 C   0  0  0  0  0  0
  -24.6423  -11.6947   20.8744 C   0  0  0  0  0  0
  -23.9108  -10.4305   21.0397 C   0  0  0  0  0  0
  -24.3650   -9.4213   21.9173 C   0  0  0  0  0  0
  -23.6316   -8.2256   22.0754 C   0  0  0  0  0  0
  -22.4295   -8.0294   21.3544 C   0  0  0  0  0  0
  -21.9941   -9.0268   20.4642 C   0  0  0  0  0  0
  -22.7282  -10.2144   20.3040 C   0  0  0  0  0  0
  -21.6856   -6.0743   22.5274 C   0  0  0  0  0  0
  -21.4035   -6.5643   23.8206 C   0  0  0  0  0  0
  -21.3663   -5.6784   24.9167 C   0  0  0  0  0  0
  -21.6049   -4.3049   24.7215 C   0  0  0  0  0  0
  -21.8818   -3.8144   23.4331 C   0  0  0  0  0  0
  -21.9202   -4.6968   22.3393 C   0  0  0  0  0  0
  -22.7776  -13.5186   21.1878 C   0  0  0  0  0  0
  -22.1670   -4.2153   21.0967 F   0  0  0  0  0  0
  -21.5630   -3.4527   25.7727 F   0  0  0  0  0  0
  -29.8857  -13.9748   20.3699 N   0  0  0  0  0  0
  -26.2856  -12.9565   20.3240 N   0  0  0  0  0  0
  -25.9370  -11.6659   20.5715 N   0  0  0  0  0  0
  -22.0435  -12.8182   22.0436 N   0  0  0  0  0  0
  -25.4025  -15.2011   20.4196 N   0  0  0  0  0  0
  -31.6118  -15.3261   20.0303 O   0  0  0  0  0  0
  -21.6656   -6.8890   21.4233 O   0  0  0  0  0  0
  -22.3458  -14.5481   20.6709 O   0  0  0  0  0  0
  -24.6647  -31.8205   23.1679 C   0  0  0  0  0  0
  -25.9318  -32.4572   23.8157 C   0  0  1  0  0  0
  -27.2340  -26.9050   20.1843 C   0  0  0  0  0  0
  -25.5974  -33.8384   24.2059 N   0  0  0  0  0  0
  -23.4822  -30.4279   21.5157 C   0  0  2  0  0  0
  -24.9404  -28.8081   20.1060 C   0  0  0  0  0  0
  -22.7684  -29.4411   22.4768 C   0  0  0  0  0  0
  -18.0319  -28.1415   22.8458 C   0  0  0  0  0  0
  -24.1487  -36.7203   23.2649 C   0  0  0  0  0  0
  -26.0512  -30.6157   21.4035 C   0  0  0  0  0  0
  -26.1196  -29.2030   20.7489 C   0  0  0  0  0  0
  -27.2522  -28.2694   20.7703 C   0  0  0  0  0  0
  -26.0302  -26.6704   19.4801 C   0  0  0  0  0  0
  -24.9228  -27.5627   19.4531 C   0  0  0  0  0  0
  -23.7247  -29.7371   20.1430 C   0  0  0  0  0  0
  -25.4132  -36.2962   24.0298 C   0  0  1  0  0  0
  -20.5944  -28.3754   23.1181 C   0  0  2  0  0  0
  -20.6790  -26.9430   22.5409 C   0  0  0  0  0  0
  -19.5768  -26.6373   21.5218 C   0  0  0  0  0  0
  -18.1947  -26.7944   22.1619 C   0  0  0  0  0  0
  -19.1582  -28.8907   23.2804 C   0  0  0  0  0  0
  -18.9490  -30.1492   23.8845 C   0  0  0  0  0  0
  -17.6481  -30.6600   24.0552 C   0  0  0  0  0  0
  -25.9100  -34.9340   23.5006 C   0  0  0  0  0  0
  -16.5370  -29.9083   23.6345 C   0  0  0  0  0  0
  -16.7298  -28.6506   23.0359 C   0  0  0  0  0  0
  -26.4550  -31.6532   25.0704 C   0  0  0  0  0  0
  -25.3665  -31.3797   26.1357 C   0  0  0  0  0  0
  -27.0457  -30.2894   24.6469 C   0  0  0  0  0  0
  -27.6043  -32.4340   25.7506 C   0  0  0  0  0  0
  -27.5568  -37.1762   24.8466 C   0  0  0  0  0  0
  -21.4350  -29.3034   22.3532 N   0  0  0  0  0  0
  -26.4279  -37.3703   23.9405 N   0  0  0  0  0  0
  -24.7538  -30.9835   22.0827 N   0  0  0  0  0  0
  -23.4212  -28.8003   23.3038 O   0  0  0  0  0  0
  -28.2374  -25.8007   20.3455 O   0  0  0  0  0  0
  -26.5721  -34.8885   22.4608 O   0  0  0  0  0  0
  -23.5709  -32.1185   23.6759 O   0  0  0  0  0  0
  -30.6901  -19.5966   21.6927 C   0  0  0  0  0  0
  -31.0377  -20.8390   22.2608 C   0  0  0  0  0  0
  -29.7167  -19.7120   20.7432 C   0  0  0  0  0  0
  -30.2507  -21.8015   21.6981 C   0  0  0  0  0  0
  -32.0990  -21.0430   23.3145 C   0  0  0  0  0  0
  -30.2915  -23.2630   22.0476 C   0  0  0  0  0  0
  -29.4582  -18.1547   20.0123 C   0  0  0  0  0  0
  -28.3071  -22.4462   20.1633 C   0  0  0  0  0  0
  -28.3779  -24.2447   19.7660 C   0  0  0  0  0  0
  -29.3642  -21.2715   20.7423 N   0  0  0  0  0  0
  -29.6321  -16.5585   20.5518 N   0  0  0  0  0  0
  -31.4665  -13.0232   19.2321 H   0  0  0  0  0  0
  -30.5065  -11.9182   20.1588 H   0  0  0  0  0  0
  -29.9375  -11.7764   17.7046 H   0  0  0  0  0  0
  -29.5843  -13.4876   17.6764 H   0  0  0  0  0  0
  -28.0463  -11.2888   19.0821 H   0  0  0  0  0  0
  -27.4353  -12.3750   17.8579 H   0  0  0  0  0  0
  -27.5357  -14.2533   19.3412 H   0  0  0  0  0  0
  -28.8114  -12.5225   21.5114 H   0  0  0  0  0  0
  -28.2751  -14.1727   21.7149 H   0  0  0  0  0  0
  -25.2799   -9.5693   22.4742 H   0  0  0  0  0  0
  -24.0021   -7.4651   22.7478 H   0  0  0  0  0  0
  -21.0876   -8.8796   19.8945 H   0  0  0  0  0  0
  -22.3742  -10.9684   19.6151 H   0  0  0  0  0  0
  -21.2021   -7.6148   23.9713 H   0  0  0  0  0  0
  -21.1500   -6.0515   25.9069 H   0  0  0  0  0  0
  -22.0591   -2.7604   23.2825 H   0  0  0  0  0  0
  -22.4089  -11.9876   22.4854 H   0  0  0  0  0  0
  -21.1039  -13.1176   22.2619 H   0  0  0  0  0  0
  -24.6262  -15.8443   20.5252 H   0  0  0  0  0  0
  -26.2374  -15.6443   20.0597 H   0  0  0  0  0  0
  -26.7392  -32.5098   23.0873 H   0  0  0  0  0  0
  -25.0043  -33.9447   25.0155 H   0  0  0  0  0  0
  -22.7966  -31.2596   21.3406 H   0  0  0  0  0  0
  -23.3761  -35.9526   23.3288 H   0  0  0  0  0  0
  -24.3560  -36.8879   22.2073 H   0  0  0  0  0  0
  -23.7236  -37.6378   23.6721 H   0  0  0  0  0  0
  -26.2349  -31.3543   20.6221 H   0  0  0  0  0  0
  -26.9106  -30.6770   22.0593 H   0  0  0  0  0  0
  -28.1360  -28.5650   21.3179 H   0  0  0  0  0  0
  -25.9007  -25.7170   18.9906 H   0  0  0  0  0  0
  -24.0285  -27.2512   18.9304 H   0  0  0  0  0  0
  -23.8766  -30.5035   19.3824 H   0  0  0  0  0  0
  -22.8355  -29.1888   19.8281 H   0  0  0  0  0  0
  -25.1333  -36.1763   25.0792 H   0  0  0  0  0  0
  -21.0017  -28.3363   24.1312 H   0  0  0  0  0  0
  -20.5660  -26.2376   23.3656 H   0  0  0  0  0  0
  -21.6653  -26.7404   22.1226 H   0  0  0  0  0  0
  -19.6925  -25.6271   21.1285 H   0  0  0  0  0  0
  -19.6709  -27.3150   20.6723 H   0  0  0  0  0  0
  -17.4220  -26.6679   21.4021 H   0  0  0  0  0  0
  -18.0337  -26.0101   22.9033 H   0  0  0  0  0  0
  -19.7961  -30.7327   24.2189 H   0  0  0  0  0  0
  -17.5028  -31.6276   24.5170 H   0  0  0  0  0  0
  -15.5365  -30.2970   23.7706 H   0  0  0  0  0  0
  -15.8694  -28.0817   22.7094 H   0  0  0  0  0  0
  -24.5850  -30.7147   25.7660 H   0  0  0  0  0  0
  -24.8850  -32.3007   26.4657 H   0  0  0  0  0  0
  -25.7883  -30.9040   27.0221 H   0  0  0  0  0  0
  -26.3136  -29.6553   24.1460 H   0  0  0  0  0  0
  -27.3953  -29.7281   25.5144 H   0  0  0  0  0  0
  -27.9090  -30.4063   23.9916 H   0  0  0  0  0  0
  -27.2609  -33.3678   26.1961 H   0  0  0  0  0  0
  -28.3915  -32.6840   25.0384 H   0  0  0  0  0  0
  -28.0638  -31.8552   26.5525 H   0  0  0  0  0  0
  -28.2575  -38.0065   24.7507 H   0  0  0  0  0  0
  -28.1071  -36.2596   24.6299 H   0  0  0  0  0  0
  -27.2286  -37.1416   25.8868 H   0  0  0  0  0  0
  -20.9616  -29.8708   21.6640 H   0  0  0  0  0  0
  -26.0128  -38.2766   24.1397 H   0  0  0  0  0  0
  -31.1582  -18.6536   21.9485 H   0  0  0  0  0  0
  -32.6626  -20.1261   23.4855 H   0  0  0  0  0  0
  -31.6492  -21.3430   24.2621 H   0  0  0  0  0  0
  -32.8013  -21.8183   23.0058 H   0  0  0  0  0  0
  -30.9489  -23.4527   22.8968 H   0  0  0  0  0  0
  -29.3100  -23.6429   22.3306 H   0  0  0  0  0  0
  -30.6803  -23.8523   21.2177 H   0  0  0  0  0  0
  -30.0595  -18.1654   19.1015 H   0  0  0  0  0  0
  -28.4381  -18.1788   19.6278 H   0  0  0  0  0  0
  -28.0001  -22.0172   19.2098 H   0  0  0  0  0  0
  -27.4129  -22.3378   20.7766 H   0  0  0  0  0  0
  -27.6492  -24.2918   18.9584 H   0  0  0  0  0  0
  -29.3232  -24.3214   19.2280 H   0  0  0  0  0  0
  -28.7625  -16.2924   20.9899 H   0  0  0  0  0  0
  1 25  1  0  0  0
  1 30  2  0  0  0
  1 81  1  0  0  0
  2  3  1  0  0  0
  2 25  1  0  0  0
  2 82  1  0  0  0
  2 83  1  0  0  0
  3  4  1  0  0  0
  3 84  1  0  0  0
  3 85  1  0  0  0
  4  5  1  0  0  0
  4 86  1  0  0  0
  4 87  1  0  0  0
  5  6  1  0  0  0
  5 26  1  0  0  0
  5 88  1  0  0  0
  6 25  1  0  0  0
  6 89  1  0  0  0
  6 90  1  0  0  0
  7  8  2  0  0  0
  7 26  1  0  0  0
  7 29  1  0  0  0
  8  9  1  0  0  0
  8 22  1  0  0  0
  9 10  1  0  0  0
  9 27  2  0  0  0
 10 11  2  0  0  0
 10 15  1  0  0  0
 11 12  1  0  0  0
 11 91  1  0  0  0
 12 13  2  0  0  0
 12 92  1  0  0  0
 13 14  1  0  0  0
 13 31  1  0  0  0
 14 15  2  0  0  0
 14 93  1  0  0  0
 15 94  1  0  0  0
 16 17  2  0  0  0
 16 21  1  0  0  0
 16 31  1  0  0  0
 17 18  1  0  0  0
 17 95  1  0  0  0
 18 19  2  0  0  0
 18 96  1  0  0  0
 19 20  1  0  0  0
 19 24  1  0  0  0
 20 21  2  0  0  0
 20 97  1  0  0  0
 21 23  1  0  0  0
 22 28  1  0  0  0
 22 32  2  0  0  0
 26 27  1  0  0  0
 28 98  1  0  0  0
 28 99  1  0  0  0
 29100  1  0  0  0
 29101  1  0  0  0
 33 34  1  0  0  0
 33 66  1  0  0  0
 33 70  2  0  0  0
 34 36  1  0  0  0
 34 59  1  0  0  0
 34102  1  0  0  0
 35 44  2  0  0  0
 35 45  1  0  0  0
 35 68  1  0  0  0
 36 56  1  0  0  0
 36103  1  0  0  0
 37 39  1  0  0  0
 37 47  1  0  0  0
 37 66  1  0  0  0
 37104  1  0  0  0
 38 43  2  0  0  0
 38 46  1  0  0  0
 38 47  1  0  0  0
 39 64  1  0  0  0
 39 67  2  0  0  0
 40 52  1  0  0  0
 40 53  2  0  0  0
 40 58  1  0  0  0
 41105  1  0  0  0
 41106  1  0  0  0
 41107  1  0  0  0
 41 48  1  0  0  0
 42 43  1  0  0  0
 42 66  1  0  0  0
 42108  1  0  0  0
 42109  1  0  0  0
 43 44  1  0  0  0
 44110  1  0  0  0
 45 46  2  0  0  0
 45111  1  0  0  0
 46112  1  0  0  0
 47113  1  0  0  0
 47114  1  0  0  0
 48 56  1  0  0  0
 48 65  1  0  0  0
 48115  1  0  0  0
 49 50  1  0  0  0
 49 53  1  0  0  0
 49 64  1  0  0  0
 49116  1  0  0  0
 50 51  1  0  0  0
 50117  1  0  0  0
 50118  1  0  0  0
 51 52  1  0  0  0
 51119  1  0  0  0
 51120  1  0  0  0
 52121  1  0  0  0
 52122  1  0  0  0
 53 54  1  0  0  0
 54 55  2  0  0  0
 54123  1  0  0  0
 55 57  1  0  0  0
 55124  1  0  0  0
 56 69  2  0  0  0
 57 58  2  0  0  0
 57125  1  0  0  0
 58126  1  0  0  0
 59 60  1  0  0  0
 59 61  1  0  0  0
 59 62  1  0  0  0
 60127  1  0  0  0
 60128  1  0  0  0
 60129  1  0  0  0
 61130  1  0  0  0
 61131  1  0  0  0
 61132  1  0  0  0
 62133  1  0  0  0
 62134  1  0  0  0
 62135  1  0  0  0
 63 65  1  0  0  0
 63136  1  0  0  0
 63137  1  0  0  0
 63138  1  0  0  0
 64139  1  0  0  0
 65140  1  0  0  0
 68 79  1  0  0  0
 71 72  1  0  0  0
 71 73  2  0  0  0
 71141  1  0  0  0
 72 74  2  0  0  0
 72 75  1  0  0  0
 73 77  1  0  0  0
 73 80  1  0  0  0
 74 76  1  0  0  0
 74 80  1  0  0  0
 75142  1  0  0  0
 75143  1  0  0  0
 75144  1  0  0  0
 76145  1  0  0  0
 76146  1  0  0  0
 76147  1  0  0  0
 77 81  1  0  0  0
 77148  1  0  0  0
 77149  1  0  0  0
 78 79  1  0  0  0
 78 80  1  0  0  0
 78150  1  0  0  0
 78151  1  0  0  0
 79152  1  0  0  0
 79153  1  0  0  0
 81154  1  0  0  0
M  ISO  4   1 100  68 101  79 101  81 100
M  END
> <chiral flag>
0

> <version>
0

> <s_m_source_file>
/data/baiqing/PycharmProjects/Reinvent-master-3.2/result/LINK_invent/BTK/process_docking_weight1_custom_sum_contain_oxygen_bond_distance_aromatic_linkinvent_7_9_3/rearranged_h_0103.sdf

> <i_m_source_file_index>
23

> <r_mmod_Potential_Energy-OPLS-2005>
1523.8720703125

> <r_mmod_Stretch_Energy-OPLS-2005>
697.039001464844

> <r_mmod_Bend_Energy-OPLS-2005>
635.030578613281

> <r_mmod_Torsional_Energy-OPLS-2005>
221.424118041992

> <r_mmod_Improper_Torsional_Energy-OPLS-2005>
5.57387638092041

> <r_mmod_Van_der_Waal_Energy-OPLS-2005>
111.346801757812

> <r_mmod_Electrostatic_Energy-OPLS-2005>
-414.543792724609

> <r_mmod_Solvation_Energy-OPLS-2005>
-231.441558837891

> <b_mmod_Minimization_Converged-OPLS-2005>
0

> <r_mmod_RMS_Derivative-OPLS-2005>
1.91569364070892

$$$$
23
                    3D
 Structure written by MMmdl.
165173  0  0  1  0            999 V2000
  -30.7006  -14.6107   20.5676 C   0  0  0  0  0  0
  -30.4256  -12.4030   19.4433 C   0  0  0  0  0  0
  -29.4946  -12.5316   18.2202 C   0  0  0  0  0  0
  -28.0203  -12.3706   18.6371 C   0  0  0  0  0  0
  -27.6549  -13.2250   19.8813 C   0  0  2  0  0  0
  -28.7124  -13.0528   20.9998 C   0  0  0  0  0  0
  -25.2440  -13.8139   20.5541 C   0  0  0  0  0  0
  -24.1777  -13.0395   20.9171 C   0  0  0  0  0  0
  -24.6407  -11.6894   20.8787 C   0  0  0  0  0  0
  -23.9084  -10.4272   21.0431 C   0  0  0  0  0  0
  -24.3628   -9.4184   21.9203 C   0  0  0  0  0  0
  -23.6294   -8.2225   22.0763 C   0  0  0  0  0  0
  -22.4276   -8.0273   21.3547 C   0  0  0  0  0  0
  -21.9922   -9.0252   20.4650 C   0  0  0  0  0  0
  -22.7262  -10.2124   20.3068 C   0  0  0  0  0  0
  -21.6848   -6.0733   22.5280 C   0  0  0  0  0  0
  -21.4011   -6.5638   23.8214 C   0  0  0  0  0  0
  -21.3657   -5.6792   24.9176 C   0  0  0  0  0  0
  -21.6044   -4.3054   24.7226 C   0  0  0  0  0  0
  -21.8819   -3.8146   23.4348 C   0  0  0  0  0  0
  -21.9192   -4.6962   22.3404 C   0  0  0  0  0  0
  -22.7798  -13.5181   21.1831 C   0  0  0  0  0  0
  -22.1660   -4.2149   21.0980 F   0  0  0  0  0  0
  -21.5630   -3.4538   25.7738 F   0  0  0  0  0  0
  -30.0167  -13.4228   20.4373 N   0  0  0  0  0  0
  -26.2993  -12.9395   20.3443 N   0  0  0  0  0  0
  -25.9363  -11.6537   20.5892 N   0  0  0  0  0  0
  -22.0462  -12.8187   22.0414 N   0  0  0  0  0  0
  -25.3877  -15.1826   20.3589 N   0  0  0  0  0  0
  -31.8263  -14.7187   20.0680 O   0  0  0  0  0  0
  -21.6635   -6.8877   21.4242 O   0  0  0  0  0  0
  -22.3470  -14.5486   20.6684 O   0  0  0  0  0  0
  -24.6255  -31.8618   23.2065 C   0  0  0  0  0  0
  -25.9107  -32.4791   23.8377 C   0  0  1  0  0  0
  -27.2187  -27.3310   20.1063 C   0  0  0  0  0  0
  -25.5932  -33.8592   24.2295 N   0  0  0  0  0  0
  -23.4179  -30.4887   21.5499 C   0  0  2  0  0  0
  -24.8622  -28.9540   20.1101 C   0  0  0  0  0  0
  -22.7479  -29.4625   22.4951 C   0  0  0  0  0  0
  -18.0287  -28.1381   22.8482 C   0  0  0  0  0  0
  -24.1489  -36.7296   23.2637 C   0  0  0  0  0  0
  -25.9606  -30.7953   21.3787 C   0  0  0  0  0  0
  -26.0329  -29.4261   20.7173 C   0  0  0  0  0  0
  -27.2134  -28.6253   20.7101 C   0  0  0  0  0  0
  -26.0228  -26.9226   19.4631 C   0  0  0  0  0  0
  -24.8586  -27.7059   19.4757 C   0  0  0  0  0  0
  -23.6312  -29.8326   20.1624 C   0  0  0  0  0  0
  -25.4112  -36.3088   24.0332 C   0  0  1  0  0  0
  -20.5889  -28.3676   23.1290 C   0  0  2  0  0  0
  -20.6779  -26.9401   22.5410 C   0  0  0  0  0  0
  -19.5757  -26.6378   21.5211 C   0  0  0  0  0  0
  -18.1934  -26.7923   22.1619 C   0  0  0  0  0  0
  -19.1540  -28.8847   23.2880 C   0  0  0  0  0  0
  -18.9465  -30.1455   23.8887 C   0  0  0  0  0  0
  -17.6463  -30.6582   24.0564 C   0  0  0  0  0  0
  -25.9050  -34.9459   23.5108 C   0  0  0  0  0  0
  -16.5355  -29.9081   23.6336 C   0  0  0  0  0  0
  -16.7274  -28.6505   23.0342 C   0  0  0  0  0  0
  -26.4491  -31.6601   25.0747 C   0  0  0  0  0  0
  -25.3724  -31.3747   26.1477 C   0  0  0  0  0  0
  -27.0332  -30.3025   24.6198 C   0  0  0  0  0  0
  -27.6052  -32.4337   25.7512 C   0  0  0  0  0  0
  -27.5583  -37.1801   24.8464 C   0  0  0  0  0  0
  -21.4193  -29.3036   22.3698 N   0  0  0  0  0  0
  -26.4289  -37.3784   23.9414 N   0  0  0  0  0  0
  -24.6865  -31.0645   22.1014 N   0  0  0  0  0  0
  -23.4212  -28.8150   23.3009 O   0  0  0  0  0  0
  -28.3268  -26.4665   20.1687 O   0  0  0  0  0  0
  -26.5612  -34.8924   22.4671 O   0  0  0  0  0  0
  -23.5420  -32.1409   23.7398 O   0  0  0  0  0  0
  -28.8707  -20.4659   21.5948 C   0  0  0  0  0  0
  -29.0539  -19.0757   21.8134 C   0  0  0  0  0  0
  -29.0262  -21.0440   20.3155 C   0  0  0  0  0  0
  -29.3690  -18.1677   20.7633 C   0  0  0  0  0  0
  -29.5426  -20.1876   19.2947 C   0  0  0  0  0  0
  -29.7048  -18.7713   19.5113 C   0  0  0  0  0  0
  -29.8346  -20.7775   17.9181 C   0  0  0  0  0  0
  -30.1621  -17.8920   18.3501 C   0  0  0  0  0  0
  -27.9209  -16.4162   21.9189 C   0  0  0  0  0  0
  -31.1540  -16.2827   22.2520 C   0  0  0  0  0  0
  -28.3708  -22.4414   20.0115 C   0  0  0  0  0  0
  -29.0288  -23.8485   20.3341 C   0  0  0  0  0  0
  -28.0544  -25.0338   19.9278 C   0  0  0  0  0  0
  -29.1011  -16.6084   20.9406 C   0  0  2  0  0  0
  -30.2033  -15.6521   21.3290 N   0  0  0  0  0  0
  -31.4660  -12.5076   19.1312 H   0  0  0  0  0  0
  -30.3551  -11.4030   19.8745 H   0  0  0  0  0  0
  -29.7539  -11.7863   17.4672 H   0  0  0  0  0  0
  -29.6387  -13.5055   17.7494 H   0  0  0  0  0  0
  -27.8512  -11.3148   18.8521 H   0  0  0  0  0  0
  -27.3630  -12.6184   17.8027 H   0  0  0  0  0  0
  -27.6747  -14.2643   19.5581 H   0  0  0  0  0  0
  -28.7329  -12.0137   21.3317 H   0  0  0  0  0  0
  -28.4930  -13.6165   21.9007 H   0  0  0  0  0  0
  -25.2769   -9.5650   22.4785 H   0  0  0  0  0  0
  -23.9995   -7.4610   22.7479 H   0  0  0  0  0  0
  -21.0856   -8.8779   19.8950 H   0  0  0  0  0  0
  -22.3732  -10.9668   19.6177 H   0  0  0  0  0  0
  -21.2002   -7.6146   23.9717 H   0  0  0  0  0  0
  -21.1480   -6.0521   25.9079 H   0  0  0  0  0  0
  -22.0601   -2.7609   23.2848 H   0  0  0  0  0  0
  -22.4091  -11.9855   22.4803 H   0  0  0  0  0  0
  -21.1086  -13.1215   22.2639 H   0  0  0  0  0  0
  -24.6054  -15.8207   20.4524 H   0  0  0  0  0  0
  -26.2305  -15.6343   20.0310 H   0  0  0  0  0  0
  -26.7179  -32.5459   23.1128 H   0  0  0  0  0  0
  -25.0099  -33.9746   25.0450 H   0  0  0  0  0  0
  -22.7107  -31.3092   21.4120 H   0  0  0  0  0  0
  -23.3756  -35.9624   23.3295 H   0  0  0  0  0  0
  -24.3579  -36.8916   22.2054 H   0  0  0  0  0  0
  -23.7239  -37.6497   23.6655 H   0  0  0  0  0  0
  -26.0946  -31.5609   20.6132 H   0  0  0  0  0  0
  -26.8407  -30.8384   22.0086 H   0  0  0  0  0  0
  -28.1080  -28.9800   21.2026 H   0  0  0  0  0  0
  -25.9434  -25.9772   18.9488 H   0  0  0  0  0  0
  -23.9638  -27.3401   18.9910 H   0  0  0  0  0  0
  -23.7523  -30.6139   19.4110 H   0  0  0  0  0  0
  -22.7508  -29.2653   19.8552 H   0  0  0  0  0  0
  -25.1288  -36.1941   25.0825 H   0  0  0  0  0  0
  -20.9976  -28.3238   24.1412 H   0  0  0  0  0  0
  -20.5684  -26.2279   23.3601 H   0  0  0  0  0  0
  -21.6648  -26.7431   22.1201 H   0  0  0  0  0  0
  -19.6918  -25.6287   21.1242 H   0  0  0  0  0  0
  -19.6704  -27.3192   20.6744 H   0  0  0  0  0  0
  -17.4205  -26.6672   21.4019 H   0  0  0  0  0  0
  -18.0330  -26.0064   22.9014 H   0  0  0  0  0  0
  -19.7941  -30.7282   24.2239 H   0  0  0  0  0  0
  -17.5017  -31.6260   24.5168 H   0  0  0  0  0  0
  -15.5356  -30.2979   23.7665 H   0  0  0  0  0  0
  -15.8674  -28.0832   22.7042 H   0  0  0  0  0  0
  -24.5903  -30.7081   25.7821 H   0  0  0  0  0  0
  -24.8909  -32.2919   26.4882 H   0  0  0  0  0  0
  -25.8053  -30.8952   27.0264 H   0  0  0  0  0  0
  -26.2908  -29.6789   24.1205 H   0  0  0  0  0  0
  -27.4016  -29.7270   25.4701 H   0  0  0  0  0  0
  -27.8782  -30.4321   23.9430 H   0  0  0  0  0  0
  -27.2659  -33.3638   26.2084 H   0  0  0  0  0  0
  -28.3860  -32.6895   25.0337 H   0  0  0  0  0  0
  -28.0717  -31.8467   26.5434 H   0  0  0  0  0  0
  -28.2589  -38.0108   24.7522 H   0  0  0  0  0  0
  -28.1087  -36.2641   24.6263 H   0  0  0  0  0  0
  -27.2307  -37.1422   25.8868 H   0  0  0  0  0  0
  -20.9362  -29.8781   21.6934 H   0  0  0  0  0  0
  -26.0171  -38.2854   24.1429 H   0  0  0  0  0  0
  -28.4933  -21.0717   22.4072 H   0  0  0  0  0  0
  -28.8224  -18.7042   22.8003 H   0  0  0  0  0  0
  -29.9873  -21.8556   17.9595 H   0  0  0  0  0  0
  -29.0107  -20.5742   17.2334 H   0  0  0  0  0  0
  -30.7484  -20.3726   17.4867 H   0  0  0  0  0  0
  -30.3532  -16.8608   18.6363 H   0  0  0  0  0  0
  -31.1024  -18.2545   17.9365 H   0  0  0  0  0  0
  -29.4143  -17.8876   17.5565 H   0  0  0  0  0  0
  -27.0952  -17.0850   21.6726 H   0  0  0  0  0  0
  -28.2068  -16.6104   22.9521 H   0  0  0  0  0  0
  -27.5075  -15.4169   21.9007 H   0  0  0  0  0  0
  -30.6396  -16.8427   23.0328 H   0  0  0  0  0  0
  -31.8122  -16.9703   21.7182 H   0  0  0  0  0  0
  -31.7782  -15.5399   22.7521 H   0  0  0  0  0  0
  -27.4169  -22.4203   20.5405 H   0  0  0  0  0  0
  -28.0655  -22.4499   18.9654 H   0  0  0  0  0  0
  -29.9764  -23.9494   19.8046 H   0  0  0  0  0  0
  -29.2535  -23.9093   21.3993 H   0  0  0  0  0  0
  -27.1169  -24.7934   20.4320 H   0  0  0  0  0  0
  -27.8700  -24.9270   18.8577 H   0  0  0  0  0  0
  -28.7194  -16.2708   19.9774 H   0  0  0  0  0  0
  1 25  1  0  0  0
  1 30  2  0  0  0
  1 85  1  0  0  0
  2  3  1  0  0  0
  2 25  1  0  0  0
  2 86  1  0  0  0
  2 87  1  0  0  0
  3  4  1  0  0  0
  3 88  1  0  0  0
  3 89  1  0  0  0
  4  5  1  0  0  0
  4 90  1  0  0  0
  4 91  1  0  0  0
  5  6  1  0  0  0
  5 26  1  0  0  0
  5 92  1  0  0  0
  6 25  1  0  0  0
  6 93  1  0  0  0
  6 94  1  0  0  0
  7  8  2  0  0  0
  7 26  1  0  0  0
  7 29  1  0  0  0
  8  9  1  0  0  0
  8 22  1  0  0  0
  9 10  1  0  0  0
  9 27  2  0  0  0
 10 11  2  0  0  0
 10 15  1  0  0  0
 11 12  1  0  0  0
 11 95  1  0  0  0
 12 13  2  0  0  0
 12 96  1  0  0  0
 13 14  1  0  0  0
 13 31  1  0  0  0
 14 15  2  0  0  0
 14 97  1  0  0  0
 15 98  1  0  0  0
 16 17  2  0  0  0
 16 21  1  0  0  0
 16 31  1  0  0  0
 17 18  1  0  0  0
 17 99  1  0  0  0
 18 19  2  0  0  0
 18100  1  0  0  0
 19 20  1  0  0  0
 19 24  1  0  0  0
 20 21  2  0  0  0
 20101  1  0  0  0
 21 23  1  0  0  0
 22 28  1  0  0  0
 22 32  2  0  0  0
 26 27  1  0  0  0
 28102  1  0  0  0
 28103  1  0  0  0
 29104  1  0  0  0
 29105  1  0  0  0
 33 34  1  0  0  0
 33 66  1  0  0  0
 33 70  2  0  0  0
 34 36  1  0  0  0
 34 59  1  0  0  0
 34106  1  0  0  0
 35 44  2  0  0  0
 35 45  1  0  0  0
 35 68  1  0  0  0
 36 56  1  0  0  0
 36107  1  0  0  0
 37 39  1  0  0  0
 37 47  1  0  0  0
 37 66  1  0  0  0
 37108  1  0  0  0
 38 43  2  0  0  0
 38 46  1  0  0  0
 38 47  1  0  0  0
 39 64  1  0  0  0
 39 67  2  0  0  0
 40 52  1  0  0  0
 40 53  2  0  0  0
 40 58  1  0  0  0
 41109  1  0  0  0
 41110  1  0  0  0
 41111  1  0  0  0
 41 48  1  0  0  0
 42 43  1  0  0  0
 42 66  1  0  0  0
 42112  1  0  0  0
 42113  1  0  0  0
 43 44  1  0  0  0
 44114  1  0  0  0
 45 46  2  0  0  0
 45115  1  0  0  0
 46116  1  0  0  0
 47117  1  0  0  0
 47118  1  0  0  0
 48 56  1  0  0  0
 48 65  1  0  0  0
 48119  1  0  0  0
 49 50  1  0  0  0
 49 53  1  0  0  0
 49 64  1  0  0  0
 49120  1  0  0  0
 50 51  1  0  0  0
 50121  1  0  0  0
 50122  1  0  0  0
 51 52  1  0  0  0
 51123  1  0  0  0
 51124  1  0  0  0
 52125  1  0  0  0
 52126  1  0  0  0
 53 54  1  0  0  0
 54 55  2  0  0  0
 54127  1  0  0  0
 55 57  1  0  0  0
 55128  1  0  0  0
 56 69  2  0  0  0
 57 58  2  0  0  0
 57129  1  0  0  0
 58130  1  0  0  0
 59 60  1  0  0  0
 59 61  1  0  0  0
 59 62  1  0  0  0
 60131  1  0  0  0
 60132  1  0  0  0
 60133  1  0  0  0
 61134  1  0  0  0
 61135  1  0  0  0
 61136  1  0  0  0
 62137  1  0  0  0
 62138  1  0  0  0
 62139  1  0  0  0
 63 65  1  0  0  0
 63140  1  0  0  0
 63141  1  0  0  0
 63142  1  0  0  0
 64143  1  0  0  0
 65144  1  0  0  0
 68 83  1  0  0  0
 71 72  2  0  0  0
 71 73  1  0  0  0
 71145  1  0  0  0
 72 74  1  0  0  0
 72146  1  0  0  0
 73 75  2  0  0  0
 73 81  1  0  0  0
 74 76  2  0  0  0
 74 84  1  0  0  0
 75 76  1  0  0  0
 75 77  1  0  0  0
 76 78  1  0  0  0
 77147  1  0  0  0
 77148  1  0  0  0
 77149  1  0  0  0
 78150  1  0  0  0
 78151  1  0  0  0
 78152  1  0  0  0
 79153  1  0  0  0
 79154  1  0  0  0
 79155  1  0  0  0
 79 84  1  0  0  0
 80 85  1  0  0  0
 80156  1  0  0  0
 80157  1  0  0  0
 80158  1  0  0  0
 81 82  1  0  0  0
 81159  1  0  0  0
 81160  1  0  0  0
 82 83  1  0  0  0
 82161  1  0  0  0
 82162  1  0  0  0
 83163  1  0  0  0
 83164  1  0  0  0
 84 85  1  0  0  0
 84165  1  0  0  0
M  ISO  4   1 100  68 101  83 101  85 100
M  END
> <chiral flag>
0

> <version>
0

> <s_m_source_file>
/data/baiqing/PycharmProjects/Reinvent-master-3.2/result/LINK_invent/BTK/process_docking_weight1_custom_sum_contain_oxygen_bond_distance_aromatic_linkinvent_7_9_3/rearranged_h_0103.sdf

> <i_m_source_file_index>
24

> <r_mmod_Potential_Energy-OPLS-2005>
238.079833984375

> <r_mmod_Stretch_Energy-OPLS-2005>
87.1452407836914

> <r_mmod_Bend_Energy-OPLS-2005>
165.437286376953

> <r_mmod_Torsional_Energy-OPLS-2005>
297.084350585938

> <r_mmod_Improper_Torsional_Energy-OPLS-2005>
8.10813236236572

> <r_mmod_Van_der_Waal_Energy-OPLS-2005>
164.528686523438

> <r_mmod_Electrostatic_Energy-OPLS-2005>
-337.972229003906

> <r_mmod_Solvation_Energy-OPLS-2005>
-188.225601196289

> <b_mmod_Minimization_Converged-OPLS-2005>
0

> <r_mmod_RMS_Derivative-OPLS-2005>
0.622899174690247

$$$$
24
                    3D
 Structure written by MMmdl.
164172  0  0  1  0            999 V2000
  -30.3962  -15.3405   20.3524 C   0  0  0  0  0  0
  -30.4315  -12.8541   19.5423 C   0  0  0  0  0  0
  -29.5416  -12.5989   18.2984 C   0  0  0  0  0  0
  -28.0903  -12.3074   18.7164 C   0  0  0  0  0  0
  -27.6062  -13.2811   19.8199 C   0  0  2  0  0  0
  -28.6311  -13.4839   20.9574 C   0  0  0  0  0  0
  -25.2365  -13.8249   20.5730 C   0  0  0  0  0  0
  -24.1731  -13.0431   20.9246 C   0  0  0  0  0  0
  -24.6383  -11.6931   20.8724 C   0  0  0  0  0  0
  -23.9080  -10.4284   21.0367 C   0  0  0  0  0  0
  -24.3629   -9.4201   21.9151 C   0  0  0  0  0  0
  -23.6299   -8.2241   22.0738 C   0  0  0  0  0  0
  -22.4281   -8.0264   21.3534 C   0  0  0  0  0  0
  -21.9913   -9.0230   20.4635 C   0  0  0  0  0  0
  -22.7241  -10.2110   20.3028 C   0  0  0  0  0  0
  -21.6863   -6.0714   22.5271 C   0  0  0  0  0  0
  -21.4020   -6.5624   23.8202 C   0  0  0  0  0  0
  -21.3669   -5.6781   24.9168 C   0  0  0  0  0  0
  -21.6048   -4.3044   24.7225 C   0  0  0  0  0  0
  -21.8820   -3.8132   23.4349 C   0  0  0  0  0  0
  -21.9199   -4.6942   22.3401 C   0  0  0  0  0  0
  -22.7750  -13.5178   21.1893 C   0  0  0  0  0  0
  -22.1658   -4.2125   21.0978 F   0  0  0  0  0  0
  -21.5641   -3.4530   25.7745 F   0  0  0  0  0  0
  -29.8571  -14.0118   20.3365 N   0  0  0  0  0  0
  -26.2781  -12.9530   20.3169 N   0  0  0  0  0  0
  -25.9323  -11.6632   20.5664 N   0  0  0  0  0  0
  -22.0401  -12.8175   22.0458 N   0  0  0  0  0  0
  -25.4008  -15.1984   20.4184 N   0  0  0  0  0  0
  -31.6153  -15.3221   20.1120 O   0  0  0  0  0  0
  -21.6655   -6.8850   21.4228 O   0  0  0  0  0  0
  -22.3434  -14.5476   20.6716 O   0  0  0  0  0  0
  -24.6674  -31.8179   23.1654 C   0  0  0  0  0  0
  -25.9333  -32.4559   23.8141 C   0  0  1  0  0  0
  -27.2232  -26.8685   20.1926 C   0  0  0  0  0  0
  -25.5979  -33.8376   24.2046 N   0  0  0  0  0  0
  -23.4864  -30.4239   21.5154 C   0  0  2  0  0  0
  -24.9428  -28.8001   20.1087 C   0  0  0  0  0  0
  -22.7694  -29.4402   22.4768 C   0  0  0  0  0  0
  -18.0325  -28.1416   22.8474 C   0  0  0  0  0  0
  -24.1495  -36.7187   23.2643 C   0  0  0  0  0  0
  -26.0580  -30.6027   21.4078 C   0  0  0  0  0  0
  -26.1245  -29.1874   20.7511 C   0  0  0  0  0  0
  -27.2530  -28.2421   20.7697 C   0  0  0  0  0  0
  -26.0168  -26.6519   19.4869 C   0  0  0  0  0  0
  -24.9185  -27.5557   19.4552 C   0  0  0  0  0  0
  -23.7305  -29.7336   20.1438 C   0  0  0  0  0  0
  -25.4142  -36.2955   24.0295 C   0  0  1  0  0  0
  -20.5955  -28.3772   23.1187 C   0  0  2  0  0  0
  -20.6804  -26.9447   22.5414 C   0  0  0  0  0  0
  -19.5774  -26.6379   21.5232 C   0  0  0  0  0  0
  -18.1958  -26.7954   22.1632 C   0  0  0  0  0  0
  -19.1588  -28.8920   23.2816 C   0  0  0  0  0  0
  -18.9493  -30.1504   23.8856 C   0  0  0  0  0  0
  -17.6483  -30.6611   24.0556 C   0  0  0  0  0  0
  -25.9115  -34.9340   23.5006 C   0  0  0  0  0  0
  -16.5377  -29.9095   23.6340 C   0  0  0  0  0  0
  -16.7304  -28.6511   23.0376 C   0  0  0  0  0  0
  -26.4570  -31.6524   25.0698 C   0  0  0  0  0  0
  -25.3671  -31.3805   26.1339 C   0  0  0  0  0  0
  -27.0449  -30.2867   24.6488 C   0  0  0  0  0  0
  -27.6068  -32.4338   25.7486 C   0  0  0  0  0  0
  -27.5590  -37.1739   24.8458 C   0  0  0  0  0  0
  -21.4361  -29.3039   22.3519 N   0  0  0  0  0  0
  -26.4285  -37.3700   23.9418 N   0  0  0  0  0  0
  -24.7583  -30.9779   22.0820 N   0  0  0  0  0  0
  -23.4210  -28.7986   23.3045 O   0  0  0  0  0  0
  -28.2179  -25.7421   20.3331 O   0  0  0  0  0  0
  -26.5740  -34.8885   22.4613 O   0  0  0  0  0  0
  -23.5729  -32.1178   23.6702 O   0  0  0  0  0  0
  -30.8432  -18.5123   19.3349 C   0  0  0  0  0  0
  -31.2008  -19.8151   18.9029 C   0  0  0  0  0  0
  -30.5052  -20.9907   19.3463 C   0  0  0  0  0  0
  -29.3213  -20.9084   20.1334 C   0  0  0  0  0  0
  -29.7767  -18.2292   20.1924 C   0  0  0  0  0  0
  -31.0869  -22.3649   19.0159 C   0  0  0  0  0  0
  -34.1061  -20.0608   19.8535 C   0  0  0  0  0  0
  -30.8011  -19.5548   15.8930 C   0  0  0  0  0  0
  -28.5826  -22.4561   20.6415 C   0  0  0  0  0  0
  -33.7035  -19.3657   18.5439 C   0  0  0  0  0  0
  -32.0886  -19.1114   16.6061 C   0  0  0  0  0  0
  -28.2224  -24.1140   19.8942 C   0  0  0  0  0  0
  -32.3848  -19.8759   17.9181 C   0  0  0  0  0  0
  -29.0377  -19.4909   20.5322 N   0  0  0  0  0  0
  -29.6177  -16.6238   20.4924 N   0  0  0  0  0  0
  -31.4512  -13.0573   19.2135 H   0  0  0  0  0  0
  -30.5016  -11.9534   20.1558 H   0  0  0  0  0  0
  -29.9362  -11.7706   17.7098 H   0  0  0  0  0  0
  -29.5679  -13.4772   17.6507 H   0  0  0  0  0  0
  -28.0522  -11.2821   19.0862 H   0  0  0  0  0  0
  -27.4281  -12.3437   17.8500 H   0  0  0  0  0  0
  -27.5119  -14.2425   19.3145 H   0  0  0  0  0  0
  -28.8126  -12.5582   21.5062 H   0  0  0  0  0  0
  -28.2505  -14.2040   21.6827 H   0  0  0  0  0  0
  -25.2757   -9.5706   22.4743 H   0  0  0  0  0  0
  -24.0004   -7.4653   22.7478 H   0  0  0  0  0  0
  -21.0829   -8.8728   19.8967 H   0  0  0  0  0  0
  -22.3645  -10.9638   19.6153 H   0  0  0  0  0  0
  -21.1995   -7.6130   23.9694 H   0  0  0  0  0  0
  -21.1502   -6.0513   25.9069 H   0  0  0  0  0  0
  -22.0595   -2.7590   23.2858 H   0  0  0  0  0  0
  -22.4036  -11.9866   22.4892 H   0  0  0  0  0  0
  -21.1006  -13.1181   22.2626 H   0  0  0  0  0  0
  -24.6303  -15.8480   20.5321 H   0  0  0  0  0  0
  -26.2355  -15.6374   20.0547 H   0  0  0  0  0  0
  -26.7410  -32.5080   23.0854 H   0  0  0  0  0  0
  -25.0042  -33.9440   25.0139 H   0  0  0  0  0  0
  -22.8023  -31.2566   21.3387 H   0  0  0  0  0  0
  -23.3802  -35.9472   23.3242 H   0  0  0  0  0  0
  -24.3571  -36.8903   22.2071 H   0  0  0  0  0  0
  -23.7196  -37.6329   23.6743 H   0  0  0  0  0  0
  -26.2513  -31.3430   20.6303 H   0  0  0  0  0  0
  -26.9124  -30.6570   22.0701 H   0  0  0  0  0  0
  -28.1420  -28.5346   21.3103 H   0  0  0  0  0  0
  -25.8806  -25.7032   18.9899 H   0  0  0  0  0  0
  -24.0216  -27.2550   18.9309 H   0  0  0  0  0  0
  -23.8918  -30.4997   19.3849 H   0  0  0  0  0  0
  -22.8396  -29.1894   19.8254 H   0  0  0  0  0  0
  -25.1335  -36.1749   25.0785 H   0  0  0  0  0  0
  -21.0037  -28.3397   24.1313 H   0  0  0  0  0  0
  -20.5704  -26.2389   23.3660 H   0  0  0  0  0  0
  -21.6662  -26.7432   22.1202 H   0  0  0  0  0  0
  -19.6934  -25.6273   21.1303 H   0  0  0  0  0  0
  -19.6722  -27.3156   20.6735 H   0  0  0  0  0  0
  -17.4227  -26.6712   21.4031 H   0  0  0  0  0  0
  -18.0345  -26.0104   22.9034 H   0  0  0  0  0  0
  -19.7964  -30.7336   24.2214 H   0  0  0  0  0  0
  -17.5028  -31.6284   24.5163 H   0  0  0  0  0  0
  -15.5372  -30.2983   23.7678 H   0  0  0  0  0  0
  -15.8707  -28.0797   22.7139 H   0  0  0  0  0  0
  -24.5843  -30.7187   25.7616 H   0  0  0  0  0  0
  -24.8879  -32.3019   26.4654 H   0  0  0  0  0  0
  -25.7859  -30.9004   27.0189 H   0  0  0  0  0  0
  -26.3110  -29.6539   24.1487 H   0  0  0  0  0  0
  -27.3920  -29.7253   25.5172 H   0  0  0  0  0  0
  -27.9091  -30.4007   23.9945 H   0  0  0  0  0  0
  -27.2653  -33.3691   26.1933 H   0  0  0  0  0  0
  -28.3935  -32.6818   25.0348 H   0  0  0  0  0  0
  -28.0681  -31.8552   26.5499 H   0  0  0  0  0  0
  -28.2547  -38.0092   24.7571 H   0  0  0  0  0  0
  -28.1148  -36.2625   24.6207 H   0  0  0  0  0  0
  -27.2314  -37.1276   25.8857 H   0  0  0  0  0  0
  -20.9638  -29.8678   21.6592 H   0  0  0  0  0  0
  -26.0139  -38.2753   24.1458 H   0  0  0  0  0  0
  -31.4299  -17.6812   18.9753 H   0  0  0  0  0  0
  -30.7703  -22.6968   18.0268 H   0  0  0  0  0  0
  -32.1754  -22.3534   19.0535 H   0  0  0  0  0  0
  -30.8250  -23.1286   19.7437 H   0  0  0  0  0  0
  -35.0645  -19.6829   20.2115 H   0  0  0  0  0  0
  -33.3727  -19.8859   20.6412 H   0  0  0  0  0  0
  -34.2036  -21.1379   19.7165 H   0  0  0  0  0  0
  -30.6809  -19.0260   14.9471 H   0  0  0  0  0  0
  -30.8131  -20.6237   15.6779 H   0  0  0  0  0  0
  -29.9171  -19.3462   16.4970 H   0  0  0  0  0  0
  -29.1801  -22.6984   21.5204 H   0  0  0  0  0  0
  -27.6304  -22.1465   21.0711 H   0  0  0  0  0  0
  -33.6347  -18.2929   18.7284 H   0  0  0  0  0  0
  -34.5087  -19.4900   17.8188 H   0  0  0  0  0  0
  -32.9295  -19.2342   15.9226 H   0  0  0  0  0  0
  -32.0289  -18.0406   16.8019 H   0  0  0  0  0  0
  -27.2683  -23.9710   19.3881 H   0  0  0  0  0  0
  -28.9147  -24.1583   19.0554 H   0  0  0  0  0  0
  -32.5680  -20.8987   17.6005 H   0  0  0  0  0  0
  -28.6853  -16.4089   20.8067 H   0  0  0  0  0  0
  1 25  1  0  0  0
  1 30  2  0  0  0
  1 85  1  0  0  0
  2  3  1  0  0  0
  2 25  1  0  0  0
  2 86  1  0  0  0
  2 87  1  0  0  0
  3  4  1  0  0  0
  3 88  1  0  0  0
  3 89  1  0  0  0
  4  5  1  0  0  0
  4 90  1  0  0  0
  4 91  1  0  0  0
  5  6  1  0  0  0
  5 26  1  0  0  0
  5 92  1  0  0  0
  6 25  1  0  0  0
  6 93  1  0  0  0
  6 94  1  0  0  0
  7  8  2  0  0  0
  7 26  1  0  0  0
  7 29  1  0  0  0
  8  9  1  0  0  0
  8 22  1  0  0  0
  9 10  1  0  0  0
  9 27  2  0  0  0
 10 11  2  0  0  0
 10 15  1  0  0  0
 11 12  1  0  0  0
 11 95  1  0  0  0
 12 13  2  0  0  0
 12 96  1  0  0  0
 13 14  1  0  0  0
 13 31  1  0  0  0
 14 15  2  0  0  0
 14 97  1  0  0  0
 15 98  1  0  0  0
 16 17  2  0  0  0
 16 21  1  0  0  0
 16 31  1  0  0  0
 17 18  1  0  0  0
 17 99  1  0  0  0
 18 19  2  0  0  0
 18100  1  0  0  0
 19 20  1  0  0  0
 19 24  1  0  0  0
 20 21  2  0  0  0
 20101  1  0  0  0
 21 23  1  0  0  0
 22 28  1  0  0  0
 22 32  2  0  0  0
 26 27  1  0  0  0
 28102  1  0  0  0
 28103  1  0  0  0
 29104  1  0  0  0
 29105  1  0  0  0
 33 34  1  0  0  0
 33 66  1  0  0  0
 33 70  2  0  0  0
 34 36  1  0  0  0
 34 59  1  0  0  0
 34106  1  0  0  0
 35 44  2  0  0  0
 35 45  1  0  0  0
 35 68  1  0  0  0
 36 56  1  0  0  0
 36107  1  0  0  0
 37 39  1  0  0  0
 37 47  1  0  0  0
 37 66  1  0  0  0
 37108  1  0  0  0
 38 43  2  0  0  0
 38 46  1  0  0  0
 38 47  1  0  0  0
 39 64  1  0  0  0
 39 67  2  0  0  0
 40 52  1  0  0  0
 40 53  2  0  0  0
 40 58  1  0  0  0
 41109  1  0  0  0
 41110  1  0  0  0
 41111  1  0  0  0
 41 48  1  0  0  0
 42 43  1  0  0  0
 42 66  1  0  0  0
 42112  1  0  0  0
 42113  1  0  0  0
 43 44  1  0  0  0
 44114  1  0  0  0
 45 46  2  0  0  0
 45115  1  0  0  0
 46116  1  0  0  0
 47117  1  0  0  0
 47118  1  0  0  0
 48 56  1  0  0  0
 48 65  1  0  0  0
 48119  1  0  0  0
 49 50  1  0  0  0
 49 53  1  0  0  0
 49 64  1  0  0  0
 49120  1  0  0  0
 50 51  1  0  0  0
 50121  1  0  0  0
 50122  1  0  0  0
 51 52  1  0  0  0
 51123  1  0  0  0
 51124  1  0  0  0
 52125  1  0  0  0
 52126  1  0  0  0
 53 54  1  0  0  0
 54 55  2  0  0  0
 54127  1  0  0  0
 55 57  1  0  0  0
 55128  1  0  0  0
 56 69  2  0  0  0
 57 58  2  0  0  0
 57129  1  0  0  0
 58130  1  0  0  0
 59 60  1  0  0  0
 59 61  1  0  0  0
 59 62  1  0  0  0
 60131  1  0  0  0
 60132  1  0  0  0
 60133  1  0  0  0
 61134  1  0  0  0
 61135  1  0  0  0
 61136  1  0  0  0
 62137  1  0  0  0
 62138  1  0  0  0
 62139  1  0  0  0
 63 65  1  0  0  0
 63140  1  0  0  0
 63141  1  0  0  0
 63142  1  0  0  0
 64143  1  0  0  0
 65144  1  0  0  0
 68 82  1  0  0  0
 71 72  2  0  0  0
 71 75  1  0  0  0
 71145  1  0  0  0
 72 73  1  0  0  0
 72 83  1  0  0  0
 73 74  2  0  0  0
 73 76  1  0  0  0
 74 79  1  0  0  0
 74 84  1  0  0  0
 75 84  2  0  0  0
 75 85  1  0  0  0
 76146  1  0  0  0
 76147  1  0  0  0
 76148  1  0  0  0
 77 80  1  0  0  0
 77149  1  0  0  0
 77150  1  0  0  0
 77151  1  0  0  0
 78 81  1  0  0  0
 78152  1  0  0  0
 78153  1  0  0  0
 78154  1  0  0  0
 79 82  1  0  0  0
 79155  1  0  0  0
 79156  1  0  0  0
 80157  1  0  0  0
 80158  1  0  0  0
 80 83  1  0  0  0
 81 83  1  0  0  0
 81159  1  0  0  0
 81160  1  0  0  0
 82161  1  0  0  0
 82162  1  0  0  0
 83163  1  0  0  0
 85164  1  0  0  0
M  ISO  4   1 100  68 101  82 101  85 100
M  END
> <chiral flag>
0

> <version>
0

> <s_m_source_file>
/data/baiqing/PycharmProjects/Reinvent-master-3.2/result/LINK_invent/BTK/process_docking_weight1_custom_sum_contain_oxygen_bond_distance_aromatic_linkinvent_7_9_3/rearranged_h_0103.sdf

> <i_m_source_file_index>
25

> <r_mmod_Potential_Energy-OPLS-2005>
1401.00378417969

> <r_mmod_Stretch_Energy-OPLS-2005>
712.463012695312

> <r_mmod_Bend_Energy-OPLS-2005>
488.916076660156

> <r_mmod_Torsional_Energy-OPLS-2005>
232.513381958008

> <r_mmod_Improper_Torsional_Energy-OPLS-2005>
4.10816621780396

> <r_mmod_Van_der_Waal_Energy-OPLS-2005>
134.296249389648

> <r_mmod_Electrostatic_Energy-OPLS-2005>
-493.499206542969

> <r_mmod_Solvation_Energy-OPLS-2005>
-222.516723632812

> <b_mmod_Minimization_Converged-OPLS-2005>
0

> <r_mmod_RMS_Derivative-OPLS-2005>
1.70233607292175

$$$$
25
                    3D
 Structure written by MMmdl.
177185  0  0  1  0            999 V2000
  -30.6786  -14.5414   20.5348 C   0  0  0  0  0  0
  -30.4203  -12.3382   19.4479 C   0  0  0  0  0  0
  -29.5030  -12.5082   18.2183 C   0  0  0  0  0  0
  -28.0229  -12.3633   18.6223 C   0  0  0  0  0  0
  -27.6563  -13.2139   19.8685 C   0  0  2  0  0  0
  -28.6954  -13.0414   21.0004 C   0  0  0  0  0  0
  -25.2581  -13.8158   20.5667 C   0  0  0  0  0  0
  -24.1863  -13.0435   20.9237 C   0  0  0  0  0  0
  -24.6411  -11.6897   20.8753 C   0  0  0  0  0  0
  -23.9071  -10.4286   21.0406 C   0  0  0  0  0  0
  -24.3624   -9.4203   21.9174 C   0  0  0  0  0  0
  -23.6292   -8.2239   22.0743 C   0  0  0  0  0  0
  -22.4264   -8.0291   21.3545 C   0  0  0  0  0  0
  -21.9914   -9.0263   20.4638 C   0  0  0  0  0  0
  -22.7247  -10.2136   20.3050 C   0  0  0  0  0  0
  -21.6847   -6.0736   22.5270 C   0  0  0  0  0  0
  -21.4022   -6.5631   23.8209 C   0  0  0  0  0  0
  -21.3660   -5.6779   24.9171 C   0  0  0  0  0  0
  -21.6051   -4.3046   24.7221 C   0  0  0  0  0  0
  -21.8821   -3.8144   23.4339 C   0  0  0  0  0  0
  -21.9198   -4.6961   22.3395 C   0  0  0  0  0  0
  -22.7893  -13.5236   21.1877 C   0  0  0  0  0  0
  -22.1661   -4.2150   21.0975 F   0  0  0  0  0  0
  -21.5636   -3.4525   25.7736 F   0  0  0  0  0  0
  -30.0184  -13.3506   20.4424 N   0  0  0  0  0  0
  -26.2994  -12.9337   20.3317 N   0  0  0  0  0  0
  -25.9332  -11.6488   20.5742 N   0  0  0  0  0  0
  -22.0516  -12.8220   22.0398 N   0  0  0  0  0  0
  -25.4290  -15.1863   20.3930 N   0  0  0  0  0  0
  -31.8329  -14.6784   20.1233 O   0  0  0  0  0  0
  -21.6635   -6.8883   21.4234 O   0  0  0  0  0  0
  -22.3610  -14.5552   20.6707 O   0  0  0  0  0  0
  -24.6200  -31.8642   23.2069 C   0  0  0  0  0  0
  -25.9072  -32.4802   23.8375 C   0  0  1  0  0  0
  -27.2187  -27.3759   20.1131 C   0  0  0  0  0  0
  -25.5913  -33.8602   24.2309 N   0  0  0  0  0  0
  -23.4111  -30.4897   21.5479 C   0  0  2  0  0  0
  -24.8570  -28.9543   20.1106 C   0  0  0  0  0  0
  -22.7440  -29.4642   22.4947 C   0  0  0  0  0  0
  -18.0285  -28.1374   22.8490 C   0  0  0  0  0  0
  -24.1495  -36.7306   23.2639 C   0  0  0  0  0  0
  -25.9471  -30.8145   21.3691 C   0  0  0  0  0  0
  -26.0232  -29.4465   20.7114 C   0  0  0  0  0  0
  -27.2113  -28.6677   20.7040 C   0  0  0  0  0  0
  -26.0379  -26.9239   19.4857 C   0  0  0  0  0  0
  -24.8619  -27.6948   19.4910 C   0  0  0  0  0  0
  -23.6226  -29.8268   20.1618 C   0  0  0  0  0  0
  -25.4118  -36.3101   24.0334 C   0  0  1  0  0  0
  -20.5881  -28.3673   23.1299 C   0  0  2  0  0  0
  -20.6780  -26.9399   22.5415 C   0  0  0  0  0  0
  -19.5759  -26.6373   21.5215 C   0  0  0  0  0  0
  -18.1935  -26.7918   22.1622 C   0  0  0  0  0  0
  -19.1536  -28.8840   23.2893 C   0  0  0  0  0  0
  -18.9454  -30.1443   23.8911 C   0  0  0  0  0  0
  -17.6455  -30.6581   24.0561 C   0  0  0  0  0  0
  -25.9044  -34.9467   23.5115 C   0  0  0  0  0  0
  -16.5349  -29.9081   23.6323 C   0  0  0  0  0  0
  -16.7270  -28.6496   23.0350 C   0  0  0  0  0  0
  -26.4481  -31.6592   25.0718 C   0  0  0  0  0  0
  -25.3734  -31.3710   26.1454 C   0  0  0  0  0  0
  -27.0314  -30.3027   24.6126 C   0  0  0  0  0  0
  -27.6047  -32.4319   25.7487 C   0  0  0  0  0  0
  -27.5582  -37.1812   24.8463 C   0  0  0  0  0  0
  -21.4161  -29.3042   22.3692 N   0  0  0  0  0  0
  -26.4301  -37.3785   23.9399 N   0  0  0  0  0  0
  -24.6782  -31.0709   22.0993 N   0  0  0  0  0  0
  -23.4195  -28.8177   23.2992 O   0  0  0  0  0  0
  -28.3304  -26.5429   20.1488 O   0  0  0  0  0  0
  -26.5602  -34.8918   22.4679 O   0  0  0  0  0  0
  -23.5379  -32.1412   23.7436 O   0  0  0  0  0  0
  -28.9423  -23.0836   19.4755 C   0  0  0  0  0  0
  -28.9363  -21.6345   19.4869 C   0  0  0  0  0  0
  -28.7502  -23.4348   18.1603 C   0  0  0  0  0  0
  -28.6578  -21.1715   18.2246 C   0  0  0  0  0  0
  -28.6882  -24.8009   17.5394 C   0  0  0  0  0  0
  -28.4484  -19.7838   17.6844 C   0  0  0  0  0  0
  -29.1107  -22.4047   13.5747 C   0  0  0  0  0  0
  -30.5347  -21.2013   15.2876 C   0  0  0  0  0  0
  -29.1430  -24.0914   20.6257 C   0  0  0  0  0  0
  -28.2760  -22.2666   15.9570 C   0  0  0  0  0  0
  -30.0711  -19.6510   20.4883 C   0  0  0  0  0  0
  -30.3940  -17.0270   20.5534 C   0  0  0  0  0  0
  -28.0858  -25.2449   20.7765 C   0  0  0  0  0  0
  -29.5292  -22.3425   15.0526 C   0  0  0  0  0  0
  -29.5961  -18.2771   21.0991 C   0  0  2  0  0  0
  -28.5649  -22.2844   17.3963 N   0  0  0  0  0  0
  -29.1139  -20.7857   20.6100 N   0  0  0  0  0  0
  -29.9457  -15.6365   20.8780 N   0  0  0  0  0  0
  -28.1383  -18.1723   20.9570 N   0  3  0  0  0  0
  -31.4675  -12.4305   19.1546 H   0  0  0  0  0  0
  -30.3197  -11.3350   19.8656 H   0  0  0  0  0  0
  -29.7565  -11.7740   17.4525 H   0  0  0  0  0  0
  -29.6699  -13.4882   17.7673 H   0  0  0  0  0  0
  -27.8360  -11.3083   18.8218 H   0  0  0  0  0  0
  -27.3799  -12.6338   17.7850 H   0  0  0  0  0  0
  -27.6873  -14.2560   19.5513 H   0  0  0  0  0  0
  -28.6822  -12.0180   21.3786 H   0  0  0  0  0  0
  -28.4554  -13.6762   21.8546 H   0  0  0  0  0  0
  -25.2772   -9.5664   22.4741 H   0  0  0  0  0  0
  -24.0005   -7.4618   22.7442 H   0  0  0  0  0  0
  -21.0860   -8.8787   19.8924 H   0  0  0  0  0  0
  -22.3723  -10.9684   19.6157 H   0  0  0  0  0  0
  -21.2009   -7.6135   23.9723 H   0  0  0  0  0  0
  -21.1482   -6.0498   25.9072 H   0  0  0  0  0  0
  -22.0603   -2.7605   23.2833 H   0  0  0  0  0  0
  -22.4141  -11.9902   22.4825 H   0  0  0  0  0  0
  -21.1106  -13.1215   22.2547 H   0  0  0  0  0  0
  -24.5992  -15.7691   20.3838 H   0  0  0  0  0  0
  -26.1348  -15.5126   19.7463 H   0  0  0  0  0  0
  -26.7136  -32.5500   23.1125 H   0  0  0  0  0  0
  -25.0069  -33.9759   25.0457 H   0  0  0  0  0  0
  -22.7020  -31.3088   21.4087 H   0  0  0  0  0  0
  -23.3749  -35.9646   23.3317 H   0  0  0  0  0  0
  -24.3581  -36.8906   22.2049 H   0  0  0  0  0  0
  -23.7253  -37.6519   23.6645 H   0  0  0  0  0  0
  -26.0697  -31.5813   20.6033 H   0  0  0  0  0  0
  -26.8308  -30.8633   21.9935 H   0  0  0  0  0  0
  -28.1086  -29.0377   21.1810 H   0  0  0  0  0  0
  -26.0106  -25.9609   18.9982 H   0  0  0  0  0  0
  -23.9673  -27.3132   19.0194 H   0  0  0  0  0  0
  -23.7377  -30.6052   19.4065 H   0  0  0  0  0  0
  -22.7441  -29.2534   19.8603 H   0  0  0  0  0  0
  -25.1299  -36.1965   25.0826 H   0  0  0  0  0  0
  -20.9979  -28.3249   24.1415 H   0  0  0  0  0  0
  -20.5690  -26.2277   23.3606 H   0  0  0  0  0  0
  -21.6649  -26.7438   22.1207 H   0  0  0  0  0  0
  -19.6920  -25.6285   21.1244 H   0  0  0  0  0  0
  -19.6704  -27.3184   20.6748 H   0  0  0  0  0  0
  -17.4206  -26.6669   21.4021 H   0  0  0  0  0  0
  -18.0333  -26.0061   22.9017 H   0  0  0  0  0  0
  -19.7931  -30.7253   24.2293 H   0  0  0  0  0  0
  -17.5009  -31.6264   24.5154 H   0  0  0  0  0  0
  -15.5351  -30.2984   23.7635 H   0  0  0  0  0  0
  -15.8670  -28.0813   22.7059 H   0  0  0  0  0  0
  -24.5908  -30.7058   25.7780 H   0  0  0  0  0  0
  -24.8924  -32.2870   26.4897 H   0  0  0  0  0  0
  -25.8075  -30.8873   27.0213 H   0  0  0  0  0  0
  -26.2868  -29.6788   24.1166 H   0  0  0  0  0  0
  -27.4046  -29.7266   25.4603 H   0  0  0  0  0  0
  -27.8724  -30.4324   23.9310 H   0  0  0  0  0  0
  -27.2659  -33.3610   26.2082 H   0  0  0  0  0  0
  -28.3853  -32.6893   25.0316 H   0  0  0  0  0  0
  -28.0720  -31.8433   26.5391 H   0  0  0  0  0  0
  -28.2611  -38.0101   24.7499 H   0  0  0  0  0  0
  -28.1072  -36.2629   24.6315 H   0  0  0  0  0  0
  -27.2292  -37.1491   25.8866 H   0  0  0  0  0  0
  -20.9313  -29.8766   21.6923 H   0  0  0  0  0  0
  -26.0192  -38.2867   24.1385 H   0  0  0  0  0  0
  -29.3283  -25.5030   18.0707 H   0  0  0  0  0  0
  -27.6709  -25.1896   17.5619 H   0  0  0  0  0  0
  -29.0186  -24.8102   16.5038 H   0  0  0  0  0  0
  -28.3040  -19.0618   18.4788 H   0  0  0  0  0  0
  -29.3053  -19.4509   17.1020 H   0  0  0  0  0  0
  -27.5580  -19.7135   17.0628 H   0  0  0  0  0  0
  -29.9716  -22.5412   12.9200 H   0  0  0  0  0  0
  -28.4303  -23.2377   13.3952 H   0  0  0  0  0  0
  -28.5994  -21.4915   13.2688 H   0  0  0  0  0  0
  -31.4248  -21.3269   14.6717 H   0  0  0  0  0  0
  -30.1014  -20.2309   15.0456 H   0  0  0  0  0  0
  -30.8704  -21.1711   16.3242 H   0  0  0  0  0  0
  -30.1463  -24.5138   20.5707 H   0  0  0  0  0  0
  -29.1247  -23.5071   21.5465 H   0  0  0  0  0  0
  -27.6973  -21.3811   15.7030 H   0  0  0  0  0  0
  -27.6061  -23.0970   15.7325 H   0  0  0  0  0  0
  -30.3497  -19.5047   19.4453 H   0  0  0  0  0  0
  -31.0034  -19.9422   20.9749 H   0  0  0  0  0  0
  -31.4330  -17.1385   20.8718 H   0  0  0  0  0  0
  -30.4196  -17.0917   19.4640 H   0  0  0  0  0  0
  -28.0247  -25.4731   21.8412 H   0  0  0  0  0  0
  -27.1093  -24.8284   20.5307 H   0  0  0  0  0  0
  -30.0518  -23.2712   15.2779 H   0  0  0  0  0  0
  -29.7705  -18.3296   22.1754 H   0  0  0  0  0  0
  -29.2315  -21.3016   21.4791 H   0  0  0  0  0  0
  -29.0053  -15.4772   21.2045 H   0  0  0  0  0  0
  -27.8709  -17.8901   20.0319 H   0  0  0  0  0  0
  -27.8074  -19.1160   21.1001 H   0  0  0  0  0  0
  -27.7301  -17.5676   21.6459 H   0  0  0  0  0  0
  1 25  1  0  0  0
  1 30  2  0  0  0
  1 88  1  0  0  0
  2  3  1  0  0  0
  2 25  1  0  0  0
  2 90  1  0  0  0
  2 91  1  0  0  0
  3  4  1  0  0  0
  3 92  1  0  0  0
  3 93  1  0  0  0
  4  5  1  0  0  0
  4 94  1  0  0  0
  4 95  1  0  0  0
  5  6  1  0  0  0
  5 26  1  0  0  0
  5 96  1  0  0  0
  6 25  1  0  0  0
  6 97  1  0  0  0
  6 98  1  0  0  0
  7  8  2  0  0  0
  7 26  1  0  0  0
  7 29  1  0  0  0
  8  9  1  0  0  0
  8 22  1  0  0  0
  9 10  1  0  0  0
  9 27  2  0  0  0
 10 11  2  0  0  0
 10 15  1  0  0  0
 11 12  1  0  0  0
 11 99  1  0  0  0
 12 13  2  0  0  0
 12100  1  0  0  0
 13 14  1  0  0  0
 13 31  1  0  0  0
 14 15  2  0  0  0
 14101  1  0  0  0
 15102  1  0  0  0
 16 17  2  0  0  0
 16 21  1  0  0  0
 16 31  1  0  0  0
 17 18  1  0  0  0
 17103  1  0  0  0
 18 19  2  0  0  0
 18104  1  0  0  0
 19 20  1  0  0  0
 19 24  1  0  0  0
 20 21  2  0  0  0
 20105  1  0  0  0
 21 23  1  0  0  0
 22 28  1  0  0  0
 22 32  2  0  0  0
 26 27  1  0  0  0
 28106  1  0  0  0
 28107  1  0  0  0
 29108  1  0  0  0
 29109  1  0  0  0
 33 34  1  0  0  0
 33 66  1  0  0  0
 33 70  2  0  0  0
 34 36  1  0  0  0
 34 59  1  0  0  0
 34110  1  0  0  0
 35 44  2  0  0  0
 35 45  1  0  0  0
 35 68  1  0  0  0
 36 56  1  0  0  0
 36111  1  0  0  0
 37 39  1  0  0  0
 37 47  1  0  0  0
 37 66  1  0  0  0
 37112  1  0  0  0
 38 43  2  0  0  0
 38 46  1  0  0  0
 38 47  1  0  0  0
 39 64  1  0  0  0
 39 67  2  0  0  0
 40 52  1  0  0  0
 40 53  2  0  0  0
 40 58  1  0  0  0
 41113  1  0  0  0
 41114  1  0  0  0
 41115  1  0  0  0
 41 48  1  0  0  0
 42 43  1  0  0  0
 42 66  1  0  0  0
 42116  1  0  0  0
 42117  1  0  0  0
 43 44  1  0  0  0
 44118  1  0  0  0
 45 46  2  0  0  0
 45119  1  0  0  0
 46120  1  0  0  0
 47121  1  0  0  0
 47122  1  0  0  0
 48 56  1  0  0  0
 48 65  1  0  0  0
 48123  1  0  0  0
 49 50  1  0  0  0
 49 53  1  0  0  0
 49 64  1  0  0  0
 49124  1  0  0  0
 50 51  1  0  0  0
 50125  1  0  0  0
 50126  1  0  0  0
 51 52  1  0  0  0
 51127  1  0  0  0
 51128  1  0  0  0
 52129  1  0  0  0
 52130  1  0  0  0
 53 54  1  0  0  0
 54 55  2  0  0  0
 54131  1  0  0  0
 55 57  1  0  0  0
 55132  1  0  0  0
 56 69  2  0  0  0
 57 58  2  0  0  0
 57133  1  0  0  0
 58134  1  0  0  0
 59 60  1  0  0  0
 59 61  1  0  0  0
 59 62  1  0  0  0
 60135  1  0  0  0
 60136  1  0  0  0
 60137  1  0  0  0
 61138  1  0  0  0
 61139  1  0  0  0
 61140  1  0  0  0
 62141  1  0  0  0
 62142  1  0  0  0
 62143  1  0  0  0
 63 65  1  0  0  0
 63144  1  0  0  0
 63145  1  0  0  0
 63146  1  0  0  0
 64147  1  0  0  0
 65148  1  0  0  0
 68 83  1  0  0  0
 71 72  1  0  0  0
 71 73  2  0  0  0
 71 79  1  0  0  0
 72 74  2  0  0  0
 72 87  1  0  0  0
 73 75  1  0  0  0
 73 86  1  0  0  0
 74 76  1  0  0  0
 74 86  1  0  0  0
 75149  1  0  0  0
 75150  1  0  0  0
 75151  1  0  0  0
 76152  1  0  0  0
 76153  1  0  0  0
 76154  1  0  0  0
 77155  1  0  0  0
 77156  1  0  0  0
 77157  1  0  0  0
 77 84  1  0  0  0
 78 84  1  0  0  0
 78158  1  0  0  0
 78159  1  0  0  0
 78160  1  0  0  0
 79 83  1  0  0  0
 79161  1  0  0  0
 79162  1  0  0  0
 80 84  1  0  0  0
 80 86  1  0  0  0
 80163  1  0  0  0
 80164  1  0  0  0
 81 85  1  0  0  0
 81 87  1  0  0  0
 81165  1  0  0  0
 81166  1  0  0  0
 82 85  1  0  0  0
 82 88  1  0  0  0
 82167  1  0  0  0
 82168  1  0  0  0
 83169  1  0  0  0
 83170  1  0  0  0
 84171  1  0  0  0
 85 89  1  0  0  0
 85172  1  0  0  0
 87173  1  0  0  0
 88174  1  0  0  0
 89175  1  0  0  0
 89176  1  0  0  0
 89177  1  0  0  0
M  CHG  1  89   1
M  ISO  4   1 100  68 101  83 101  88 100
M  END
> <chiral flag>
0

> <version>
0

> <s_m_source_file>
/data/baiqing/PycharmProjects/Reinvent-master-3.2/result/LINK_invent/BTK/process_docking_weight1_custom_sum_contain_oxygen_bond_distance_aromatic_linkinvent_7_9_3/rearranged_h_0103.sdf

> <i_m_source_file_index>
26

> <r_mmod_Potential_Energy-OPLS-2005>
-341.274963378906

> <r_mmod_Stretch_Energy-OPLS-2005>
58.2381057739258

> <r_mmod_Bend_Energy-OPLS-2005>
131.852691650391

> <r_mmod_Torsional_Energy-OPLS-2005>
312.043914794922

> <r_mmod_Improper_Torsional_Energy-OPLS-2005>
13.3124122619629

> <r_mmod_Van_der_Waal_Energy-OPLS-2005>
130.69303894043

> <r_mmod_Electrostatic_Energy-OPLS-2005>
-528.733459472656

> <r_mmod_Solvation_Energy-OPLS-2005>
-485.742492675781

> <b_mmod_Minimization_Converged-OPLS-2005>
0

> <r_mmod_RMS_Derivative-OPLS-2005>
2.06885409355164

$$$$
26
                    3D
 Structure written by MMmdl.
167174  0  0  1  0            999 V2000
  -30.7391  -14.4003   20.6229 C   0  0  0  0  0  0
  -30.4227  -12.2879   19.4009 C   0  0  0  0  0  0
  -29.4894  -12.5089   18.1939 C   0  0  0  0  0  0
  -28.0129  -12.3687   18.6161 C   0  0  0  0  0  0
  -27.6665  -13.2001   19.8807 C   0  0  2  0  0  0
  -28.7079  -12.9515   20.9942 C   0  0  0  0  0  0
  -25.2620  -13.8153   20.5682 C   0  0  0  0  0  0
  -24.1846  -13.0448   20.9144 C   0  0  0  0  0  0
  -24.6396  -11.6901   20.8712 C   0  0  0  0  0  0
  -23.9049  -10.4296   21.0398 C   0  0  0  0  0  0
  -24.3594   -9.4216   21.9185 C   0  0  0  0  0  0
  -23.6276   -8.2249   22.0755 C   0  0  0  0  0  0
  -22.4267   -8.0276   21.3544 C   0  0  0  0  0  0
  -21.9900   -9.0250   20.4649 C   0  0  0  0  0  0
  -22.7223  -10.2131   20.3062 C   0  0  0  0  0  0
  -21.6853   -6.0707   22.5275 C   0  0  0  0  0  0
  -21.4005   -6.5617   23.8200 C   0  0  0  0  0  0
  -21.3667   -5.6783   24.9168 C   0  0  0  0  0  0
  -21.6054   -4.3048   24.7230 C   0  0  0  0  0  0
  -21.8825   -3.8130   23.4360 C   0  0  0  0  0  0
  -21.9193   -4.6932   22.3406 C   0  0  0  0  0  0
  -22.7881  -13.5251   21.1812 C   0  0  0  0  0  0
  -22.1661   -4.2122   21.0980 F   0  0  0  0  0  0
  -21.5641   -3.4535   25.7746 F   0  0  0  0  0  0
  -30.0435  -13.2478   20.4472 N   0  0  0  0  0  0
  -26.3054  -12.9311   20.3416 N   0  0  0  0  0  0
  -25.9315  -11.6469   20.5767 N   0  0  0  0  0  0
  -22.0493  -12.8263   22.0373 N   0  0  0  0  0  0
  -25.4377  -15.1865   20.4056 N   0  0  0  0  0  0
  -31.8088  -14.6360   20.0542 O   0  0  0  0  0  0
  -21.6642   -6.8864   21.4245 O   0  0  0  0  0  0
  -22.3567  -14.5557   20.6646 O   0  0  0  0  0  0
  -24.6113  -31.8713   23.2149 C   0  0  0  0  0  0
  -25.9038  -32.4820   23.8423 C   0  0  1  0  0  0
  -27.2456  -27.4716   20.0800 C   0  0  0  0  0  0
  -25.5943  -33.8624   24.2374 N   0  0  0  0  0  0
  -23.3973  -30.4977   21.5504 C   0  0  2  0  0  0
  -24.8452  -28.9672   20.1085 C   0  0  0  0  0  0
  -22.7394  -29.4690   22.4962 C   0  0  0  0  0  0
  -18.0272  -28.1369   22.8511 C   0  0  0  0  0  0
  -24.1476  -36.7264   23.2643 C   0  0  0  0  0  0
  -25.9202  -30.8414   21.3691 C   0  0  0  0  0  0
  -25.9964  -29.4800   20.7126 C   0  0  0  0  0  0
  -27.1917  -28.7359   20.7052 C   0  0  0  0  0  0
  -26.0770  -26.9622   19.4665 C   0  0  0  0  0  0
  -24.8790  -27.7054   19.4846 C   0  0  0  0  0  0
  -23.6062  -29.8334   20.1623 C   0  0  0  0  0  0
  -25.4102  -36.3106   24.0346 C   0  0  1  0  0  0
  -20.5865  -28.3673   23.1294 C   0  0  2  0  0  0
  -20.6766  -26.9415   22.5397 C   0  0  0  0  0  0
  -19.5734  -26.6396   21.5210 C   0  0  0  0  0  0
  -18.1909  -26.7920   22.1624 C   0  0  0  0  0  0
  -19.1526  -28.8834   23.2914 C   0  0  0  0  0  0
  -18.9467  -30.1438   23.8926 C   0  0  0  0  0  0
  -17.6468  -30.6587   24.0568 C   0  0  0  0  0  0
  -25.9042  -34.9470   23.5149 C   0  0  0  0  0  0
  -16.5356  -29.9090   23.6322 C   0  0  0  0  0  0
  -16.7264  -28.6503   23.0359 C   0  0  0  0  0  0
  -26.4508  -31.6578   25.0720 C   0  0  0  0  0  0
  -25.3810  -31.3638   26.1488 C   0  0  0  0  0  0
  -27.0348  -30.3034   24.6051 C   0  0  0  0  0  0
  -27.6107  -32.4293   25.7458 C   0  0  0  0  0  0
  -27.5559  -37.1788   24.8484 C   0  0  0  0  0  0
  -21.4125  -29.3056   22.3702 N   0  0  0  0  0  0
  -26.4273  -37.3800   23.9439 N   0  0  0  0  0  0
  -24.6597  -31.0837   22.1038 N   0  0  0  0  0  0
  -23.4173  -28.8254   23.3022 O   0  0  0  0  0  0
  -28.4510  -26.8067   20.1235 O   0  0  0  0  0  0
  -26.5561  -34.8918   22.4682 O   0  0  0  0  0  0
  -23.5324  -32.1467   23.7558 O   0  0  0  0  0  0
  -27.6803  -24.6309   21.6580 C   0  0  0  0  0  0
  -30.5472  -23.2952   18.1202 C   0  0  0  0  0  0
  -28.4530  -21.9333   18.1663 C   0  0  0  0  0  0
  -29.8066  -17.7183   20.8613 C   0  0  0  0  0  0
  -29.1879  -23.1617   20.3060 C   0  0  0  0  0  0
  -30.6516  -16.6769   21.6208 C   0  0  0  0  0  0
  -30.5635  -19.0498   20.6882 C   0  0  0  0  0  0
  -30.5215  -21.2010   19.4641 C   0  0  0  0  0  0
  -28.6409  -25.5607   19.4570 C   0  0  0  0  0  0
  -28.1392  -24.3056   20.2232 C   0  0  2  0  0  0
  -29.6504  -22.4115   19.0171 C   0  0  0  0  0  0
  -30.1562  -15.3148   21.4099 N   0  0  0  0  0  0
  -29.7357  -20.0905   20.0469 N   0  3  0  0  0  0
  -31.4666  -12.3917   19.0953 H   0  0  0  0  0  0
  -30.3236  -11.2691   19.7810 H   0  0  0  0  0  0
  -29.7190  -11.7887   17.4080 H   0  0  0  0  0  0
  -29.6635  -13.4963   17.7633 H   0  0  0  0  0  0
  -27.8249  -11.3101   18.8077 H   0  0  0  0  0  0
  -27.3565  -12.6499   17.7919 H   0  0  0  0  0  0
  -27.7227  -14.2516   19.6001 H   0  0  0  0  0  0
  -28.6766  -11.9081   21.3101 H   0  0  0  0  0  0
  -28.4664  -13.5281   21.8873 H   0  0  0  0  0  0
  -25.2729   -9.5683   22.4760 H   0  0  0  0  0  0
  -23.9979   -7.4641   22.7474 H   0  0  0  0  0  0
  -21.0833   -8.8760   19.8950 H   0  0  0  0  0  0
  -22.3680  -10.9656   19.6165 H   0  0  0  0  0  0
  -21.1986   -7.6126   23.9694 H   0  0  0  0  0  0
  -21.1487   -6.0511   25.9068 H   0  0  0  0  0  0
  -22.0602   -2.7591   23.2868 H   0  0  0  0  0  0
  -22.4075  -11.9928   22.4808 H   0  0  0  0  0  0
  -21.1113  -13.1308   22.2524 H   0  0  0  0  0  0
  -24.6763  -15.8507   20.4961 H   0  0  0  0  0  0
  -26.3050  -15.6183   20.1105 H   0  0  0  0  0  0
  -26.7095  -32.5539   23.1180 H   0  0  0  0  0  0
  -25.0266  -33.9804   25.0630 H   0  0  0  0  0  0
  -22.6845  -31.3131   21.4136 H   0  0  0  0  0  0
  -23.3752  -35.9580   23.3346 H   0  0  0  0  0  0
  -24.3583  -36.8828   22.2051 H   0  0  0  0  0  0
  -23.7185  -37.6468   23.6614 H   0  0  0  0  0  0
  -26.0337  -31.6128   20.6054 H   0  0  0  0  0  0
  -26.8080  -30.8908   21.9865 H   0  0  0  0  0  0
  -28.0757  -29.1346   21.1845 H   0  0  0  0  0  0
  -26.0738  -26.0001   18.9742 H   0  0  0  0  0  0
  -23.9939  -27.3038   19.0110 H   0  0  0  0  0  0
  -23.7167  -30.6169   19.4101 H   0  0  0  0  0  0
  -22.7285  -29.2606   19.8618 H   0  0  0  0  0  0
  -25.1260  -36.1986   25.0828 H   0  0  0  0  0  0
  -20.9960  -28.3254   24.1409 H   0  0  0  0  0  0
  -20.5681  -26.2304   23.3607 H   0  0  0  0  0  0
  -21.6628  -26.7462   22.1175 H   0  0  0  0  0  0
  -19.6907  -25.6327   21.1216 H   0  0  0  0  0  0
  -19.6644  -27.3228   20.6765 H   0  0  0  0  0  0
  -17.4184  -26.6702   21.4015 H   0  0  0  0  0  0
  -18.0291  -26.0030   22.8989 H   0  0  0  0  0  0
  -19.7941  -30.7247   24.2296 H   0  0  0  0  0  0
  -17.5025  -31.6262   24.5184 H   0  0  0  0  0  0
  -15.5357  -30.3005   23.7627 H   0  0  0  0  0  0
  -15.8660  -28.0828   22.7050 H   0  0  0  0  0  0
  -24.5996  -30.6966   25.7835 H   0  0  0  0  0  0
  -24.8977  -32.2770   26.4981 H   0  0  0  0  0  0
  -25.8203  -30.8794   27.0222 H   0  0  0  0  0  0
  -26.2861  -29.6747   24.1203 H   0  0  0  0  0  0
  -27.4283  -29.7300   25.4461 H   0  0  0  0  0  0
  -27.8632  -30.4394   23.9086 H   0  0  0  0  0  0
  -27.2759  -33.3595   26.2068 H   0  0  0  0  0  0
  -28.3884  -32.6856   25.0244 H   0  0  0  0  0  0
  -28.0821  -31.8397   26.5338 H   0  0  0  0  0  0
  -28.2615  -38.0054   24.7521 H   0  0  0  0  0  0
  -28.1014  -36.2582   24.6326 H   0  0  0  0  0  0
  -27.2277  -37.1456   25.8892 H   0  0  0  0  0  0
  -20.9281  -29.8801   21.6938 H   0  0  0  0  0  0
  -26.0156  -38.2871   24.1468 H   0  0  0  0  0  0
  -27.3242  -23.7382   22.1740 H   0  0  0  0  0  0
  -26.8525  -25.3363   21.6685 H   0  0  0  0  0  0
  -28.4922  -25.0533   22.2522 H   0  0  0  0  0  0
  -29.9878  -24.0743   17.6054 H   0  0  0  0  0  0
  -31.0204  -22.7071   17.3311 H   0  0  0  0  0  0
  -31.3473  -23.7761   18.6847 H   0  0  0  0  0  0
  -27.7244  -21.3696   18.7478 H   0  0  0  0  0  0
  -28.7823  -21.2912   17.3465 H   0  0  0  0  0  0
  -27.9194  -22.7745   17.7211 H   0  0  0  0  0  0
  -28.8666  -17.8743   21.3943 H   0  0  0  0  0  0
  -29.5411  -17.3392   19.8722 H   0  0  0  0  0  0
  -28.7695  -22.4113   20.9778 H   0  0  0  0  0  0
  -30.0642  -23.5409   20.8367 H   0  0  0  0  0  0
  -31.6958  -16.7607   21.3119 H   0  0  0  0  0  0
  -30.6393  -16.8962   22.6899 H   0  0  0  0  0  0
  -31.4477  -18.8723   20.0725 H   0  0  0  0  0  0
  -30.9209  -19.4231   21.6492 H   0  0  0  0  0  0
  -31.2680  -21.5368   20.1869 H   0  0  0  0  0  0
  -31.0800  -20.7971   18.6182 H   0  0  0  0  0  0
  -29.7225  -25.4995   19.3528 H   0  0  0  0  0  0
  -28.2539  -25.5882   18.4369 H   0  0  0  0  0  0
  -27.2584  -23.9313   19.7019 H   0  0  0  0  0  0
  -29.2864  -15.0545   21.8513 H   0  0  0  0  0  0
  -29.0871  -20.4541   20.7278 H   0  0  0  0  0  0
  -29.2052  -19.6708   19.3004 H   0  0  0  0  0  0
  1 25  1  0  0  0
  1 30  2  0  0  0
  1 82  1  0  0  0
  2  3  1  0  0  0
  2 25  1  0  0  0
  2 84  1  0  0  0
  2 85  1  0  0  0
  3  4  1  0  0  0
  3 86  1  0  0  0
  3 87  1  0  0  0
  4  5  1  0  0  0
  4 88  1  0  0  0
  4 89  1  0  0  0
  5  6  1  0  0  0
  5 26  1  0  0  0
  5 90  1  0  0  0
  6 25  1  0  0  0
  6 91  1  0  0  0
  6 92  1  0  0  0
  7  8  2  0  0  0
  7 26  1  0  0  0
  7 29  1  0  0  0
  8  9  1  0  0  0
  8 22  1  0  0  0
  9 10  1  0  0  0
  9 27  2  0  0  0
 10 11  2  0  0  0
 10 15  1  0  0  0
 11 12  1  0  0  0
 11 93  1  0  0  0
 12 13  2  0  0  0
 12 94  1  0  0  0
 13 14  1  0  0  0
 13 31  1  0  0  0
 14 15  2  0  0  0
 14 95  1  0  0  0
 15 96  1  0  0  0
 16 17  2  0  0  0
 16 21  1  0  0  0
 16 31  1  0  0  0
 17 18  1  0  0  0
 17 97  1  0  0  0
 18 19  2  0  0  0
 18 98  1  0  0  0
 19 20  1  0  0  0
 19 24  1  0  0  0
 20 21  2  0  0  0
 20 99  1  0  0  0
 21 23  1  0  0  0
 22 28  1  0  0  0
 22 32  2  0  0  0
 26 27  1  0  0  0
 28100  1  0  0  0
 28101  1  0  0  0
 29102  1  0  0  0
 29103  1  0  0  0
 33 34  1  0  0  0
 33 66  1  0  0  0
 33 70  2  0  0  0
 34 36  1  0  0  0
 34 59  1  0  0  0
 34104  1  0  0  0
 35 44  2  0  0  0
 35 45  1  0  0  0
 35 68  1  0  0  0
 36 56  1  0  0  0
 36105  1  0  0  0
 37 39  1  0  0  0
 37 47  1  0  0  0
 37 66  1  0  0  0
 37106  1  0  0  0
 38 43  2  0  0  0
 38 46  1  0  0  0
 38 47  1  0  0  0
 39 64  1  0  0  0
 39 67  2  0  0  0
 40 52  1  0  0  0
 40 53  2  0  0  0
 40 58  1  0  0  0
 41107  1  0  0  0
 41108  1  0  0  0
 41109  1  0  0  0
 41 48  1  0  0  0
 42 43  1  0  0  0
 42 66  1  0  0  0
 42110  1  0  0  0
 42111  1  0  0  0
 43 44  1  0  0  0
 44112  1  0  0  0
 45 46  2  0  0  0
 45113  1  0  0  0
 46114  1  0  0  0
 47115  1  0  0  0
 47116  1  0  0  0
 48 56  1  0  0  0
 48 65  1  0  0  0
 48117  1  0  0  0
 49 50  1  0  0  0
 49 53  1  0  0  0
 49 64  1  0  0  0
 49118  1  0  0  0
 50 51  1  0  0  0
 50119  1  0  0  0
 50120  1  0  0  0
 51 52  1  0  0  0
 51121  1  0  0  0
 51122  1  0  0  0
 52123  1  0  0  0
 52124  1  0  0  0
 53 54  1  0  0  0
 54 55  2  0  0  0
 54125  1  0  0  0
 55 57  1  0  0  0
 55126  1  0  0  0
 56 69  2  0  0  0
 57 58  2  0  0  0
 57127  1  0  0  0
 58128  1  0  0  0
 59 60  1  0  0  0
 59 61  1  0  0  0
 59 62  1  0  0  0
 60129  1  0  0  0
 60130  1  0  0  0
 60131  1  0  0  0
 61132  1  0  0  0
 61133  1  0  0  0
 61134  1  0  0  0
 62135  1  0  0  0
 62136  1  0  0  0
 62137  1  0  0  0
 63 65  1  0  0  0
 63138  1  0  0  0
 63139  1  0  0  0
 63140  1  0  0  0
 64141  1  0  0  0
 65142  1  0  0  0
 68 79  1  0  0  0
 71143  1  0  0  0
 71144  1  0  0  0
 71145  1  0  0  0
 71 80  1  0  0  0
 72146  1  0  0  0
 72147  1  0  0  0
 72148  1  0  0  0
 72 81  1  0  0  0
 73 81  1  0  0  0
 73149  1  0  0  0
 73150  1  0  0  0
 73151  1  0  0  0
 74 76  1  0  0  0
 74 77  1  0  0  0
 74152  1  0  0  0
 74153  1  0  0  0
 75 80  1  0  0  0
 75 81  1  0  0  0
 75154  1  0  0  0
 75155  1  0  0  0
 76 82  1  0  0  0
 76156  1  0  0  0
 76157  1  0  0  0
 77 83  1  0  0  0
 77158  1  0  0  0
 77159  1  0  0  0
 78 81  1  0  0  0
 78 83  1  0  0  0
 78160  1  0  0  0
 78161  1  0  0  0
 79 80  1  0  0  0
 79162  1  0  0  0
 79163  1  0  0  0
 80164  1  0  0  0
 82165  1  0  0  0
 83166  1  0  0  0
 83167  1  0  0  0
M  CHG  1  83   1
M  ISO  4   1 100  68 101  79 101  82 100
M  END
> <chiral flag>
0

> <version>
0

> <s_m_source_file>
/data/baiqing/PycharmProjects/Reinvent-master-3.2/result/LINK_invent/BTK/process_docking_weight1_custom_sum_contain_oxygen_bond_distance_aromatic_linkinvent_7_9_3/rearranged_h_0103.sdf

> <i_m_source_file_index>
27

> <r_mmod_Potential_Energy-OPLS-2005>
-186.349884033203

> <r_mmod_Stretch_Energy-OPLS-2005>
33.7825622558594

> <r_mmod_Bend_Energy-OPLS-2005>
116.937423706055

> <r_mmod_Torsional_Energy-OPLS-2005>
228.325988769531

> <r_mmod_Improper_Torsional_Energy-OPLS-2005>
1.97437334060669

> <r_mmod_Van_der_Waal_Energy-OPLS-2005>
145.856246948242

> <r_mmod_Electrostatic_Energy-OPLS-2005>
-264.657531738281

> <r_mmod_Solvation_Energy-OPLS-2005>
-457.987945556641

> <b_mmod_Minimization_Converged-OPLS-2005>
0

> <r_mmod_RMS_Derivative-OPLS-2005>
3.24932241439819

$$$$
27
                    3D
 Structure written by MMmdl.
161169  0  0  1  0            999 V2000
  -30.5477  -15.0083   20.3858 C   0  0  0  0  0  0
  -30.4558  -12.6159   19.5074 C   0  0  0  0  0  0
  -29.5385  -12.4472   18.2726 C   0  0  0  0  0  0
  -28.0631  -12.2792   18.6900 C   0  0  0  0  0  0
  -27.6271  -13.2433   19.8254 C   0  0  2  0  0  0
  -28.6740  -13.3333   20.9552 C   0  0  0  0  0  0
  -25.2490  -13.8228   20.5697 C   0  0  0  0  0  0
  -24.1789  -13.0473   20.9214 C   0  0  0  0  0  0
  -24.6385  -11.6956   20.8759 C   0  0  0  0  0  0
  -23.9075  -10.4326   21.0443 C   0  0  0  0  0  0
  -24.3625   -9.4224   21.9205 C   0  0  0  0  0  0
  -23.6295   -8.2267   22.0775 C   0  0  0  0  0  0
  -22.4267   -8.0317   21.3580 C   0  0  0  0  0  0
  -21.9913   -9.0295   20.4674 C   0  0  0  0  0  0
  -22.7255  -10.2171   20.3088 C   0  0  0  0  0  0
  -21.6861   -6.0751   22.5295 C   0  0  0  0  0  0
  -21.4008   -6.5652   23.8224 C   0  0  0  0  0  0
  -21.3656   -5.6797   24.9182 C   0  0  0  0  0  0
  -21.6046   -4.3064   24.7216 C   0  0  0  0  0  0
  -21.8802   -3.8160   23.4335 C   0  0  0  0  0  0
  -21.9188   -4.6984   22.3402 C   0  0  0  0  0  0
  -22.7805  -13.5282   21.1873 C   0  0  0  0  0  0
  -22.1662   -4.2172   21.0977 F   0  0  0  0  0  0
  -21.5628   -3.4545   25.7725 F   0  0  0  0  0  0
  -29.9350  -13.7494   20.3278 N   0  0  0  0  0  0
  -26.2887  -12.9431   20.3218 N   0  0  0  0  0  0
  -25.9319  -11.6573   20.5760 N   0  0  0  0  0  0
  -22.0446  -12.8276   22.0422 N   0  0  0  0  0  0
  -25.4237  -15.1957   20.4132 N   0  0  0  0  0  0
  -31.7792  -15.0076   20.2599 O   0  0  0  0  0  0
  -21.6643   -6.8915   21.4265 O   0  0  0  0  0  0
  -22.3516  -14.5593   20.6743 O   0  0  0  0  0  0
  -24.6441  -31.8434   23.1838 C   0  0  0  0  0  0
  -25.9231  -32.4670   23.8220 C   0  0  1  0  0  0
  -27.2152  -27.1233   20.1564 C   0  0  0  0  0  0
  -25.5975  -33.8478   24.2127 N   0  0  0  0  0  0
  -23.4454  -30.4633   21.5304 C   0  0  2  0  0  0
  -24.8942  -28.8854   20.1071 C   0  0  0  0  0  0
  -22.7552  -29.4577   22.4838 C   0  0  0  0  0  0
  -18.0318  -28.1415   22.8479 C   0  0  0  0  0  0
  -24.1493  -36.7248   23.2638 C   0  0  0  0  0  0
  -26.0016  -30.7112   21.3849 C   0  0  0  0  0  0
  -26.0712  -29.3221   20.7270 C   0  0  0  0  0  0
  -27.2307  -28.4566   20.7374 C   0  0  0  0  0  0
  -26.0164  -26.7961   19.4830 C   0  0  0  0  0  0
  -24.8801  -27.6342   19.4712 C   0  0  0  0  0  0
  -23.6695  -29.7885   20.1512 C   0  0  0  0  0  0
  -25.4128  -36.3002   24.0291 C   0  0  1  0  0  0
  -20.5928  -28.3750   23.1221 C   0  0  2  0  0  0
  -20.6807  -26.9449   22.5405 C   0  0  0  0  0  0
  -19.5780  -26.6393   21.5221 C   0  0  0  0  0  0
  -18.1962  -26.7950   22.1631 C   0  0  0  0  0  0
  -19.1574  -28.8900   23.2842 C   0  0  0  0  0  0
  -18.9492  -30.1494   23.8872 C   0  0  0  0  0  0
  -17.6488  -30.6604   24.0576 C   0  0  0  0  0  0
  -25.9093  -34.9387   23.5013 C   0  0  0  0  0  0
  -16.5378  -29.9099   23.6346 C   0  0  0  0  0  0
  -16.7302  -28.6521   23.0356 C   0  0  0  0  0  0
  -26.4539  -31.6557   25.0681 C   0  0  0  0  0  0
  -25.3697  -31.3805   26.1362 C   0  0  0  0  0  0
  -27.0414  -30.2934   24.6305 C   0  0  0  0  0  0
  -27.6033  -32.4354   25.7490 C   0  0  0  0  0  0
  -27.5565  -37.1776   24.8455 C   0  0  0  0  0  0
  -21.4245  -29.3058   22.3572 N   0  0  0  0  0  0
  -26.4275  -37.3726   23.9401 N   0  0  0  0  0  0
  -24.7172  -31.0288   22.0878 N   0  0  0  0  0  0
  -23.4188  -28.8160   23.3028 O   0  0  0  0  0  0
  -28.2614  -26.1286   20.2569 O   0  0  0  0  0  0
  -26.5682  -34.8904   22.4595 O   0  0  0  0  0  0
  -23.5569  -32.1336   23.7061 O   0  0  0  0  0  0
  -29.5785  -20.2039   22.0198 C   0  0  0  0  0  0
  -29.3828  -18.8938   20.0305 C   0  0  0  0  0  0
  -29.2706  -20.2416   20.6495 C   0  0  0  0  0  0
  -29.9194  -18.9849   22.6568 C   0  0  0  0  0  0
  -29.7872  -17.6276   20.7162 C   0  0  0  0  0  0
  -31.4274  -18.4664   24.6371 C   0  0  0  0  0  0
  -28.8824  -18.1721   24.8064 C   0  0  0  0  0  0
  -29.2968  -16.2311   18.7146 C   0  0  0  0  0  0
  -28.7212  -21.6568   19.9785 C   0  0  0  0  0  0
  -28.8929  -23.2503   20.5481 C   0  0  0  0  0  0
  -28.0247  -24.6028   19.9934 C   0  0  0  0  0  0
  -30.0465  -18.9562   24.1747 C   0  0  0  0  0  0
  -30.0429  -17.7762   22.0365 N   0  0  0  0  0  0
  -29.8102  -16.2158   20.0884 N   0  0  0  0  0  0
  -31.4819  -12.7919   19.1773 H   0  0  0  0  0  0
  -30.4869  -11.6992   20.0978 H   0  0  0  0  0  0
  -29.8552  -11.5750   17.7009 H   0  0  0  0  0  0
  -29.6531  -13.2888   17.5929 H   0  0  0  0  0  0
  -27.9467  -11.2465   19.0233 H   0  0  0  0  0  0
  -27.4059  -12.3922   17.8264 H   0  0  0  0  0  0
  -27.5658  -14.2270   19.3646 H   0  0  0  0  0  0
  -28.7815  -12.3785   21.4718 H   0  0  0  0  0  0
  -28.3686  -14.0677   21.7027 H   0  0  0  0  0  0
  -25.2796   -9.5681   22.4743 H   0  0  0  0  0  0
  -24.0013   -7.4656   22.7488 H   0  0  0  0  0  0
  -21.0845   -8.8836   19.8979 H   0  0  0  0  0  0
  -22.3759  -10.9703   19.6175 H   0  0  0  0  0  0
  -21.2002   -7.6157   23.9733 H   0  0  0  0  0  0
  -21.1498   -6.0529   25.9087 H   0  0  0  0  0  0
  -22.0574   -2.7622   23.2828 H   0  0  0  0  0  0
  -22.4048  -11.9915   22.4776 H   0  0  0  0  0  0
  -21.1097  -13.1360   22.2685 H   0  0  0  0  0  0
  -24.6644  -15.8565   20.5346 H   0  0  0  0  0  0
  -26.2870  -15.6352   20.1207 H   0  0  0  0  0  0
  -26.7289  -32.5261   23.0938 H   0  0  0  0  0  0
  -25.0068  -33.9579   25.0237 H   0  0  0  0  0  0
  -22.7488  -31.2900   21.3741 H   0  0  0  0  0  0
  -23.3740  -35.9598   23.3293 H   0  0  0  0  0  0
  -24.3568  -36.8902   22.2055 H   0  0  0  0  0  0
  -23.7277  -37.6447   23.6702 H   0  0  0  0  0  0
  -26.1611  -31.4662   20.6142 H   0  0  0  0  0  0
  -26.8697  -30.7572   22.0307 H   0  0  0  0  0  0
  -28.1215  -28.7856   21.2539 H   0  0  0  0  0  0
  -25.9210  -25.8447   18.9811 H   0  0  0  0  0  0
  -23.9816  -27.2905   18.9781 H   0  0  0  0  0  0
  -23.8005  -30.5599   19.3911 H   0  0  0  0  0  0
  -22.7822  -29.2300   19.8464 H   0  0  0  0  0  0
  -25.1325  -36.1797   25.0779 H   0  0  0  0  0  0
  -21.0026  -28.3370   24.1341 H   0  0  0  0  0  0
  -20.5733  -26.2372   23.3637 H   0  0  0  0  0  0
  -21.6675  -26.7482   22.1195 H   0  0  0  0  0  0
  -19.6952  -25.6297   21.1277 H   0  0  0  0  0  0
  -19.6711  -27.3184   20.6736 H   0  0  0  0  0  0
  -17.4229  -26.6693   21.4031 H   0  0  0  0  0  0
  -18.0358  -26.0102   22.9037 H   0  0  0  0  0  0
  -19.7972  -30.7324   24.2210 H   0  0  0  0  0  0
  -17.5050  -31.6282   24.5187 H   0  0  0  0  0  0
  -15.5380  -30.3000   23.7694 H   0  0  0  0  0  0
  -15.8702  -28.0842   22.7071 H   0  0  0  0  0  0
  -24.5822  -30.7227   25.7671 H   0  0  0  0  0  0
  -24.8972  -32.3037   26.4728 H   0  0  0  0  0  0
  -25.7942  -30.8981   27.0173 H   0  0  0  0  0  0
  -26.3051  -29.6641   24.1290 H   0  0  0  0  0  0
  -27.3977  -29.7257   25.4913 H   0  0  0  0  0  0
  -27.8978  -30.4143   23.9664 H   0  0  0  0  0  0
  -27.2560  -33.3644   26.2027 H   0  0  0  0  0  0
  -28.3876  -32.6947   25.0364 H   0  0  0  0  0  0
  -28.0671  -31.8524   26.5457 H   0  0  0  0  0  0
  -28.2568  -38.0084   24.7492 H   0  0  0  0  0  0
  -28.1073  -36.2611   24.6289 H   0  0  0  0  0  0
  -27.2283  -37.1427   25.8857 H   0  0  0  0  0  0
  -20.9465  -29.8700   21.6683 H   0  0  0  0  0  0
  -26.0123  -38.2784   24.1410 H   0  0  0  0  0  0
  -29.4815  -21.1099   22.6026 H   0  0  0  0  0  0
  -29.1148  -18.8371   18.9866 H   0  0  0  0  0  0
  -32.2136  -19.1079   24.2384 H   0  0  0  0  0  0
  -31.6277  -17.4482   24.3027 H   0  0  0  0  0  0
  -31.5074  -18.4862   25.7241 H   0  0  0  0  0  0
  -27.9233  -18.6197   24.5403 H   0  0  0  0  0  0
  -28.9452  -18.1642   25.8935 H   0  0  0  0  0  0
  -28.8665  -17.1357   24.4688 H   0  0  0  0  0  0
  -28.2658  -16.5823   18.7006 H   0  0  0  0  0  0
  -29.3043  -15.2671   18.2189 H   0  0  0  0  0  0
  -29.8974  -16.9011   18.0980 H   0  0  0  0  0  0
  -27.6489  -21.4944   19.8763 H   0  0  0  0  0  0
  -29.0873  -21.6547   18.9517 H   0  0  0  0  0  0
  -29.9514  -23.4936   20.4552 H   0  0  0  0  0  0
  -28.7175  -23.2160   21.6239 H   0  0  0  0  0  0
  -27.0016  -24.4077   20.3151 H   0  0  0  0  0  0
  -27.9926  -24.5160   18.9069 H   0  0  0  0  0  0
  -29.9514  -19.9832   24.5301 H   0  0  0  0  0  0
  1 25  1  0  0  0
  1 30  2  0  0  0
  1 84  1  0  0  0
  2  3  1  0  0  0
  2 25  1  0  0  0
  2 85  1  0  0  0
  2 86  1  0  0  0
  3  4  1  0  0  0
  3 87  1  0  0  0
  3 88  1  0  0  0
  4  5  1  0  0  0
  4 89  1  0  0  0
  4 90  1  0  0  0
  5  6  1  0  0  0
  5 26  1  0  0  0
  5 91  1  0  0  0
  6 25  1  0  0  0
  6 92  1  0  0  0
  6 93  1  0  0  0
  7  8  2  0  0  0
  7 26  1  0  0  0
  7 29  1  0  0  0
  8  9  1  0  0  0
  8 22  1  0  0  0
  9 10  1  0  0  0
  9 27  2  0  0  0
 10 11  2  0  0  0
 10 15  1  0  0  0
 11 12  1  0  0  0
 11 94  1  0  0  0
 12 13  2  0  0  0
 12 95  1  0  0  0
 13 14  1  0  0  0
 13 31  1  0  0  0
 14 15  2  0  0  0
 14 96  1  0  0  0
 15 97  1  0  0  0
 16 17  2  0  0  0
 16 21  1  0  0  0
 16 31  1  0  0  0
 17 18  1  0  0  0
 17 98  1  0  0  0
 18 19  2  0  0  0
 18 99  1  0  0  0
 19 20  1  0  0  0
 19 24  1  0  0  0
 20 21  2  0  0  0
 20100  1  0  0  0
 21 23  1  0  0  0
 22 28  1  0  0  0
 22 32  2  0  0  0
 26 27  1  0  0  0
 28101  1  0  0  0
 28102  1  0  0  0
 29103  1  0  0  0
 29104  1  0  0  0
 33 34  1  0  0  0
 33 66  1  0  0  0
 33 70  2  0  0  0
 34 36  1  0  0  0
 34 59  1  0  0  0
 34105  1  0  0  0
 35 44  2  0  0  0
 35 45  1  0  0  0
 35 68  1  0  0  0
 36 56  1  0  0  0
 36106  1  0  0  0
 37 39  1  0  0  0
 37 47  1  0  0  0
 37 66  1  0  0  0
 37107  1  0  0  0
 38 43  2  0  0  0
 38 46  1  0  0  0
 38 47  1  0  0  0
 39 64  1  0  0  0
 39 67  2  0  0  0
 40 52  1  0  0  0
 40 53  2  0  0  0
 40 58  1  0  0  0
 41108  1  0  0  0
 41109  1  0  0  0
 41110  1  0  0  0
 41 48  1  0  0  0
 42 43  1  0  0  0
 42 66  1  0  0  0
 42111  1  0  0  0
 42112  1  0  0  0
 43 44  1  0  0  0
 44113  1  0  0  0
 45 46  2  0  0  0
 45114  1  0  0  0
 46115  1  0  0  0
 47116  1  0  0  0
 47117  1  0  0  0
 48 56  1  0  0  0
 48 65  1  0  0  0
 48118  1  0  0  0
 49 50  1  0  0  0
 49 53  1  0  0  0
 49 64  1  0  0  0
 49119  1  0  0  0
 50 51  1  0  0  0
 50120  1  0  0  0
 50121  1  0  0  0
 51 52  1  0  0  0
 51122  1  0  0  0
 51123  1  0  0  0
 52124  1  0  0  0
 52125  1  0  0  0
 53 54  1  0  0  0
 54 55  2  0  0  0
 54126  1  0  0  0
 55 57  1  0  0  0
 55127  1  0  0  0
 56 69  2  0  0  0
 57 58  2  0  0  0
 57128  1  0  0  0
 58129  1  0  0  0
 59 60  1  0  0  0
 59 61  1  0  0  0
 59 62  1  0  0  0
 60130  1  0  0  0
 60131  1  0  0  0
 60132  1  0  0  0
 61133  1  0  0  0
 61134  1  0  0  0
 61135  1  0  0  0
 62136  1  0  0  0
 62137  1  0  0  0
 62138  1  0  0  0
 63 65  1  0  0  0
 63139  1  0  0  0
 63140  1  0  0  0
 63141  1  0  0  0
 64142  1  0  0  0
 65143  1  0  0  0
 68 81  1  0  0  0
 71 73  2  0  0  0
 71 74  1  0  0  0
 71144  1  0  0  0
 72 73  1  0  0  0
 72 75  2  0  0  0
 72145  1  0  0  0
 73 79  1  0  0  0
 74 82  1  0  0  0
 74 83  2  0  0  0
 75 83  1  0  0  0
 75 84  1  0  0  0
 76146  1  0  0  0
 76147  1  0  0  0
 76148  1  0  0  0
 76 82  1  0  0  0
 77 82  1  0  0  0
 77149  1  0  0  0
 77150  1  0  0  0
 77151  1  0  0  0
 78 84  1  0  0  0
 78152  1  0  0  0
 78153  1  0  0  0
 78154  1  0  0  0
 79 80  1  0  0  0
 79155  1  0  0  0
 79156  1  0  0  0
 80 81  1  0  0  0
 80157  1  0  0  0
 80158  1  0  0  0
 81159  1  0  0  0
 81160  1  0  0  0
 82161  1  0  0  0
M  ISO  4   1 100  68 101  81 101  84 100
M  END
> <chiral flag>
0

> <version>
0

> <s_m_source_file>
/data/baiqing/PycharmProjects/Reinvent-master-3.2/result/LINK_invent/BTK/process_docking_weight1_custom_sum_contain_oxygen_bond_distance_aromatic_linkinvent_7_9_3/rearranged_h_0103.sdf

> <i_m_source_file_index>
28

> <r_mmod_Potential_Energy-OPLS-2005>
536.33935546875

> <r_mmod_Stretch_Energy-OPLS-2005>
285.493286132812

> <r_mmod_Bend_Energy-OPLS-2005>
264.800689697266

> <r_mmod_Torsional_Energy-OPLS-2005>
273.502502441406

> <r_mmod_Improper_Torsional_Energy-OPLS-2005>
17.967155456543

> <r_mmod_Van_der_Waal_Energy-OPLS-2005>
137.949645996094

> <r_mmod_Electrostatic_Energy-OPLS-2005>
-470.292907714844

> <r_mmod_Solvation_Energy-OPLS-2005>
-201.069961547852

> <b_mmod_Minimization_Converged-OPLS-2005>
0

> <r_mmod_RMS_Derivative-OPLS-2005>
3.23170590400696

$$$$
28
                    3D
 Structure written by MMmdl.
151159  0  0  1  0            999 V2000
  -30.5045  -15.0313   20.3910 C   0  0  0  0  0  0
  -30.4375  -12.6353   19.5263 C   0  0  0  0  0  0
  -29.5295  -12.5427   18.2761 C   0  0  0  0  0  0
  -28.0639  -12.3162   18.6885 C   0  0  0  0  0  0
  -27.6266  -13.2570   19.8411 C   0  0  2  0  0  0
  -28.6622  -13.3187   20.9853 C   0  0  0  0  0  0
  -25.2436  -13.8229   20.5720 C   0  0  0  0  0  0
  -24.1763  -13.0440   20.9230 C   0  0  0  0  0  0
  -24.6393  -11.6930   20.8754 C   0  0  0  0  0  0
  -23.9083  -10.4295   21.0406 C   0  0  0  0  0  0
  -24.3630   -9.4208   21.9183 C   0  0  0  0  0  0
  -23.6301   -8.2245   22.0754 C   0  0  0  0  0  0
  -22.4282   -8.0284   21.3546 C   0  0  0  0  0  0
  -21.9921   -9.0258   20.4646 C   0  0  0  0  0  0
  -22.7254  -10.2135   20.3055 C   0  0  0  0  0  0
  -21.6857   -6.0738   22.5279 C   0  0  0  0  0  0
  -21.4017   -6.5641   23.8212 C   0  0  0  0  0  0
  -21.3660   -5.6793   24.9174 C   0  0  0  0  0  0
  -21.6044   -4.3056   24.7224 C   0  0  0  0  0  0
  -21.8819   -3.8148   23.4344 C   0  0  0  0  0  0
  -21.9193   -4.6965   22.3401 C   0  0  0  0  0  0
  -22.7782  -13.5203   21.1885 C   0  0  0  0  0  0
  -22.1662   -4.2151   21.0979 F   0  0  0  0  0  0
  -21.5628   -3.4539   25.7736 F   0  0  0  0  0  0
  -29.9337  -13.7500   20.3910 N   0  0  0  0  0  0
  -26.2867  -12.9477   20.3253 N   0  0  0  0  0  0
  -25.9329  -11.6597   20.5740 N   0  0  0  0  0  0
  -22.0439  -12.8188   22.0442 N   0  0  0  0  0  0
  -25.4088  -15.1961   20.4150 N   0  0  0  0  0  0
  -31.6943  -15.0867   20.0590 O   0  0  0  0  0  0
  -21.6644   -6.8883   21.4242 O   0  0  0  0  0  0
  -22.3462  -14.5506   20.6728 O   0  0  0  0  0  0
  -24.6469  -31.8368   23.1807 C   0  0  0  0  0  0
  -25.9219  -32.4655   23.8222 C   0  0  1  0  0  0
  -27.2253  -27.0820   20.1629 C   0  0  0  0  0  0
  -25.5945  -33.8464   24.2139 N   0  0  0  0  0  0
  -23.4541  -30.4505   21.5258 C   0  0  2  0  0  0
  -24.9063  -28.8610   20.1047 C   0  0  0  0  0  0
  -22.7586  -29.4501   22.4830 C   0  0  0  0  0  0
  -18.0307  -28.1400   22.8475 C   0  0  0  0  0  0
  -24.1490  -36.7239   23.2646 C   0  0  0  0  0  0
  -26.0102  -30.6930   21.3859 C   0  0  0  0  0  0
  -26.0800  -29.2974   20.7298 C   0  0  0  0  0  0
  -27.2333  -28.4221   20.7421 C   0  0  0  0  0  0
  -26.0290  -26.7529   19.4921 C   0  0  0  0  0  0
  -24.8967  -27.6057   19.4693 C   0  0  0  0  0  0
  -23.6834  -29.7692   20.1474 C   0  0  0  0  0  0
  -25.4126  -36.3009   24.0309 C   0  0  1  0  0  0
  -20.5921  -28.3726   23.1230 C   0  0  2  0  0  0
  -20.6785  -26.9423   22.5410 C   0  0  0  0  0  0
  -19.5761  -26.6380   21.5216 C   0  0  0  0  0  0
  -18.1943  -26.7937   22.1624 C   0  0  0  0  0  0
  -19.1565  -28.8882   23.2842 C   0  0  0  0  0  0
  -18.9479  -30.1477   23.8871 C   0  0  0  0  0  0
  -17.6475  -30.6594   24.0559 C   0  0  0  0  0  0
  -25.9079  -34.9387   23.5041 C   0  0  0  0  0  0
  -16.5366  -29.9086   23.6338 C   0  0  0  0  0  0
  -16.7292  -28.6505   23.0358 C   0  0  0  0  0  0
  -26.4530  -31.6552   25.0691 C   0  0  0  0  0  0
  -25.3701  -31.3756   26.1377 C   0  0  0  0  0  0
  -27.0409  -30.2944   24.6311 C   0  0  0  0  0  0
  -27.6048  -32.4334   25.7482 C   0  0  0  0  0  0
  -27.5572  -37.1776   24.8467 C   0  0  0  0  0  0
  -21.4272  -29.3037   22.3588 N   0  0  0  0  0  0
  -26.4285  -37.3730   23.9407 N   0  0  0  0  0  0
  -24.7237  -31.0172   22.0859 N   0  0  0  0  0  0
  -23.4205  -28.8070   23.3017 O   0  0  0  0  0  0
  -28.2913  -26.1058   20.2990 O   0  0  0  0  0  0
  -26.5680  -34.8901   22.4630 O   0  0  0  0  0  0
  -23.5579  -32.1268   23.7000 O   0  0  0  0  0  0
  -28.6485  -20.3417   19.9910 C   0  0  0  0  0  0
  -29.5484  -19.2837   20.3682 C   0  0  0  0  0  0
  -30.4036  -20.0728   21.2048 C   0  0  0  0  0  0
  -30.0675  -21.4205   21.2846 C   0  0  0  0  0  0
  -30.7268  -22.5155   22.0642 C   0  0  0  0  0  0
  -29.8157  -17.6837   19.8641 C   0  0  0  0  0  0
  -28.1059  -23.0902   20.5430 C   0  0  0  0  0  0
  -28.4202  -24.6048   19.8030 C   0  0  0  0  0  0
  -28.9244  -21.6879   20.5242 N   0  0  0  0  0  0
  -29.7255  -16.2332   20.5451 N   0  0  0  0  0  0
  -31.7816  -19.4037   22.0005 Cl  0  0  0  0  0  0
  -31.4726  -12.7909   19.2190 H   0  0  0  0  0  0
  -30.4355  -11.6926   20.0757 H   0  0  0  0  0  0
  -29.8643  -11.7368   17.6217 H   0  0  0  0  0  0
  -29.6098  -13.4634   17.6961 H   0  0  0  0  0  0
  -27.9704  -11.2773   19.0073 H   0  0  0  0  0  0
  -27.4030  -12.4324   17.8288 H   0  0  0  0  0  0
  -27.5808  -14.2527   19.3987 H   0  0  0  0  0  0
  -28.7625  -12.3523   21.4817 H   0  0  0  0  0  0
  -28.3447  -14.0285   21.7507 H   0  0  0  0  0  0
  -25.2774   -9.5685   22.4760 H   0  0  0  0  0  0
  -24.0009   -7.4637   22.7475 H   0  0  0  0  0  0
  -21.0852   -8.8780   19.8951 H   0  0  0  0  0  0
  -22.3713  -10.9675   19.6165 H   0  0  0  0  0  0
  -21.2012   -7.6149   23.9716 H   0  0  0  0  0  0
  -21.1482   -6.0523   25.9077 H   0  0  0  0  0  0
  -22.0597   -2.7610   23.2844 H   0  0  0  0  0  0
  -22.4071  -11.9857   22.4833 H   0  0  0  0  0  0
  -21.1052  -13.1198   22.2648 H   0  0  0  0  0  0
  -24.6373  -15.8451   20.5263 H   0  0  0  0  0  0
  -26.2490  -15.6386   20.0658 H   0  0  0  0  0  0
  -26.7280  -32.5242   23.0942 H   0  0  0  0  0  0
  -25.0054  -33.9564   25.0261 H   0  0  0  0  0  0
  -22.7593  -31.2773   21.3644 H   0  0  0  0  0  0
  -23.3760  -35.9563   23.3290 H   0  0  0  0  0  0
  -24.3572  -36.8896   22.2064 H   0  0  0  0  0  0
  -23.7239  -37.6425   23.6702 H   0  0  0  0  0  0
  -26.1707  -31.4433   20.6105 H   0  0  0  0  0  0
  -26.8785  -30.7472   22.0310 H   0  0  0  0  0  0
  -28.1244  -28.7483   21.2601 H   0  0  0  0  0  0
  -25.9404  -25.7852   19.0202 H   0  0  0  0  0  0
  -23.9994  -27.2671   18.9700 H   0  0  0  0  0  0
  -23.8214  -30.5394   19.3878 H   0  0  0  0  0  0
  -22.7976  -29.2114   19.8387 H   0  0  0  0  0  0
  -25.1319  -36.1826   25.0801 H   0  0  0  0  0  0
  -21.0014  -28.3323   24.1351 H   0  0  0  0  0  0
  -20.5671  -26.2341   23.3634 H   0  0  0  0  0  0
  -21.6651  -26.7416   22.1213 H   0  0  0  0  0  0
  -19.6920  -25.6283   21.1263 H   0  0  0  0  0  0
  -19.6702  -27.3175   20.6734 H   0  0  0  0  0  0
  -17.4212  -26.6684   21.4028 H   0  0  0  0  0  0
  -18.0339  -26.0085   22.9028 H   0  0  0  0  0  0
  -19.7955  -30.7301   24.2228 H   0  0  0  0  0  0
  -17.5027  -31.6271   24.5165 H   0  0  0  0  0  0
  -15.5365  -30.2980   23.7676 H   0  0  0  0  0  0
  -15.8692  -28.0816   22.7088 H   0  0  0  0  0  0
  -24.5894  -30.7089   25.7696 H   0  0  0  0  0  0
  -24.8875  -32.2941   26.4725 H   0  0  0  0  0  0
  -25.7974  -30.8981   27.0204 H   0  0  0  0  0  0
  -26.3037  -29.6647   24.1316 H   0  0  0  0  0  0
  -27.4003  -29.7267   25.4905 H   0  0  0  0  0  0
  -27.8950  -30.4170   23.9648 H   0  0  0  0  0  0
  -27.2633  -33.3663   26.1980 H   0  0  0  0  0  0
  -28.3901  -32.6849   25.0340 H   0  0  0  0  0  0
  -28.0669  -31.8512   26.5464 H   0  0  0  0  0  0
  -28.2580  -38.0081   24.7511 H   0  0  0  0  0  0
  -28.1078  -36.2609   24.6297 H   0  0  0  0  0  0
  -27.2289  -37.1424   25.8869 H   0  0  0  0  0  0
  -20.9495  -29.8730   21.6741 H   0  0  0  0  0  0
  -26.0145  -38.2794   24.1414 H   0  0  0  0  0  0
  -27.7888  -20.2529   19.3395 H   0  0  0  0  0  0
  -30.8665  -23.4072   21.4533 H   0  0  0  0  0  0
  -31.7095  -22.2108   22.4239 H   0  0  0  0  0  0
  -30.1285  -22.7891   22.9334 H   0  0  0  0  0  0
  -30.8270  -17.7170   19.4564 H   0  0  0  0  0  0
  -29.1873  -17.5876   18.9786 H   0  0  0  0  0  0
  -27.0844  -22.8333   20.2631 H   0  0  0  0  0  0
  -28.0124  -23.3286   21.6023 H   0  0  0  0  0  0
  -27.9494  -24.5717   18.8207 H   0  0  0  0  0  0
  -29.4823  -24.5485   19.5650 H   0  0  0  0  0  0
  -28.8082  -16.0426   20.9198 H   0  0  0  0  0  0
  1 25  1  0  0  0
  1 30  2  0  0  0
  1 80  1  0  0  0
  2  3  1  0  0  0
  2 25  1  0  0  0
  2 82  1  0  0  0
  2 83  1  0  0  0
  3  4  1  0  0  0
  3 84  1  0  0  0
  3 85  1  0  0  0
  4  5  1  0  0  0
  4 86  1  0  0  0
  4 87  1  0  0  0
  5  6  1  0  0  0
  5 26  1  0  0  0
  5 88  1  0  0  0
  6 25  1  0  0  0
  6 89  1  0  0  0
  6 90  1  0  0  0
  7  8  2  0  0  0
  7 26  1  0  0  0
  7 29  1  0  0  0
  8  9  1  0  0  0
  8 22  1  0  0  0
  9 10  1  0  0  0
  9 27  2  0  0  0
 10 11  2  0  0  0
 10 15  1  0  0  0
 11 12  1  0  0  0
 11 91  1  0  0  0
 12 13  2  0  0  0
 12 92  1  0  0  0
 13 14  1  0  0  0
 13 31  1  0  0  0
 14 15  2  0  0  0
 14 93  1  0  0  0
 15 94  1  0  0  0
 16 17  2  0  0  0
 16 21  1  0  0  0
 16 31  1  0  0  0
 17 18  1  0  0  0
 17 95  1  0  0  0
 18 19  2  0  0  0
 18 96  1  0  0  0
 19 20  1  0  0  0
 19 24  1  0  0  0
 20 21  2  0  0  0
 20 97  1  0  0  0
 21 23  1  0  0  0
 22 28  1  0  0  0
 22 32  2  0  0  0
 26 27  1  0  0  0
 28 98  1  0  0  0
 28 99  1  0  0  0
 29100  1  0  0  0
 29101  1  0  0  0
 33 34  1  0  0  0
 33 66  1  0  0  0
 33 70  2  0  0  0
 34 36  1  0  0  0
 34 59  1  0  0  0
 34102  1  0  0  0
 35 44  2  0  0  0
 35 45  1  0  0  0
 35 68  1  0  0  0
 36 56  1  0  0  0
 36103  1  0  0  0
 37 39  1  0  0  0
 37 47  1  0  0  0
 37 66  1  0  0  0
 37104  1  0  0  0
 38 43  2  0  0  0
 38 46  1  0  0  0
 38 47  1  0  0  0
 39 64  1  0  0  0
 39 67  2  0  0  0
 40 52  1  0  0  0
 40 53  2  0  0  0
 40 58  1  0  0  0
 41105  1  0  0  0
 41106  1  0  0  0
 41107  1  0  0  0
 41 48  1  0  0  0
 42 43  1  0  0  0
 42 66  1  0  0  0
 42108  1  0  0  0
 42109  1  0  0  0
 43 44  1  0  0  0
 44110  1  0  0  0
 45 46  2  0  0  0
 45111  1  0  0  0
 46112  1  0  0  0
 47113  1  0  0  0
 47114  1  0  0  0
 48 56  1  0  0  0
 48 65  1  0  0  0
 48115  1  0  0  0
 49 50  1  0  0  0
 49 53  1  0  0  0
 49 64  1  0  0  0
 49116  1  0  0  0
 50 51  1  0  0  0
 50117  1  0  0  0
 50118  1  0  0  0
 51 52  1  0  0  0
 51119  1  0  0  0
 51120  1  0  0  0
 52121  1  0  0  0
 52122  1  0  0  0
 53 54  1  0  0  0
 54 55  2  0  0  0
 54123  1  0  0  0
 55 57  1  0  0  0
 55124  1  0  0  0
 56 69  2  0  0  0
 57 58  2  0  0  0
 57125  1  0  0  0
 58126  1  0  0  0
 59 60  1  0  0  0
 59 61  1  0  0  0
 59 62  1  0  0  0
 60127  1  0  0  0
 60128  1  0  0  0
 60129  1  0  0  0
 61130  1  0  0  0
 61131  1  0  0  0
 61132  1  0  0  0
 62133  1  0  0  0
 62134  1  0  0  0
 62135  1  0  0  0
 63 65  1  0  0  0
 63136  1  0  0  0
 63137  1  0  0  0
 63138  1  0  0  0
 64139  1  0  0  0
 65140  1  0  0  0
 68 78  1  0  0  0
 71 72  2  0  0  0
 71 79  1  0  0  0
 71141  1  0  0  0
 72 73  1  0  0  0
 72 76  1  0  0  0
 73 74  2  0  0  0
 73 81  1  0  0  0
 74 75  1  0  0  0
 74 79  1  0  0  0
 75142  1  0  0  0
 75143  1  0  0  0
 75144  1  0  0  0
 76 80  1  0  0  0
 76145  1  0  0  0
 76146  1  0  0  0
 77 78  1  0  0  0
 77 79  1  0  0  0
 77147  1  0  0  0
 77148  1  0  0  0
 78149  1  0  0  0
 78150  1  0  0  0
 80151  1  0  0  0
M  ISO  4   1 100  68 101  78 101  80 100
M  END
> <chiral flag>
0

> <version>
0

> <s_m_source_file>
/data/baiqing/PycharmProjects/Reinvent-master-3.2/result/LINK_invent/BTK/process_docking_weight1_custom_sum_contain_oxygen_bond_distance_aromatic_linkinvent_7_9_3/rearranged_h_0103.sdf

> <i_m_source_file_index>
29

> <r_mmod_Potential_Energy-OPLS-2005>
685.154113769531

> <r_mmod_Stretch_Energy-OPLS-2005>
327.777954101562

> <r_mmod_Bend_Energy-OPLS-2005>
361.413391113281

> <r_mmod_Torsional_Energy-OPLS-2005>
234.43684387207

> <r_mmod_Improper_Torsional_Energy-OPLS-2005>
9.28193950653076

> <r_mmod_Van_der_Waal_Energy-OPLS-2005>
103.992141723633

> <r_mmod_Electrostatic_Energy-OPLS-2005>
-376.252532958984

> <r_mmod_Solvation_Energy-OPLS-2005>
-224.010986328125

> <b_mmod_Minimization_Converged-OPLS-2005>
0

> <r_mmod_RMS_Derivative-OPLS-2005>
0.271240562200546

$$$$
29
                    3D
 Structure written by MMmdl.
183191  0  0  1  0            999 V2000
  -30.7034  -14.4390   20.5817 C   0  0  0  0  0  0
  -30.4342  -12.2981   19.3883 C   0  0  0  0  0  0
  -29.4997  -12.5449   18.1868 C   0  0  0  0  0  0
  -28.0151  -12.4070   18.5924 C   0  0  0  0  0  0
  -27.6741  -13.2007   19.8826 C   0  0  2  0  0  0
  -28.7270  -12.9222   20.9869 C   0  0  0  0  0  0
  -25.2571  -13.8009   20.5679 C   0  0  0  0  0  0
  -24.1855  -13.0303   20.9143 C   0  0  0  0  0  0
  -24.6472  -11.6809   20.8731 C   0  0  0  0  0  0
  -23.9118  -10.4229   21.0400 C   0  0  0  0  0  0
  -24.3641   -9.4153   21.9188 C   0  0  0  0  0  0
  -23.6276   -8.2218   22.0774 C   0  0  0  0  0  0
  -22.4240   -8.0286   21.3581 C   0  0  0  0  0  0
  -21.9924   -9.0250   20.4660 C   0  0  0  0  0  0
  -22.7277  -10.2106   20.3049 C   0  0  0  0  0  0
  -21.6831   -6.0758   22.5299 C   0  0  0  0  0  0
  -21.3996   -6.5646   23.8233 C   0  0  0  0  0  0
  -21.3673   -5.6794   24.9195 C   0  0  0  0  0  0
  -21.6049   -4.3056   24.7247 C   0  0  0  0  0  0
  -21.8794   -3.8160   23.4354 C   0  0  0  0  0  0
  -21.9172   -4.6989   22.3421 C   0  0  0  0  0  0
  -22.7895  -13.5148   21.1753 C   0  0  0  0  0  0
  -22.1637   -4.2185   21.0996 F   0  0  0  0  0  0
  -21.5648   -3.4517   25.7757 F   0  0  0  0  0  0
  -30.0611  -13.2441   20.4483 N   0  0  0  0  0  0
  -26.3103  -12.9253   20.3409 N   0  0  0  0  0  0
  -25.9398  -11.6393   20.5753 N   0  0  0  0  0  0
  -22.0505  -12.8227   22.0351 N   0  0  0  0  0  0
  -25.4015  -15.1724   20.4274 N   0  0  0  0  0  0
  -31.7995  -14.6822   20.0723 O   0  0  0  0  0  0
  -21.6582   -6.8894   21.4262 O   0  0  0  0  0  0
  -22.3603  -14.5441   20.6568 O   0  0  0  0  0  0
  -24.6100  -31.8689   23.2099 C   0  0  0  0  0  0
  -25.9007  -32.4839   23.8409 C   0  0  1  0  0  0
  -27.2437  -27.4604   20.1169 C   0  0  0  0  0  0
  -25.5858  -33.8650   24.2313 N   0  0  0  0  0  0
  -23.4013  -30.4920   21.5448 C   0  0  2  0  0  0
  -24.8520  -28.9576   20.1139 C   0  0  0  0  0  0
  -22.7397  -29.4704   22.4983 C   0  0  0  0  0  0
  -18.0289  -28.1252   22.8450 C   0  0  0  0  0  0
  -24.1485  -36.7295   23.2640 C   0  0  0  0  0  0
  -25.9246  -30.8426   21.3643 C   0  0  0  0  0  0
  -26.0066  -29.4775   20.7182 C   0  0  0  0  0  0
  -27.2035  -28.7303   20.7267 C   0  0  0  0  0  0
  -26.0859  -26.9575   19.4903 C   0  0  0  0  0  0
  -24.8825  -27.6925   19.5022 C   0  0  0  0  0  0
  -23.6103  -29.8179   20.1603 C   0  0  0  0  0  0
  -25.4097  -36.3112   24.0342 C   0  0  1  0  0  0
  -20.5876  -28.3653   23.1216 C   0  0  2  0  0  0
  -20.6818  -26.9385   22.5283 C   0  0  0  0  0  0
  -19.5773  -26.6287   21.5096 C   0  0  0  0  0  0
  -18.2007  -26.7805   22.1572 C   0  0  0  0  0  0
  -19.1526  -28.8791   23.2828 C   0  0  0  0  0  0
  -18.9435  -30.1402   23.8830 C   0  0  0  0  0  0
  -17.6422  -30.6509   24.0535 C   0  0  0  0  0  0
  -25.9028  -34.9485   23.5135 C   0  0  0  0  0  0
  -16.5334  -29.8957   23.6246 C   0  0  0  0  0  0
  -16.7282  -28.6371   23.0288 C   0  0  0  0  0  0
  -26.4442  -31.6618   25.0737 C   0  0  0  0  0  0
  -25.3728  -31.3740   26.1500 C   0  0  0  0  0  0
  -27.0286  -30.3055   24.6128 C   0  0  0  0  0  0
  -27.5989  -32.4363   25.7513 C   0  0  0  0  0  0
  -27.5568  -37.1814   24.8461 C   0  0  0  0  0  0
  -21.4127  -29.3041   22.3668 N   0  0  0  0  0  0
  -26.4276  -37.3781   23.9411 N   0  0  0  0  0  0
  -24.6633  -31.0858   22.0965 N   0  0  0  0  0  0
  -23.4212  -28.8273   23.3029 O   0  0  0  0  0  0
  -28.3977  -26.7113   20.1147 O   0  0  0  0  0  0
  -26.5601  -34.8928   22.4698 O   0  0  0  0  0  0
  -23.5317  -32.1423   23.7502 O   0  0  0  0  0  0
  -25.4812  -19.2877   20.0128 C   0  0  0  0  0  0
  -27.4606  -19.3453   21.9839 C   0  0  0  0  0  0
  -26.6312  -18.4930   19.8695 C   0  0  0  0  0  0
  -27.5352  -18.3789   20.9550 C   0  0  0  0  0  0
  -26.3653  -20.2435   22.0622 C   0  0  0  0  0  0
  -25.2583  -20.0401   21.1880 C   0  0  0  0  0  0
  -26.8208  -17.7062   18.5851 C   0  0  0  0  0  0
  -22.7312  -19.5715   20.8815 C   0  0  0  0  0  0
  -23.4391  -21.9087   21.4433 C   0  0  0  0  0  0
  -27.8220  -24.2510   23.8999 C   0  0  0  0  0  0
  -30.6357  -17.6273   21.9487 C   0  0  0  0  0  0
  -30.2121  -17.2492   19.4893 C   0  0  0  0  0  0
  -26.4169  -21.4004   23.0603 C   0  0  0  0  0  0
  -28.2902  -17.0637   21.2080 C   0  0  0  0  0  0
  -26.4760  -22.7698   22.3292 C   0  0  0  0  0  0
  -27.5537  -24.7878   21.3961 C   0  0  0  0  0  0
  -28.6106  -25.9083   21.2885 C   0  0  0  0  0  0
  -23.8155  -20.4287   21.5766 C   0  0  0  0  0  0
  -27.7172  -23.6824   22.4702 C   0  0  1  0  0  0
  -29.8029  -16.8426   20.9257 C   0  0  0  0  0  0
  -29.9532  -15.3868   21.1669 N   0  0  0  0  0  0
  -31.4788  -12.3979   19.0839 H   0  0  0  0  0  0
  -30.3227  -11.2715   19.7356 H   0  0  0  0  0  0
  -29.7282  -11.8578   17.3716 H   0  0  0  0  0  0
  -29.6707  -13.5479   17.7926 H   0  0  0  0  0  0
  -27.7958  -11.3480   18.7216 H   0  0  0  0  0  0
  -27.3767  -12.7504   17.7758 H   0  0  0  0  0  0
  -27.7288  -14.2553   19.6212 H   0  0  0  0  0  0
  -28.7054  -11.8668   21.2608 H   0  0  0  0  0  0
  -28.4955  -13.4607   21.9061 H   0  0  0  0  0  0
  -25.2795   -9.5609   22.4738 H   0  0  0  0  0  0
  -23.9984   -7.4610   22.7489 H   0  0  0  0  0  0
  -21.0864   -8.8775   19.8954 H   0  0  0  0  0  0
  -22.3761  -10.9648   19.6149 H   0  0  0  0  0  0
  -21.1941   -7.6138   23.9766 H   0  0  0  0  0  0
  -21.1539   -6.0513   25.9115 H   0  0  0  0  0  0
  -22.0552   -2.7616   23.2834 H   0  0  0  0  0  0
  -22.4073  -11.9930   22.4828 H   0  0  0  0  0  0
  -21.1159  -13.1396   22.2446 H   0  0  0  0  0  0
  -24.6184  -15.7990   20.5620 H   0  0  0  0  0  0
  -26.2387  -15.6470   20.1261 H   0  0  0  0  0  0
  -26.7088  -32.5543   23.1191 H   0  0  0  0  0  0
  -24.9992  -33.9796   25.0451 H   0  0  0  0  0  0
  -22.6903  -31.3074   21.4023 H   0  0  0  0  0  0
  -23.3739  -35.9647   23.3334 H   0  0  0  0  0  0
  -24.3579  -36.8881   22.2054 H   0  0  0  0  0  0
  -23.7254  -37.6514   23.6630 H   0  0  0  0  0  0
  -26.0342  -31.6066   20.5936 H   0  0  0  0  0  0
  -26.8108  -30.8968   21.9838 H   0  0  0  0  0  0
  -28.0891  -29.1219   21.2067 H   0  0  0  0  0  0
  -26.1118  -25.9865   19.0182 H   0  0  0  0  0  0
  -23.9967  -27.2798   19.0378 H   0  0  0  0  0  0
  -23.7004  -30.5883   19.3949 H   0  0  0  0  0  0
  -22.7376  -29.2284   19.8747 H   0  0  0  0  0  0
  -25.1288  -36.1962   25.0839 H   0  0  0  0  0  0
  -20.9984  -28.3217   24.1291 H   0  0  0  0  0  0
  -20.5800  -26.2280   23.3480 H   0  0  0  0  0  0
  -21.6666  -26.7493   22.1083 H   0  0  0  0  0  0
  -19.6949  -25.6222   21.1106 H   0  0  0  0  0  0
  -19.6684  -27.3101   20.6561 H   0  0  0  0  0  0
  -17.4266  -26.6573   21.3992 H   0  0  0  0  0  0
  -18.0454  -25.9912   22.8949 H   0  0  0  0  0  0
  -19.7891  -30.7254   24.2173 H   0  0  0  0  0  0
  -17.4887  -31.6181   24.5140 H   0  0  0  0  0  0
  -15.5305  -30.2782   23.7599 H   0  0  0  0  0  0
  -15.8703  -28.0658   22.6940 H   0  0  0  0  0  0
  -24.5841  -30.7141   25.7869 H   0  0  0  0  0  0
  -24.8997  -32.2915   26.5012 H   0  0  0  0  0  0
  -25.8106  -30.8865   27.0213 H   0  0  0  0  0  0
  -26.2851  -29.6817   24.1144 H   0  0  0  0  0  0
  -27.4001  -29.7296   25.4617 H   0  0  0  0  0  0
  -27.8700  -30.4388   23.9328 H   0  0  0  0  0  0
  -27.2542  -33.3610   26.2152 H   0  0  0  0  0  0
  -28.3758  -32.7020   25.0336 H   0  0  0  0  0  0
  -28.0682  -31.8461   26.5385 H   0  0  0  0  0  0
  -28.2599  -38.0102   24.7456 H   0  0  0  0  0  0
  -28.1051  -36.2614   24.6330 H   0  0  0  0  0  0
  -27.2285  -37.1520   25.8871 H   0  0  0  0  0  0
  -20.9325  -29.8462   21.6627 H   0  0  0  0  0  0
  -26.0168  -38.2869   24.1375 H   0  0  0  0  0  0
  -24.7135  -19.2261   19.2543 H   0  0  0  0  0  0
  -28.1943  -19.3351   22.7783 H   0  0  0  0  0  0
  -26.1263  -18.0358   17.8140 H   0  0  0  0  0  0
  -26.6761  -16.6403   18.7244 H   0  0  0  0  0  0
  -27.8236  -17.8709   18.1935 H   0  0  0  0  0  0
  -22.9306  -18.5048   20.9815 H   0  0  0  0  0  0
  -22.6571  -19.7858   19.8206 H   0  0  0  0  0  0
  -21.7438  -19.7621   21.3042 H   0  0  0  0  0  0
  -23.7944  -22.4876   22.2879 H   0  0  0  0  0  0
  -22.3550  -22.0344   21.4633 H   0  0  0  0  0  0
  -23.8081  -22.3489   20.5159 H   0  0  0  0  0  0
  -26.9068  -24.7629   24.2006 H   0  0  0  0  0  0
  -28.6477  -24.9579   23.9911 H   0  0  0  0  0  0
  -27.9993  -23.4585   24.6289 H   0  0  0  0  0  0
  -30.4666  -18.6980   21.8486 H   0  0  0  0  0  0
  -31.7017  -17.4365   21.8282 H   0  0  0  0  0  0
  -30.3517  -17.3612   22.9651 H   0  0  0  0  0  0
  -30.0298  -18.3074   19.2935 H   0  0  0  0  0  0
  -29.6843  -16.6653   18.7336 H   0  0  0  0  0  0
  -31.2801  -17.0912   19.3153 H   0  0  0  0  0  0
  -27.2751  -21.2850   23.7124 H   0  0  0  0  0  0
  -25.5403  -21.3669   23.7107 H   0  0  0  0  0  0
  -27.7459  -16.2885   20.6784 H   0  0  0  0  0  0
  -28.1108  -16.8179   22.2551 H   0  0  0  0  0  0
  -25.6315  -23.3773   22.6492 H   0  0  0  0  0  0
  -26.3074  -22.5820   21.2709 H   0  0  0  0  0  0
  -27.5086  -24.3020   20.4195 H   0  0  0  0  0  0
  -26.5765  -25.2540   21.5440 H   0  0  0  0  0  0
  -29.6027  -25.4610   21.2108 H   0  0  0  0  0  0
  -28.6175  -26.5324   22.1838 H   0  0  0  0  0  0
  -23.7305  -20.1743   22.6351 H   0  0  0  0  0  0
  -28.6196  -23.1090   22.2475 H   0  0  0  0  0  0
  -29.1762  -14.9808   21.6708 H   0  0  0  0  0  0
  1 25  1  0  0  0
  1 30  2  0  0  0
  1 91  1  0  0  0
  2  3  1  0  0  0
  2 25  1  0  0  0
  2 92  1  0  0  0
  2 93  1  0  0  0
  3  4  1  0  0  0
  3 94  1  0  0  0
  3 95  1  0  0  0
  4  5  1  0  0  0
  4 96  1  0  0  0
  4 97  1  0  0  0
  5  6  1  0  0  0
  5 26  1  0  0  0
  5 98  1  0  0  0
  6 25  1  0  0  0
  6 99  1  0  0  0
  6100  1  0  0  0
  7  8  2  0  0  0
  7 26  1  0  0  0
  7 29  1  0  0  0
  8  9  1  0  0  0
  8 22  1  0  0  0
  9 10  1  0  0  0
  9 27  2  0  0  0
 10 11  2  0  0  0
 10 15  1  0  0  0
 11 12  1  0  0  0
 11101  1  0  0  0
 12 13  2  0  0  0
 12102  1  0  0  0
 13 14  1  0  0  0
 13 31  1  0  0  0
 14 15  2  0  0  0
 14103  1  0  0  0
 15104  1  0  0  0
 16 17  2  0  0  0
 16 21  1  0  0  0
 16 31  1  0  0  0
 17 18  1  0  0  0
 17105  1  0  0  0
 18 19  2  0  0  0
 18106  1  0  0  0
 19 20  1  0  0  0
 19 24  1  0  0  0
 20 21  2  0  0  0
 20107  1  0  0  0
 21 23  1  0  0  0
 22 28  1  0  0  0
 22 32  2  0  0  0
 26 27  1  0  0  0
 28108  1  0  0  0
 28109  1  0  0  0
 29110  1  0  0  0
 29111  1  0  0  0
 33 34  1  0  0  0
 33 66  1  0  0  0
 33 70  2  0  0  0
 34 36  1  0  0  0
 34 59  1  0  0  0
 34112  1  0  0  0
 35 44  2  0  0  0
 35 45  1  0  0  0
 35 68  1  0  0  0
 36 56  1  0  0  0
 36113  1  0  0  0
 37 39  1  0  0  0
 37 47  1  0  0  0
 37 66  1  0  0  0
 37114  1  0  0  0
 38 43  2  0  0  0
 38 46  1  0  0  0
 38 47  1  0  0  0
 39 64  1  0  0  0
 39 67  2  0  0  0
 40 52  1  0  0  0
 40 53  2  0  0  0
 40 58  1  0  0  0
 41115  1  0  0  0
 41116  1  0  0  0
 41117  1  0  0  0
 41 48  1  0  0  0
 42 43  1  0  0  0
 42 66  1  0  0  0
 42118  1  0  0  0
 42119  1  0  0  0
 43 44  1  0  0  0
 44120  1  0  0  0
 45 46  2  0  0  0
 45121  1  0  0  0
 46122  1  0  0  0
 47123  1  0  0  0
 47124  1  0  0  0
 48 56  1  0  0  0
 48 65  1  0  0  0
 48125  1  0  0  0
 49 50  1  0  0  0
 49 53  1  0  0  0
 49 64  1  0  0  0
 49126  1  0  0  0
 50 51  1  0  0  0
 50127  1  0  0  0
 50128  1  0  0  0
 51 52  1  0  0  0
 51129  1  0  0  0
 51130  1  0  0  0
 52131  1  0  0  0
 52132  1  0  0  0
 53 54  1  0  0  0
 54 55  2  0  0  0
 54133  1  0  0  0
 55 57  1  0  0  0
 55134  1  0  0  0
 56 69  2  0  0  0
 57 58  2  0  0  0
 57135  1  0  0  0
 58136  1  0  0  0
 59 60  1  0  0  0
 59 61  1  0  0  0
 59 62  1  0  0  0
 60137  1  0  0  0
 60138  1  0  0  0
 60139  1  0  0  0
 61140  1  0  0  0
 61141  1  0  0  0
 61142  1  0  0  0
 62143  1  0  0  0
 62144  1  0  0  0
 62145  1  0  0  0
 63 65  1  0  0  0
 63146  1  0  0  0
 63147  1  0  0  0
 63148  1  0  0  0
 64149  1  0  0  0
 65150  1  0  0  0
 68 87  1  0  0  0
 71 73  2  0  0  0
 71 76  1  0  0  0
 71151  1  0  0  0
 72 74  2  0  0  0
 72 75  1  0  0  0
 72152  1  0  0  0
 73 74  1  0  0  0
 73 77  1  0  0  0
 74 84  1  0  0  0
 75 76  2  0  0  0
 75 83  1  0  0  0
 76 88  1  0  0  0
 77153  1  0  0  0
 77154  1  0  0  0
 77155  1  0  0  0
 78156  1  0  0  0
 78157  1  0  0  0
 78158  1  0  0  0
 78 88  1  0  0  0
 79 88  1  0  0  0
 79159  1  0  0  0
 79160  1  0  0  0
 79161  1  0  0  0
 80162  1  0  0  0
 80163  1  0  0  0
 80164  1  0  0  0
 80 89  1  0  0  0
 81165  1  0  0  0
 81166  1  0  0  0
 81167  1  0  0  0
 81 90  1  0  0  0
 82 90  1  0  0  0
 82168  1  0  0  0
 82169  1  0  0  0
 82170  1  0  0  0
 83 85  1  0  0  0
 83171  1  0  0  0
 83172  1  0  0  0
 84 90  1  0  0  0
 84173  1  0  0  0
 84174  1  0  0  0
 85 89  1  0  0  0
 85175  1  0  0  0
 85176  1  0  0  0
 86 87  1  0  0  0
 86 89  1  0  0  0
 86177  1  0  0  0
 86178  1  0  0  0
 87179  1  0  0  0
 87180  1  0  0  0
 88181  1  0  0  0
 89182  1  0  0  0
 90 91  1  0  0  0
 91183  1  0  0  0
M  ISO  4   1 100  68 101  87 101  91 100
M  END
> <chiral flag>
0

> <version>
0

> <s_m_source_file>
/data/baiqing/PycharmProjects/Reinvent-master-3.2/result/LINK_invent/BTK/process_docking_weight1_custom_sum_contain_oxygen_bond_distance_aromatic_linkinvent_7_9_3/rearranged_h_0103.sdf

> <i_m_source_file_index>
30

> <r_mmod_Potential_Energy-OPLS-2005>
125.26927947998

> <r_mmod_Stretch_Energy-OPLS-2005>
42.6816101074219

> <r_mmod_Bend_Energy-OPLS-2005>
144.017776489258

> <r_mmod_Torsional_Energy-OPLS-2005>
330.659942626953

> <r_mmod_Improper_Torsional_Energy-OPLS-2005>
9.1996603012085

> <r_mmod_Van_der_Waal_Energy-OPLS-2005>
149.668487548828

> <r_mmod_Electrostatic_Energy-OPLS-2005>
-378.967498779297

> <r_mmod_Solvation_Energy-OPLS-2005>
-181.680786132812

> <b_mmod_Minimization_Converged-OPLS-2005>
0

> <r_mmod_RMS_Derivative-OPLS-2005>
7.64978313446045

$$$$
30
                    3D
 Structure written by MMmdl.
155162  0  0  1  0            999 V2000
  -30.3142  -15.5695   20.3165 C   0  0  0  0  0  0
  -30.4419  -13.0343   19.5073 C   0  0  0  0  0  0
  -29.5459  -12.6514   18.2959 C   0  0  0  0  0  0
  -28.0991  -12.3364   18.7231 C   0  0  0  0  0  0
  -27.6017  -13.3068   19.8247 C   0  0  2  0  0  0
  -28.6538  -13.5254   20.9329 C   0  0  0  0  0  0
  -25.2247  -13.8275   20.5754 C   0  0  0  0  0  0
  -24.1642  -13.0434   20.9260 C   0  0  0  0  0  0
  -24.6365  -11.6956   20.8765 C   0  0  0  0  0  0
  -23.9083  -10.4312   21.0370 C   0  0  0  0  0  0
  -24.3634   -9.4244   21.9149 C   0  0  0  0  0  0
  -23.6348   -8.2265   22.0736 C   0  0  0  0  0  0
  -22.4311   -8.0285   21.3527 C   0  0  0  0  0  0
  -21.9945   -9.0255   20.4619 C   0  0  0  0  0  0
  -22.7248  -10.2141   20.3017 C   0  0  0  0  0  0
  -21.6871   -6.0738   22.5236 C   0  0  0  0  0  0
  -21.4025   -6.5626   23.8166 C   0  0  0  0  0  0
  -21.3696   -5.6772   24.9127 C   0  0  0  0  0  0
  -21.6068   -4.3022   24.7177 C   0  0  0  0  0  0
  -21.8828   -3.8139   23.4287 C   0  0  0  0  0  0
  -21.9204   -4.6966   22.3356 C   0  0  0  0  0  0
  -22.7639  -13.5176   21.1886 C   0  0  0  0  0  0
  -22.1638   -4.2165   21.0929 F   0  0  0  0  0  0
  -21.5688   -3.4504   25.7687 F   0  0  0  0  0  0
  -29.8052  -14.1973   20.2668 N   0  0  0  0  0  0
  -26.2765  -12.9634   20.3311 N   0  0  0  0  0  0
  -25.9332  -11.6709   20.5762 N   0  0  0  0  0  0
  -22.0287  -12.8181   22.0460 N   0  0  0  0  0  0
  -25.3730  -15.1998   20.4136 N   0  0  0  0  0  0
  -31.5557  -15.5090   20.1842 O   0  0  0  0  0  0
  -21.6685   -6.8881   21.4199 O   0  0  0  0  0  0
  -22.3307  -14.5438   20.6668 O   0  0  0  0  0  0
  -24.6852  -31.8065   23.1526 C   0  0  0  0  0  0
  -25.9456  -32.4505   23.8051 C   0  0  1  0  0  0
  -27.2285  -26.7501   20.1928 C   0  0  0  0  0  0
  -25.6029  -33.8318   24.1955 N   0  0  0  0  0  0
  -23.5024  -30.4107   21.5123 C   0  0  2  0  0  0
  -24.9529  -28.7541   20.1093 C   0  0  0  0  0  0
  -22.7715  -29.4411   22.4788 C   0  0  0  0  0  0
  -18.0315  -28.1406   22.8463 C   0  0  0  0  0  0
  -24.1490  -36.7173   23.2654 C   0  0  0  0  0  0
  -26.0817  -30.5520   21.4032 C   0  0  0  0  0  0
  -26.1446  -29.1213   20.7502 C   0  0  0  0  0  0
  -27.2687  -28.1472   20.7558 C   0  0  0  0  0  0
  -26.0073  -26.5802   19.4941 C   0  0  0  0  0  0
  -24.9237  -27.5088   19.4537 C   0  0  0  0  0  0
  -23.7426  -29.7043   20.1461 C   0  0  0  0  0  0
  -25.4134  -36.2922   24.0292 C   0  0  1  0  0  0
  -20.5948  -28.3776   23.1163 C   0  0  2  0  0  0
  -20.6796  -26.9449   22.5411 C   0  0  0  0  0  0
  -19.5785  -26.6370   21.5202 C   0  0  0  0  0  0
  -18.1953  -26.7942   22.1605 C   0  0  0  0  0  0
  -19.1582  -28.8904   23.2795 C   0  0  0  0  0  0
  -18.9498  -30.1493   23.8837 C   0  0  0  0  0  0
  -17.6493  -30.6599   24.0534 C   0  0  0  0  0  0
  -25.9127  -34.9320   23.4966 C   0  0  0  0  0  0
  -16.5374  -29.9086   23.6356 C   0  0  0  0  0  0
  -16.7297  -28.6499   23.0386 C   0  0  0  0  0  0
  -26.4571  -31.6517   25.0676 C   0  0  0  0  0  0
  -25.3652  -31.3827   26.1320 C   0  0  0  0  0  0
  -27.0477  -30.2870   24.6538 C   0  0  0  0  0  0
  -27.6047  -32.4336   25.7494 C   0  0  0  0  0  0
  -27.5565  -37.1749   24.8462 C   0  0  0  0  0  0
  -21.4384  -29.3035   22.3500 N   0  0  0  0  0  0
  -26.4268  -37.3689   23.9409 N   0  0  0  0  0  0
  -24.7810  -30.9527   22.0760 N   0  0  0  0  0  0
  -23.4181  -28.8038   23.3140 O   0  0  0  0  0  0
  -28.2085  -25.5635   20.2843 O   0  0  0  0  0  0
  -26.5773  -34.8898   22.4588 O   0  0  0  0  0  0
  -23.5890  -32.1125   23.6524 O   0  0  0  0  0  0
  -27.8754  -19.1876   17.8648 C   0  0  0  0  0  0
  -29.8537  -20.7467   17.6752 C   0  0  0  0  0  0
  -28.1035  -16.8474   20.4156 C   0  0  0  0  0  0
  -29.0040  -22.2031   20.3887 C   0  0  0  0  0  0
  -29.8307  -18.6855   20.3436 C   0  0  0  0  0  0
  -28.0662  -23.8437   20.0491 C   0  0  0  0  0  0
  -28.5876  -20.4008   18.4810 C   0  0  0  0  0  0
  -28.8629  -20.3239   20.0050 C   0  0  2  0  0  0
  -29.5568  -16.9407   20.3169 N   0  0  0  0  0  0
  -31.4312  -13.3075   19.1328 H   0  0  0  0  0  0
  -30.6208  -12.1718   20.1528 H   0  0  0  0  0  0
  -29.9805  -11.8098   17.7558 H   0  0  0  0  0  0
  -29.5263  -13.4907   17.5960 H   0  0  0  0  0  0
  -28.0733  -11.3169   19.1064 H   0  0  0  0  0  0
  -27.4297  -12.3590   17.8608 H   0  0  0  0  0  0
  -27.4845  -14.2625   19.3137 H   0  0  0  0  0  0
  -28.9090  -12.5649   21.3908 H   0  0  0  0  0  0
  -28.2739  -14.1258   21.7535 H   0  0  0  0  0  0
  -25.2771   -9.5794   22.4704 H   0  0  0  0  0  0
  -24.0066   -7.4701   22.7501 H   0  0  0  0  0  0
  -21.0845   -8.8788   19.8953 H   0  0  0  0  0  0
  -22.3675  -10.9693   19.6144 H   0  0  0  0  0  0
  -21.1961   -7.6126   23.9687 H   0  0  0  0  0  0
  -21.1530   -6.0467   25.9042 H   0  0  0  0  0  0
  -22.0586   -2.7601   23.2744 H   0  0  0  0  0  0
  -22.3923  -11.9877   22.4905 H   0  0  0  0  0  0
  -21.0914  -13.1247   22.2672 H   0  0  0  0  0  0
  -24.6122  -15.8588   20.5399 H   0  0  0  0  0  0
  -26.2323  -15.6408   20.1135 H   0  0  0  0  0  0
  -26.7567  -32.4982   23.0792 H   0  0  0  0  0  0
  -25.0014  -33.9322   25.0003 H   0  0  0  0  0  0
  -22.8285  -31.2509   21.3295 H   0  0  0  0  0  0
  -23.3773  -35.9488   23.3270 H   0  0  0  0  0  0
  -24.3562  -36.8882   22.2081 H   0  0  0  0  0  0
  -23.7216  -37.6338   23.6741 H   0  0  0  0  0  0
  -26.2840  -31.2777   20.6136 H   0  0  0  0  0  0
  -26.9380  -30.6115   22.0645 H   0  0  0  0  0  0
  -28.1706  -28.4378   21.2743 H   0  0  0  0  0  0
  -25.8532  -25.6313   18.9970 H   0  0  0  0  0  0
  -24.0278  -27.2195   18.9216 H   0  0  0  0  0  0
  -23.8971  -30.4676   19.3818 H   0  0  0  0  0  0
  -22.8428  -29.1688   19.8387 H   0  0  0  0  0  0
  -25.1338  -36.1690   25.0787 H   0  0  0  0  0  0
  -21.0020  -28.3391   24.1305 H   0  0  0  0  0  0
  -20.5618  -26.2402   23.3664 H   0  0  0  0  0  0
  -21.6659  -26.7412   22.1253 H   0  0  0  0  0  0
  -19.6952  -25.6264   21.1288 H   0  0  0  0  0  0
  -19.6731  -27.3122   20.6680 H   0  0  0  0  0  0
  -17.4237  -26.6680   21.4006 H   0  0  0  0  0  0
  -18.0370  -26.0083   22.8997 H   0  0  0  0  0  0
  -19.7971  -30.7307   24.2209 H   0  0  0  0  0  0
  -17.5048  -31.6288   24.5124 H   0  0  0  0  0  0
  -15.5375  -30.2966   23.7723 H   0  0  0  0  0  0
  -15.8691  -28.0783   22.7172 H   0  0  0  0  0  0
  -24.5842  -30.7168   25.7629 H   0  0  0  0  0  0
  -24.8837  -32.3047   26.4589 H   0  0  0  0  0  0
  -25.7866  -30.9094   27.0207 H   0  0  0  0  0  0
  -26.3185  -29.6527   24.1501 H   0  0  0  0  0  0
  -27.3882  -29.7261   25.5243 H   0  0  0  0  0  0
  -27.9161  -30.3988   24.0056 H   0  0  0  0  0  0
  -27.2614  -33.3688   26.1912 H   0  0  0  0  0  0
  -28.3941  -32.6821   25.0397 H   0  0  0  0  0  0
  -28.0623  -31.8573   26.5542 H   0  0  0  0  0  0
  -28.2574  -38.0057   24.7526 H   0  0  0  0  0  0
  -28.1071  -36.2594   24.6250 H   0  0  0  0  0  0
  -27.2309  -37.1357   25.8875 H   0  0  0  0  0  0
  -20.9675  -29.8636   21.6533 H   0  0  0  0  0  0
  -26.0107  -38.2767   24.1365 H   0  0  0  0  0  0
  -27.6350  -19.3846   16.8174 H   0  0  0  0  0  0
  -26.9282  -18.9762   18.3638 H   0  0  0  0  0  0
  -28.4942  -18.2908   17.8936 H   0  0  0  0  0  0
  -29.5996  -20.9578   16.6375 H   0  0  0  0  0  0
  -30.5621  -19.9195   17.6795 H   0  0  0  0  0  0
  -30.3702  -21.6297   18.0547 H   0  0  0  0  0  0
  -27.6605  -17.7692   20.7924 H   0  0  0  0  0  0
  -27.7838  -16.0858   21.1170 H   0  0  0  0  0  0
  -27.6758  -16.6592   19.4327 H   0  0  0  0  0  0
  -29.1158  -22.2124   21.4712 H   0  0  0  0  0  0
  -30.0111  -22.4460   20.0507 H   0  0  0  0  0  0
  -30.1525  -18.8093   21.3764 H   0  0  0  0  0  0
  -30.7569  -18.7865   19.7770 H   0  0  0  0  0  0
  -27.0646  -23.6371   20.4307 H   0  0  0  0  0  0
  -27.9244  -23.8006   18.9695 H   0  0  0  0  0  0
  -27.8920  -21.2310   18.3460 H   0  0  0  0  0  0
  -27.9066  -20.1021   20.4757 H   0  0  0  0  0  0
  1 25  1  0  0  0
  1 30  2  0  0  0
  1 79  1  0  0  0
  2  3  1  0  0  0
  2 25  1  0  0  0
  2 80  1  0  0  0
  2 81  1  0  0  0
  3  4  1  0  0  0
  3 82  1  0  0  0
  3 83  1  0  0  0
  4  5  1  0  0  0
  4 84  1  0  0  0
  4 85  1  0  0  0
  5  6  1  0  0  0
  5 26  1  0  0  0
  5 86  1  0  0  0
  6 25  1  0  0  0
  6 87  1  0  0  0
  6 88  1  0  0  0
  7  8  2  0  0  0
  7 26  1  0  0  0
  7 29  1  0  0  0
  8  9  1  0  0  0
  8 22  1  0  0  0
  9 10  1  0  0  0
  9 27  2  0  0  0
 10 11  2  0  0  0
 10 15  1  0  0  0
 11 12  1  0  0  0
 11 89  1  0  0  0
 12 13  2  0  0  0
 12 90  1  0  0  0
 13 14  1  0  0  0
 13 31  1  0  0  0
 14 15  2  0  0  0
 14 91  1  0  0  0
 15 92  1  0  0  0
 16 17  2  0  0  0
 16 21  1  0  0  0
 16 31  1  0  0  0
 17 18  1  0  0  0
 17 93  1  0  0  0
 18 19  2  0  0  0
 18 94  1  0  0  0
 19 20  1  0  0  0
 19 24  1  0  0  0
 20 21  2  0  0  0
 20 95  1  0  0  0
 21 23  1  0  0  0
 22 28  1  0  0  0
 22 32  2  0  0  0
 26 27  1  0  0  0
 28 96  1  0  0  0
 28 97  1  0  0  0
 29 98  1  0  0  0
 29 99  1  0  0  0
 33 34  1  0  0  0
 33 66  1  0  0  0
 33 70  2  0  0  0
 34 36  1  0  0  0
 34 59  1  0  0  0
 34100  1  0  0  0
 35 44  2  0  0  0
 35 45  1  0  0  0
 35 68  1  0  0  0
 36 56  1  0  0  0
 36101  1  0  0  0
 37 39  1  0  0  0
 37 47  1  0  0  0
 37 66  1  0  0  0
 37102  1  0  0  0
 38 43  2  0  0  0
 38 46  1  0  0  0
 38 47  1  0  0  0
 39 64  1  0  0  0
 39 67  2  0  0  0
 40 52  1  0  0  0
 40 53  2  0  0  0
 40 58  1  0  0  0
 41103  1  0  0  0
 41104  1  0  0  0
 41105  1  0  0  0
 41 48  1  0  0  0
 42 43  1  0  0  0
 42 66  1  0  0  0
 42106  1  0  0  0
 42107  1  0  0  0
 43 44  1  0  0  0
 44108  1  0  0  0
 45 46  2  0  0  0
 45109  1  0  0  0
 46110  1  0  0  0
 47111  1  0  0  0
 47112  1  0  0  0
 48 56  1  0  0  0
 48 65  1  0  0  0
 48113  1  0  0  0
 49 50  1  0  0  0
 49 53  1  0  0  0
 49 64  1  0  0  0
 49114  1  0  0  0
 50 51  1  0  0  0
 50115  1  0  0  0
 50116  1  0  0  0
 51 52  1  0  0  0
 51117  1  0  0  0
 51118  1  0  0  0
 52119  1  0  0  0
 52120  1  0  0  0
 53 54  1  0  0  0
 54 55  2  0  0  0
 54121  1  0  0  0
 55 57  1  0  0  0
 55122  1  0  0  0
 56 69  2  0  0  0
 57 58  2  0  0  0
 57123  1  0  0  0
 58124  1  0  0  0
 59 60  1  0  0  0
 59 61  1  0  0  0
 59 62  1  0  0  0
 60125  1  0  0  0
 60126  1  0  0  0
 60127  1  0  0  0
 61128  1  0  0  0
 61129  1  0  0  0
 61130  1  0  0  0
 62131  1  0  0  0
 62132  1  0  0  0
 62133  1  0  0  0
 63 65  1  0  0  0
 63134  1  0  0  0
 63135  1  0  0  0
 63136  1  0  0  0
 64137  1  0  0  0
 65138  1  0  0  0
 68 76  1  0  0  0
 71139  1  0  0  0
 71140  1  0  0  0
 71141  1  0  0  0
 71 77  1  0  0  0
 72 77  1  0  0  0
 72142  1  0  0  0
 72143  1  0  0  0
 72144  1  0  0  0
 73 79  1  0  0  0
 73145  1  0  0  0
 73146  1  0  0  0
 73147  1  0  0  0
 74 76  1  0  0  0
 74148  1  0  0  0
 74149  1  0  0  0
 74 78  1  0  0  0
 75 78  1  0  0  0
 75 79  1  0  0  0
 75150  1  0  0  0
 75151  1  0  0  0
 76152  1  0  0  0
 76153  1  0  0  0
 77 78  1  0  0  0
 77154  1  0  0  0
 78155  1  0  0  0
M  ISO  4   1 100  68 101  76 101  79 100
M  END
> <chiral flag>
0

> <version>
0

> <s_m_source_file>
/data/baiqing/PycharmProjects/Reinvent-master-3.2/result/LINK_invent/BTK/process_docking_weight1_custom_sum_contain_oxygen_bond_distance_aromatic_linkinvent_7_9_3/rearranged_h_0103.sdf

> <i_m_source_file_index>
31

> <r_mmod_Potential_Energy-OPLS-2005>
2440.35864257812

> <r_mmod_Stretch_Energy-OPLS-2005>
1115.38452148438

> <r_mmod_Bend_Energy-OPLS-2005>
625.129516601562

> <r_mmod_Torsional_Energy-OPLS-2005>
284.017883300781

> <r_mmod_Improper_Torsional_Energy-OPLS-2005>
3.94173121452332

> <r_mmod_Van_der_Waal_Energy-OPLS-2005>
112.634620666504

> <r_mmod_Electrostatic_Energy-OPLS-2005>
-290.512573242188

> <r_mmod_Solvation_Energy-OPLS-2005>
-199.370422363281

> <b_mmod_Minimization_Converged-OPLS-2005>
0

> <r_mmod_RMS_Derivative-OPLS-2005>
5.64218807220459

$$$$
31
                    3D
 Structure written by MMmdl.
172180  0  0  1  0            999 V2000
  -30.6131  -14.7306   20.4646 C   0  0  0  0  0  0
  -30.4286  -12.4481   19.4691 C   0  0  0  0  0  0
  -29.5065  -12.5084   18.2322 C   0  0  0  0  0  0
  -28.0317  -12.3374   18.6448 C   0  0  0  0  0  0
  -27.6408  -13.2316   19.8520 C   0  0  2  0  0  0
  -28.6854  -13.1582   20.9862 C   0  0  0  0  0  0
  -25.2502  -13.8197   20.5694 C   0  0  0  0  0  0
  -24.1801  -13.0437   20.9214 C   0  0  0  0  0  0
  -24.6393  -11.6917   20.8750 C   0  0  0  0  0  0
  -23.9066  -10.4295   21.0406 C   0  0  0  0  0  0
  -24.3616   -9.4211   21.9183 C   0  0  0  0  0  0
  -23.6294   -8.2244   22.0747 C   0  0  0  0  0  0
  -22.4276   -8.0283   21.3540 C   0  0  0  0  0  0
  -21.9909   -9.0257   20.4643 C   0  0  0  0  0  0
  -22.7234  -10.2139   20.3058 C   0  0  0  0  0  0
  -21.6856   -6.0737   22.5283 C   0  0  0  0  0  0
  -21.4015   -6.5640   23.8215 C   0  0  0  0  0  0
  -21.3663   -5.6793   24.9179 C   0  0  0  0  0  0
  -21.6045   -4.3058   24.7228 C   0  0  0  0  0  0
  -21.8818   -3.8148   23.4349 C   0  0  0  0  0  0
  -21.9194   -4.6964   22.3406 C   0  0  0  0  0  0
  -22.7823  -13.5214   21.1881 C   0  0  0  0  0  0
  -22.1660   -4.2153   21.0979 F   0  0  0  0  0  0
  -21.5632   -3.4537   25.7739 F   0  0  0  0  0  0
  -29.9852  -13.5085   20.4017 N   0  0  0  0  0  0
  -26.2930  -12.9405   20.3284 N   0  0  0  0  0  0
  -25.9321  -11.6546   20.5753 N   0  0  0  0  0  0
  -22.0469  -12.8211   22.0441 N   0  0  0  0  0  0
  -25.4173  -15.1924   20.4094 N   0  0  0  0  0  0
  -31.8035  -14.8260   20.1551 O   0  0  0  0  0  0
  -21.6642   -6.8877   21.4241 O   0  0  0  0  0  0
  -22.3509  -14.5517   20.6723 O   0  0  0  0  0  0
  -24.6324  -31.8542   23.1951 C   0  0  0  0  0  0
  -25.9147  -32.4747   23.8306 C   0  0  1  0  0  0
  -27.2241  -27.2557   20.1211 C   0  0  0  0  0  0
  -25.5944  -33.8549   24.2239 N   0  0  0  0  0  0
  -23.4273  -30.4763   21.5397 C   0  0  2  0  0  0
  -24.8700  -28.9166   20.1118 C   0  0  0  0  0  0
  -22.7503  -29.4602   22.4910 C   0  0  0  0  0  0
  -18.0290  -28.1393   22.8485 C   0  0  0  0  0  0
  -24.1488  -36.7279   23.2637 C   0  0  0  0  0  0
  -25.9717  -30.7672   21.3698 C   0  0  0  0  0  0
  -26.0417  -29.3881   20.7132 C   0  0  0  0  0  0
  -27.2163  -28.5714   20.7016 C   0  0  0  0  0  0
  -26.0137  -26.8373   19.5279 C   0  0  0  0  0  0
  -24.8608  -27.6488   19.5110 C   0  0  0  0  0  0
  -23.6435  -29.8070   20.1564 C   0  0  0  0  0  0
  -25.4114  -36.3062   24.0325 C   0  0  1  0  0  0
  -20.5895  -28.3706   23.1269 C   0  0  2  0  0  0
  -20.6779  -26.9426   22.5406 C   0  0  0  0  0  0
  -19.5751  -26.6393   21.5212 C   0  0  0  0  0  0
  -18.1933  -26.7934   22.1626 C   0  0  0  0  0  0
  -19.1545  -28.8864   23.2874 C   0  0  0  0  0  0
  -18.9469  -30.1464   23.8899 C   0  0  0  0  0  0
  -17.6469  -30.6595   24.0564 C   0  0  0  0  0  0
  -25.9061  -34.9438   23.5084 C   0  0  0  0  0  0
  -16.5359  -29.9095   23.6328 C   0  0  0  0  0  0
  -16.7279  -28.6510   23.0353 C   0  0  0  0  0  0
  -26.4510  -31.6578   25.0702 C   0  0  0  0  0  0
  -25.3731  -31.3740   26.1425 C   0  0  0  0  0  0
  -27.0350  -30.2994   24.6179 C   0  0  0  0  0  0
  -27.6060  -32.4322   25.7483 C   0  0  0  0  0  0
  -27.5578  -37.1792   24.8464 C   0  0  0  0  0  0
  -21.4210  -29.3050   22.3658 N   0  0  0  0  0  0
  -26.4283  -37.3769   23.9416 N   0  0  0  0  0  0
  -24.6966  -31.0510   22.0917 N   0  0  0  0  0  0
  -23.4202  -28.8148   23.3016 O   0  0  0  0  0  0
  -28.3799  -26.4388   20.1822 O   0  0  0  0  0  0
  -26.5635  -34.8918   22.4655 O   0  0  0  0  0  0
  -23.5478  -32.1363   23.7259 O   0  0  0  0  0  0
  -28.7820  -21.4691   22.6881 C   0  0  0  0  0  0
  -29.0763  -19.2760   22.7027 C   0  0  0  0  0  0
  -28.8980  -20.3381   23.5372 C   0  0  0  0  0  0
  -28.9174  -21.1205   21.3682 C   0  0  0  0  0  0
  -28.4006  -21.6604   25.6323 C   0  0  0  0  0  0
  -30.2461  -19.9688   25.5989 C   0  0  0  0  0  0
  -27.8501  -19.2215   25.5233 C   0  0  0  0  0  0
  -28.0405  -24.7545   18.2835 C   0  0  0  0  0  0
  -30.1536  -25.1650   19.4901 C   0  0  0  0  0  0
  -28.8412  -22.2111   20.2349 C   0  0  0  0  0  0
  -28.4102  -23.7438   20.6485 C   0  0  0  0  0  0
  -29.3273  -18.5865   20.3336 C   0  0  0  0  0  0
  -30.3153  -17.3295   20.6797 C   0  0  0  0  0  0
  -28.8442  -20.3007   25.0584 C   0  0  0  0  0  0
  -28.6301  -25.0300   19.6814 C   0  0  0  0  0  0
  -29.1431  -19.6778   21.3749 N   0  0  0  0  0  0
  -29.8497  -15.8689   20.6728 N   0  0  0  0  0  0
  -31.4699  -12.5714   19.1672 H   0  0  0  0  0  0
  -30.3705  -11.4702   19.9490 H   0  0  0  0  0  0
  -29.7853  -11.7379   17.5125 H   0  0  0  0  0  0
  -29.6366  -13.4653   17.7243 H   0  0  0  0  0  0
  -27.8810  -11.2873   18.8977 H   0  0  0  0  0  0
  -27.3761  -12.5420   17.7973 H   0  0  0  0  0  0
  -27.6376  -14.2558   19.4785 H   0  0  0  0  0  0
  -28.7187  -12.1583   21.4223 H   0  0  0  0  0  0
  -28.4246  -13.8388   21.7983 H   0  0  0  0  0  0
  -25.2755   -9.5699   22.4762 H   0  0  0  0  0  0
  -24.0013   -7.4636   22.7461 H   0  0  0  0  0  0
  -21.0844   -8.8767   19.8947 H   0  0  0  0  0  0
  -22.3677  -10.9679   19.6176 H   0  0  0  0  0  0
  -21.1999   -7.6148   23.9722 H   0  0  0  0  0  0
  -21.1490   -6.0521   25.9084 H   0  0  0  0  0  0
  -22.0592   -2.7609   23.2847 H   0  0  0  0  0  0
  -22.4074  -11.9871   22.4838 H   0  0  0  0  0  0
  -21.1085  -13.1242   22.2634 H   0  0  0  0  0  0
  -24.6450  -15.8404   20.5186 H   0  0  0  0  0  0
  -26.2569  -15.6354   20.0600 H   0  0  0  0  0  0
  -26.7211  -32.5386   23.1043 H   0  0  0  0  0  0
  -25.0100  -33.9680   25.0392 H   0  0  0  0  0  0
  -22.7241  -31.2990   21.3931 H   0  0  0  0  0  0
  -23.3755  -35.9607   23.3292 H   0  0  0  0  0  0
  -24.3575  -36.8909   22.2052 H   0  0  0  0  0  0
  -23.7239  -37.6475   23.6669 H   0  0  0  0  0  0
  -26.1068  -31.5263   20.5979 H   0  0  0  0  0  0
  -26.8515  -30.8179   22.0002 H   0  0  0  0  0  0
  -28.1183  -28.9356   21.1729 H   0  0  0  0  0  0
  -25.9075  -25.8586   19.1006 H   0  0  0  0  0  0
  -23.9565  -27.2714   19.0533 H   0  0  0  0  0  0
  -23.7728  -30.5819   19.4000 H   0  0  0  0  0  0
  -22.7602  -29.2439   19.8498 H   0  0  0  0  0  0
  -25.1294  -36.1899   25.0819 H   0  0  0  0  0  0
  -20.9989  -28.3283   24.1389 H   0  0  0  0  0  0
  -20.5678  -26.2319   23.3611 H   0  0  0  0  0  0
  -21.6645  -26.7447   22.1198 H   0  0  0  0  0  0
  -19.6912  -25.6304   21.1240 H   0  0  0  0  0  0
  -19.6682  -27.3206   20.6744 H   0  0  0  0  0  0
  -17.4199  -26.6682   21.4031 H   0  0  0  0  0  0
  -18.0335  -26.0078   22.9026 H   0  0  0  0  0  0
  -19.7946  -30.7276   24.2271 H   0  0  0  0  0  0
  -17.5026  -31.6273   24.5171 H   0  0  0  0  0  0
  -15.5361  -30.3001   23.7651 H   0  0  0  0  0  0
  -15.8678  -28.0831   22.7070 H   0  0  0  0  0  0
  -24.5909  -30.7080   25.7758 H   0  0  0  0  0  0
  -24.8920  -32.2916   26.4826 H   0  0  0  0  0  0
  -25.8051  -30.8937   27.0214 H   0  0  0  0  0  0
  -26.2924  -29.6743   24.1202 H   0  0  0  0  0  0
  -27.4036  -29.7253   25.4690 H   0  0  0  0  0  0
  -27.8801  -30.4271   23.9409 H   0  0  0  0  0  0
  -27.2665  -33.3628   26.2047 H   0  0  0  0  0  0
  -28.3886  -32.6876   25.0324 H   0  0  0  0  0  0
  -28.0713  -31.8455   26.5413 H   0  0  0  0  0  0
  -28.2586  -38.0098   24.7523 H   0  0  0  0  0  0
  -28.1080  -36.2628   24.6271 H   0  0  0  0  0  0
  -27.2298  -37.1420   25.8867 H   0  0  0  0  0  0
  -20.9402  -29.8780   21.6864 H   0  0  0  0  0  0
  -26.0154  -38.2836   24.1434 H   0  0  0  0  0  0
  -28.6119  -22.4758   23.0388 H   0  0  0  0  0  0
  -29.1761  -18.2313   22.9640 H   0  0  0  0  0  0
  -29.0966  -22.4570   25.3677 H   0  0  0  0  0  0
  -28.3469  -21.6326   26.7211 H   0  0  0  0  0  0
  -27.4141  -21.9459   25.2653 H   0  0  0  0  0  0
  -30.9769  -20.7160   25.2863 H   0  0  0  0  0  0
  -30.5964  -19.0004   25.2385 H   0  0  0  0  0  0
  -30.2573  -19.9349   26.6892 H   0  0  0  0  0  0
  -26.8498  -19.4081   25.1301 H   0  0  0  0  0  0
  -27.7746  -19.1922   26.6111 H   0  0  0  0  0  0
  -28.1507  -18.2257   25.1962 H   0  0  0  0  0  0
  -28.6345  -24.0144   17.7456 H   0  0  0  0  0  0
  -28.0173  -25.6544   17.6684 H   0  0  0  0  0  0
  -27.0391  -24.3305   18.3317 H   0  0  0  0  0  0
  -30.6002  -24.2674   19.0631 H   0  0  0  0  0  0
  -30.6568  -25.3579   20.4385 H   0  0  0  0  0  0
  -30.3981  -25.9906   18.8204 H   0  0  0  0  0  0
  -28.1630  -21.8623   19.4555 H   0  0  0  0  0  0
  -29.8200  -22.2478   19.7591 H   0  0  0  0  0  0
  -28.9601  -23.9945   21.5547 H   0  0  0  0  0  0
  -27.3636  -23.7241   20.9530 H   0  0  0  0  0  0
  -28.3365  -18.2017   20.0908 H   0  0  0  0  0  0
  -29.6785  -19.0684   19.4208 H   0  0  0  0  0  0
  -30.8106  -17.5003   21.6353 H   0  0  0  0  0  0
  -31.1365  -17.3907   19.9640 H   0  0  0  0  0  0
  -28.8722  -15.7100   20.8660 H   0  0  0  0  0  0
  1 25  1  0  0  0
  1 30  2  0  0  0
  1 87  1  0  0  0
  2  3  1  0  0  0
  2 25  1  0  0  0
  2 88  1  0  0  0
  2 89  1  0  0  0
  3  4  1  0  0  0
  3 90  1  0  0  0
  3 91  1  0  0  0
  4  5  1  0  0  0
  4 92  1  0  0  0
  4 93  1  0  0  0
  5  6  1  0  0  0
  5 26  1  0  0  0
  5 94  1  0  0  0
  6 25  1  0  0  0
  6 95  1  0  0  0
  6 96  1  0  0  0
  7  8  2  0  0  0
  7 26  1  0  0  0
  7 29  1  0  0  0
  8  9  1  0  0  0
  8 22  1  0  0  0
  9 10  1  0  0  0
  9 27  2  0  0  0
 10 11  2  0  0  0
 10 15  1  0  0  0
 11 12  1  0  0  0
 11 97  1  0  0  0
 12 13  2  0  0  0
 12 98  1  0  0  0
 13 14  1  0  0  0
 13 31  1  0  0  0
 14 15  2  0  0  0
 14 99  1  0  0  0
 15100  1  0  0  0
 16 17  2  0  0  0
 16 21  1  0  0  0
 16 31  1  0  0  0
 17 18  1  0  0  0
 17101  1  0  0  0
 18 19  2  0  0  0
 18102  1  0  0  0
 19 20  1  0  0  0
 19 24  1  0  0  0
 20 21  2  0  0  0
 20103  1  0  0  0
 21 23  1  0  0  0
 22 28  1  0  0  0
 22 32  2  0  0  0
 26 27  1  0  0  0
 28104  1  0  0  0
 28105  1  0  0  0
 29106  1  0  0  0
 29107  1  0  0  0
 33 34  1  0  0  0
 33 66  1  0  0  0
 33 70  2  0  0  0
 34 36  1  0  0  0
 34 59  1  0  0  0
 34108  1  0  0  0
 35 44  2  0  0  0
 35 45  1  0  0  0
 35 68  1  0  0  0
 36 56  1  0  0  0
 36109  1  0  0  0
 37 39  1  0  0  0
 37 47  1  0  0  0
 37 66  1  0  0  0
 37110  1  0  0  0
 38 43  2  0  0  0
 38 46  1  0  0  0
 38 47  1  0  0  0
 39 64  1  0  0  0
 39 67  2  0  0  0
 40 52  1  0  0  0
 40 53  2  0  0  0
 40 58  1  0  0  0
 41111  1  0  0  0
 41112  1  0  0  0
 41113  1  0  0  0
 41 48  1  0  0  0
 42 43  1  0  0  0
 42 66  1  0  0  0
 42114  1  0  0  0
 42115  1  0  0  0
 43 44  1  0  0  0
 44116  1  0  0  0
 45 46  2  0  0  0
 45117  1  0  0  0
 46118  1  0  0  0
 47119  1  0  0  0
 47120  1  0  0  0
 48 56  1  0  0  0
 48 65  1  0  0  0
 48121  1  0  0  0
 49 50  1  0  0  0
 49 53  1  0  0  0
 49 64  1  0  0  0
 49122  1  0  0  0
 50 51  1  0  0  0
 50123  1  0  0  0
 50124  1  0  0  0
 51 52  1  0  0  0
 51125  1  0  0  0
 51126  1  0  0  0
 52127  1  0  0  0
 52128  1  0  0  0
 53 54  1  0  0  0
 54 55  2  0  0  0
 54129  1  0  0  0
 55 57  1  0  0  0
 55130  1  0  0  0
 56 69  2  0  0  0
 57 58  2  0  0  0
 57131  1  0  0  0
 58132  1  0  0  0
 59 60  1  0  0  0
 59 61  1  0  0  0
 59 62  1  0  0  0
 60133  1  0  0  0
 60134  1  0  0  0
 60135  1  0  0  0
 61136  1  0  0  0
 61137  1  0  0  0
 61138  1  0  0  0
 62139  1  0  0  0
 62140  1  0  0  0
 62141  1  0  0  0
 63 65  1  0  0  0
 63142  1  0  0  0
 63143  1  0  0  0
 63144  1  0  0  0
 64145  1  0  0  0
 65146  1  0  0  0
 68 85  1  0  0  0
 71 73  1  0  0  0
 71 74  2  0  0  0
 71147  1  0  0  0
 72 73  2  0  0  0
 72 86  1  0  0  0
 72148  1  0  0  0
 73 84  1  0  0  0
 74 80  1  0  0  0
 74 86  1  0  0  0
 75149  1  0  0  0
 75150  1  0  0  0
 75151  1  0  0  0
 75 84  1  0  0  0
 76 84  1  0  0  0
 76152  1  0  0  0
 76153  1  0  0  0
 76154  1  0  0  0
 77 84  1  0  0  0
 77155  1  0  0  0
 77156  1  0  0  0
 77157  1  0  0  0
 78158  1  0  0  0
 78159  1  0  0  0
 78160  1  0  0  0
 78 85  1  0  0  0
 79 85  1  0  0  0
 79161  1  0  0  0
 79162  1  0  0  0
 79163  1  0  0  0
 80 81  1  0  0  0
 80164  1  0  0  0
 80165  1  0  0  0
 81 85  1  0  0  0
 81166  1  0  0  0
 81167  1  0  0  0
 82 83  1  0  0  0
 82 86  1  0  0  0
 82168  1  0  0  0
 82169  1  0  0  0
 83 87  1  0  0  0
 83170  1  0  0  0
 83171  1  0  0  0
 87172  1  0  0  0
M  ISO  4   1 100  68 101  85 101  87 100
M  END
> <chiral flag>
0

> <version>
0

> <s_m_source_file>
/data/baiqing/PycharmProjects/Reinvent-master-3.2/result/LINK_invent/BTK/process_docking_weight1_custom_sum_contain_oxygen_bond_distance_aromatic_linkinvent_7_9_3/rearranged_h_0103.sdf

> <i_m_source_file_index>
32

> <r_mmod_Potential_Energy-OPLS-2005>
157.112091064453

> <r_mmod_Stretch_Energy-OPLS-2005>
140.939056396484

> <r_mmod_Bend_Energy-OPLS-2005>
245.742446899414

> <r_mmod_Torsional_Energy-OPLS-2005>
223.85417175293

> <r_mmod_Improper_Torsional_Energy-OPLS-2005>
4.76344442367554

> <r_mmod_Van_der_Waal_Energy-OPLS-2005>
123.492538452148

> <r_mmod_Electrostatic_Energy-OPLS-2005>
-458.39990234375

> <r_mmod_Solvation_Energy-OPLS-2005>
-201.385437011719

> <b_mmod_Minimization_Converged-OPLS-2005>
0

> <r_mmod_RMS_Derivative-OPLS-2005>
0.840538024902344

$$$$
32
                    3D
 Structure written by MMmdl.
156164  0  0  1  0            999 V2000
  -30.0972  -14.7683   20.1485 C   0  0  0  0  0  0
  -30.6617  -12.4474   19.4219 C   0  0  0  0  0  0
  -29.6800  -12.2092   18.2394 C   0  0  0  0  0  0
  -28.2666  -11.8900   18.8057 C   0  0  0  0  0  0
  -28.0278  -12.8116   20.0311 C   0  0  2  0  0  0
  -29.0068  -12.8691   21.1292 C   0  0  0  0  0  0
  -25.5915  -14.4165   21.6870 C   0  0  0  0  0  0
  -24.1548  -13.7953   21.0296 C   0  0  0  0  0  0
  -24.3231  -12.4278   20.1053 C   0  0  0  0  0  0
  -23.7989  -10.9224   20.6028 C   0  0  0  0  0  0
  -24.3386   -9.9436   21.5703 C   0  0  0  0  0  0
  -23.7290   -8.6572   21.9096 C   0  0  0  0  0  0
  -22.5085   -8.2418   21.3067 C   0  0  0  0  0  0
  -21.9779   -9.1678   20.3882 C   0  0  0  0  0  0
  -22.5864  -10.4206   20.0694 C   0  0  0  0  0  0
  -21.7961   -6.1699   22.5189 C   0  0  0  0  0  0
  -21.4806   -6.6299   23.8170 C   0  0  0  0  0  0
  -21.3885   -5.7248   24.8992 C   0  0  0  0  0  0
  -21.6026   -4.3472   24.6967 C   0  0  0  0  0  0
  -21.8747   -3.8722   23.4030 C   0  0  0  0  0  0
  -21.9564   -4.7729   22.3219 C   0  0  0  0  0  0
  -22.7381  -13.9853   21.3793 C   0  0  0  0  0  0
  -22.1827   -4.2792   21.0807 F   0  0  0  0  0  0
  -21.5426   -3.4826   25.7397 F   0  0  0  0  0  0
  -30.0755  -13.4275   20.3749 N   0  0  0  0  0  0
  -26.8180  -13.3028   20.3948 N   0  0  0  0  0  0
  -25.7470  -12.4189   19.5880 N   0  0  0  0  0  0
  -22.1389  -13.0537   22.1258 N   0  0  0  0  0  0
  -26.0394  -15.5060   22.2684 N   0  0  0  0  0  0
  -31.2449  -15.2330   20.0236 O   0  0  0  0  0  0
  -21.8321   -7.0153   21.4181 O   0  0  0  0  0  0
  -22.1205  -14.8543   20.7943 O   0  0  0  0  0  0
  -24.7124  -31.7678   23.1410 C   0  0  0  0  0  0
  -25.9627  -32.4251   23.7968 C   0  0  1  0  0  0
  -26.7348  -26.2719   20.1798 C   0  0  0  0  0  0
  -25.6118  -33.8120   24.1799 N   0  0  0  0  0  0
  -23.5178  -30.4037   21.5077 C   0  0  2  0  0  0
  -24.8795  -28.7062   20.0699 C   0  0  0  0  0  0
  -22.7780  -29.4245   22.4611 C   0  0  0  0  0  0
  -18.0336  -28.1432   22.8442 C   0  0  0  0  0  0
  -24.1512  -36.7038   23.2663 C   0  0  0  0  0  0
  -26.1072  -30.3310   21.4662 C   0  0  0  0  0  0
  -26.0682  -28.8760   20.7831 C   0  0  0  0  0  0
  -27.0039  -27.6769   20.8114 C   0  0  0  0  0  0
  -25.6380  -26.4491   19.3387 C   0  0  0  0  0  0
  -24.7394  -27.5434   19.3104 C   0  0  0  0  0  0
  -23.7531  -29.7466   20.1213 C   0  0  0  0  0  0
  -25.4174  -36.2764   24.0252 C   0  0  1  0  0  0
  -20.5976  -28.3780   23.1098 C   0  0  2  0  0  0
  -20.6793  -26.9426   22.5385 C   0  0  0  0  0  0
  -19.5767  -26.6359   21.5203 C   0  0  0  0  0  0
  -18.1951  -26.7954   22.1616 C   0  0  0  0  0  0
  -19.1609  -28.8922   23.2768 C   0  0  0  0  0  0
  -18.9523  -30.1502   23.8813 C   0  0  0  0  0  0
  -17.6518  -30.6607   24.0539 C   0  0  0  0  0  0
  -25.9176  -34.9167   23.4871 C   0  0  0  0  0  0
  -16.5400  -29.9084   23.6364 C   0  0  0  0  0  0
  -16.7317  -28.6516   23.0364 C   0  0  0  0  0  0
  -26.4686  -31.6450   25.0741 C   0  0  0  0  0  0
  -25.3673  -31.3870   26.1300 C   0  0  0  0  0  0
  -27.0677  -30.2751   24.6933 C   0  0  0  0  0  0
  -27.6058  -32.4411   25.7559 C   0  0  0  0  0  0
  -27.5550  -37.1692   24.8470 C   0  0  0  0  0  0
  -21.4416  -29.3031   22.3396 N   0  0  0  0  0  0
  -26.4254  -37.3569   23.9407 N   0  0  0  0  0  0
  -24.8137  -30.8799   22.0850 N   0  0  0  0  0  0
  -23.4200  -28.7779   23.2933 O   0  0  0  0  0  0
  -27.2237  -24.7279   20.2374 O   0  0  0  0  0  0
  -26.5845  -34.8802   22.4510 O   0  0  0  0  0  0
  -23.6121  -32.1004   23.6204 O   0  0  0  0  0  0
  -25.8468  -19.9097   20.9615 C   0  0  0  0  0  0
  -26.2431  -18.3723   18.9375 C   0  0  0  0  0  0
  -25.8206  -17.1979   19.8795 C   0  0  0  0  0  0
  -25.6116  -18.3269   20.9474 C   0  0  0  0  0  0
  -26.3846  -20.9638   20.0000 C   0  0  0  0  0  0
  -25.1539  -17.5753   24.5631 C   0  0  0  0  0  0
  -25.7793  -15.0828   19.6636 C   0  0  0  0  0  0
  -26.3828  -23.0143   19.9312 C   0  0  0  0  0  0
  -27.4574  -15.4588   19.1466 C   0  0  0  0  0  0
  -25.5464  -18.4273   23.3498 C   0  0  0  0  0  0
  -26.4729  -19.8942   18.9770 N   0  0  0  0  0  0
  -28.8386  -15.4991   20.0310 N   0  0  0  0  0  0
  -25.0319  -17.8858   22.1224 O   0  0  0  0  0  0
  -31.6170  -12.8105   19.0457 H   0  0  0  0  0  0
  -30.8789  -11.5087   19.9354 H   0  0  0  0  0  0
  -30.0311  -11.3950   17.6034 H   0  0  0  0  0  0
  -29.6399  -13.0987   17.6058 H   0  0  0  0  0  0
  -28.2276  -10.8510   19.1358 H   0  0  0  0  0  0
  -27.5453  -11.9840   17.9875 H   0  0  0  0  0  0
  -28.2063  -13.4391   19.2422 H   0  0  0  0  0  0
  -29.2340  -11.8832   21.5388 H   0  0  0  0  0  0
  -28.7130  -13.5204   21.9598 H   0  0  0  0  0  0
  -25.2650  -10.2001   22.0620 H   0  0  0  0  0  0
  -24.2230   -8.0046   22.6151 H   0  0  0  0  0  0
  -21.0597   -8.9082   19.8807 H   0  0  0  0  0  0
  -22.0723  -11.0418   19.3486 H   0  0  0  0  0  0
  -21.3109   -7.6834   23.9859 H   0  0  0  0  0  0
  -21.1630   -6.0919   25.8904 H   0  0  0  0  0  0
  -22.0190   -2.8162   23.2346 H   0  0  0  0  0  0
  -22.6617  -12.2891   22.5222 H   0  0  0  0  0  0
  -21.1457  -13.1159   22.3007 H   0  0  0  0  0  0
  -25.4187  -16.3127   22.2944 H   0  0  0  0  0  0
  -26.9609  -15.7887   21.9565 H   0  0  0  0  0  0
  -26.7678  -32.4523   23.0616 H   0  0  0  0  0  0
  -25.0151  -33.9116   24.9875 H   0  0  0  0  0  0
  -22.8611  -31.2619   21.3435 H   0  0  0  0  0  0
  -23.3807  -35.9331   23.3245 H   0  0  0  0  0  0
  -24.3559  -36.8802   22.2090 H   0  0  0  0  0  0
  -23.7235  -37.6169   23.6812 H   0  0  0  0  0  0
  -26.4017  -31.0336   20.6864 H   0  0  0  0  0  0
  -26.9430  -30.3424   22.1520 H   0  0  0  0  0  0
  -27.8718  -27.7614   21.4474 H   0  0  0  0  0  0
  -25.3422  -25.5941   18.7470 H   0  0  0  0  0  0
  -23.8594  -27.4425   18.6893 H   0  0  0  0  0  0
  -24.0069  -30.5274   19.4046 H   0  0  0  0  0  0
  -22.8256  -29.3014   19.7526 H   0  0  0  0  0  0
  -25.1403  -36.1470   25.0733 H   0  0  0  0  0  0
  -21.0073  -28.3412   24.1220 H   0  0  0  0  0  0
  -20.5639  -26.2409   23.3660 H   0  0  0  0  0  0
  -21.6649  -26.7344   22.1207 H   0  0  0  0  0  0
  -19.6925  -25.6247   21.1274 H   0  0  0  0  0  0
  -19.6706  -27.3131   20.6701 H   0  0  0  0  0  0
  -17.4217  -26.6684   21.4023 H   0  0  0  0  0  0
  -18.0356  -26.0106   22.9028 H   0  0  0  0  0  0
  -19.7995  -30.7333   24.2148 H   0  0  0  0  0  0
  -17.5070  -31.6271   24.5172 H   0  0  0  0  0  0
  -15.5400  -30.2979   23.7718 H   0  0  0  0  0  0
  -15.8715  -28.0807   22.7141 H   0  0  0  0  0  0
  -24.5889  -30.7183   25.7608 H   0  0  0  0  0  0
  -24.8846  -32.3124   26.4445 H   0  0  0  0  0  0
  -25.7794  -30.9222   27.0265 H   0  0  0  0  0  0
  -26.3405  -29.6180   24.2158 H   0  0  0  0  0  0
  -27.4155  -29.7426   25.5796 H   0  0  0  0  0  0
  -27.9391  -30.3797   24.0468 H   0  0  0  0  0  0
  -27.2541  -33.3814   26.1813 H   0  0  0  0  0  0
  -28.4023  -32.6808   25.0503 H   0  0  0  0  0  0
  -28.0555  -31.8785   26.5750 H   0  0  0  0  0  0
  -28.2513  -38.0041   24.7525 H   0  0  0  0  0  0
  -28.1107  -36.2556   24.6300 H   0  0  0  0  0  0
  -27.2260  -37.1309   25.8873 H   0  0  0  0  0  0
  -20.9719  -29.8731   21.6493 H   0  0  0  0  0  0
  -26.0048  -38.2595   24.1435 H   0  0  0  0  0  0
  -25.5008  -20.4350   21.8337 H   0  0  0  0  0  0
  -26.4514  -18.0478   17.9284 H   0  0  0  0  0  0
  -26.0234  -17.3902   25.1954 H   0  0  0  0  0  0
  -24.7312  -16.6123   24.2810 H   0  0  0  0  0  0
  -24.4140  -18.0899   25.1755 H   0  0  0  0  0  0
  -25.1515  -14.8896   18.7880 H   0  0  0  0  0  0
  -25.5962  -12.6784   21.4814 H   0  0  0  0  0  0
  -25.4650  -23.1880   20.4972 H   0  0  0  0  0  0
  -26.0641  -23.1539   18.8963 H   0  0  0  0  0  0
  -27.5418  -16.3843   18.6034 H   0  0  0  0  0  0
  -27.6026  -14.9061   18.2150 H   0  0  0  0  0  0
  -26.6351  -18.5052   23.2926 H   0  0  0  0  0  0
  -25.1550  -19.4234   23.5419 H   0  0  0  0  0  0
  -29.0546  -16.4711   20.2069 H   0  0  0  0  0  0
  1 25  1  0  0  0
  1 30  2  0  0  0
  1 82  1  0  0  0
  2  3  1  0  0  0
  2 25  1  0  0  0
  2 84  1  0  0  0
  2 85  1  0  0  0
  3  4  1  0  0  0
  3 86  1  0  0  0
  3 87  1  0  0  0
  4  5  1  0  0  0
  4 88  1  0  0  0
  4 89  1  0  0  0
  5  6  1  0  0  0
  5 26  1  0  0  0
  5 90  1  0  0  0
  6 25  1  0  0  0
  6 91  1  0  0  0
  6 92  1  0  0  0
  7  8  2  0  0  0
  7 26  1  0  0  0
  7 29  1  0  0  0
  8  9  1  0  0  0
  8 22  1  0  0  0
  9 10  1  0  0  0
  9 27  2  0  0  0
 10 11  2  0  0  0
 10 15  1  0  0  0
 11 12  1  0  0  0
 11 93  1  0  0  0
 12 13  2  0  0  0
 12 94  1  0  0  0
 13 14  1  0  0  0
 13 31  1  0  0  0
 14 15  2  0  0  0
 14 95  1  0  0  0
 15 96  1  0  0  0
 16 17  2  0  0  0
 16 21  1  0  0  0
 16 31  1  0  0  0
 17 18  1  0  0  0
 17 97  1  0  0  0
 18 19  2  0  0  0
 18 98  1  0  0  0
 19 20  1  0  0  0
 19 24  1  0  0  0
 20 21  2  0  0  0
 20 99  1  0  0  0
 21 23  1  0  0  0
 22 28  1  0  0  0
 22 32  2  0  0  0
 26 27  1  0  0  0
 28100  1  0  0  0
 28101  1  0  0  0
 29102  1  0  0  0
 29103  1  0  0  0
 33 34  1  0  0  0
 33 66  1  0  0  0
 33 70  2  0  0  0
 34 36  1  0  0  0
 34 59  1  0  0  0
 34104  1  0  0  0
 35 44  2  0  0  0
 35 45  1  0  0  0
 35 68  1  0  0  0
 36 56  1  0  0  0
 36105  1  0  0  0
 37 39  1  0  0  0
 37 47  1  0  0  0
 37 66  1  0  0  0
 37106  1  0  0  0
 38 43  2  0  0  0
 38 46  1  0  0  0
 38 47  1  0  0  0
 39 64  1  0  0  0
 39 67  2  0  0  0
 40 52  1  0  0  0
 40 53  2  0  0  0
 40 58  1  0  0  0
 41107  1  0  0  0
 41108  1  0  0  0
 41109  1  0  0  0
 41 48  1  0  0  0
 42 43  1  0  0  0
 42 66  1  0  0  0
 42110  1  0  0  0
 42111  1  0  0  0
 43 44  1  0  0  0
 44112  1  0  0  0
 45 46  2  0  0  0
 45113  1  0  0  0
 46114  1  0  0  0
 47115  1  0  0  0
 47116  1  0  0  0
 48 56  1  0  0  0
 48 65  1  0  0  0
 48117  1  0  0  0
 49 50  1  0  0  0
 49 53  1  0  0  0
 49 64  1  0  0  0
 49118  1  0  0  0
 50 51  1  0  0  0
 50119  1  0  0  0
 50120  1  0  0  0
 51 52  1  0  0  0
 51121  1  0  0  0
 51122  1  0  0  0
 52123  1  0  0  0
 52124  1  0  0  0
 53 54  1  0  0  0
 54 55  2  0  0  0
 54125  1  0  0  0
 55 57  1  0  0  0
 55126  1  0  0  0
 56 69  2  0  0  0
 57 58  2  0  0  0
 57127  1  0  0  0
 58128  1  0  0  0
 59 60  1  0  0  0
 59 61  1  0  0  0
 59 62  1  0  0  0
 60129  1  0  0  0
 60130  1  0  0  0
 60131  1  0  0  0
 61132  1  0  0  0
 61133  1  0  0  0
 61134  1  0  0  0
 62135  1  0  0  0
 62136  1  0  0  0
 62137  1  0  0  0
 63 65  1  0  0  0
 63138  1  0  0  0
 63139  1  0  0  0
 63140  1  0  0  0
 64141  1  0  0  0
 65142  1  0  0  0
 68 78  1  0  0  0
 71 74  2  0  0  0
 71 75  1  0  0  0
 71143  1  0  0  0
 72 73  2  0  0  0
 72 81  1  0  0  0
 72144  1  0  0  0
 73 74  1  0  0  0
 73 77  1  0  0  0
 74 83  1  0  0  0
 75 78  1  0  0  0
 75 81  2  0  0  0
 76 80  1  0  0  0
 76145  1  0  0  0
 76146  1  0  0  0
 76147  1  0  0  0
 77 79  1  0  0  0
 77148  1  0  0  0
 77149  1  0  0  0
 78150  1  0  0  0
 78151  1  0  0  0
 79 82  1  0  0  0
 79152  1  0  0  0
 79153  1  0  0  0
 80 83  1  0  0  0
 80154  1  0  0  0
 80155  1  0  0  0
 82156  1  0  0  0
M  ISO  4   1 100  68 101  78 101  82 100
M  END
> <chiral flag>
0

> <version>
0

> <s_m_source_file>
/data/baiqing/PycharmProjects/Reinvent-master-3.2/result/LINK_invent/BTK/process_docking_weight1_custom_sum_contain_oxygen_bond_distance_aromatic_linkinvent_7_9_3/rearranged_h_0103.sdf

> <i_m_source_file_index>
33

> <r_mmod_Potential_Energy-OPLS-2005>
14995.7705078125

> <r_mmod_Stretch_Energy-OPLS-2005>
8911.3310546875

> <r_mmod_Bend_Energy-OPLS-2005>
1437.86376953125

> <r_mmod_Torsional_Energy-OPLS-2005>
507.355621337891

> <r_mmod_Improper_Torsional_Energy-OPLS-2005>
49.4144554138184

> <r_mmod_Van_der_Waal_Energy-OPLS-2005>
2499.9609375

> <r_mmod_Electrostatic_Energy-OPLS-2005>
-590.814758300781

> <r_mmod_Solvation_Energy-OPLS-2005>
-233.408050537109

> <b_mmod_Minimization_Converged-OPLS-2005>
0

> <r_mmod_RMS_Derivative-OPLS-2005>
7.99101781845093

$$$$
33
                    3D
 Structure written by MMmdl.
152159  0  0  1  0            999 V2000
  -30.3213  -15.5575   20.3214 C   0  0  0  0  0  0
  -30.4176  -13.0177   19.5412 C   0  0  0  0  0  0
  -29.5459  -12.6536   18.3092 C   0  0  0  0  0  0
  -28.1264  -12.2869   18.7621 C   0  0  0  0  0  0
  -27.5915  -13.2999   19.7978 C   0  0  2  0  0  0
  -28.5989  -13.6163   20.9213 C   0  0  0  0  0  0
  -25.2295  -13.8261   20.5702 C   0  0  0  0  0  0
  -24.1708  -13.0423   20.9255 C   0  0  0  0  0  0
  -24.6407  -11.6911   20.8746 C   0  0  0  0  0  0
  -23.9113  -10.4290   21.0415 C   0  0  0  0  0  0
  -24.3636   -9.4194   21.9187 C   0  0  0  0  0  0
  -23.6276   -8.2244   22.0747 C   0  0  0  0  0  0
  -22.4270   -8.0305   21.3527 C   0  0  0  0  0  0
  -21.9935   -9.0289   20.4640 C   0  0  0  0  0  0
  -22.7295  -10.2138   20.3060 C   0  0  0  0  0  0
  -21.6865   -6.0741   22.5264 C   0  0  0  0  0  0
  -21.4020   -6.5624   23.8207 C   0  0  0  0  0  0
  -21.3658   -5.6765   24.9168 C   0  0  0  0  0  0
  -21.6058   -4.3025   24.7216 C   0  0  0  0  0  0
  -21.8811   -3.8132   23.4334 C   0  0  0  0  0  0
  -21.9183   -4.6955   22.3379 C   0  0  0  0  0  0
  -22.7731  -13.5167   21.1911 C   0  0  0  0  0  0
  -22.1647   -4.2144   21.0960 F   0  0  0  0  0  0
  -21.5640   -3.4496   25.7732 F   0  0  0  0  0  0
  -29.7934  -14.2031   20.2770 N   0  0  0  0  0  0
  -26.2721  -12.9571   20.3101 N   0  0  0  0  0  0
  -25.9324  -11.6649   20.5584 N   0  0  0  0  0  0
  -22.0339  -12.8209   22.0464 N   0  0  0  0  0  0
  -25.3954  -15.2009   20.4082 N   0  0  0  0  0  0
  -31.5569  -15.5082   20.1679 O   0  0  0  0  0  0
  -21.6620   -6.8896   21.4227 O   0  0  0  0  0  0
  -22.3435  -14.5480   20.6744 O   0  0  0  0  0  0
  -24.6838  -31.7963   23.1509 C   0  0  0  0  0  0
  -25.9406  -32.4443   23.8066 C   0  0  1  0  0  0
  -27.2417  -26.7348   20.1964 C   0  0  0  0  0  0
  -25.5925  -33.8262   24.1941 N   0  0  0  0  0  0
  -23.5103  -30.3996   21.5013 C   0  0  2  0  0  0
  -24.9723  -28.7483   20.1134 C   0  0  0  0  0  0
  -22.7771  -29.4257   22.4627 C   0  0  0  0  0  0
  -18.0303  -28.1409   22.8391 C   0  0  0  0  0  0
  -24.1517  -36.7213   23.2641 C   0  0  0  0  0  0
  -26.0894  -30.5401   21.4105 C   0  0  0  0  0  0
  -26.1599  -29.1078   20.7616 C   0  0  0  0  0  0
  -27.2789  -28.1285   20.7732 C   0  0  0  0  0  0
  -26.0201  -26.5691   19.4982 C   0  0  0  0  0  0
  -24.9431  -27.5043   19.4563 C   0  0  0  0  0  0
  -23.7657  -29.6985   20.1368 C   0  0  0  0  0  0
  -25.4148  -36.2882   24.0248 C   0  0  1  0  0  0
  -20.5935  -28.3771   23.1085 C   0  0  2  0  0  0
  -20.6788  -26.9423   22.5374 C   0  0  0  0  0  0
  -19.5791  -26.6353   21.5157 C   0  0  0  0  0  0
  -18.1962  -26.7923   22.1553 C   0  0  0  0  0  0
  -19.1571  -28.8905   23.2708 C   0  0  0  0  0  0
  -18.9502  -30.1472   23.8774 C   0  0  0  0  0  0
  -17.6505  -30.6570   24.0529 C   0  0  0  0  0  0
  -25.9116  -34.9255   23.4954 C   0  0  0  0  0  0
  -16.5374  -29.9084   23.6329 C   0  0  0  0  0  0
  -16.7284  -28.6516   23.0314 C   0  0  0  0  0  0
  -26.4580  -31.6453   25.0683 C   0  0  0  0  0  0
  -25.3609  -31.3725   26.1294 C   0  0  0  0  0  0
  -27.0515  -30.2778   24.6578 C   0  0  0  0  0  0
  -27.6021  -32.4345   25.7470 C   0  0  0  0  0  0
  -27.5586  -37.1728   24.8425 C   0  0  0  0  0  0
  -21.4403  -29.3049   22.3440 N   0  0  0  0  0  0
  -26.4286  -37.3639   23.9374 N   0  0  0  0  0  0
  -24.7848  -30.9446   22.0735 N   0  0  0  0  0  0
  -23.4234  -28.7801   23.2915 O   0  0  0  0  0  0
  -28.2199  -25.5455   20.2783 O   0  0  0  0  0  0
  -26.5832  -34.8828   22.4633 O   0  0  0  0  0  0
  -23.5841  -32.1013   23.6470 O   0  0  0  0  0  0
  -27.1717  -18.8564   18.6510 C   0  0  0  0  0  0
  -29.0031  -20.2680   17.6170 C   0  0  0  0  0  0
  -28.9776  -22.1605   20.3668 C   0  0  0  0  0  0
  -29.7740  -18.6550   20.3690 C   0  0  0  0  0  0
  -28.0640  -23.8231   20.0449 C   0  0  0  0  0  0
  -28.0195  -20.1347   18.7866 C   0  0  0  0  0  0
  -28.7398  -20.2637   20.1494 C   0  0  2  0  0  0
  -29.5585  -16.9034   20.3472 N   0  0  0  0  0  0
  -31.4282  -13.2515   19.2005 H   0  0  0  0  0  0
  -30.5200  -12.1517   20.1986 H   0  0  0  0  0  0
  -29.9880  -11.8367   17.7333 H   0  0  0  0  0  0
  -29.5012  -13.5136   17.6413 H   0  0  0  0  0  0
  -28.1771  -11.3014   19.2206 H   0  0  0  0  0  0
  -27.4557  -12.2011   17.9101 H   0  0  0  0  0  0
  -27.4629  -14.2237   19.2301 H   0  0  0  0  0  0
  -28.8227  -12.7325   21.5188 H   0  0  0  0  0  0
  -28.1641  -14.3487   21.6050 H   0  0  0  0  0  0
  -25.2760   -9.5663   22.4814 H   0  0  0  0  0  0
  -23.9936   -7.4646   22.7496 H   0  0  0  0  0  0
  -21.0850   -8.8868   19.8977 H   0  0  0  0  0  0
  -22.3752  -10.9701   19.6195 H   0  0  0  0  0  0
  -21.2017   -7.6139   23.9722 H   0  0  0  0  0  0
  -21.1492   -6.0487   25.9078 H   0  0  0  0  0  0
  -22.0597   -2.7588   23.2831 H   0  0  0  0  0  0
  -22.3782  -11.9831   22.4927 H   0  0  0  0  0  0
  -21.0955  -13.1337   22.2540 H   0  0  0  0  0  0
  -24.6344  -15.8571   20.5497 H   0  0  0  0  0  0
  -26.2262  -15.6370   20.0334 H   0  0  0  0  0  0
  -26.7487  -32.4926   23.0782 H   0  0  0  0  0  0
  -24.9807  -33.9264   24.9891 H   0  0  0  0  0  0
  -22.8316  -31.2322   21.3137 H   0  0  0  0  0  0
  -23.3771  -35.9556   23.3219 H   0  0  0  0  0  0
  -24.3560  -36.9045   22.2080 H   0  0  0  0  0  0
  -23.7354  -37.6362   23.6845 H   0  0  0  0  0  0
  -26.2816  -31.2582   20.6128 H   0  0  0  0  0  0
  -26.9410  -30.6115   22.0734 H   0  0  0  0  0  0
  -28.1775  -28.4001   21.3143 H   0  0  0  0  0  0
  -25.8647  -25.6205   18.9991 H   0  0  0  0  0  0
  -24.0494  -27.2189   18.9184 H   0  0  0  0  0  0
  -23.9395  -30.4610   19.3774 H   0  0  0  0  0  0
  -22.8725  -29.1639   19.8070 H   0  0  0  0  0  0
  -25.1371  -36.1639   25.0731 H   0  0  0  0  0  0
  -20.9964  -28.3460   24.1227 H   0  0  0  0  0  0
  -20.5638  -26.2388   23.3639 H   0  0  0  0  0  0
  -21.6644  -26.7368   22.1201 H   0  0  0  0  0  0
  -19.6966  -25.6252   21.1231 H   0  0  0  0  0  0
  -19.6772  -27.3092   20.6637 H   0  0  0  0  0  0
  -17.4228  -26.6560   21.3971 H   0  0  0  0  0  0
  -18.0400  -26.0089   22.8980 H   0  0  0  0  0  0
  -19.7991  -30.7251   24.2143 H   0  0  0  0  0  0
  -17.5089  -31.6229   24.5194 H   0  0  0  0  0  0
  -15.5386  -30.2975   23.7745 H   0  0  0  0  0  0
  -15.8657  -28.0842   22.7074 H   0  0  0  0  0  0
  -24.5817  -30.7063   25.7573 H   0  0  0  0  0  0
  -24.8745  -32.2910   26.4561 H   0  0  0  0  0  0
  -25.7775  -30.8966   27.0188 H   0  0  0  0  0  0
  -26.3200  -29.6354   24.1670 H   0  0  0  0  0  0
  -27.4022  -29.7263   25.5323 H   0  0  0  0  0  0
  -27.9171  -30.3895   24.0057 H   0  0  0  0  0  0
  -27.2569  -33.3760   26.1741 H   0  0  0  0  0  0
  -28.3942  -32.6729   25.0350 H   0  0  0  0  0  0
  -28.0560  -31.8677   26.5606 H   0  0  0  0  0  0
  -28.2476  -38.0143   24.7527 H   0  0  0  0  0  0
  -28.1239  -36.2657   24.6216 H   0  0  0  0  0  0
  -27.2265  -37.1286   25.8814 H   0  0  0  0  0  0
  -20.9720  -29.8846   21.6597 H   0  0  0  0  0  0
  -26.0128  -38.2673   24.1467 H   0  0  0  0  0  0
  -26.5448  -18.9025   17.7600 H   0  0  0  0  0  0
  -26.5148  -18.7106   19.5103 H   0  0  0  0  0  0
  -27.7893  -17.9659   18.5472 H   0  0  0  0  0  0
  -28.4806  -20.2216   16.6609 H   0  0  0  0  0  0
  -29.7437  -19.4679   17.6253 H   0  0  0  0  0  0
  -29.5391  -21.2170   17.6525 H   0  0  0  0  0  0
  -29.2116  -22.2260   21.4294 H   0  0  0  0  0  0
  -29.9488  -22.3390   19.9049 H   0  0  0  0  0  0
  -30.2397  -18.8071   21.3412 H   0  0  0  0  0  0
  -30.6104  -18.7873   19.6832 H   0  0  0  0  0  0
  -27.0462  -23.6257   20.3824 H   0  0  0  0  0  0
  -27.9729  -23.7996   18.9577 H   0  0  0  0  0  0
  -27.3128  -20.9637   18.7098 H   0  0  0  0  0  0
  -27.9579  -20.1005   20.8873 H   0  0  0  0  0  0
  -28.5752  -16.6855   20.3896 H   0  0  0  0  0  0
  1 25  1  0  0  0
  1 30  2  0  0  0
  1 78  1  0  0  0
  2  3  1  0  0  0
  2 25  1  0  0  0
  2 79  1  0  0  0
  2 80  1  0  0  0
  3  4  1  0  0  0
  3 81  1  0  0  0
  3 82  1  0  0  0
  4  5  1  0  0  0
  4 83  1  0  0  0
  4 84  1  0  0  0
  5  6  1  0  0  0
  5 26  1  0  0  0
  5 85  1  0  0  0
  6 25  1  0  0  0
  6 86  1  0  0  0
  6 87  1  0  0  0
  7  8  2  0  0  0
  7 26  1  0  0  0
  7 29  1  0  0  0
  8  9  1  0  0  0
  8 22  1  0  0  0
  9 10  1  0  0  0
  9 27  2  0  0  0
 10 11  2  0  0  0
 10 15  1  0  0  0
 11 12  1  0  0  0
 11 88  1  0  0  0
 12 13  2  0  0  0
 12 89  1  0  0  0
 13 14  1  0  0  0
 13 31  1  0  0  0
 14 15  2  0  0  0
 14 90  1  0  0  0
 15 91  1  0  0  0
 16 17  2  0  0  0
 16 21  1  0  0  0
 16 31  1  0  0  0
 17 18  1  0  0  0
 17 92  1  0  0  0
 18 19  2  0  0  0
 18 93  1  0  0  0
 19 20  1  0  0  0
 19 24  1  0  0  0
 20 21  2  0  0  0
 20 94  1  0  0  0
 21 23  1  0  0  0
 22 28  1  0  0  0
 22 32  2  0  0  0
 26 27  1  0  0  0
 28 95  1  0  0  0
 28 96  1  0  0  0
 29 97  1  0  0  0
 29 98  1  0  0  0
 33 34  1  0  0  0
 33 66  1  0  0  0
 33 70  2  0  0  0
 34 36  1  0  0  0
 34 59  1  0  0  0
 34 99  1  0  0  0
 35 44  2  0  0  0
 35 45  1  0  0  0
 35 68  1  0  0  0
 36 56  1  0  0  0
 36100  1  0  0  0
 37 39  1  0  0  0
 37 47  1  0  0  0
 37 66  1  0  0  0
 37101  1  0  0  0
 38 43  2  0  0  0
 38 46  1  0  0  0
 38 47  1  0  0  0
 39 64  1  0  0  0
 39 67  2  0  0  0
 40 52  1  0  0  0
 40 53  2  0  0  0
 40 58  1  0  0  0
 41102  1  0  0  0
 41103  1  0  0  0
 41104  1  0  0  0
 41 48  1  0  0  0
 42 43  1  0  0  0
 42 66  1  0  0  0
 42105  1  0  0  0
 42106  1  0  0  0
 43 44  1  0  0  0
 44107  1  0  0  0
 45 46  2  0  0  0
 45108  1  0  0  0
 46109  1  0  0  0
 47110  1  0  0  0
 47111  1  0  0  0
 48 56  1  0  0  0
 48 65  1  0  0  0
 48112  1  0  0  0
 49 50  1  0  0  0
 49 53  1  0  0  0
 49 64  1  0  0  0
 49113  1  0  0  0
 50 51  1  0  0  0
 50114  1  0  0  0
 50115  1  0  0  0
 51 52  1  0  0  0
 51116  1  0  0  0
 51117  1  0  0  0
 52118  1  0  0  0
 52119  1  0  0  0
 53 54  1  0  0  0
 54 55  2  0  0  0
 54120  1  0  0  0
 55 57  1  0  0  0
 55121  1  0  0  0
 56 69  2  0  0  0
 57 58  2  0  0  0
 57122  1  0  0  0
 58123  1  0  0  0
 59 60  1  0  0  0
 59 61  1  0  0  0
 59 62  1  0  0  0
 60124  1  0  0  0
 60125  1  0  0  0
 60126  1  0  0  0
 61127  1  0  0  0
 61128  1  0  0  0
 61129  1  0  0  0
 62130  1  0  0  0
 62131  1  0  0  0
 62132  1  0  0  0
 63 65  1  0  0  0
 63133  1  0  0  0
 63134  1  0  0  0
 63135  1  0  0  0
 64136  1  0  0  0
 65137  1  0  0  0
 68 75  1  0  0  0
 71138  1  0  0  0
 71139  1  0  0  0
 71140  1  0  0  0
 71 76  1  0  0  0
 72 76  1  0  0  0
 72141  1  0  0  0
 72142  1  0  0  0
 72143  1  0  0  0
 73 75  1  0  0  0
 73144  1  0  0  0
 73145  1  0  0  0
 73 77  1  0  0  0
 74 77  1  0  0  0
 74 78  1  0  0  0
 74146  1  0  0  0
 74147  1  0  0  0
 75148  1  0  0  0
 75149  1  0  0  0
 76 77  1  0  0  0
 76150  1  0  0  0
 77151  1  0  0  0
 78152  1  0  0  0
M  ISO  4   1 100  68 101  75 101  78 100
M  END
> <chiral flag>
0

> <version>
0

> <s_m_source_file>
/data/baiqing/PycharmProjects/Reinvent-master-3.2/result/LINK_invent/BTK/process_docking_weight1_custom_sum_contain_oxygen_bond_distance_aromatic_linkinvent_7_9_3/rearranged_h_0103.sdf

> <i_m_source_file_index>
34

> <r_mmod_Potential_Energy-OPLS-2005>
2272.03637695312

> <r_mmod_Stretch_Energy-OPLS-2005>
1090.998046875

> <r_mmod_Bend_Energy-OPLS-2005>
603.760437011719

> <r_mmod_Torsional_Energy-OPLS-2005>
225.100341796875

> <r_mmod_Improper_Torsional_Energy-OPLS-2005>
3.81833410263062

> <r_mmod_Van_der_Waal_Energy-OPLS-2005>
105.556205749512

> <r_mmod_Electrostatic_Energy-OPLS-2005>
-364.354370117188

> <r_mmod_Solvation_Energy-OPLS-2005>
-207.530685424805

> <b_mmod_Minimization_Converged-OPLS-2005>
0

> <r_mmod_RMS_Derivative-OPLS-2005>
5.90677070617676

$$$$
34
                    3D
 Structure written by MMmdl.
152159  0  0  1  0            999 V2000
  -30.4448  -15.2000   20.3780 C   0  0  0  0  0  0
  -30.4425  -12.7621   19.5290 C   0  0  0  0  0  0
  -29.5363  -12.5591   18.2887 C   0  0  0  0  0  0
  -28.0816  -12.2931   18.7134 C   0  0  0  0  0  0
  -27.6168  -13.2633   19.8258 C   0  0  2  0  0  0
  -28.6471  -13.4068   20.9659 C   0  0  0  0  0  0
  -25.2432  -13.8225   20.5744 C   0  0  0  0  0  0
  -24.1763  -13.0449   20.9254 C   0  0  0  0  0  0
  -24.6384  -11.6933   20.8758 C   0  0  0  0  0  0
  -23.9071  -10.4301   21.0422 C   0  0  0  0  0  0
  -24.3617   -9.4215   21.9200 C   0  0  0  0  0  0
  -23.6296   -8.2243   22.0762 C   0  0  0  0  0  0
  -22.4284   -8.0267   21.3546 C   0  0  0  0  0  0
  -21.9914   -9.0250   20.4659 C   0  0  0  0  0  0
  -22.7234  -10.2136   20.3079 C   0  0  0  0  0  0
  -21.6853   -6.0741   22.5288 C   0  0  0  0  0  0
  -21.4014   -6.5650   23.8217 C   0  0  0  0  0  0
  -21.3665   -5.6801   24.9180 C   0  0  0  0  0  0
  -21.6050   -4.3063   24.7233 C   0  0  0  0  0  0
  -21.8818   -3.8152   23.4352 C   0  0  0  0  0  0
  -21.9202   -4.6973   22.3413 C   0  0  0  0  0  0
  -22.7789  -13.5221   21.1900 C   0  0  0  0  0  0
  -22.1665   -4.2157   21.0990 F   0  0  0  0  0  0
  -21.5633   -3.4546   25.7748 F   0  0  0  0  0  0
  -29.8913  -13.8959   20.3530 N   0  0  0  0  0  0
  -26.2826  -12.9475   20.3180 N   0  0  0  0  0  0
  -25.9303  -11.6598   20.5682 N   0  0  0  0  0  0
  -22.0427  -12.8220   22.0450 N   0  0  0  0  0  0
  -25.4144  -15.1944   20.4217 N   0  0  0  0  0  0
  -31.6561  -15.2257   20.1210 O   0  0  0  0  0  0
  -21.6637   -6.8870   21.4243 O   0  0  0  0  0  0
  -22.3489  -14.5530   20.6735 O   0  0  0  0  0  0
  -24.6579  -31.8279   23.1738 C   0  0  0  0  0  0
  -25.9290  -32.4595   23.8188 C   0  0  1  0  0  0
  -27.2139  -26.9719   20.1673 C   0  0  0  0  0  0
  -25.5985  -33.8409   24.2102 N   0  0  0  0  0  0
  -23.4696  -30.4400   21.5203 C   0  0  2  0  0  0
  -24.9226  -28.8373   20.1057 C   0  0  0  0  0  0
  -22.7653  -29.4455   22.4791 C   0  0  0  0  0  0
  -18.0346  -28.1362   22.8427 C   0  0  0  0  0  0
  -24.1496  -36.7208   23.2639 C   0  0  0  0  0  0
  -26.0354  -30.6453   21.3988 C   0  0  0  0  0  0
  -26.1016  -29.2411   20.7407 C   0  0  0  0  0  0
  -27.2393  -28.3249   20.7558 C   0  0  0  0  0  0
  -26.0116  -26.7145   19.4714 C   0  0  0  0  0  0
  -24.9009  -27.5947   19.4520 C   0  0  0  0  0  0
  -23.7060  -29.7585   20.1444 C   0  0  0  0  0  0
  -25.4133  -36.2965   24.0295 C   0  0  1  0  0  0
  -20.5951  -28.3716   23.1198 C   0  0  2  0  0  0
  -20.6813  -26.9412   22.5404 C   0  0  0  0  0  0
  -19.5818  -26.6340   21.5194 C   0  0  0  0  0  0
  -18.1982  -26.7908   22.1555 C   0  0  0  0  0  0
  -19.1589  -28.8863   23.2800 C   0  0  0  0  0  0
  -18.9490  -30.1434   23.8866 C   0  0  0  0  0  0
  -17.6476  -30.6545   24.0556 C   0  0  0  0  0  0
  -25.9099  -34.9343   23.5016 C   0  0  0  0  0  0
  -16.5380  -29.9033   23.6310 C   0  0  0  0  0  0
  -16.7324  -28.6454   23.0324 C   0  0  0  0  0  0
  -26.4570  -31.6523   25.0691 C   0  0  0  0  0  0
  -25.3714  -31.3767   26.1362 C   0  0  0  0  0  0
  -27.0461  -30.2896   24.6386 C   0  0  0  0  0  0
  -27.6069  -32.4331   25.7494 C   0  0  0  0  0  0
  -27.5574  -37.1760   24.8466 C   0  0  0  0  0  0
  -21.4325  -29.3007   22.3543 N   0  0  0  0  0  0
  -26.4284  -37.3698   23.9404 N   0  0  0  0  0  0
  -24.7420  -30.9989   22.0842 N   0  0  0  0  0  0
  -23.4241  -28.8055   23.3038 O   0  0  0  0  0  0
  -28.2269  -25.8993   20.2983 O   0  0  0  0  0  0
  -26.5696  -34.8875   22.4608 O   0  0  0  0  0  0
  -23.5658  -32.1226   23.6853 O   0  0  0  0  0  0
  -27.4982  -19.1065   20.3396 C   0  0  0  0  0  0
  -29.1270  -19.6445   22.1289 C   0  0  0  0  0  0
  -28.4842  -22.7518   20.5856 C   0  0  0  0  0  0
  -29.0779  -21.1771   19.9906 C   0  0  0  0  0  0
  -29.8973  -18.0550   20.1696 C   0  0  0  0  0  0
  -28.2213  -24.3377   19.8153 C   0  0  0  0  0  0
  -28.9581  -19.5056   20.6081 C   0  0  0  0  0  0
  -29.6666  -16.4457   20.4877 N   0  0  0  0  0  0
  -31.4635  -12.9612   19.2004 H   0  0  0  0  0  0
  -30.5034  -11.8488   20.1228 H   0  0  0  0  0  0
  -29.9032  -11.7302   17.6810 H   0  0  0  0  0  0
  -29.5784  -13.4479   17.6575 H   0  0  0  0  0  0
  -28.0296  -11.2661   19.0774 H   0  0  0  0  0  0
  -27.4141  -12.3424   17.8523 H   0  0  0  0  0  0
  -27.5467  -14.2359   19.3353 H   0  0  0  0  0  0
  -28.7940  -12.4628   21.4925 H   0  0  0  0  0  0
  -28.2964  -14.1267   21.7063 H   0  0  0  0  0  0
  -25.2762   -9.5704   22.4777 H   0  0  0  0  0  0
  -24.0012   -7.4645   22.7483 H   0  0  0  0  0  0
  -21.0841   -8.8775   19.8966 H   0  0  0  0  0  0
  -22.3681  -10.9683   19.6195 H   0  0  0  0  0  0
  -21.1984   -7.6155   23.9724 H   0  0  0  0  0  0
  -21.1482   -6.0528   25.9081 H   0  0  0  0  0  0
  -22.0581   -2.7611   23.2855 H   0  0  0  0  0  0
  -22.4032  -11.9872   22.4841 H   0  0  0  0  0  0
  -21.1040  -13.1234   22.2647 H   0  0  0  0  0  0
  -24.6496  -15.8456   20.5534 H   0  0  0  0  0  0
  -26.2516  -15.6338   20.0637 H   0  0  0  0  0  0
  -26.7337  -32.5141   23.0880 H   0  0  0  0  0  0
  -25.0109  -33.9487   25.0239 H   0  0  0  0  0  0
  -22.7783  -31.2689   21.3495 H   0  0  0  0  0  0
  -23.3765  -35.9537   23.3281 H   0  0  0  0  0  0
  -24.3574  -36.8883   22.2061 H   0  0  0  0  0  0
  -23.7252  -37.6386   23.6714 H   0  0  0  0  0  0
  -26.2122  -31.3891   20.6203 H   0  0  0  0  0  0
  -26.8964  -30.7016   22.0530 H   0  0  0  0  0  0
  -28.1286  -28.6229   21.2939 H   0  0  0  0  0  0
  -25.8810  -25.7701   18.9668 H   0  0  0  0  0  0
  -24.0047  -27.2828   18.9331 H   0  0  0  0  0  0
  -23.8546  -30.5270   19.3854 H   0  0  0  0  0  0
  -22.8174  -29.2083   19.8299 H   0  0  0  0  0  0
  -25.1330  -36.1765   25.0784 H   0  0  0  0  0  0
  -21.0028  -28.3329   24.1315 H   0  0  0  0  0  0
  -20.5687  -26.2357   23.3650 H   0  0  0  0  0  0
  -21.6680  -26.7385   22.1220 H   0  0  0  0  0  0
  -19.7005  -25.6241   21.1254 H   0  0  0  0  0  0
  -19.6787  -27.3111   20.6699 H   0  0  0  0  0  0
  -17.4284  -26.6675   21.3923 H   0  0  0  0  0  0
  -18.0353  -26.0043   22.8943 H   0  0  0  0  0  0
  -19.7960  -30.7241   24.2260 H   0  0  0  0  0  0
  -17.4997  -31.6200   24.5176 H   0  0  0  0  0  0
  -15.5359  -30.2902   23.7621 H   0  0  0  0  0  0
  -15.8745  -28.0738   22.7043 H   0  0  0  0  0  0
  -24.5893  -30.7118   25.7687 H   0  0  0  0  0  0
  -24.8904  -32.2962   26.4702 H   0  0  0  0  0  0
  -25.7962  -30.8991   27.0197 H   0  0  0  0  0  0
  -26.3113  -29.6575   24.1380 H   0  0  0  0  0  0
  -27.4006  -29.7255   25.5027 H   0  0  0  0  0  0
  -27.9053  -30.4101   23.9782 H   0  0  0  0  0  0
  -27.2636  -33.3659   26.1978 H   0  0  0  0  0  0
  -28.3930  -32.6851   25.0365 H   0  0  0  0  0  0
  -28.0677  -31.8517   26.5490 H   0  0  0  0  0  0
  -28.2566  -38.0077   24.7496 H   0  0  0  0  0  0
  -28.1086  -36.2596   24.6308 H   0  0  0  0  0  0
  -27.2276  -37.1417   25.8864 H   0  0  0  0  0  0
  -20.9535  -29.8655   21.6670 H   0  0  0  0  0  0
  -26.0132  -38.2755   24.1428 H   0  0  0  0  0  0
  -26.8086  -19.8897   20.6574 H   0  0  0  0  0  0
  -27.2222  -18.1917   20.8656 H   0  0  0  0  0  0
  -27.3296  -18.9363   19.2760 H   0  0  0  0  0  0
  -28.4172  -20.3603   22.5471 H   0  0  0  0  0  0
  -30.1274  -19.9936   22.3858 H   0  0  0  0  0  0
  -28.9713  -18.6946   22.6410 H   0  0  0  0  0  0
  -29.1198  -22.9712   21.4434 H   0  0  0  0  0  0
  -27.5207  -22.5218   21.0410 H   0  0  0  0  0  0
  -30.1467  -21.3369   19.8454 H   0  0  0  0  0  0
  -28.7007  -21.1156   18.9680 H   0  0  0  0  0  0
  -29.9719  -18.0891   19.0814 H   0  0  0  0  0  0
  -30.9156  -18.2516   20.5067 H   0  0  0  0  0  0
  -27.3060  -24.2051   19.2422 H   0  0  0  0  0  0
  -28.9886  -24.3605   19.0407 H   0  0  0  0  0  0
  -28.7066  -16.2492   20.7298 H   0  0  0  0  0  0
  1 25  1  0  0  0
  1 30  2  0  0  0
  1 78  1  0  0  0
  2  3  1  0  0  0
  2 25  1  0  0  0
  2 79  1  0  0  0
  2 80  1  0  0  0
  3  4  1  0  0  0
  3 81  1  0  0  0
  3 82  1  0  0  0
  4  5  1  0  0  0
  4 83  1  0  0  0
  4 84  1  0  0  0
  5  6  1  0  0  0
  5 26  1  0  0  0
  5 85  1  0  0  0
  6 25  1  0  0  0
  6 86  1  0  0  0
  6 87  1  0  0  0
  7  8  2  0  0  0
  7 26  1  0  0  0
  7 29  1  0  0  0
  8  9  1  0  0  0
  8 22  1  0  0  0
  9 10  1  0  0  0
  9 27  2  0  0  0
 10 11  2  0  0  0
 10 15  1  0  0  0
 11 12  1  0  0  0
 11 88  1  0  0  0
 12 13  2  0  0  0
 12 89  1  0  0  0
 13 14  1  0  0  0
 13 31  1  0  0  0
 14 15  2  0  0  0
 14 90  1  0  0  0
 15 91  1  0  0  0
 16 17  2  0  0  0
 16 21  1  0  0  0
 16 31  1  0  0  0
 17 18  1  0  0  0
 17 92  1  0  0  0
 18 19  2  0  0  0
 18 93  1  0  0  0
 19 20  1  0  0  0
 19 24  1  0  0  0
 20 21  2  0  0  0
 20 94  1  0  0  0
 21 23  1  0  0  0
 22 28  1  0  0  0
 22 32  2  0  0  0
 26 27  1  0  0  0
 28 95  1  0  0  0
 28 96  1  0  0  0
 29 97  1  0  0  0
 29 98  1  0  0  0
 33 34  1  0  0  0
 33 66  1  0  0  0
 33 70  2  0  0  0
 34 36  1  0  0  0
 34 59  1  0  0  0
 34 99  1  0  0  0
 35 44  2  0  0  0
 35 45  1  0  0  0
 35 68  1  0  0  0
 36 56  1  0  0  0
 36100  1  0  0  0
 37 39  1  0  0  0
 37 47  1  0  0  0
 37 66  1  0  0  0
 37101  1  0  0  0
 38 43  2  0  0  0
 38 46  1  0  0  0
 38 47  1  0  0  0
 39 64  1  0  0  0
 39 67  2  0  0  0
 40 52  1  0  0  0
 40 53  2  0  0  0
 40 58  1  0  0  0
 41102  1  0  0  0
 41103  1  0  0  0
 41104  1  0  0  0
 41 48  1  0  0  0
 42 43  1  0  0  0
 42 66  1  0  0  0
 42105  1  0  0  0
 42106  1  0  0  0
 43 44  1  0  0  0
 44107  1  0  0  0
 45 46  2  0  0  0
 45108  1  0  0  0
 46109  1  0  0  0
 47110  1  0  0  0
 47111  1  0  0  0
 48 56  1  0  0  0
 48 65  1  0  0  0
 48112  1  0  0  0
 49 50  1  0  0  0
 49 53  1  0  0  0
 49 64  1  0  0  0
 49113  1  0  0  0
 50 51  1  0  0  0
 50114  1  0  0  0
 50115  1  0  0  0
 51 52  1  0  0  0
 51116  1  0  0  0
 51117  1  0  0  0
 52118  1  0  0  0
 52119  1  0  0  0
 53 54  1  0  0  0
 54 55  2  0  0  0
 54120  1  0  0  0
 55 57  1  0  0  0
 55121  1  0  0  0
 56 69  2  0  0  0
 57 58  2  0  0  0
 57122  1  0  0  0
 58123  1  0  0  0
 59 60  1  0  0  0
 59 61  1  0  0  0
 59 62  1  0  0  0
 60124  1  0  0  0
 60125  1  0  0  0
 60126  1  0  0  0
 61127  1  0  0  0
 61128  1  0  0  0
 61129  1  0  0  0
 62130  1  0  0  0
 62131  1  0  0  0
 62132  1  0  0  0
 63 65  1  0  0  0
 63133  1  0  0  0
 63134  1  0  0  0
 63135  1  0  0  0
 64136  1  0  0  0
 65137  1  0  0  0
 68 76  1  0  0  0
 71138  1  0  0  0
 71139  1  0  0  0
 71140  1  0  0  0
 71 77  1  0  0  0
 72 77  1  0  0  0
 72141  1  0  0  0
 72142  1  0  0  0
 72143  1  0  0  0
 73 74  1  0  0  0
 73 76  1  0  0  0
 73144  1  0  0  0
 73145  1  0  0  0
 74 77  1  0  0  0
 74146  1  0  0  0
 74147  1  0  0  0
 75 77  1  0  0  0
 75 78  1  0  0  0
 75148  1  0  0  0
 75149  1  0  0  0
 76150  1  0  0  0
 76151  1  0  0  0
 78152  1  0  0  0
M  ISO  4   1 100  68 101  76 101  78 100
M  END
> <chiral flag>
0

> <version>
0

> <s_m_source_file>
/data/baiqing/PycharmProjects/Reinvent-master-3.2/result/LINK_invent/BTK/process_docking_weight1_custom_sum_contain_oxygen_bond_distance_aromatic_linkinvent_7_9_3/rearranged_h_0103.sdf

> <i_m_source_file_index>
35

> <r_mmod_Potential_Energy-OPLS-2005>
1110.20471191406

> <r_mmod_Stretch_Energy-OPLS-2005>
556.68115234375

> <r_mmod_Bend_Energy-OPLS-2005>
422.959045410156

> <r_mmod_Torsional_Energy-OPLS-2005>
230.776428222656

> <r_mmod_Improper_Torsional_Energy-OPLS-2005>
4.29207897186279

> <r_mmod_Van_der_Waal_Energy-OPLS-2005>
106.733596801758

> <r_mmod_Electrostatic_Energy-OPLS-2005>
-403.880706787109

> <r_mmod_Solvation_Energy-OPLS-2005>
-203.002014160156

> <b_mmod_Minimization_Converged-OPLS-2005>
0

> <r_mmod_RMS_Derivative-OPLS-2005>
2.36118316650391

$$$$
35
                    3D
 Structure written by MMmdl.
157165  0  0  1  0            999 V2000
  -30.5179  -14.9803   20.3814 C   0  0  0  0  0  0
  -30.4368  -12.6005   19.5026 C   0  0  0  0  0  0
  -29.5268  -12.5724   18.2513 C   0  0  0  0  0  0
  -28.0557  -12.3623   18.6479 C   0  0  0  0  0  0
  -27.6354  -13.2572   19.8387 C   0  0  2  0  0  0
  -28.6788  -13.2713   20.9779 C   0  0  0  0  0  0
  -25.2494  -13.8180   20.5713 C   0  0  0  0  0  0
  -24.1830  -13.0415   20.9195 C   0  0  0  0  0  0
  -24.6451  -11.6885   20.8701 C   0  0  0  0  0  0
  -23.9122  -10.4281   21.0364 C   0  0  0  0  0  0
  -24.3641   -9.4202   21.9179 C   0  0  0  0  0  0
  -23.6302   -8.2248   22.0765 C   0  0  0  0  0  0
  -22.4293   -8.0282   21.3534 C   0  0  0  0  0  0
  -21.9894   -9.0270   20.4663 C   0  0  0  0  0  0
  -22.7246  -10.2142   20.3065 C   0  0  0  0  0  0
  -21.6867   -6.0755   22.5283 C   0  0  0  0  0  0
  -21.4038   -6.5667   23.8217 C   0  0  0  0  0  0
  -21.3682   -5.6809   24.9181 C   0  0  0  0  0  0
  -21.6015   -4.3068   24.7219 C   0  0  0  0  0  0
  -21.8818   -3.8171   23.4339 C   0  0  0  0  0  0
  -21.9187   -4.6979   22.3389 C   0  0  0  0  0  0
  -22.7836  -13.5179   21.1836 C   0  0  0  0  0  0
  -22.1657   -4.2149   21.0969 F   0  0  0  0  0  0
  -21.5603   -3.4552   25.7728 F   0  0  0  0  0  0
  -29.9552  -13.6984   20.3932 N   0  0  0  0  0  0
  -26.2950  -12.9451   20.3204 N   0  0  0  0  0  0
  -25.9401  -11.6570   20.5659 N   0  0  0  0  0  0
  -22.0456  -12.8276   22.0419 N   0  0  0  0  0  0
  -25.4050  -15.1954   20.4289 N   0  0  0  0  0  0
  -31.7067  -15.0507   20.0434 O   0  0  0  0  0  0
  -21.6626   -6.8891   21.4251 O   0  0  0  0  0  0
  -22.3524  -14.5480   20.6644 O   0  0  0  0  0  0
  -24.6551  -31.8327   23.1716 C   0  0  0  0  0  0
  -25.9293  -32.4603   23.8168 C   0  0  1  0  0  0
  -27.2420  -27.0647   20.1705 C   0  0  0  0  0  0
  -25.5961  -33.8411   24.2056 N   0  0  0  0  0  0
  -23.4640  -30.4481   21.5195 C   0  0  2  0  0  0
  -24.9155  -28.8515   20.1136 C   0  0  0  0  0  0
  -22.7626  -29.4515   22.4783 C   0  0  0  0  0  0
  -18.0334  -28.1389   22.8442 C   0  0  0  0  0  0
  -24.1498  -36.7257   23.2654 C   0  0  0  0  0  0
  -26.0256  -30.6839   21.3849 C   0  0  0  0  0  0
  -26.0964  -29.2883   20.7298 C   0  0  0  0  0  0
  -27.2593  -28.4161   20.7282 C   0  0  0  0  0  0
  -26.0283  -26.7357   19.5277 C   0  0  0  0  0  0
  -24.8969  -27.5860   19.4994 C   0  0  0  0  0  0
  -23.6967  -29.7664   20.1442 C   0  0  0  0  0  0
  -25.4125  -36.2963   24.0292 C   0  0  1  0  0  0
  -20.5955  -28.3735   23.1171 C   0  0  2  0  0  0
  -20.6808  -26.9405   22.5402 C   0  0  0  0  0  0
  -19.5785  -26.6346   21.5200 C   0  0  0  0  0  0
  -18.1966  -26.7905   22.1617 C   0  0  0  0  0  0
  -19.1594  -28.8877   23.2800 C   0  0  0  0  0  0
  -18.9523  -30.1474   23.8834 C   0  0  0  0  0  0
  -17.6515  -30.6580   24.0552 C   0  0  0  0  0  0
  -25.9084  -34.9360   23.4987 C   0  0  0  0  0  0
  -16.5396  -29.9078   23.6334 C   0  0  0  0  0  0
  -16.7325  -28.6505   23.0335 C   0  0  0  0  0  0
  -26.4542  -31.6530   25.0693 C   0  0  0  0  0  0
  -25.3702  -31.3885   26.1396 C   0  0  0  0  0  0
  -27.0379  -30.2843   24.6447 C   0  0  0  0  0  0
  -27.5992  -32.4353   25.7553 C   0  0  0  0  0  0
  -27.5574  -37.1755   24.8436 C   0  0  0  0  0  0
  -21.4312  -29.3043   22.3520 N   0  0  0  0  0  0
  -26.4254  -37.3699   23.9414 N   0  0  0  0  0  0
  -24.7360  -31.0122   22.0796 N   0  0  0  0  0  0
  -23.4205  -28.8120   23.3027 O   0  0  0  0  0  0
  -28.3109  -26.0665   20.1776 O   0  0  0  0  0  0
  -26.5717  -34.8899   22.4587 O   0  0  0  0  0  0
  -23.5654  -32.1261   23.6873 O   0  0  0  0  0  0
  -29.3236  -18.7023   20.9904 C   0  0  0  0  0  0
  -29.8164  -19.5197   19.0280 C   0  0  0  0  0  0
  -29.4321  -20.0118   20.2680 C   0  0  0  0  0  0
  -29.7415  -17.5589   20.2640 C   0  0  0  0  0  0
  -30.8232  -20.7553   22.8282 C   0  0  0  0  0  0
  -30.4235  -17.3643   17.8186 C   0  0  0  0  0  0
  -30.3015  -21.8953   21.9077 C   0  0  0  0  0  0
  -28.9760  -23.0941   19.9782 C   0  0  0  0  0  0
  -28.1314  -24.5153   20.5043 C   0  0  0  0  0  0
  -29.1950  -21.5968   20.8330 C   0  0  1  0  0  0
  -30.0169  -18.1046   19.0051 N   0  0  0  0  0  0
  -29.7350  -16.1525   20.6356 N   0  0  0  0  0  0
  -31.4737  -12.7458   19.2018 H   0  0  0  0  0  0
  -30.4155  -11.6388   20.0173 H   0  0  0  0  0  0
  -29.8375  -11.7983   17.5518 H   0  0  0  0  0  0
  -29.6319  -13.5230   17.7215 H   0  0  0  0  0  0
  -27.9282  -11.3085   18.8991 H   0  0  0  0  0  0
  -27.4105  -12.5584   17.7909 H   0  0  0  0  0  0
  -27.5951  -14.2673   19.4321 H   0  0  0  0  0  0
  -28.7650  -12.2858   21.4422 H   0  0  0  0  0  0
  -28.3739  -13.9541   21.7687 H   0  0  0  0  0  0
  -25.2785   -9.5630   22.4787 H   0  0  0  0  0  0
  -23.9965   -7.4623   22.7515 H   0  0  0  0  0  0
  -21.0789   -8.8837   19.9001 H   0  0  0  0  0  0
  -22.3703  -10.9713   19.6206 H   0  0  0  0  0  0
  -21.2074   -7.6175   23.9719 H   0  0  0  0  0  0
  -21.1498   -6.0552   25.9075 H   0  0  0  0  0  0
  -22.0564   -2.7625   23.2855 H   0  0  0  0  0  0
  -22.4055  -12.0021   22.5002 H   0  0  0  0  0  0
  -21.1075  -13.1365   22.2505 H   0  0  0  0  0  0
  -24.6256  -15.8253   20.5996 H   0  0  0  0  0  0
  -26.2429  -15.6781   20.1400 H   0  0  0  0  0  0
  -26.7416  -32.5171   23.0947 H   0  0  0  0  0  0
  -24.9944  -33.9459   25.0095 H   0  0  0  0  0  0
  -22.7739  -31.2764   21.3507 H   0  0  0  0  0  0
  -23.3708  -35.9635   23.3239 H   0  0  0  0  0  0
  -24.3601  -36.8984   22.2093 H   0  0  0  0  0  0
  -23.7310  -37.6446   23.6758 H   0  0  0  0  0  0
  -26.2035  -31.4388   20.6176 H   0  0  0  0  0  0
  -26.8860  -30.7207   22.0416 H   0  0  0  0  0  0
  -28.1672  -28.7526   21.2090 H   0  0  0  0  0  0
  -25.9409  -25.7719   19.0441 H   0  0  0  0  0  0
  -23.9973  -27.2344   19.0101 H   0  0  0  0  0  0
  -23.8451  -30.5375   19.3869 H   0  0  0  0  0  0
  -22.8090  -29.2180   19.8255 H   0  0  0  0  0  0
  -25.1314  -36.1724   25.0771 H   0  0  0  0  0  0
  -21.0056  -28.3354   24.1288 H   0  0  0  0  0  0
  -20.5615  -26.2381   23.3663 H   0  0  0  0  0  0
  -21.6683  -26.7315   22.1263 H   0  0  0  0  0  0
  -19.6926  -25.6228   21.1284 H   0  0  0  0  0  0
  -19.6732  -27.3117   20.6696 H   0  0  0  0  0  0
  -17.4219  -26.6621   21.4036 H   0  0  0  0  0  0
  -18.0380  -26.0071   22.9047 H   0  0  0  0  0  0
  -19.8026  -30.7292   24.2160 H   0  0  0  0  0  0
  -17.5091  -31.6250   24.5192 H   0  0  0  0  0  0
  -15.5395  -30.2966   23.7687 H   0  0  0  0  0  0
  -15.8741  -28.0819   22.7031 H   0  0  0  0  0  0
  -24.5777  -30.7308   25.7815 H   0  0  0  0  0  0
  -24.9045  -32.3162   26.4728 H   0  0  0  0  0  0
  -25.7969  -30.9139   27.0236 H   0  0  0  0  0  0
  -26.3025  -29.6547   24.1408 H   0  0  0  0  0  0
  -27.3791  -29.7198   25.5142 H   0  0  0  0  0  0
  -27.9035  -30.3939   23.9905 H   0  0  0  0  0  0
  -27.2423  -33.3623   26.2058 H   0  0  0  0  0  0
  -28.3874  -32.6952   25.0482 H   0  0  0  0  0  0
  -28.0546  -31.8530   26.5573 H   0  0  0  0  0  0
  -28.2498  -38.0135   24.7471 H   0  0  0  0  0  0
  -28.1120  -36.2626   24.6172 H   0  0  0  0  0  0
  -27.2301  -37.1338   25.8843 H   0  0  0  0  0  0
  -20.9521  -29.8787   21.6731 H   0  0  0  0  0  0
  -26.0063  -38.2733   24.1418 H   0  0  0  0  0  0
  -28.9894  -18.6334   22.0176 H   0  0  0  0  0  0
  -29.9847  -20.0681   18.1095 H   0  0  0  0  0  0
  -31.6188  -21.1204   23.4822 H   0  0  0  0  0  0
  -31.2737  -19.9286   22.2790 H   0  0  0  0  0  0
  -30.0448  -20.3391   23.4708 H   0  0  0  0  0  0
  -30.2108  -17.9397   16.9161 H   0  0  0  0  0  0
  -29.8881  -16.4167   17.7454 H   0  0  0  0  0  0
  -31.4926  -17.1565   17.8559 H   0  0  0  0  0  0
  -31.1800  -22.2655   21.3803 H   0  0  0  0  0  0
  -29.9899  -22.7232   22.5444 H   0  0  0  0  0  0
  -29.9736  -23.4351   19.6880 H   0  0  0  0  0  0
  -28.5301  -22.8291   19.0187 H   0  0  0  0  0  0
  -28.2081  -24.4873   21.5937 H   0  0  0  0  0  0
  -27.0804  -24.2903   20.3231 H   0  0  0  0  0  0
  -28.2558  -21.4711   21.3703 H   0  0  0  0  0  0
  -28.9377  -15.9100   21.2092 H   0  0  0  0  0  0
  1 25  1  0  0  0
  1 30  2  0  0  0
  1 82  1  0  0  0
  2  3  1  0  0  0
  2 25  1  0  0  0
  2 83  1  0  0  0
  2 84  1  0  0  0
  3  4  1  0  0  0
  3 85  1  0  0  0
  3 86  1  0  0  0
  4  5  1  0  0  0
  4 87  1  0  0  0
  4 88  1  0  0  0
  5  6  1  0  0  0
  5 26  1  0  0  0
  5 89  1  0  0  0
  6 25  1  0  0  0
  6 90  1  0  0  0
  6 91  1  0  0  0
  7  8  2  0  0  0
  7 26  1  0  0  0
  7 29  1  0  0  0
  8  9  1  0  0  0
  8 22  1  0  0  0
  9 10  1  0  0  0
  9 27  2  0  0  0
 10 11  2  0  0  0
 10 15  1  0  0  0
 11 12  1  0  0  0
 11 92  1  0  0  0
 12 13  2  0  0  0
 12 93  1  0  0  0
 13 14  1  0  0  0
 13 31  1  0  0  0
 14 15  2  0  0  0
 14 94  1  0  0  0
 15 95  1  0  0  0
 16 17  2  0  0  0
 16 21  1  0  0  0
 16 31  1  0  0  0
 17 18  1  0  0  0
 17 96  1  0  0  0
 18 19  2  0  0  0
 18 97  1  0  0  0
 19 20  1  0  0  0
 19 24  1  0  0  0
 20 21  2  0  0  0
 20 98  1  0  0  0
 21 23  1  0  0  0
 22 28  1  0  0  0
 22 32  2  0  0  0
 26 27  1  0  0  0
 28 99  1  0  0  0
 28100  1  0  0  0
 29101  1  0  0  0
 29102  1  0  0  0
 33 34  1  0  0  0
 33 66  1  0  0  0
 33 70  2  0  0  0
 34 36  1  0  0  0
 34 59  1  0  0  0
 34103  1  0  0  0
 35 44  2  0  0  0
 35 45  1  0  0  0
 35 68  1  0  0  0
 36 56  1  0  0  0
 36104  1  0  0  0
 37 39  1  0  0  0
 37 47  1  0  0  0
 37 66  1  0  0  0
 37105  1  0  0  0
 38 43  2  0  0  0
 38 46  1  0  0  0
 38 47  1  0  0  0
 39 64  1  0  0  0
 39 67  2  0  0  0
 40 52  1  0  0  0
 40 53  2  0  0  0
 40 58  1  0  0  0
 41106  1  0  0  0
 41107  1  0  0  0
 41108  1  0  0  0
 41 48  1  0  0  0
 42 43  1  0  0  0
 42 66  1  0  0  0
 42109  1  0  0  0
 42110  1  0  0  0
 43 44  1  0  0  0
 44111  1  0  0  0
 45 46  2  0  0  0
 45112  1  0  0  0
 46113  1  0  0  0
 47114  1  0  0  0
 47115  1  0  0  0
 48 56  1  0  0  0
 48 65  1  0  0  0
 48116  1  0  0  0
 49 50  1  0  0  0
 49 53  1  0  0  0
 49 64  1  0  0  0
 49117  1  0  0  0
 50 51  1  0  0  0
 50118  1  0  0  0
 50119  1  0  0  0
 51 52  1  0  0  0
 51120  1  0  0  0
 51121  1  0  0  0
 52122  1  0  0  0
 52123  1  0  0  0
 53 54  1  0  0  0
 54 55  2  0  0  0
 54124  1  0  0  0
 55 57  1  0  0  0
 55125  1  0  0  0
 56 69  2  0  0  0
 57 58  2  0  0  0
 57126  1  0  0  0
 58127  1  0  0  0
 59 60  1  0  0  0
 59 61  1  0  0  0
 59 62  1  0  0  0
 60128  1  0  0  0
 60129  1  0  0  0
 60130  1  0  0  0
 61131  1  0  0  0
 61132  1  0  0  0
 61133  1  0  0  0
 62134  1  0  0  0
 62135  1  0  0  0
 62136  1  0  0  0
 63 65  1  0  0  0
 63137  1  0  0  0
 63138  1  0  0  0
 63139  1  0  0  0
 64140  1  0  0  0
 65141  1  0  0  0
 68 79  1  0  0  0
 71 73  1  0  0  0
 71 74  2  0  0  0
 71142  1  0  0  0
 72 73  2  0  0  0
 72 81  1  0  0  0
 72143  1  0  0  0
 73 80  1  0  0  0
 74 81  1  0  0  0
 74 82  1  0  0  0
 75 77  1  0  0  0
 75144  1  0  0  0
 75145  1  0  0  0
 75146  1  0  0  0
 76 81  1  0  0  0
 76147  1  0  0  0
 76148  1  0  0  0
 76149  1  0  0  0
 77150  1  0  0  0
 77151  1  0  0  0
 77 80  1  0  0  0
 78 79  1  0  0  0
 78 80  1  0  0  0
 78152  1  0  0  0
 78153  1  0  0  0
 79154  1  0  0  0
 79155  1  0  0  0
 80156  1  0  0  0
 82157  1  0  0  0
M  ISO  4   1 100  68 101  79 101  82 100
M  END
> <chiral flag>
0

> <version>
0

> <s_m_source_file>
/data/baiqing/PycharmProjects/Reinvent-master-3.2/result/LINK_invent/BTK/process_docking_weight1_custom_sum_contain_oxygen_bond_distance_aromatic_linkinvent_7_9_3/rearranged_h_0103.sdf

> <i_m_source_file_index>
36

> <r_mmod_Potential_Energy-OPLS-2005>
655.405334472656

> <r_mmod_Stretch_Energy-OPLS-2005>
334.258880615234

> <r_mmod_Bend_Energy-OPLS-2005>
327.145324707031

> <r_mmod_Torsional_Energy-OPLS-2005>
249.139297485352

> <r_mmod_Improper_Torsional_Energy-OPLS-2005>
3.45422196388245

> <r_mmod_Van_der_Waal_Energy-OPLS-2005>
104.977729797363

> <r_mmod_Electrostatic_Energy-OPLS-2005>
-387.636077880859

> <r_mmod_Solvation_Energy-OPLS-2005>
-206.997146606445

> <b_mmod_Minimization_Converged-OPLS-2005>
0

> <r_mmod_RMS_Derivative-OPLS-2005>
7.69665765762329

$$$$
36
                    3D
 Structure written by MMmdl.
166174  0  0  1  0            999 V2000
  -30.6235  -14.7197   20.4950 C   0  0  0  0  0  0
  -30.4366  -12.4519   19.4569 C   0  0  0  0  0  0
  -29.5090  -12.5090   18.2243 C   0  0  0  0  0  0
  -28.0354  -12.3279   18.6403 C   0  0  0  0  0  0
  -27.6430  -13.2235   19.8464 C   0  0  2  0  0  0
  -28.6897  -13.1461   20.9779 C   0  0  0  0  0  0
  -25.2528  -13.8180   20.5650 C   0  0  0  0  0  0
  -24.1812  -13.0440   20.9202 C   0  0  0  0  0  0
  -24.6395  -11.6913   20.8743 C   0  0  0  0  0  0
  -23.9060  -10.4301   21.0395 C   0  0  0  0  0  0
  -24.3617   -9.4210   21.9169 C   0  0  0  0  0  0
  -23.6301   -8.2241   22.0738 C   0  0  0  0  0  0
  -22.4285   -8.0275   21.3529 C   0  0  0  0  0  0
  -21.9916   -9.0254   20.4638 C   0  0  0  0  0  0
  -22.7233  -10.2139   20.3041 C   0  0  0  0  0  0
  -21.6859   -6.0736   22.5283 C   0  0  0  0  0  0
  -21.4017   -6.5638   23.8219 C   0  0  0  0  0  0
  -21.3658   -5.6789   24.9179 C   0  0  0  0  0  0
  -21.6045   -4.3054   24.7225 C   0  0  0  0  0  0
  -21.8818   -3.8145   23.4345 C   0  0  0  0  0  0
  -21.9198   -4.6963   22.3405 C   0  0  0  0  0  0
  -22.7840  -13.5229   21.1869 C   0  0  0  0  0  0
  -22.1652   -4.2145   21.0982 F   0  0  0  0  0  0
  -21.5635   -3.4541   25.7737 F   0  0  0  0  0  0
  -29.9876  -13.5051   20.3928 N   0  0  0  0  0  0
  -26.2946  -12.9365   20.3247 N   0  0  0  0  0  0
  -25.9320  -11.6516   20.5723 N   0  0  0  0  0  0
  -22.0473  -12.8234   22.0434 N   0  0  0  0  0  0
  -25.4234  -15.1903   20.4009 N   0  0  0  0  0  0
  -31.8177  -14.8199   20.2045 O   0  0  0  0  0  0
  -21.6637   -6.8880   21.4244 O   0  0  0  0  0  0
  -22.3517  -14.5531   20.6702 O   0  0  0  0  0  0
  -24.6307  -31.8539   23.1978 C   0  0  0  0  0  0
  -25.9117  -32.4753   23.8334 C   0  0  1  0  0  0
  -27.2242  -27.2633   20.1421 C   0  0  0  0  0  0
  -25.5904  -33.8559   24.2250 N   0  0  0  0  0  0
  -23.4292  -30.4766   21.5392 C   0  0  2  0  0  0
  -24.8791  -28.9214   20.1127 C   0  0  0  0  0  0
  -22.7504  -29.4599   22.4890 C   0  0  0  0  0  0
  -18.0290  -28.1413   22.8488 C   0  0  0  0  0  0
  -24.1477  -36.7292   23.2644 C   0  0  0  0  0  0
  -25.9737  -30.7702   21.3761 C   0  0  0  0  0  0
  -26.0497  -29.3916   20.7227 C   0  0  0  0  0  0
  -27.2272  -28.5754   20.7244 C   0  0  0  0  0  0
  -26.0354  -26.8634   19.4951 C   0  0  0  0  0  0
  -24.8769  -27.6659   19.4860 C   0  0  0  0  0  0
  -23.6503  -29.8092   20.1561 C   0  0  0  0  0  0
  -25.4102  -36.3072   24.0326 C   0  0  1  0  0  0
  -20.5898  -28.3714   23.1263 C   0  0  2  0  0  0
  -20.6774  -26.9430   22.5415 C   0  0  0  0  0  0
  -19.5755  -26.6399   21.5213 C   0  0  0  0  0  0
  -18.1933  -26.7953   22.1624 C   0  0  0  0  0  0
  -19.1547  -28.8875   23.2878 C   0  0  0  0  0  0
  -18.9470  -30.1474   23.8901 C   0  0  0  0  0  0
  -17.6475  -30.6610   24.0572 C   0  0  0  0  0  0
  -25.9036  -34.9440   23.5089 C   0  0  0  0  0  0
  -16.5361  -29.9118   23.6345 C   0  0  0  0  0  0
  -16.7274  -28.6535   23.0355 C   0  0  0  0  0  0
  -26.4486  -31.6598   25.0729 C   0  0  0  0  0  0
  -25.3709  -31.3777   26.1456 C   0  0  0  0  0  0
  -27.0329  -30.3014   24.6225 C   0  0  0  0  0  0
  -27.6033  -32.4342   25.7495 C   0  0  0  0  0  0
  -27.5572  -37.1798   24.8463 C   0  0  0  0  0  0
  -21.4208  -29.3052   22.3642 N   0  0  0  0  0  0
  -26.4281  -37.3771   23.9409 N   0  0  0  0  0  0
  -24.6968  -31.0512   22.0947 N   0  0  0  0  0  0
  -23.4197  -28.8136   23.2990 O   0  0  0  0  0  0
  -28.3143  -26.3618   20.1732 O   0  0  0  0  0  0
  -26.5631  -34.8922   22.4678 O   0  0  0  0  0  0
  -23.5450  -32.1350   23.7274 O   0  0  0  0  0  0
  -30.2777  -19.1335   19.3641 C   0  0  0  0  0  0
  -29.2512  -19.7136   21.2091 C   0  0  0  0  0  0
  -29.8982  -18.6161   20.6361 C   0  0  0  0  0  0
  -29.9339  -20.4681   19.2310 C   0  0  0  0  0  0
  -29.1339  -22.7105   16.1363 C   0  0  0  0  0  0
  -31.4108  -20.8753   17.2300 C   0  0  0  0  0  0
  -28.1620  -25.1121   22.2221 C   0  0  0  0  0  0
  -30.2972  -17.2066   21.2697 C   0  0  0  0  0  0
  -28.9752  -21.5946   17.1815 C   0  0  0  0  0  0
  -28.9635  -23.6882   20.2065 C   0  0  0  0  0  0
  -28.5496  -22.2034   20.7346 C   0  0  0  0  0  0
  -30.2208  -21.3807   18.0669 C   0  0  1  0  0  0
  -28.0788  -24.9660   20.6934 C   0  0  2  0  0  0
  -29.2562  -20.8777   20.3887 N   0  0  0  0  0  0
  -29.8586  -15.8416   20.7629 N   0  0  0  0  0  0
  -31.4749  -12.5904   19.1508 H   0  0  0  0  0  0
  -30.3898  -11.4713   19.9333 H   0  0  0  0  0  0
  -29.7913  -11.7393   17.5046 H   0  0  0  0  0  0
  -29.6329  -13.4673   17.7154 H   0  0  0  0  0  0
  -27.8972  -11.2788   18.9040 H   0  0  0  0  0  0
  -27.3748  -12.5172   17.7921 H   0  0  0  0  0  0
  -27.6414  -14.2466   19.4723 H   0  0  0  0  0  0
  -28.7287  -12.1432   21.4061 H   0  0  0  0  0  0
  -28.4267  -13.8191   21.7958 H   0  0  0  0  0  0
  -25.2758   -9.5706   22.4738 H   0  0  0  0  0  0
  -24.0020   -7.4640   22.7460 H   0  0  0  0  0  0
  -21.0839   -8.8771   19.8953 H   0  0  0  0  0  0
  -22.3673  -10.9679   19.6154 H   0  0  0  0  0  0
  -21.1996   -7.6145   23.9728 H   0  0  0  0  0  0
  -21.1479   -6.0508   25.9087 H   0  0  0  0  0  0
  -22.0599   -2.7605   23.2844 H   0  0  0  0  0  0
  -22.4072  -11.9908   22.4859 H   0  0  0  0  0  0
  -21.1080  -13.1256   22.2600 H   0  0  0  0  0  0
  -24.6553  -15.8445   20.5049 H   0  0  0  0  0  0
  -26.2630  -15.6297   20.0445 H   0  0  0  0  0  0
  -26.7185  -32.5417   23.1085 H   0  0  0  0  0  0
  -25.0003  -33.9690   25.0358 H   0  0  0  0  0  0
  -22.7262  -31.2994   21.3915 H   0  0  0  0  0  0
  -23.3733  -35.9632   23.3296 H   0  0  0  0  0  0
  -24.3571  -36.8931   22.2063 H   0  0  0  0  0  0
  -23.7233  -37.6491   23.6678 H   0  0  0  0  0  0
  -26.1051  -31.5284   20.6028 H   0  0  0  0  0  0
  -26.8537  -30.8260   22.0059 H   0  0  0  0  0  0
  -28.1230  -28.9288   21.2162 H   0  0  0  0  0  0
  -25.9882  -25.9044   18.9981 H   0  0  0  0  0  0
  -23.9819  -27.3032   18.9987 H   0  0  0  0  0  0
  -23.7794  -30.5851   19.4004 H   0  0  0  0  0  0
  -22.7688  -29.2440   19.8478 H   0  0  0  0  0  0
  -25.1285  -36.1918   25.0818 H   0  0  0  0  0  0
  -20.9993  -28.3298   24.1380 H   0  0  0  0  0  0
  -20.5661  -26.2322   23.3623 H   0  0  0  0  0  0
  -21.6639  -26.7451   22.1209 H   0  0  0  0  0  0
  -19.6906  -25.6305   21.1250 H   0  0  0  0  0  0
  -19.6695  -27.3204   20.6740 H   0  0  0  0  0  0
  -17.4197  -26.6703   21.4032 H   0  0  0  0  0  0
  -18.0337  -26.0110   22.9035 H   0  0  0  0  0  0
  -19.7948  -30.7292   24.2271 H   0  0  0  0  0  0
  -17.5032  -31.6287   24.5186 H   0  0  0  0  0  0
  -15.5365  -30.3024   23.7664 H   0  0  0  0  0  0
  -15.8675  -28.0861   22.7064 H   0  0  0  0  0  0
  -24.5853  -30.7157   25.7802 H   0  0  0  0  0  0
  -24.8934  -32.2961   26.4879 H   0  0  0  0  0  0
  -25.8016  -30.8957   27.0241 H   0  0  0  0  0  0
  -26.2927  -29.6764   24.1221 H   0  0  0  0  0  0
  -27.3974  -29.7281   25.4757 H   0  0  0  0  0  0
  -27.8811  -30.4283   23.9496 H   0  0  0  0  0  0
  -27.2644  -33.3656   26.2047 H   0  0  0  0  0  0
  -28.3858  -32.6887   25.0333 H   0  0  0  0  0  0
  -28.0683  -31.8485   26.5438 H   0  0  0  0  0  0
  -28.2590  -38.0097   24.7500 H   0  0  0  0  0  0
  -28.1068  -36.2623   24.6286 H   0  0  0  0  0  0
  -27.2297  -37.1447   25.8873 H   0  0  0  0  0  0
  -20.9388  -29.8792   21.6867 H   0  0  0  0  0  0
  -26.0154  -38.2842   24.1429 H   0  0  0  0  0  0
  -30.8277  -18.5738   18.6181 H   0  0  0  0  0  0
  -28.7896  -19.7805   22.1862 H   0  0  0  0  0  0
  -28.1767  -22.9354   15.6647 H   0  0  0  0  0  0
  -29.8244  -22.4247   15.3428 H   0  0  0  0  0  0
  -29.5049  -23.6305   16.5896 H   0  0  0  0  0  0
  -32.2871  -20.7192   17.8601 H   0  0  0  0  0  0
  -31.7006  -21.5887   16.4590 H   0  0  0  0  0  0
  -31.1820  -19.9317   16.7339 H   0  0  0  0  0  0
  -27.8291  -24.2111   22.7373 H   0  0  0  0  0  0
  -27.5307  -25.9271   22.5787 H   0  0  0  0  0  0
  -29.1836  -25.3243   22.5411 H   0  0  0  0  0  0
  -29.9807  -17.2407   22.3129 H   0  0  0  0  0  0
  -31.3866  -17.1977   21.3225 H   0  0  0  0  0  0
  -28.7067  -20.6611   16.6858 H   0  0  0  0  0  0
  -28.1245  -21.8450   17.8150 H   0  0  0  0  0  0
  -28.9173  -23.6894   19.1207 H   0  0  0  0  0  0
  -30.0089  -23.8678   20.4619 H   0  0  0  0  0  0
  -27.5026  -22.0580   20.4671 H   0  0  0  0  0  0
  -28.5464  -22.2510   21.8226 H   0  0  0  0  0  0
  -30.5380  -22.3423   18.4666 H   0  0  0  0  0  0
  -27.0506  -24.6827   20.4702 H   0  0  0  0  0  0
  -28.8703  -15.6627   20.8487 H   0  0  0  0  0  0
  1 25  1  0  0  0
  1 30  2  0  0  0
  1 85  1  0  0  0
  2  3  1  0  0  0
  2 25  1  0  0  0
  2 86  1  0  0  0
  2 87  1  0  0  0
  3  4  1  0  0  0
  3 88  1  0  0  0
  3 89  1  0  0  0
  4  5  1  0  0  0
  4 90  1  0  0  0
  4 91  1  0  0  0
  5  6  1  0  0  0
  5 26  1  0  0  0
  5 92  1  0  0  0
  6 25  1  0  0  0
  6 93  1  0  0  0
  6 94  1  0  0  0
  7  8  2  0  0  0
  7 26  1  0  0  0
  7 29  1  0  0  0
  8  9  1  0  0  0
  8 22  1  0  0  0
  9 10  1  0  0  0
  9 27  2  0  0  0
 10 11  2  0  0  0
 10 15  1  0  0  0
 11 12  1  0  0  0
 11 95  1  0  0  0
 12 13  2  0  0  0
 12 96  1  0  0  0
 13 14  1  0  0  0
 13 31  1  0  0  0
 14 15  2  0  0  0
 14 97  1  0  0  0
 15 98  1  0  0  0
 16 17  2  0  0  0
 16 21  1  0  0  0
 16 31  1  0  0  0
 17 18  1  0  0  0
 17 99  1  0  0  0
 18 19  2  0  0  0
 18100  1  0  0  0
 19 20  1  0  0  0
 19 24  1  0  0  0
 20 21  2  0  0  0
 20101  1  0  0  0
 21 23  1  0  0  0
 22 28  1  0  0  0
 22 32  2  0  0  0
 26 27  1  0  0  0
 28102  1  0  0  0
 28103  1  0  0  0
 29104  1  0  0  0
 29105  1  0  0  0
 33 34  1  0  0  0
 33 66  1  0  0  0
 33 70  2  0  0  0
 34 36  1  0  0  0
 34 59  1  0  0  0
 34106  1  0  0  0
 35 44  2  0  0  0
 35 45  1  0  0  0
 35 68  1  0  0  0
 36 56  1  0  0  0
 36107  1  0  0  0
 37 39  1  0  0  0
 37 47  1  0  0  0
 37 66  1  0  0  0
 37108  1  0  0  0
 38 43  2  0  0  0
 38 46  1  0  0  0
 38 47  1  0  0  0
 39 64  1  0  0  0
 39 67  2  0  0  0
 40 52  1  0  0  0
 40 53  2  0  0  0
 40 58  1  0  0  0
 41109  1  0  0  0
 41110  1  0  0  0
 41111  1  0  0  0
 41 48  1  0  0  0
 42 43  1  0  0  0
 42 66  1  0  0  0
 42112  1  0  0  0
 42113  1  0  0  0
 43 44  1  0  0  0
 44114  1  0  0  0
 45 46  2  0  0  0
 45115  1  0  0  0
 46116  1  0  0  0
 47117  1  0  0  0
 47118  1  0  0  0
 48 56  1  0  0  0
 48 65  1  0  0  0
 48119  1  0  0  0
 49 50  1  0  0  0
 49 53  1  0  0  0
 49 64  1  0  0  0
 49120  1  0  0  0
 50 51  1  0  0  0
 50121  1  0  0  0
 50122  1  0  0  0
 51 52  1  0  0  0
 51123  1  0  0  0
 51124  1  0  0  0
 52125  1  0  0  0
 52126  1  0  0  0
 53 54  1  0  0  0
 54 55  2  0  0  0
 54127  1  0  0  0
 55 57  1  0  0  0
 55128  1  0  0  0
 56 69  2  0  0  0
 57 58  2  0  0  0
 57129  1  0  0  0
 58130  1  0  0  0
 59 60  1  0  0  0
 59 61  1  0  0  0
 59 62  1  0  0  0
 60131  1  0  0  0
 60132  1  0  0  0
 60133  1  0  0  0
 61134  1  0  0  0
 61135  1  0  0  0
 61136  1  0  0  0
 62137  1  0  0  0
 62138  1  0  0  0
 62139  1  0  0  0
 63 65  1  0  0  0
 63140  1  0  0  0
 63141  1  0  0  0
 63142  1  0  0  0
 64143  1  0  0  0
 65144  1  0  0  0
 68 83  1  0  0  0
 71 73  1  0  0  0
 71 74  2  0  0  0
 71145  1  0  0  0
 72 73  2  0  0  0
 72 84  1  0  0  0
 72146  1  0  0  0
 73 78  1  0  0  0
 74 82  1  0  0  0
 74 84  1  0  0  0
 75 79  1  0  0  0
 75147  1  0  0  0
 75148  1  0  0  0
 75149  1  0  0  0
 76150  1  0  0  0
 76151  1  0  0  0
 76152  1  0  0  0
 76 82  1  0  0  0
 77153  1  0  0  0
 77154  1  0  0  0
 77155  1  0  0  0
 77 83  1  0  0  0
 78 85  1  0  0  0
 78156  1  0  0  0
 78157  1  0  0  0
 79 82  1  0  0  0
 79158  1  0  0  0
 79159  1  0  0  0
 80 81  1  0  0  0
 80 83  1  0  0  0
 80160  1  0  0  0
 80161  1  0  0  0
 81 84  1  0  0  0
 81162  1  0  0  0
 81163  1  0  0  0
 82164  1  0  0  0
 83165  1  0  0  0
 85166  1  0  0  0
M  ISO  4   1 100  68 101  83 101  85 100
M  END
> <chiral flag>
0

> <version>
0

> <s_m_source_file>
/data/baiqing/PycharmProjects/Reinvent-master-3.2/result/LINK_invent/BTK/process_docking_weight1_custom_sum_contain_oxygen_bond_distance_aromatic_linkinvent_7_9_3/rearranged_h_0103.sdf

> <i_m_source_file_index>
37

> <r_mmod_Potential_Energy-OPLS-2005>
106.138862609863

> <r_mmod_Stretch_Energy-OPLS-2005>
120.721565246582

> <r_mmod_Bend_Energy-OPLS-2005>
186.5830078125

> <r_mmod_Torsional_Energy-OPLS-2005>
246.456649780273

> <r_mmod_Improper_Torsional_Energy-OPLS-2005>
5.28288078308105

> <r_mmod_Van_der_Waal_Energy-OPLS-2005>
114.03630065918

> <r_mmod_Electrostatic_Energy-OPLS-2005>
-441.779479980469

> <r_mmod_Solvation_Energy-OPLS-2005>
-205.763366699219

> <b_mmod_Minimization_Converged-OPLS-2005>
0

> <r_mmod_RMS_Derivative-OPLS-2005>
2.06706714630127

$$$$
37
                    3D
 Structure written by MMmdl.
157165  0  0  1  0            999 V2000
  -30.5695  -14.7382   20.4885 C   0  0  0  0  0  0
  -30.4583  -12.4567   19.4551 C   0  0  0  0  0  0
  -29.5160  -12.5186   18.2296 C   0  0  0  0  0  0
  -28.0408  -12.3411   18.6453 C   0  0  0  0  0  0
  -27.6550  -13.2191   19.8645 C   0  0  2  0  0  0
  -28.7051  -13.0894   20.9914 C   0  0  0  0  0  0
  -25.2560  -13.8166   20.5651 C   0  0  0  0  0  0
  -24.1834  -13.0437   20.9188 C   0  0  0  0  0  0
  -24.6407  -11.6909   20.8753 C   0  0  0  0  0  0
  -23.9067  -10.4291   21.0414 C   0  0  0  0  0  0
  -24.3615   -9.4203   21.9189 C   0  0  0  0  0  0
  -23.6289   -8.2239   22.0755 C   0  0  0  0  0  0
  -22.4273   -8.0279   21.3544 C   0  0  0  0  0  0
  -21.9910   -9.0254   20.4648 C   0  0  0  0  0  0
  -22.7238  -10.2135   20.3061 C   0  0  0  0  0  0
  -21.6853   -6.0730   22.5272 C   0  0  0  0  0  0
  -21.4007   -6.5635   23.8202 C   0  0  0  0  0  0
  -21.3656   -5.6791   24.9167 C   0  0  0  0  0  0
  -21.6046   -4.3054   24.7222 C   0  0  0  0  0  0
  -21.8823   -3.8143   23.4344 C   0  0  0  0  0  0
  -21.9194   -4.6956   22.3399 C   0  0  0  0  0  0
  -22.7855  -13.5231   21.1843 C   0  0  0  0  0  0
  -22.1665   -4.2143   21.0977 F   0  0  0  0  0  0
  -21.5634   -3.4538   25.7736 F   0  0  0  0  0  0
  -30.0095  -13.4793   20.4264 N   0  0  0  0  0  0
  -26.3009  -12.9353   20.3334 N   0  0  0  0  0  0
  -25.9345  -11.6512   20.5788 N   0  0  0  0  0  0
  -22.0490  -12.8234   22.0403 N   0  0  0  0  0  0
  -25.4248  -15.1874   20.3967 N   0  0  0  0  0  0
  -31.7248  -14.9328   20.0952 O   0  0  0  0  0  0
  -21.6640   -6.8872   21.4233 O   0  0  0  0  0  0
  -22.3545  -14.5539   20.6688 O   0  0  0  0  0  0
  -24.6326  -31.8546   23.1979 C   0  0  0  0  0  0
  -25.9133  -32.4763   23.8336 C   0  0  1  0  0  0
  -27.2347  -27.2598   20.1240 C   0  0  0  0  0  0
  -25.5927  -33.8561   24.2261 N   0  0  0  0  0  0
  -23.4308  -30.4748   21.5424 C   0  0  2  0  0  0
  -24.8806  -28.9213   20.1122 C   0  0  0  0  0  0
  -22.7519  -29.4583   22.4919 C   0  0  0  0  0  0
  -18.0295  -28.1394   22.8490 C   0  0  0  0  0  0
  -24.1478  -36.7262   23.2643 C   0  0  0  0  0  0
  -25.9779  -30.7669   21.3774 C   0  0  0  0  0  0
  -26.0535  -29.3900   20.7172 C   0  0  0  0  0  0
  -27.2330  -28.5743   20.7078 C   0  0  0  0  0  0
  -26.0313  -26.8595   19.4993 C   0  0  0  0  0  0
  -24.8751  -27.6641   19.4916 C   0  0  0  0  0  0
  -23.6499  -29.8078   20.1596 C   0  0  0  0  0  0
  -25.4109  -36.3067   24.0337 C   0  0  1  0  0  0
  -20.5901  -28.3691   23.1281 C   0  0  2  0  0  0
  -20.6786  -26.9413   22.5405 C   0  0  0  0  0  0
  -19.5754  -26.6383   21.5215 C   0  0  0  0  0  0
  -18.1932  -26.7942   22.1625 C   0  0  0  0  0  0
  -19.1552  -28.8861   23.2875 C   0  0  0  0  0  0
  -18.9470  -30.1465   23.8890 C   0  0  0  0  0  0
  -17.6476  -30.6603   24.0557 C   0  0  0  0  0  0
  -25.9052  -34.9447   23.5098 C   0  0  0  0  0  0
  -16.5361  -29.9099   23.6346 C   0  0  0  0  0  0
  -16.7278  -28.6512   23.0370 C   0  0  0  0  0  0
  -26.4494  -31.6604   25.0737 C   0  0  0  0  0  0
  -25.3731  -31.3754   26.1469 C   0  0  0  0  0  0
  -27.0340  -30.3033   24.6210 C   0  0  0  0  0  0
  -27.6042  -32.4362   25.7509 C   0  0  0  0  0  0
  -27.5576  -37.1788   24.8475 C   0  0  0  0  0  0
  -21.4226  -29.3038   22.3674 N   0  0  0  0  0  0
  -26.4278  -37.3778   23.9434 N   0  0  0  0  0  0
  -24.7000  -31.0500   22.0953 N   0  0  0  0  0  0
  -23.4216  -28.8129   23.3026 O   0  0  0  0  0  0
  -28.3407  -26.3696   20.1686 O   0  0  0  0  0  0
  -26.5618  -34.8924   22.4661 O   0  0  0  0  0  0
  -23.5466  -32.1353   23.7272 O   0  0  0  0  0  0
  -30.2061  -18.1913   20.2037 C   0  0  0  0  0  0
  -28.7261  -19.1295   21.5814 C   0  0  0  0  0  0
  -29.6353  -19.4875   20.6180 C   0  0  0  0  0  0
  -29.6249  -17.1461   20.9233 C   0  0  0  0  0  0
  -30.5728  -20.9829   18.7655 C   0  0  0  0  0  0
  -27.8491  -17.0622   22.7255 C   0  0  0  0  0  0
  -29.2456  -23.7545   20.2576 C   0  0  0  0  0  0
  -28.8467  -22.1715   20.2920 C   0  0  0  0  0  0
  -28.0963  -24.8839   20.0663 C   0  0  0  0  0  0
  -29.9657  -20.9923   20.1778 C   0  0  1  0  0  0
  -28.7064  -17.7483   21.7720 N   0  0  0  0  0  0
  -29.7081  -15.7416   20.8928 N   0  0  0  0  0  0
  -31.4905  -12.6219   19.1408 H   0  0  0  0  0  0
  -30.4403  -11.4650   19.9102 H   0  0  0  0  0  0
  -29.7920  -11.7524   17.5040 H   0  0  0  0  0  0
  -29.6382  -13.4767   17.7225 H   0  0  0  0  0  0
  -27.8917  -11.2883   18.8898 H   0  0  0  0  0  0
  -27.3812  -12.5530   17.8027 H   0  0  0  0  0  0
  -27.6663  -14.2513   19.5150 H   0  0  0  0  0  0
  -28.7445  -12.0629   21.3594 H   0  0  0  0  0  0
  -28.4348  -13.7001   21.8544 H   0  0  0  0  0  0
  -25.2761   -9.5679   22.4765 H   0  0  0  0  0  0
  -23.9997   -7.4630   22.7477 H   0  0  0  0  0  0
  -21.0841   -8.8771   19.8957 H   0  0  0  0  0  0
  -22.3693  -10.9673   19.6172 H   0  0  0  0  0  0
  -21.1989   -7.6145   23.9700 H   0  0  0  0  0  0
  -21.1477   -6.0525   25.9069 H   0  0  0  0  0  0
  -22.0607   -2.7607   23.2846 H   0  0  0  0  0  0
  -22.4093  -11.9889   22.4795 H   0  0  0  0  0  0
  -21.1109  -13.1275   22.2603 H   0  0  0  0  0  0
  -24.6471  -15.8343   20.4709 H   0  0  0  0  0  0
  -26.2575  -15.6166   20.0137 H   0  0  0  0  0  0
  -26.7204  -32.5404   23.1080 H   0  0  0  0  0  0
  -25.0110  -33.9710   25.0428 H   0  0  0  0  0  0
  -22.7262  -31.2952   21.3941 H   0  0  0  0  0  0
  -23.3765  -35.9572   23.3303 H   0  0  0  0  0  0
  -24.3560  -36.8872   22.2053 H   0  0  0  0  0  0
  -23.7205  -37.6452   23.6666 H   0  0  0  0  0  0
  -26.1167  -31.5296   20.6100 H   0  0  0  0  0  0
  -26.8545  -30.8147   22.0115 H   0  0  0  0  0  0
  -28.1318  -28.9329   21.1884 H   0  0  0  0  0  0
  -25.9452  -25.8989   19.0172 H   0  0  0  0  0  0
  -23.9791  -27.2964   19.0104 H   0  0  0  0  0  0
  -23.7761  -30.5838   19.4042 H   0  0  0  0  0  0
  -22.7693  -29.2412   19.8527 H   0  0  0  0  0  0
  -25.1289  -36.1896   25.0835 H   0  0  0  0  0  0
  -20.9976  -28.3250   24.1409 H   0  0  0  0  0  0
  -20.5677  -26.2300   23.3600 H   0  0  0  0  0  0
  -21.6655  -26.7442   22.1195 H   0  0  0  0  0  0
  -19.6918  -25.6289   21.1255 H   0  0  0  0  0  0
  -19.6709  -27.3187   20.6738 H   0  0  0  0  0  0
  -17.4206  -26.6688   21.4018 H   0  0  0  0  0  0
  -18.0326  -26.0084   22.9019 H   0  0  0  0  0  0
  -19.7947  -30.7277   24.2254 H   0  0  0  0  0  0
  -17.5036  -31.6291   24.5147 H   0  0  0  0  0  0
  -15.5359  -30.2996   23.7698 H   0  0  0  0  0  0
  -15.8672  -28.0824   22.7113 H   0  0  0  0  0  0
  -24.5919  -30.7072   25.7827 H   0  0  0  0  0  0
  -24.8901  -32.2916   26.4884 H   0  0  0  0  0  0
  -25.8066  -30.8969   27.0257 H   0  0  0  0  0  0
  -26.2922  -29.6791   24.1216 H   0  0  0  0  0  0
  -27.4012  -29.7283   25.4717 H   0  0  0  0  0  0
  -27.8806  -30.4326   23.9465 H   0  0  0  0  0  0
  -27.2653  -33.3693   26.2026 H   0  0  0  0  0  0
  -28.3886  -32.6868   25.0358 H   0  0  0  0  0  0
  -28.0671  -31.8523   26.5471 H   0  0  0  0  0  0
  -28.2587  -38.0092   24.7536 H   0  0  0  0  0  0
  -28.1063  -36.2619   24.6271 H   0  0  0  0  0  0
  -27.2290  -37.1403   25.8875 H   0  0  0  0  0  0
  -20.9408  -29.8756   21.6881 H   0  0  0  0  0  0
  -26.0142  -38.2836   24.1465 H   0  0  0  0  0  0
  -30.9607  -18.0500   19.4416 H   0  0  0  0  0  0
  -28.0756  -19.7574   22.1766 H   0  0  0  0  0  0
  -31.4666  -20.3584   18.7264 H   0  0  0  0  0  0
  -30.8694  -21.9790   18.4390 H   0  0  0  0  0  0
  -29.8642  -20.5929   18.0348 H   0  0  0  0  0  0
  -27.2310  -17.7760   23.2685 H   0  0  0  0  0  0
  -28.4570  -16.5099   23.4427 H   0  0  0  0  0  0
  -27.1950  -16.3637   22.2055 H   0  0  0  0  0  0
  -29.9770  -23.9037   19.4638 H   0  0  0  0  0  0
  -29.7836  -23.9759   21.1801 H   0  0  0  0  0  0
  -28.1045  -21.9972   19.5123 H   0  0  0  0  0  0
  -28.3090  -22.0197   21.2275 H   0  0  0  0  0  0
  -27.3014  -24.6479   20.7749 H   0  0  0  0  0  0
  -27.6835  -24.6913   19.0764 H   0  0  0  0  0  0
  -30.7650  -21.2896   20.8581 H   0  0  0  0  0  0
  -28.8818  -15.3105   21.2744 H   0  0  0  0  0  0
  1 25  1  0  0  0
  1 30  2  0  0  0
  1 82  1  0  0  0
  2  3  1  0  0  0
  2 25  1  0  0  0
  2 83  1  0  0  0
  2 84  1  0  0  0
  3  4  1  0  0  0
  3 85  1  0  0  0
  3 86  1  0  0  0
  4  5  1  0  0  0
  4 87  1  0  0  0
  4 88  1  0  0  0
  5  6  1  0  0  0
  5 26  1  0  0  0
  5 89  1  0  0  0
  6 25  1  0  0  0
  6 90  1  0  0  0
  6 91  1  0  0  0
  7  8  2  0  0  0
  7 26  1  0  0  0
  7 29  1  0  0  0
  8  9  1  0  0  0
  8 22  1  0  0  0
  9 10  1  0  0  0
  9 27  2  0  0  0
 10 11  2  0  0  0
 10 15  1  0  0  0
 11 12  1  0  0  0
 11 92  1  0  0  0
 12 13  2  0  0  0
 12 93  1  0  0  0
 13 14  1  0  0  0
 13 31  1  0  0  0
 14 15  2  0  0  0
 14 94  1  0  0  0
 15 95  1  0  0  0
 16 17  2  0  0  0
 16 21  1  0  0  0
 16 31  1  0  0  0
 17 18  1  0  0  0
 17 96  1  0  0  0
 18 19  2  0  0  0
 18 97  1  0  0  0
 19 20  1  0  0  0
 19 24  1  0  0  0
 20 21  2  0  0  0
 20 98  1  0  0  0
 21 23  1  0  0  0
 22 28  1  0  0  0
 22 32  2  0  0  0
 26 27  1  0  0  0
 28 99  1  0  0  0
 28100  1  0  0  0
 29101  1  0  0  0
 29102  1  0  0  0
 33 34  1  0  0  0
 33 66  1  0  0  0
 33 70  2  0  0  0
 34 36  1  0  0  0
 34 59  1  0  0  0
 34103  1  0  0  0
 35 44  2  0  0  0
 35 45  1  0  0  0
 35 68  1  0  0  0
 36 56  1  0  0  0
 36104  1  0  0  0
 37 39  1  0  0  0
 37 47  1  0  0  0
 37 66  1  0  0  0
 37105  1  0  0  0
 38 43  2  0  0  0
 38 46  1  0  0  0
 38 47  1  0  0  0
 39 64  1  0  0  0
 39 67  2  0  0  0
 40 52  1  0  0  0
 40 53  2  0  0  0
 40 58  1  0  0  0
 41106  1  0  0  0
 41107  1  0  0  0
 41108  1  0  0  0
 41 48  1  0  0  0
 42 43  1  0  0  0
 42 66  1  0  0  0
 42109  1  0  0  0
 42110  1  0  0  0
 43 44  1  0  0  0
 44111  1  0  0  0
 45 46  2  0  0  0
 45112  1  0  0  0
 46113  1  0  0  0
 47114  1  0  0  0
 47115  1  0  0  0
 48 56  1  0  0  0
 48 65  1  0  0  0
 48116  1  0  0  0
 49 50  1  0  0  0
 49 53  1  0  0  0
 49 64  1  0  0  0
 49117  1  0  0  0
 50 51  1  0  0  0
 50118  1  0  0  0
 50119  1  0  0  0
 51 52  1  0  0  0
 51120  1  0  0  0
 51121  1  0  0  0
 52122  1  0  0  0
 52123  1  0  0  0
 53 54  1  0  0  0
 54 55  2  0  0  0
 54124  1  0  0  0
 55 57  1  0  0  0
 55125  1  0  0  0
 56 69  2  0  0  0
 57 58  2  0  0  0
 57126  1  0  0  0
 58127  1  0  0  0
 59 60  1  0  0  0
 59 61  1  0  0  0
 59 62  1  0  0  0
 60128  1  0  0  0
 60129  1  0  0  0
 60130  1  0  0  0
 61131  1  0  0  0
 61132  1  0  0  0
 61133  1  0  0  0
 62134  1  0  0  0
 62135  1  0  0  0
 62136  1  0  0  0
 63 65  1  0  0  0
 63137  1  0  0  0
 63138  1  0  0  0
 63139  1  0  0  0
 64140  1  0  0  0
 65141  1  0  0  0
 68 79  1  0  0  0
 71 73  1  0  0  0
 71 74  2  0  0  0
 71142  1  0  0  0
 72 73  2  0  0  0
 72 81  1  0  0  0
 72143  1  0  0  0
 73 80  1  0  0  0
 74 81  1  0  0  0
 74 82  1  0  0  0
 75144  1  0  0  0
 75145  1  0  0  0
 75146  1  0  0  0
 75 80  1  0  0  0
 76 81  1  0  0  0
 76147  1  0  0  0
 76148  1  0  0  0
 76149  1  0  0  0
 77 78  1  0  0  0
 77 79  1  0  0  0
 77150  1  0  0  0
 77151  1  0  0  0
 78 80  1  0  0  0
 78152  1  0  0  0
 78153  1  0  0  0
 79154  1  0  0  0
 79155  1  0  0  0
 80156  1  0  0  0
 82157  1  0  0  0
M  ISO  4   1 100  68 101  79 101  82 100
M  END
> <chiral flag>
0

> <version>
0

> <s_m_source_file>
/data/baiqing/PycharmProjects/Reinvent-master-3.2/result/LINK_invent/BTK/process_docking_weight1_custom_sum_contain_oxygen_bond_distance_aromatic_linkinvent_7_9_3/rearranged_h_0103.sdf

> <i_m_source_file_index>
38

> <r_mmod_Potential_Energy-OPLS-2005>
138.310775756836

> <r_mmod_Stretch_Energy-OPLS-2005>
124.189826965332

> <r_mmod_Bend_Energy-OPLS-2005>
202.788314819336

> <r_mmod_Torsional_Energy-OPLS-2005>
216.759399414062

> <r_mmod_Improper_Torsional_Energy-OPLS-2005>
3.77086305618286

> <r_mmod_Van_der_Waal_Energy-OPLS-2005>
114.617088317871

> <r_mmod_Electrostatic_Energy-OPLS-2005>
-396.597259521484

> <r_mmod_Solvation_Energy-OPLS-2005>
-209.672576904297

> <b_mmod_Minimization_Converged-OPLS-2005>
0

> <r_mmod_RMS_Derivative-OPLS-2005>
1.72174298763275

$$$$
38
                    3D
 Structure written by MMmdl.
167175  0  0  1  0            999 V2000
  -30.6805  -14.6121   20.5257 C   0  0  0  0  0  0
  -30.4235  -12.3834   19.4541 C   0  0  0  0  0  0
  -29.5032  -12.5012   18.2200 C   0  0  0  0  0  0
  -28.0239  -12.3489   18.6283 C   0  0  0  0  0  0
  -27.6493  -13.2171   19.8590 C   0  0  2  0  0  0
  -28.6918  -13.0580   20.9840 C   0  0  0  0  0  0
  -25.2553  -13.8192   20.5717 C   0  0  0  0  0  0
  -24.1802  -13.0452   20.9195 C   0  0  0  0  0  0
  -24.6367  -11.6919   20.8734 C   0  0  0  0  0  0
  -23.9035  -10.4301   21.0397 C   0  0  0  0  0  0
  -24.3595   -9.4215   21.9173 C   0  0  0  0  0  0
  -23.6285   -8.2243   22.0745 C   0  0  0  0  0  0
  -22.4269   -8.0283   21.3538 C   0  0  0  0  0  0
  -21.9894   -9.0246   20.4637 C   0  0  0  0  0  0
  -22.7211  -10.2134   20.3046 C   0  0  0  0  0  0
  -21.6847   -6.0742   22.5278 C   0  0  0  0  0  0
  -21.4012   -6.5640   23.8216 C   0  0  0  0  0  0
  -21.3657   -5.6787   24.9178 C   0  0  0  0  0  0
  -21.6039   -4.3050   24.7216 C   0  0  0  0  0  0
  -21.8815   -3.8151   23.4332 C   0  0  0  0  0  0
  -21.9184   -4.6974   22.3393 C   0  0  0  0  0  0
  -22.7829  -13.5259   21.1864 C   0  0  0  0  0  0
  -22.1659   -4.2163   21.0969 F   0  0  0  0  0  0
  -21.5620   -3.4530   25.7720 F   0  0  0  0  0  0
  -30.0034  -13.4192   20.4225 N   0  0  0  0  0  0
  -26.2959  -12.9367   20.3301 N   0  0  0  0  0  0
  -25.9291  -11.6519   20.5720 N   0  0  0  0  0  0
  -22.0462  -12.8240   22.0412 N   0  0  0  0  0  0
  -25.4315  -15.1907   20.4180 N   0  0  0  0  0  0
  -31.8496  -14.6850   20.1312 O   0  0  0  0  0  0
  -21.6631   -6.8887   21.4247 O   0  0  0  0  0  0
  -22.3513  -14.5562   20.6717 O   0  0  0  0  0  0
  -24.6229  -31.8634   23.2034 C   0  0  0  0  0  0
  -25.9097  -32.4788   23.8352 C   0  0  1  0  0  0
  -27.2234  -27.3485   20.1254 C   0  0  0  0  0  0
  -25.5926  -33.8581   24.2294 N   0  0  0  0  0  0
  -23.4149  -30.4856   21.5465 C   0  0  2  0  0  0
  -24.8620  -28.9403   20.1144 C   0  0  0  0  0  0
  -22.7445  -29.4647   22.4967 C   0  0  0  0  0  0
  -18.0292  -28.1367   22.8491 C   0  0  0  0  0  0
  -24.1492  -36.7297   23.2638 C   0  0  0  0  0  0
  -25.9513  -30.8025   21.3692 C   0  0  0  0  0  0
  -26.0281  -29.4301   20.7167 C   0  0  0  0  0  0
  -27.2150  -28.6449   20.7140 C   0  0  0  0  0  0
  -26.0429  -26.9037   19.4937 C   0  0  0  0  0  0
  -24.8683  -27.6798   19.4940 C   0  0  0  0  0  0
  -23.6281  -29.8168   20.1628 C   0  0  0  0  0  0
  -25.4114  -36.3087   24.0339 C   0  0  1  0  0  0
  -20.5884  -28.3693   23.1315 C   0  0  2  0  0  0
  -20.6800  -26.9432   22.5412 C   0  0  0  0  0  0
  -19.5777  -26.6410   21.5199 C   0  0  0  0  0  0
  -18.1963  -26.7914   22.1616 C   0  0  0  0  0  0
  -19.1532  -28.8844   23.2897 C   0  0  0  0  0  0
  -18.9453  -30.1453   23.8895 C   0  0  0  0  0  0
  -17.6452  -30.6584   24.0543 C   0  0  0  0  0  0
  -25.9048  -34.9456   23.5114 C   0  0  0  0  0  0
  -16.5339  -29.9074   23.6315 C   0  0  0  0  0  0
  -16.7276  -28.6479   23.0352 C   0  0  0  0  0  0
  -26.4491  -31.6583   25.0705 C   0  0  0  0  0  0
  -25.3723  -31.3719   26.1433 C   0  0  0  0  0  0
  -27.0331  -30.3009   24.6121 C   0  0  0  0  0  0
  -27.6073  -32.4299   25.7457 C   0  0  0  0  0  0
  -27.5581  -37.1804   24.8466 C   0  0  0  0  0  0
  -21.4161  -29.3072   22.3720 N   0  0  0  0  0  0
  -26.4297  -37.3779   23.9414 N   0  0  0  0  0  0
  -24.6820  -31.0665   22.0983 N   0  0  0  0  0  0
  -23.4177  -28.8184   23.3036 O   0  0  0  0  0  0
  -28.3305  -26.5009   20.1571 O   0  0  0  0  0  0
  -26.5610  -34.8922   22.4673 O   0  0  0  0  0  0
  -23.5401  -32.1432   23.7380 O   0  0  0  0  0  0
  -30.1604  -20.6484   21.3279 C   0  0  0  0  0  0
  -28.6365  -19.1014   19.6849 C   0  0  0  0  0  0
  -30.5439  -19.2903   21.1271 C   0  0  0  0  0  0
  -29.7694  -18.4617   20.2597 C   0  0  0  0  0  0
  -29.0138  -21.1850   20.7051 C   0  0  0  0  0  0
  -31.7682  -19.0495   23.3473 C   0  0  0  0  0  0
  -33.0654  -19.3217   21.1770 C   0  0  0  0  0  0
  -29.7729  -16.6955   18.3733 C   0  0  0  0  0  0
  -29.2416  -16.0481   21.9405 C   0  0  0  0  0  0
  -28.4511  -22.5932   21.0840 C   0  0  0  0  0  0
  -28.8104  -23.8909   20.2559 C   0  0  0  0  0  0
  -28.1127  -25.2009   20.8108 C   0  0  0  0  0  0
  -31.7950  -18.7672   21.8355 C   0  0  0  0  0  0
  -30.2153  -17.0035   19.8197 C   0  0  2  0  0  0
  -28.2692  -20.3990   19.8922 N   0  0  0  0  0  0
  -29.9531  -15.7824   20.6839 N   0  0  0  0  0  0
  -31.4675  -12.4803   19.1526 H   0  0  0  0  0  0
  -30.3406  -11.3916   19.9019 H   0  0  0  0  0  0
  -29.7659  -11.7435   17.4808 H   0  0  0  0  0  0
  -29.6556  -13.4661   17.7343 H   0  0  0  0  0  0
  -27.8570  -11.2966   18.8601 H   0  0  0  0  0  0
  -27.3711  -12.5831   17.7852 H   0  0  0  0  0  0
  -27.6724  -14.2551   19.5263 H   0  0  0  0  0  0
  -28.7079  -12.0269   21.3407 H   0  0  0  0  0  0
  -28.4134  -13.6465   21.8531 H   0  0  0  0  0  0
  -25.2740   -9.5700   22.4753 H   0  0  0  0  0  0
  -23.9984   -7.4639   22.7472 H   0  0  0  0  0  0
  -21.0820   -8.8761   19.8952 H   0  0  0  0  0  0
  -22.3660  -10.9671   19.6154 H   0  0  0  0  0  0
  -21.2014   -7.6149   23.9731 H   0  0  0  0  0  0
  -21.1488   -6.0510   25.9082 H   0  0  0  0  0  0
  -22.0595   -2.7618   23.2817 H   0  0  0  0  0  0
  -22.4073  -11.9889   22.4777 H   0  0  0  0  0  0
  -21.1094  -13.1296   22.2642 H   0  0  0  0  0  0
  -24.6742  -15.8536   20.5424 H   0  0  0  0  0  0
  -26.2976  -15.6284   20.1318 H   0  0  0  0  0  0
  -26.7166  -32.5472   23.1110 H   0  0  0  0  0  0
  -25.0088  -33.9727   25.0445 H   0  0  0  0  0  0
  -22.7068  -31.3051   21.4015 H   0  0  0  0  0  0
  -23.3748  -35.9631   23.3305 H   0  0  0  0  0  0
  -24.3583  -36.8899   22.2047 H   0  0  0  0  0  0
  -23.7245  -37.6505   23.6642 H   0  0  0  0  0  0
  -26.0737  -31.5625   20.5970 H   0  0  0  0  0  0
  -26.8344  -30.8569   21.9938 H   0  0  0  0  0  0
  -28.1089  -29.0105   21.2001 H   0  0  0  0  0  0
  -26.0227  -25.9359   19.0127 H   0  0  0  0  0  0
  -23.9749  -27.2973   19.0203 H   0  0  0  0  0  0
  -23.7438  -30.5888   19.4012 H   0  0  0  0  0  0
  -22.7487  -29.2428   19.8652 H   0  0  0  0  0  0
  -25.1290  -36.1950   25.0831 H   0  0  0  0  0  0
  -20.9975  -28.3259   24.1442 H   0  0  0  0  0  0
  -20.5725  -26.2289   23.3590 H   0  0  0  0  0  0
  -21.6665  -26.7492   22.1195 H   0  0  0  0  0  0
  -19.6953  -25.6337   21.1184 H   0  0  0  0  0  0
  -19.6702  -27.3272   20.6764 H   0  0  0  0  0  0
  -17.4243  -26.6676   21.3999 H   0  0  0  0  0  0
  -18.0377  -26.0048   22.9002 H   0  0  0  0  0  0
  -19.7920  -30.7263   24.2284 H   0  0  0  0  0  0
  -17.4997  -31.6265   24.5141 H   0  0  0  0  0  0
  -15.5335  -30.2969   23.7626 H   0  0  0  0  0  0
  -15.8679  -28.0793   22.7066 H   0  0  0  0  0  0
  -24.5905  -30.7068   25.7753 H   0  0  0  0  0  0
  -24.8909  -32.2883   26.4842 H   0  0  0  0  0  0
  -25.8045  -30.8901   27.0207 H   0  0  0  0  0  0
  -26.2891  -29.6752   24.1170 H   0  0  0  0  0  0
  -27.4085  -29.7270   25.4604 H   0  0  0  0  0  0
  -27.8736  -30.4315   23.9299 H   0  0  0  0  0  0
  -27.2709  -33.3599   26.2043 H   0  0  0  0  0  0
  -28.3859  -32.6846   25.0255 H   0  0  0  0  0  0
  -28.0756  -31.8405   26.5345 H   0  0  0  0  0  0
  -28.2612  -38.0091   24.7499 H   0  0  0  0  0  0
  -28.1065  -36.2618   24.6307 H   0  0  0  0  0  0
  -27.2297  -37.1475   25.8871 H   0  0  0  0  0  0
  -20.9321  -29.8801   21.6940 H   0  0  0  0  0  0
  -26.0183  -38.2859   24.1395 H   0  0  0  0  0  0
  -30.7364  -21.2855   21.9852 H   0  0  0  0  0  0
  -27.9941  -18.5638   19.0046 H   0  0  0  0  0  0
  -30.8805  -18.6153   23.8076 H   0  0  0  0  0  0
  -31.7699  -20.1143   23.5754 H   0  0  0  0  0  0
  -32.6391  -18.6166   23.8387 H   0  0  0  0  0  0
  -33.0820  -19.0911   20.1113 H   0  0  0  0  0  0
  -33.9602  -18.8838   21.6177 H   0  0  0  0  0  0
  -33.1334  -20.4044   21.2812 H   0  0  0  0  0  0
  -30.0311  -17.5141   17.7006 H   0  0  0  0  0  0
  -28.6985  -16.5231   18.3005 H   0  0  0  0  0  0
  -30.2697  -15.8094   17.9796 H   0  0  0  0  0  0
  -29.4758  -17.0216   22.3626 H   0  0  0  0  0  0
  -29.4974  -15.3318   22.7223 H   0  0  0  0  0  0
  -28.1658  -16.0102   21.7748 H   0  0  0  0  0  0
  -28.7204  -22.7707   22.1253 H   0  0  0  0  0  0
  -27.3647  -22.5045   21.0972 H   0  0  0  0  0  0
  -28.5271  -23.7417   19.2139 H   0  0  0  0  0  0
  -29.8920  -24.0258   20.2656 H   0  0  0  0  0  0
  -28.4405  -25.3345   21.8420 H   0  0  0  0  0  0
  -27.0475  -24.9835   20.8961 H   0  0  0  0  0  0
  -31.8335  -17.6825   21.7492 H   0  0  0  0  0  0
  -31.2991  -17.0882   19.7352 H   0  0  0  0  0  0
  1 25  1  0  0  0
  1 30  2  0  0  0
  1 86  1  0  0  0
  2  3  1  0  0  0
  2 25  1  0  0  0
  2 87  1  0  0  0
  2 88  1  0  0  0
  3  4  1  0  0  0
  3 89  1  0  0  0
  3 90  1  0  0  0
  4  5  1  0  0  0
  4 91  1  0  0  0
  4 92  1  0  0  0
  5  6  1  0  0  0
  5 26  1  0  0  0
  5 93  1  0  0  0
  6 25  1  0  0  0
  6 94  1  0  0  0
  6 95  1  0  0  0
  7  8  2  0  0  0
  7 26  1  0  0  0
  7 29  1  0  0  0
  8  9  1  0  0  0
  8 22  1  0  0  0
  9 10  1  0  0  0
  9 27  2  0  0  0
 10 11  2  0  0  0
 10 15  1  0  0  0
 11 12  1  0  0  0
 11 96  1  0  0  0
 12 13  2  0  0  0
 12 97  1  0  0  0
 13 14  1  0  0  0
 13 31  1  0  0  0
 14 15  2  0  0  0
 14 98  1  0  0  0
 15 99  1  0  0  0
 16 17  2  0  0  0
 16 21  1  0  0  0
 16 31  1  0  0  0
 17 18  1  0  0  0
 17100  1  0  0  0
 18 19  2  0  0  0
 18101  1  0  0  0
 19 20  1  0  0  0
 19 24  1  0  0  0
 20 21  2  0  0  0
 20102  1  0  0  0
 21 23  1  0  0  0
 22 28  1  0  0  0
 22 32  2  0  0  0
 26 27  1  0  0  0
 28103  1  0  0  0
 28104  1  0  0  0
 29105  1  0  0  0
 29106  1  0  0  0
 33 34  1  0  0  0
 33 66  1  0  0  0
 33 70  2  0  0  0
 34 36  1  0  0  0
 34 59  1  0  0  0
 34107  1  0  0  0
 35 44  2  0  0  0
 35 45  1  0  0  0
 35 68  1  0  0  0
 36 56  1  0  0  0
 36108  1  0  0  0
 37 39  1  0  0  0
 37 47  1  0  0  0
 37 66  1  0  0  0
 37109  1  0  0  0
 38 43  2  0  0  0
 38 46  1  0  0  0
 38 47  1  0  0  0
 39 64  1  0  0  0
 39 67  2  0  0  0
 40 52  1  0  0  0
 40 53  2  0  0  0
 40 58  1  0  0  0
 41110  1  0  0  0
 41111  1  0  0  0
 41112  1  0  0  0
 41 48  1  0  0  0
 42 43  1  0  0  0
 42 66  1  0  0  0
 42113  1  0  0  0
 42114  1  0  0  0
 43 44  1  0  0  0
 44115  1  0  0  0
 45 46  2  0  0  0
 45116  1  0  0  0
 46117  1  0  0  0
 47118  1  0  0  0
 47119  1  0  0  0
 48 56  1  0  0  0
 48 65  1  0  0  0
 48120  1  0  0  0
 49 50  1  0  0  0
 49 53  1  0  0  0
 49 64  1  0  0  0
 49121  1  0  0  0
 50 51  1  0  0  0
 50122  1  0  0  0
 50123  1  0  0  0
 51 52  1  0  0  0
 51124  1  0  0  0
 51125  1  0  0  0
 52126  1  0  0  0
 52127  1  0  0  0
 53 54  1  0  0  0
 54 55  2  0  0  0
 54128  1  0  0  0
 55 57  1  0  0  0
 55129  1  0  0  0
 56 69  2  0  0  0
 57 58  2  0  0  0
 57130  1  0  0  0
 58131  1  0  0  0
 59 60  1  0  0  0
 59 61  1  0  0  0
 59 62  1  0  0  0
 60132  1  0  0  0
 60133  1  0  0  0
 60134  1  0  0  0
 61135  1  0  0  0
 61136  1  0  0  0
 61137  1  0  0  0
 62138  1  0  0  0
 62139  1  0  0  0
 62140  1  0  0  0
 63 65  1  0  0  0
 63141  1  0  0  0
 63142  1  0  0  0
 63143  1  0  0  0
 64144  1  0  0  0
 65145  1  0  0  0
 68 82  1  0  0  0
 71 73  2  0  0  0
 71 75  1  0  0  0
 71146  1  0  0  0
 72 74  2  0  0  0
 72 85  1  0  0  0
 72147  1  0  0  0
 73 74  1  0  0  0
 73 83  1  0  0  0
 74 84  1  0  0  0
 75 80  1  0  0  0
 75 85  2  0  0  0
 76148  1  0  0  0
 76149  1  0  0  0
 76150  1  0  0  0
 76 83  1  0  0  0
 77 83  1  0  0  0
 77151  1  0  0  0
 77152  1  0  0  0
 77153  1  0  0  0
 78154  1  0  0  0
 78155  1  0  0  0
 78156  1  0  0  0
 78 84  1  0  0  0
 79 86  1  0  0  0
 79157  1  0  0  0
 79158  1  0  0  0
 79159  1  0  0  0
 80 81  1  0  0  0
 80160  1  0  0  0
 80161  1  0  0  0
 81 82  1  0  0  0
 81162  1  0  0  0
 81163  1  0  0  0
 82164  1  0  0  0
 82165  1  0  0  0
 83166  1  0  0  0
 84 86  1  0  0  0
 84167  1  0  0  0
M  ISO  4   1 100  68 101  82 101  86 100
M  END
> <chiral flag>
0

> <version>
0

> <s_m_source_file>
/data/baiqing/PycharmProjects/Reinvent-master-3.2/result/LINK_invent/BTK/process_docking_weight1_custom_sum_contain_oxygen_bond_distance_aromatic_linkinvent_7_9_3/rearranged_h_0103.sdf

> <i_m_source_file_index>
39

> <r_mmod_Potential_Energy-OPLS-2005>
47.8732566833496

> <r_mmod_Stretch_Energy-OPLS-2005>
78.3111267089844

> <r_mmod_Bend_Energy-OPLS-2005>
140.417999267578

> <r_mmod_Torsional_Energy-OPLS-2005>
283.712432861328

> <r_mmod_Improper_Torsional_Energy-OPLS-2005>
13.265739440918

> <r_mmod_Van_der_Waal_Energy-OPLS-2005>
150.730621337891

> <r_mmod_Electrostatic_Energy-OPLS-2005>
-461.329467773438

> <r_mmod_Solvation_Energy-OPLS-2005>
-196.502822875977

> <b_mmod_Minimization_Converged-OPLS-2005>
0

> <r_mmod_RMS_Derivative-OPLS-2005>
2.17701053619385

$$$$
39
                    3D
 Structure written by MMmdl.
165173  0  0  1  0            999 V2000
  -30.6201  -14.7273   20.4768 C   0  0  0  0  0  0
  -30.4323  -12.4491   19.4666 C   0  0  0  0  0  0
  -29.5097  -12.5034   18.2303 C   0  0  0  0  0  0
  -28.0355  -12.3279   18.6447 C   0  0  0  0  0  0
  -27.6405  -13.2299   19.8450 C   0  0  2  0  0  0
  -28.6847  -13.1592   20.9795 C   0  0  0  0  0  0
  -25.2523  -13.8199   20.5657 C   0  0  0  0  0  0
  -24.1818  -13.0445   20.9197 C   0  0  0  0  0  0
  -24.6399  -11.6918   20.8745 C   0  0  0  0  0  0
  -23.9065  -10.4298   21.0412 C   0  0  0  0  0  0
  -24.3627   -9.4213   21.9179 C   0  0  0  0  0  0
  -23.6304   -8.2249   22.0748 C   0  0  0  0  0  0
  -22.4277   -8.0289   21.3554 C   0  0  0  0  0  0
  -21.9906   -9.0253   20.4648 C   0  0  0  0  0  0
  -22.7236  -10.2136   20.3056 C   0  0  0  0  0  0
  -21.6847   -6.0742   22.5288 C   0  0  0  0  0  0
  -21.4015   -6.5643   23.8225 C   0  0  0  0  0  0
  -21.3660   -5.6790   24.9183 C   0  0  0  0  0  0
  -21.6049   -4.3054   24.7230 C   0  0  0  0  0  0
  -21.8823   -3.8153   23.4350 C   0  0  0  0  0  0
  -21.9193   -4.6971   22.3408 C   0  0  0  0  0  0
  -22.7839  -13.5218   21.1855 C   0  0  0  0  0  0
  -22.1658   -4.2157   21.0983 F   0  0  0  0  0  0
  -21.5629   -3.4533   25.7742 F   0  0  0  0  0  0
  -29.9834  -13.5111   20.3946 N   0  0  0  0  0  0
  -26.2937  -12.9400   20.3238 N   0  0  0  0  0  0
  -25.9324  -11.6543   20.5724 N   0  0  0  0  0  0
  -22.0482  -12.8227   22.0422 N   0  0  0  0  0  0
  -25.4205  -15.1925   20.4058 N   0  0  0  0  0  0
  -31.8127  -14.8156   20.1759 O   0  0  0  0  0  0
  -21.6655   -6.8881   21.4247 O   0  0  0  0  0  0
  -22.3516  -14.5504   20.6672 O   0  0  0  0  0  0
  -24.6300  -31.8559   23.1984 C   0  0  0  0  0  0
  -25.9129  -32.4762   23.8331 C   0  0  1  0  0  0
  -27.2178  -27.2714   20.1417 C   0  0  0  0  0  0
  -25.5920  -33.8568   24.2247 N   0  0  0  0  0  0
  -23.4273  -30.4795   21.5402 C   0  0  2  0  0  0
  -24.8750  -28.9259   20.1100 C   0  0  0  0  0  0
  -22.7504  -29.4611   22.4892 C   0  0  0  0  0  0
  -18.0299  -28.1401   22.8480 C   0  0  0  0  0  0
  -24.1489  -36.7292   23.2642 C   0  0  0  0  0  0
  -25.9713  -30.7736   21.3748 C   0  0  0  0  0  0
  -26.0454  -29.3963   20.7200 C   0  0  0  0  0  0
  -27.2236  -28.5836   20.7198 C   0  0  0  0  0  0
  -26.0298  -26.8654   19.4994 C   0  0  0  0  0  0
  -24.8723  -27.6677   19.4862 C   0  0  0  0  0  0
  -23.6470  -29.8127   20.1557 C   0  0  0  0  0  0
  -25.4115  -36.3073   24.0323 C   0  0  1  0  0  0
  -20.5906  -28.3715   23.1259 C   0  0  2  0  0  0
  -20.6786  -26.9431   22.5400 C   0  0  0  0  0  0
  -19.5763  -26.6385   21.5208 C   0  0  0  0  0  0
  -18.1944  -26.7940   22.1621 C   0  0  0  0  0  0
  -19.1557  -28.8871   23.2867 C   0  0  0  0  0  0
  -18.9475  -30.1470   23.8893 C   0  0  0  0  0  0
  -17.6480  -30.6599   24.0574 C   0  0  0  0  0  0
  -25.9047  -34.9447   23.5086 C   0  0  0  0  0  0
  -16.5370  -29.9100   23.6331 C   0  0  0  0  0  0
  -16.7289  -28.6517   23.0343 C   0  0  0  0  0  0
  -26.4492  -31.6601   25.0729 C   0  0  0  0  0  0
  -25.3710  -31.3767   26.1452 C   0  0  0  0  0  0
  -27.0341  -30.3022   24.6206 C   0  0  0  0  0  0
  -27.6036  -32.4356   25.7500 C   0  0  0  0  0  0
  -27.5579  -37.1799   24.8462 C   0  0  0  0  0  0
  -21.4209  -29.3064   22.3638 N   0  0  0  0  0  0
  -26.4285  -37.3776   23.9415 N   0  0  0  0  0  0
  -24.6958  -31.0533   22.0949 N   0  0  0  0  0  0
  -23.4208  -28.8151   23.2989 O   0  0  0  0  0  0
  -28.3036  -26.3701   20.1698 O   0  0  0  0  0  0
  -26.5624  -34.8922   22.4656 O   0  0  0  0  0  0
  -23.5451  -32.1381   23.7272 O   0  0  0  0  0  0
  -29.5636  -19.8274   21.2145 C   0  0  0  0  0  0
  -29.6645  -18.6319   20.4932 C   0  0  0  0  0  0
  -29.0845  -18.9562   19.2165 C   0  0  0  0  0  0
  -28.7038  -20.2913   19.2625 C   0  0  0  0  0  0
  -29.8325  -18.3876   16.8576 C   0  0  0  0  0  0
  -27.4872  -17.7640   17.6413 C   0  0  0  0  0  0
  -28.4086  -25.1986   22.2644 C   0  0  0  0  0  0
  -30.3789  -17.2823   20.9656 C   0  0  0  0  0  0
  -28.7953  -23.6699   20.1938 C   0  0  0  0  0  0
  -28.5696  -22.2745   20.9940 C   0  0  0  0  0  0
  -28.9517  -17.9856   18.0508 C   0  0  0  0  0  0
  -28.0800  -25.0116   20.7738 C   0  0  2  0  0  0
  -28.9768  -20.8887   20.4806 N   0  0  0  0  0  0
  -28.0955  -20.9715   18.2221 N   0  0  0  0  0  0
  -29.8692  -15.8665   20.7204 N   0  0  0  0  0  0
  -31.4721  -12.5784   19.1616 H   0  0  0  0  0  0
  -30.3816  -11.4715   19.9486 H   0  0  0  0  0  0
  -29.7934  -11.7336   17.5111 H   0  0  0  0  0  0
  -29.6387  -13.4597   17.7224 H   0  0  0  0  0  0
  -27.8913  -11.2790   18.9078 H   0  0  0  0  0  0
  -27.3781  -12.5219   17.7965 H   0  0  0  0  0  0
  -27.6321  -14.2509   19.4620 H   0  0  0  0  0  0
  -28.7218  -12.1591   21.4132 H   0  0  0  0  0  0
  -28.4214  -13.8389   21.7925 H   0  0  0  0  0  0
  -25.2774   -9.5693   22.4759 H   0  0  0  0  0  0
  -24.0011   -7.4636   22.7461 H   0  0  0  0  0  0
  -21.0841   -8.8775   19.8937 H   0  0  0  0  0  0
  -22.3703  -10.9680   19.6161 H   0  0  0  0  0  0
  -21.2015   -7.6152   23.9731 H   0  0  0  0  0  0
  -21.1467   -6.0522   25.9083 H   0  0  0  0  0  0
  -22.0597   -2.7614   23.2856 H   0  0  0  0  0  0
  -22.4061  -11.9882   22.4833 H   0  0  0  0  0  0
  -21.1097  -13.1266   22.2592 H   0  0  0  0  0  0
  -24.6518  -15.8462   20.5116 H   0  0  0  0  0  0
  -26.2645  -15.6303   20.0603 H   0  0  0  0  0  0
  -26.7199  -32.5411   23.1076 H   0  0  0  0  0  0
  -25.0079  -33.9720   25.0398 H   0  0  0  0  0  0
  -22.7251  -31.3018   21.3914 H   0  0  0  0  0  0
  -23.3747  -35.9627   23.3290 H   0  0  0  0  0  0
  -24.3581  -36.8928   22.2059 H   0  0  0  0  0  0
  -23.7238  -37.6488   23.6677 H   0  0  0  0  0  0
  -26.1067  -31.5328   20.6043 H   0  0  0  0  0  0
  -26.8516  -30.8258   22.0046 H   0  0  0  0  0  0
  -28.1218  -28.9389   21.2059 H   0  0  0  0  0  0
  -25.9859  -25.8993   19.0164 H   0  0  0  0  0  0
  -23.9784  -27.3027   18.9998 H   0  0  0  0  0  0
  -23.7748  -30.5889   19.4010 H   0  0  0  0  0  0
  -22.7657  -29.2482   19.8454 H   0  0  0  0  0  0
  -25.1297  -36.1913   25.0814 H   0  0  0  0  0  0
  -21.0016  -28.3291   24.1376 H   0  0  0  0  0  0
  -20.5683  -26.2334   23.3611 H   0  0  0  0  0  0
  -21.6651  -26.7444   22.1198 H   0  0  0  0  0  0
  -19.6925  -25.6285   21.1258 H   0  0  0  0  0  0
  -19.6700  -27.3182   20.6728 H   0  0  0  0  0  0
  -17.4213  -26.6690   21.4025 H   0  0  0  0  0  0
  -18.0341  -26.0087   22.9025 H   0  0  0  0  0  0
  -19.7956  -30.7281   24.2253 H   0  0  0  0  0  0
  -17.5043  -31.6282   24.5178 H   0  0  0  0  0  0
  -15.5377  -30.3013   23.7658 H   0  0  0  0  0  0
  -15.8684  -28.0848   22.7055 H   0  0  0  0  0  0
  -24.5858  -30.7148   25.7781 H   0  0  0  0  0  0
  -24.8937  -32.2953   26.4882 H   0  0  0  0  0  0
  -25.8018  -30.8932   27.0228 H   0  0  0  0  0  0
  -26.2928  -29.6775   24.1205 H   0  0  0  0  0  0
  -27.4010  -29.7282   25.4725 H   0  0  0  0  0  0
  -27.8810  -30.4317   23.9462 H   0  0  0  0  0  0
  -27.2625  -33.3652   26.2076 H   0  0  0  0  0  0
  -28.3844  -32.6930   25.0330 H   0  0  0  0  0  0
  -28.0710  -31.8491   26.5422 H   0  0  0  0  0  0
  -28.2580  -38.0113   24.7517 H   0  0  0  0  0  0
  -28.1087  -36.2638   24.6264 H   0  0  0  0  0  0
  -27.2302  -37.1422   25.8867 H   0  0  0  0  0  0
  -20.9388  -29.8806   21.6860 H   0  0  0  0  0  0
  -26.0154  -38.2843   24.1430 H   0  0  0  0  0  0
  -29.8744  -20.0216   22.2331 H   0  0  0  0  0  0
  -30.8814  -18.4589   17.1495 H   0  0  0  0  0  0
  -29.5394  -19.3504   16.4397 H   0  0  0  0  0  0
  -29.7639  -17.6497   16.0574 H   0  0  0  0  0  0
  -26.8798  -17.4766   18.4997 H   0  0  0  0  0  0
  -27.4028  -16.9683   16.9007 H   0  0  0  0  0  0
  -27.0449  -18.6613   17.2096 H   0  0  0  0  0  0
  -28.0985  -24.3385   22.8583 H   0  0  0  0  0  0
  -27.8899  -26.0652   22.6761 H   0  0  0  0  0  0
  -29.4779  -25.3448   22.4203 H   0  0  0  0  0  0
  -30.5073  -17.3616   22.0457 H   0  0  0  0  0  0
  -31.3915  -17.3426   20.5645 H   0  0  0  0  0  0
  -28.4597  -23.5417   19.1653 H   0  0  0  0  0  0
  -29.8684  -23.8479   20.1291 H   0  0  0  0  0  0
  -27.5011  -22.2001   21.1983 H   0  0  0  0  0  0
  -29.0362  -22.3852   21.9723 H   0  0  0  0  0  0
  -29.3233  -17.0218   18.3929 H   0  0  0  0  0  0
  -27.0129  -24.7936   20.7332 H   0  0  0  0  0  0
  -27.9173  -20.5396   17.3231 H   0  0  0  0  0  0
  -27.8413  -21.9518   18.2463 H   0  0  0  0  0  0
  -28.8849  -15.7201   20.8815 H   0  0  0  0  0  0
  1 25  1  0  0  0
  1 30  2  0  0  0
  1 85  1  0  0  0
  2  3  1  0  0  0
  2 25  1  0  0  0
  2 86  1  0  0  0
  2 87  1  0  0  0
  3  4  1  0  0  0
  3 88  1  0  0  0
  3 89  1  0  0  0
  4  5  1  0  0  0
  4 90  1  0  0  0
  4 91  1  0  0  0
  5  6  1  0  0  0
  5 26  1  0  0  0
  5 92  1  0  0  0
  6 25  1  0  0  0
  6 93  1  0  0  0
  6 94  1  0  0  0
  7  8  2  0  0  0
  7 26  1  0  0  0
  7 29  1  0  0  0
  8  9  1  0  0  0
  8 22  1  0  0  0
  9 10  1  0  0  0
  9 27  2  0  0  0
 10 11  2  0  0  0
 10 15  1  0  0  0
 11 12  1  0  0  0
 11 95  1  0  0  0
 12 13  2  0  0  0
 12 96  1  0  0  0
 13 14  1  0  0  0
 13 31  1  0  0  0
 14 15  2  0  0  0
 14 97  1  0  0  0
 15 98  1  0  0  0
 16 17  2  0  0  0
 16 21  1  0  0  0
 16 31  1  0  0  0
 17 18  1  0  0  0
 17 99  1  0  0  0
 18 19  2  0  0  0
 18100  1  0  0  0
 19 20  1  0  0  0
 19 24  1  0  0  0
 20 21  2  0  0  0
 20101  1  0  0  0
 21 23  1  0  0  0
 22 28  1  0  0  0
 22 32  2  0  0  0
 26 27  1  0  0  0
 28102  1  0  0  0
 28103  1  0  0  0
 29104  1  0  0  0
 29105  1  0  0  0
 33 34  1  0  0  0
 33 66  1  0  0  0
 33 70  2  0  0  0
 34 36  1  0  0  0
 34 59  1  0  0  0
 34106  1  0  0  0
 35 44  2  0  0  0
 35 45  1  0  0  0
 35 68  1  0  0  0
 36 56  1  0  0  0
 36107  1  0  0  0
 37 39  1  0  0  0
 37 47  1  0  0  0
 37 66  1  0  0  0
 37108  1  0  0  0
 38 43  2  0  0  0
 38 46  1  0  0  0
 38 47  1  0  0  0
 39 64  1  0  0  0
 39 67  2  0  0  0
 40 52  1  0  0  0
 40 53  2  0  0  0
 40 58  1  0  0  0
 41109  1  0  0  0
 41110  1  0  0  0
 41111  1  0  0  0
 41 48  1  0  0  0
 42 43  1  0  0  0
 42 66  1  0  0  0
 42112  1  0  0  0
 42113  1  0  0  0
 43 44  1  0  0  0
 44114  1  0  0  0
 45 46  2  0  0  0
 45115  1  0  0  0
 46116  1  0  0  0
 47117  1  0  0  0
 47118  1  0  0  0
 48 56  1  0  0  0
 48 65  1  0  0  0
 48119  1  0  0  0
 49 50  1  0  0  0
 49 53  1  0  0  0
 49 64  1  0  0  0
 49120  1  0  0  0
 50 51  1  0  0  0
 50121  1  0  0  0
 50122  1  0  0  0
 51 52  1  0  0  0
 51123  1  0  0  0
 51124  1  0  0  0
 52125  1  0  0  0
 52126  1  0  0  0
 53 54  1  0  0  0
 54 55  2  0  0  0
 54127  1  0  0  0
 55 57  1  0  0  0
 55128  1  0  0  0
 56 69  2  0  0  0
 57 58  2  0  0  0
 57129  1  0  0  0
 58130  1  0  0  0
 59 60  1  0  0  0
 59 61  1  0  0  0
 59 62  1  0  0  0
 60131  1  0  0  0
 60132  1  0  0  0
 60133  1  0  0  0
 61134  1  0  0  0
 61135  1  0  0  0
 61136  1  0  0  0
 62137  1  0  0  0
 62138  1  0  0  0
 62139  1  0  0  0
 63 65  1  0  0  0
 63140  1  0  0  0
 63141  1  0  0  0
 63142  1  0  0  0
 64143  1  0  0  0
 65144  1  0  0  0
 68 82  1  0  0  0
 71 72  2  0  0  0
 71 83  1  0  0  0
 71145  1  0  0  0
 72 73  1  0  0  0
 72 78  1  0  0  0
 73 74  2  0  0  0
 73 81  1  0  0  0
 74 83  1  0  0  0
 74 84  1  0  0  0
 75146  1  0  0  0
 75147  1  0  0  0
 75148  1  0  0  0
 75 81  1  0  0  0
 76 81  1  0  0  0
 76149  1  0  0  0
 76150  1  0  0  0
 76151  1  0  0  0
 77152  1  0  0  0
 77153  1  0  0  0
 77154  1  0  0  0
 77 82  1  0  0  0
 78 85  1  0  0  0
 78155  1  0  0  0
 78156  1  0  0  0
 79 80  1  0  0  0
 79 82  1  0  0  0
 79157  1  0  0  0
 79158  1  0  0  0
 80 83  1  0  0  0
 80159  1  0  0  0
 80160  1  0  0  0
 81161  1  0  0  0
 82162  1  0  0  0
 84163  1  0  0  0
 84164  1  0  0  0
 85165  1  0  0  0
M  ISO  4   1 100  68 101  82 101  85 100
M  END
> <chiral flag>
0

> <version>
0

> <s_m_source_file>
/data/baiqing/PycharmProjects/Reinvent-master-3.2/result/LINK_invent/BTK/process_docking_weight1_custom_sum_contain_oxygen_bond_distance_aromatic_linkinvent_7_9_3/rearranged_h_0103.sdf

> <i_m_source_file_index>
40

> <r_mmod_Potential_Energy-OPLS-2005>
31.6171913146973

> <r_mmod_Stretch_Energy-OPLS-2005>
115.958541870117

> <r_mmod_Bend_Energy-OPLS-2005>
185.430358886719

> <r_mmod_Torsional_Energy-OPLS-2005>
235.885284423828

> <r_mmod_Improper_Torsional_Energy-OPLS-2005>
5.37055063247681

> <r_mmod_Van_der_Waal_Energy-OPLS-2005>
108.18342590332

> <r_mmod_Electrostatic_Energy-OPLS-2005>
-490.031005859375

> <r_mmod_Solvation_Energy-OPLS-2005>
-209.61213684082

> <b_mmod_Minimization_Converged-OPLS-2005>
0

> <r_mmod_RMS_Derivative-OPLS-2005>
2.00441455841064

$$$$
40
                    3D
 Structure written by MMmdl.
168176  0  0  1  0            999 V2000
  -30.6499  -14.6766   20.4507 C   0  0  0  0  0  0
  -30.4253  -12.4078   19.4736 C   0  0  0  0  0  0
  -29.5095  -12.5076   18.2351 C   0  0  0  0  0  0
  -28.0327  -12.3452   18.6449 C   0  0  0  0  0  0
  -27.6478  -13.2331   19.8590 C   0  0  2  0  0  0
  -28.6928  -13.1450   20.9949 C   0  0  0  0  0  0
  -25.2527  -13.8214   20.5711 C   0  0  0  0  0  0
  -24.1815  -13.0454   20.9213 C   0  0  0  0  0  0
  -24.6407  -11.6934   20.8757 C   0  0  0  0  0  0
  -23.9089  -10.4303   21.0414 C   0  0  0  0  0  0
  -24.3632   -9.4212   21.9189 C   0  0  0  0  0  0
  -23.6302   -8.2249   22.0756 C   0  0  0  0  0  0
  -22.4282   -8.0288   21.3548 C   0  0  0  0  0  0
  -21.9925   -9.0268   20.4649 C   0  0  0  0  0  0
  -22.7264  -10.2143   20.3061 C   0  0  0  0  0  0
  -21.6850   -6.0741   22.5279 C   0  0  0  0  0  0
  -21.4012   -6.5642   23.8216 C   0  0  0  0  0  0
  -21.3662   -5.6793   24.9179 C   0  0  0  0  0  0
  -21.6045   -4.3057   24.7225 C   0  0  0  0  0  0
  -21.8818   -3.8152   23.4346 C   0  0  0  0  0  0
  -21.9190   -4.6968   22.3404 C   0  0  0  0  0  0
  -22.7830  -13.5226   21.1863 C   0  0  0  0  0  0
  -22.1658   -4.2154   21.0982 F   0  0  0  0  0  0
  -21.5629   -3.4540   25.7739 F   0  0  0  0  0  0
  -30.0043  -13.4664   20.4185 N   0  0  0  0  0  0
  -26.2963  -12.9423   20.3325 N   0  0  0  0  0  0
  -25.9340  -11.6562   20.5782 N   0  0  0  0  0  0
  -22.0464  -12.8223   22.0419 N   0  0  0  0  0  0
  -25.4210  -15.1936   20.4106 N   0  0  0  0  0  0
  -31.8283  -14.7613   20.0990 O   0  0  0  0  0  0
  -21.6639   -6.8890   21.4246 O   0  0  0  0  0  0
  -22.3518  -14.5528   20.6702 O   0  0  0  0  0  0
  -24.6247  -31.8594   23.2014 C   0  0  0  0  0  0
  -25.9102  -32.4776   23.8319 C   0  0  1  0  0  0
  -27.2315  -27.3084   20.1199 C   0  0  0  0  0  0
  -25.5931  -33.8571   24.2271 N   0  0  0  0  0  0
  -23.4186  -30.4829   21.5404 C   0  0  2  0  0  0
  -24.8664  -28.9295   20.1071 C   0  0  0  0  0  0
  -22.7467  -29.4626   22.4896 C   0  0  0  0  0  0
  -18.0296  -28.1405   22.8504 C   0  0  0  0  0  0
  -24.1482  -36.7290   23.2640 C   0  0  0  0  0  0
  -25.9569  -30.7871   21.3701 C   0  0  0  0  0  0
  -26.0312  -29.4108   20.7156 C   0  0  0  0  0  0
  -27.2105  -28.6096   20.7138 C   0  0  0  0  0  0
  -26.0415  -26.8722   19.4945 C   0  0  0  0  0  0
  -24.8746  -27.6665   19.4897 C   0  0  0  0  0  0
  -23.6361  -29.8158   20.1536 C   0  0  0  0  0  0
  -25.4109  -36.3092   24.0334 C   0  0  1  0  0  0
  -20.5893  -28.3712   23.1281 C   0  0  2  0  0  0
  -20.6781  -26.9431   22.5417 C   0  0  0  0  0  0
  -19.5764  -26.6409   21.5218 C   0  0  0  0  0  0
  -18.1943  -26.7954   22.1631 C   0  0  0  0  0  0
  -19.1545  -28.8870   23.2895 C   0  0  0  0  0  0
  -18.9468  -30.1471   23.8922 C   0  0  0  0  0  0
  -17.6466  -30.6604   24.0581 C   0  0  0  0  0  0
  -25.9053  -34.9456   23.5108 C   0  0  0  0  0  0
  -16.5365  -29.9115   23.6322 C   0  0  0  0  0  0
  -16.7282  -28.6528   23.0353 C   0  0  0  0  0  0
  -26.4482  -31.6581   25.0681 C   0  0  0  0  0  0
  -25.3730  -31.3701   26.1420 C   0  0  0  0  0  0
  -27.0308  -30.3018   24.6090 C   0  0  0  0  0  0
  -27.6051  -32.4283   25.7457 C   0  0  0  0  0  0
  -27.5576  -37.1805   24.8471 C   0  0  0  0  0  0
  -21.4173  -29.3058   22.3645 N   0  0  0  0  0  0
  -26.4288  -37.3794   23.9415 N   0  0  0  0  0  0
  -24.6855  -31.0598   22.0958 N   0  0  0  0  0  0
  -23.4175  -28.8171   23.2982 O   0  0  0  0  0  0
  -28.3790  -26.5018   20.2076 O   0  0  0  0  0  0
  -26.5609  -34.8928   22.4669 O   0  0  0  0  0  0
  -23.5417  -32.1381   23.7373 O   0  0  0  0  0  0
  -30.0206  -22.6340   18.6734 C   0  0  0  0  0  0
  -30.7341  -21.5548   18.1284 C   0  0  0  0  0  0
  -29.1920  -21.1446   20.3709 C   0  0  0  0  0  0
  -29.2352  -22.4915   19.8310 C   0  0  0  0  0  0
  -30.7022  -20.2447   18.6682 C   0  0  0  0  0  0
  -29.8795  -19.9864   19.8209 C   0  0  0  0  0  0
  -26.9774  -22.8642   22.3594 C   0  0  0  0  0  0
  -32.9355  -19.0616   18.7893 C   0  0  0  0  0  0
  -31.9468  -19.4663   16.5116 C   0  0  0  0  0  0
  -29.7119  -18.5688   20.5596 C   0  0  0  0  0  0
  -27.1156  -23.5411   20.9825 C   0  0  0  0  0  0
  -30.1995  -17.1575   19.9490 C   0  0  0  0  0  0
  -28.5374  -25.1587   19.5896 C   0  0  0  0  0  0
  -28.5542  -23.7964   20.4670 C   0  0  1  0  0  0
  -31.6242  -19.2078   17.9992 C   0  0  0  0  0  0
  -29.8980  -15.8224   20.6079 N   0  0  0  0  0  0
  -31.4716  -12.5031   19.1779 H   0  0  0  0  0  0
  -30.3376  -11.4255   19.9407 H   0  0  0  0  0  0
  -29.7796  -11.7463   17.5019 H   0  0  0  0  0  0
  -29.6553  -13.4720   17.7452 H   0  0  0  0  0  0
  -27.8759  -11.2941   18.8918 H   0  0  0  0  0  0
  -27.3798  -12.5591   17.7977 H   0  0  0  0  0  0
  -27.6517  -14.2604   19.4935 H   0  0  0  0  0  0
  -28.7078  -12.1453   21.4307 H   0  0  0  0  0  0
  -28.4452  -13.8302   21.8069 H   0  0  0  0  0  0
  -25.2770   -9.5675   22.4772 H   0  0  0  0  0  0
  -24.0001   -7.4635   22.7469 H   0  0  0  0  0  0
  -21.0858   -8.8799   19.8949 H   0  0  0  0  0  0
  -22.3733  -10.9686   19.6170 H   0  0  0  0  0  0
  -21.2004   -7.6149   23.9726 H   0  0  0  0  0  0
  -21.1483   -6.0521   25.9086 H   0  0  0  0  0  0
  -22.0593   -2.7610   23.2847 H   0  0  0  0  0  0
  -22.4067  -11.9888   22.4828 H   0  0  0  0  0  0
  -21.1073  -13.1247   22.2607 H   0  0  0  0  0  0
  -24.6513  -15.8460   20.5137 H   0  0  0  0  0  0
  -26.2670  -15.6318   20.0694 H   0  0  0  0  0  0
  -26.7160  -32.5431   23.1050 H   0  0  0  0  0  0
  -25.0069  -33.9704   25.0410 H   0  0  0  0  0  0
  -22.7135  -31.3049   21.3975 H   0  0  0  0  0  0
  -23.3759  -35.9609   23.3315 H   0  0  0  0  0  0
  -24.3569  -36.8905   22.2052 H   0  0  0  0  0  0
  -23.7217  -37.6490   23.6646 H   0  0  0  0  0  0
  -26.0803  -31.5465   20.5971 H   0  0  0  0  0  0
  -26.8422  -30.8449   21.9910 H   0  0  0  0  0  0
  -28.1047  -28.9772   21.1975 H   0  0  0  0  0  0
  -25.9778  -25.8993   19.0321 H   0  0  0  0  0  0
  -23.9801  -27.2889   19.0135 H   0  0  0  0  0  0
  -23.7623  -30.5958   19.4001 H   0  0  0  0  0  0
  -22.7537  -29.2532   19.8455 H   0  0  0  0  0  0
  -25.1291  -36.1951   25.0831 H   0  0  0  0  0  0
  -21.0012  -28.3318   24.1394 H   0  0  0  0  0  0
  -20.5685  -26.2331   23.3622 H   0  0  0  0  0  0
  -21.6645  -26.7448   22.1214 H   0  0  0  0  0  0
  -19.6917  -25.6317   21.1260 H   0  0  0  0  0  0
  -19.6714  -27.3207   20.6739 H   0  0  0  0  0  0
  -17.4208  -26.6714   21.4039 H   0  0  0  0  0  0
  -18.0346  -26.0079   22.9009 H   0  0  0  0  0  0
  -19.7936  -30.7289   24.2307 H   0  0  0  0  0  0
  -17.5019  -31.6288   24.5183 H   0  0  0  0  0  0
  -15.5373  -30.3036   23.7620 H   0  0  0  0  0  0
  -15.8682  -28.0867   22.7048 H   0  0  0  0  0  0
  -24.5942  -30.6997   25.7771 H   0  0  0  0  0  0
  -24.8848  -32.2847   26.4799 H   0  0  0  0  0  0
  -25.8083  -30.8934   27.0217 H   0  0  0  0  0  0
  -26.2859  -29.6792   24.1115 H   0  0  0  0  0  0
  -27.4046  -29.7242   25.4554 H   0  0  0  0  0  0
  -27.8718  -30.4333   23.9274 H   0  0  0  0  0  0
  -27.2703  -33.3606   26.2014 H   0  0  0  0  0  0
  -28.3887  -32.6798   25.0302 H   0  0  0  0  0  0
  -28.0673  -31.8388   26.5392 H   0  0  0  0  0  0
  -28.2607  -38.0091   24.7517 H   0  0  0  0  0  0
  -28.1066  -36.2625   24.6311 H   0  0  0  0  0  0
  -27.2289  -37.1472   25.8874 H   0  0  0  0  0  0
  -20.9342  -29.8793   21.6866 H   0  0  0  0  0  0
  -26.0180  -38.2870   24.1440 H   0  0  0  0  0  0
  -30.1370  -23.5828   18.1771 H   0  0  0  0  0  0
  -31.3424  -21.7890   17.2690 H   0  0  0  0  0  0
  -28.6325  -20.9723   21.2722 H   0  0  0  0  0  0
  -27.7195  -23.2288   23.0713 H   0  0  0  0  0  0
  -27.0507  -21.7812   22.3102 H   0  0  0  0  0  0
  -25.9939  -23.0719   22.7800 H   0  0  0  0  0  0
  -32.7582  -18.8303   19.8387 H   0  0  0  0  0  0
  -33.5146  -19.9847   18.7627 H   0  0  0  0  0  0
  -33.5599  -18.2653   18.3811 H   0  0  0  0  0  0
  -31.0373  -19.6309   15.9331 H   0  0  0  0  0  0
  -32.4577  -18.6057   16.0765 H   0  0  0  0  0  0
  -32.6079  -20.3209   16.3624 H   0  0  0  0  0  0
  -28.6460  -18.4740   20.7700 H   0  0  0  0  0  0
  -30.1816  -18.6827   21.5379 H   0  0  0  0  0  0
  -26.6329  -24.5118   21.0956 H   0  0  0  0  0  0
  -26.5291  -23.0114   20.2307 H   0  0  0  0  0  0
  -31.2777  -17.1936   19.8161 H   0  0  0  0  0  0
  -29.7473  -17.0584   18.9635 H   0  0  0  0  0  0
  -27.9045  -25.0349   18.7124 H   0  0  0  0  0  0
  -29.5357  -25.2790   19.1784 H   0  0  0  0  0  0
  -29.1757  -24.0293   21.3328 H   0  0  0  0  0  0
  -31.1081  -18.2623   17.9480 H   0  0  0  0  0  0
  -28.9491  -15.6828   20.9214 H   0  0  0  0  0  0
  1 25  1  0  0  0
  1 30  2  0  0  0
  1 86  1  0  0  0
  2  3  1  0  0  0
  2 25  1  0  0  0
  2 87  1  0  0  0
  2 88  1  0  0  0
  3  4  1  0  0  0
  3 89  1  0  0  0
  3 90  1  0  0  0
  4  5  1  0  0  0
  4 91  1  0  0  0
  4 92  1  0  0  0
  5  6  1  0  0  0
  5 26  1  0  0  0
  5 93  1  0  0  0
  6 25  1  0  0  0
  6 94  1  0  0  0
  6 95  1  0  0  0
  7  8  2  0  0  0
  7 26  1  0  0  0
  7 29  1  0  0  0
  8  9  1  0  0  0
  8 22  1  0  0  0
  9 10  1  0  0  0
  9 27  2  0  0  0
 10 11  2  0  0  0
 10 15  1  0  0  0
 11 12  1  0  0  0
 11 96  1  0  0  0
 12 13  2  0  0  0
 12 97  1  0  0  0
 13 14  1  0  0  0
 13 31  1  0  0  0
 14 15  2  0  0  0
 14 98  1  0  0  0
 15 99  1  0  0  0
 16 17  2  0  0  0
 16 21  1  0  0  0
 16 31  1  0  0  0
 17 18  1  0  0  0
 17100  1  0  0  0
 18 19  2  0  0  0
 18101  1  0  0  0
 19 20  1  0  0  0
 19 24  1  0  0  0
 20 21  2  0  0  0
 20102  1  0  0  0
 21 23  1  0  0  0
 22 28  1  0  0  0
 22 32  2  0  0  0
 26 27  1  0  0  0
 28103  1  0  0  0
 28104  1  0  0  0
 29105  1  0  0  0
 29106  1  0  0  0
 33 34  1  0  0  0
 33 66  1  0  0  0
 33 70  2  0  0  0
 34 36  1  0  0  0
 34 59  1  0  0  0
 34107  1  0  0  0
 35 44  2  0  0  0
 35 45  1  0  0  0
 35 68  1  0  0  0
 36 56  1  0  0  0
 36108  1  0  0  0
 37 39  1  0  0  0
 37 47  1  0  0  0
 37 66  1  0  0  0
 37109  1  0  0  0
 38 43  2  0  0  0
 38 46  1  0  0  0
 38 47  1  0  0  0
 39 64  1  0  0  0
 39 67  2  0  0  0
 40 52  1  0  0  0
 40 53  2  0  0  0
 40 58  1  0  0  0
 41110  1  0  0  0
 41111  1  0  0  0
 41112  1  0  0  0
 41 48  1  0  0  0
 42 43  1  0  0  0
 42 66  1  0  0  0
 42113  1  0  0  0
 42114  1  0  0  0
 43 44  1  0  0  0
 44115  1  0  0  0
 45 46  2  0  0  0
 45116  1  0  0  0
 46117  1  0  0  0
 47118  1  0  0  0
 47119  1  0  0  0
 48 56  1  0  0  0
 48 65  1  0  0  0
 48120  1  0  0  0
 49 50  1  0  0  0
 49 53  1  0  0  0
 49 64  1  0  0  0
 49121  1  0  0  0
 50 51  1  0  0  0
 50122  1  0  0  0
 50123  1  0  0  0
 51 52  1  0  0  0
 51124  1  0  0  0
 51125  1  0  0  0
 52126  1  0  0  0
 52127  1  0  0  0
 53 54  1  0  0  0
 54 55  2  0  0  0
 54128  1  0  0  0
 55 57  1  0  0  0
 55129  1  0  0  0
 56 69  2  0  0  0
 57 58  2  0  0  0
 57130  1  0  0  0
 58131  1  0  0  0
 59 60  1  0  0  0
 59 61  1  0  0  0
 59 62  1  0  0  0
 60132  1  0  0  0
 60133  1  0  0  0
 60134  1  0  0  0
 61135  1  0  0  0
 61136  1  0  0  0
 61137  1  0  0  0
 62138  1  0  0  0
 62139  1  0  0  0
 62140  1  0  0  0
 63 65  1  0  0  0
 63141  1  0  0  0
 63142  1  0  0  0
 63143  1  0  0  0
 64144  1  0  0  0
 65145  1  0  0  0
 68 83  1  0  0  0
 71 72  2  0  0  0
 71 74  1  0  0  0
 71146  1  0  0  0
 72 75  1  0  0  0
 72147  1  0  0  0
 73 74  2  0  0  0
 73 76  1  0  0  0
 73148  1  0  0  0
 74 84  1  0  0  0
 75 76  2  0  0  0
 75 85  1  0  0  0
 76 80  1  0  0  0
 77 81  1  0  0  0
 77149  1  0  0  0
 77150  1  0  0  0
 77151  1  0  0  0
 78152  1  0  0  0
 78153  1  0  0  0
 78154  1  0  0  0
 78 85  1  0  0  0
 79 85  1  0  0  0
 79155  1  0  0  0
 79156  1  0  0  0
 79157  1  0  0  0
 80 82  1  0  0  0
 80158  1  0  0  0
 80159  1  0  0  0
 81160  1  0  0  0
 81161  1  0  0  0
 81 84  1  0  0  0
 82 86  1  0  0  0
 82162  1  0  0  0
 82163  1  0  0  0
 83 84  1  0  0  0
 83164  1  0  0  0
 83165  1  0  0  0
 84166  1  0  0  0
 85167  1  0  0  0
 86168  1  0  0  0
M  ISO  4   1 100  68 101  83 101  86 100
M  END
> <chiral flag>
0

> <version>
0

> <s_m_source_file>
/data/baiqing/PycharmProjects/Reinvent-master-3.2/result/LINK_invent/BTK/process_docking_weight1_custom_sum_contain_oxygen_bond_distance_aromatic_linkinvent_7_9_3/rearranged_h_0103.sdf

> <i_m_source_file_index>
41

> <r_mmod_Potential_Energy-OPLS-2005>
171.048324584961

> <r_mmod_Stretch_Energy-OPLS-2005>
116.106918334961

> <r_mmod_Bend_Energy-OPLS-2005>
196.67692565918

> <r_mmod_Torsional_Energy-OPLS-2005>
215.809844970703

> <r_mmod_Improper_Torsional_Energy-OPLS-2005>
8.04044437408447

> <r_mmod_Van_der_Waal_Energy-OPLS-2005>
156.911346435547

> <r_mmod_Electrostatic_Energy-OPLS-2005>
-380.853271484375

> <r_mmod_Solvation_Energy-OPLS-2005>
-199.302825927734

> <b_mmod_Minimization_Converged-OPLS-2005>
0

> <r_mmod_RMS_Derivative-OPLS-2005>
2.20714640617371

$$$$
41
                    3D
 Structure written by MMmdl.
169177  0  0  1  0            999 V2000
  -30.6246  -14.5785   20.4949 C   0  0  0  0  0  0
  -30.4209  -12.3414   19.4665 C   0  0  0  0  0  0
  -29.5131  -12.5093   18.2277 C   0  0  0  0  0  0
  -28.0285  -12.3474   18.6213 C   0  0  0  0  0  0
  -27.6466  -13.2123   19.8505 C   0  0  2  0  0  0
  -28.6782  -13.0561   20.9897 C   0  0  0  0  0  0
  -25.2523  -13.8151   20.5594 C   0  0  0  0  0  0
  -24.1801  -13.0406   20.9126 C   0  0  0  0  0  0
  -24.6375  -11.6878   20.8629 C   0  0  0  0  0  0
  -23.9071  -10.4265   21.0334 C   0  0  0  0  0  0
  -24.3611   -9.4219   21.9138 C   0  0  0  0  0  0
  -23.6256   -8.2269   22.0744 C   0  0  0  0  0  0
  -22.4256   -8.0265   21.3501 C   0  0  0  0  0  0
  -21.9896   -9.0217   20.4597 C   0  0  0  0  0  0
  -22.7222  -10.2106   20.3012 C   0  0  0  0  0  0
  -21.6843   -6.0729   22.5288 C   0  0  0  0  0  0
  -21.4022   -6.5665   23.8210 C   0  0  0  0  0  0
  -21.3677   -5.6829   24.9176 C   0  0  0  0  0  0
  -21.6053   -4.3089   24.7224 C   0  0  0  0  0  0
  -21.8804   -3.8168   23.4345 C   0  0  0  0  0  0
  -21.9177   -4.6973   22.3393 C   0  0  0  0  0  0
  -22.7848  -13.5189   21.1859 C   0  0  0  0  0  0
  -22.1640   -4.2173   21.0967 F   0  0  0  0  0  0
  -21.5632   -3.4556   25.7719 F   0  0  0  0  0  0
  -30.0082  -13.3638   20.4426 N   0  0  0  0  0  0
  -26.2923  -12.9324   20.3148 N   0  0  0  0  0  0
  -25.9304  -11.6484   20.5625 N   0  0  0  0  0  0
  -22.0541  -12.8176   22.0482 N   0  0  0  0  0  0
  -25.4240  -15.1871   20.4083 N   0  0  0  0  0  0
  -31.7811  -14.7504   20.0958 O   0  0  0  0  0  0
  -21.6616   -6.8853   21.4244 O   0  0  0  0  0  0
  -22.3486  -14.5432   20.6659 O   0  0  0  0  0  0
  -24.6169  -31.8637   23.2055 C   0  0  0  0  0  0
  -25.9061  -32.4801   23.8362 C   0  0  1  0  0  0
  -27.2436  -27.4025   20.0924 C   0  0  0  0  0  0
  -25.5919  -33.8591   24.2293 N   0  0  0  0  0  0
  -23.4060  -30.4842   21.5461 C   0  0  2  0  0  0
  -24.8530  -28.9366   20.1178 C   0  0  0  0  0  0
  -22.7416  -29.4645   22.4982 C   0  0  0  0  0  0
  -18.0272  -28.1373   22.8480 C   0  0  0  0  0  0
  -24.1509  -36.7324   23.2629 C   0  0  0  0  0  0
  -25.9360  -30.8209   21.3582 C   0  0  0  0  0  0
  -26.0130  -29.4485   20.7091 C   0  0  0  0  0  0
  -27.2047  -28.6855   20.6961 C   0  0  0  0  0  0
  -26.0555  -26.8985   19.5222 C   0  0  0  0  0  0
  -24.8692  -27.6602   19.5264 C   0  0  0  0  0  0
  -23.6171  -29.8075   20.1636 C   0  0  0  0  0  0
  -25.4125  -36.3091   24.0324 C   0  0  1  0  0  0
  -20.5863  -28.3671   23.1314 C   0  0  2  0  0  0
  -20.6777  -26.9411   22.5415 C   0  0  0  0  0  0
  -19.5755  -26.6384   21.5213 C   0  0  0  0  0  0
  -18.1931  -26.7922   22.1620 C   0  0  0  0  0  0
  -19.1518  -28.8835   23.2894 C   0  0  0  0  0  0
  -18.9454  -30.1448   23.8897 C   0  0  0  0  0  0
  -17.6454  -30.6582   24.0566 C   0  0  0  0  0  0
  -25.9052  -34.9453   23.5108 C   0  0  0  0  0  0
  -16.5345  -29.9080   23.6336 C   0  0  0  0  0  0
  -16.7260  -28.6502   23.0337 C   0  0  0  0  0  0
  -26.4480  -31.6584   25.0692 C   0  0  0  0  0  0
  -25.3763  -31.3694   26.1454 C   0  0  0  0  0  0
  -27.0313  -30.3033   24.6066 C   0  0  0  0  0  0
  -27.6047  -32.4293   25.7471 C   0  0  0  0  0  0
  -27.5593  -37.1810   24.8458 C   0  0  0  0  0  0
  -21.4140  -29.3039   22.3725 N   0  0  0  0  0  0
  -26.4304  -37.3782   23.9398 N   0  0  0  0  0  0
  -24.6722  -31.0706   22.0968 N   0  0  0  0  0  0
  -23.4180  -28.8189   23.3028 O   0  0  0  0  0  0
  -28.4388  -26.7015   20.1263 O   0  0  0  0  0  0
  -26.5606  -34.8911   22.4665 O   0  0  0  0  0  0
  -23.5357  -32.1376   23.7459 O   0  0  0  0  0  0
  -29.3148  -20.6437   20.4758 C   0  0  0  0  0  0
  -28.7970  -19.3979   20.1936 C   0  0  0  0  0  0
  -27.9399  -19.5803   19.0554 C   0  0  0  0  0  0
  -28.0096  -20.9061   18.6778 C   0  0  0  0  0  0
  -27.3531  -21.6182   17.5276 C   0  0  0  0  0  0
  -27.6938  -18.0589   17.0343 C   0  0  0  0  0  0
  -25.6251  -18.8508   18.2634 C   0  0  0  0  0  0
  -28.5758  -25.7906   17.8134 C   0  0  0  0  0  0
  -29.0291  -18.0810   20.9679 C   0  0  0  0  0  0
  -28.2680  -24.1263   19.8172 C   0  0  0  0  0  0
  -29.2926  -22.9894   19.4595 C   0  0  0  0  0  0
  -29.9644  -17.0310   20.2847 C   0  0  0  0  0  0
  -27.1148  -18.4832   18.3932 C   0  0  0  0  0  0
  -28.7523  -25.5351   19.3245 C   0  0  2  0  0  0
  -28.8502  -21.5786   19.5550 N   0  0  0  0  0  0
  -29.8126  -15.6308   20.7711 N   0  0  0  0  0  0
  -31.4759  -12.4265   19.1940 H   0  0  0  0  0  0
  -30.3013  -11.3416   19.8921 H   0  0  0  0  0  0
  -29.7834  -11.7863   17.4573 H   0  0  0  0  0  0
  -29.6759  -13.4959   17.7881 H   0  0  0  0  0  0
  -27.8500  -11.2914   18.8347 H   0  0  0  0  0  0
  -27.3862  -12.5877   17.7745 H   0  0  0  0  0  0
  -27.6652  -14.2468   19.5070 H   0  0  0  0  0  0
  -28.6605  -12.0398   21.3853 H   0  0  0  0  0  0
  -28.4245  -13.7022   21.8306 H   0  0  0  0  0  0
  -25.2744   -9.5745   22.4742 H   0  0  0  0  0  0
  -23.9953   -7.4681   22.7504 H   0  0  0  0  0  0
  -21.0823   -8.8707   19.8899 H   0  0  0  0  0  0
  -22.3676  -10.9610   19.6106 H   0  0  0  0  0  0
  -21.2012   -7.6186   23.9694 H   0  0  0  0  0  0
  -21.1546   -6.0577   25.9067 H   0  0  0  0  0  0
  -22.0562   -2.7637   23.2824 H   0  0  0  0  0  0
  -22.4190  -11.9903   22.4952 H   0  0  0  0  0  0
  -21.1176  -13.1200   22.2698 H   0  0  0  0  0  0
  -24.6499  -15.8321   20.5168 H   0  0  0  0  0  0
  -26.2720  -15.6380   20.0907 H   0  0  0  0  0  0
  -26.7131  -32.5490   23.1125 H   0  0  0  0  0  0
  -25.0090  -33.9758   25.0453 H   0  0  0  0  0  0
  -22.6980  -31.3018   21.4015 H   0  0  0  0  0  0
  -23.3759  -35.9670   23.3277 H   0  0  0  0  0  0
  -24.3614  -36.8961   22.2048 H   0  0  0  0  0  0
  -23.7288  -37.6529   23.6670 H   0  0  0  0  0  0
  -26.0424  -31.5818   20.5828 H   0  0  0  0  0  0
  -26.8259  -30.8821   21.9742 H   0  0  0  0  0  0
  -28.1002  -29.0817   21.1553 H   0  0  0  0  0  0
  -26.0256  -25.9089   19.0940 H   0  0  0  0  0  0
  -23.9708  -27.2507   19.0876 H   0  0  0  0  0  0
  -23.7311  -30.5758   19.3983 H   0  0  0  0  0  0
  -22.7396  -29.2308   19.8675 H   0  0  0  0  0  0
  -25.1317  -36.1936   25.0820 H   0  0  0  0  0  0
  -20.9956  -28.3237   24.1429 H   0  0  0  0  0  0
  -20.5710  -26.2272   23.3591 H   0  0  0  0  0  0
  -21.6646  -26.7472   22.1192 H   0  0  0  0  0  0
  -19.6934  -25.6299   21.1228 H   0  0  0  0  0  0
  -19.6699  -27.3201   20.6746 H   0  0  0  0  0  0
  -17.4212  -26.6650   21.4023 H   0  0  0  0  0  0
  -18.0351  -26.0063   22.9014 H   0  0  0  0  0  0
  -19.7933  -30.7268   24.2260 H   0  0  0  0  0  0
  -17.5011  -31.6260   24.5167 H   0  0  0  0  0  0
  -15.5351  -30.2979   23.7668 H   0  0  0  0  0  0
  -15.8661  -28.0835   22.7035 H   0  0  0  0  0  0
  -24.5893  -30.7094   25.7810 H   0  0  0  0  0  0
  -24.9008  -32.2849   26.4968 H   0  0  0  0  0  0
  -25.8114  -30.8803   27.0176 H   0  0  0  0  0  0
  -26.2853  -29.6790   24.1139 H   0  0  0  0  0  0
  -27.4120  -29.7266   25.4509 H   0  0  0  0  0  0
  -27.8672  -30.4370   23.9196 H   0  0  0  0  0  0
  -27.2660  -33.3556   26.2122 H   0  0  0  0  0  0
  -28.3839  -32.6905   25.0307 H   0  0  0  0  0  0
  -28.0749  -31.8370   26.5333 H   0  0  0  0  0  0
  -28.2588  -38.0121   24.7510 H   0  0  0  0  0  0
  -28.1100  -36.2648   24.6281 H   0  0  0  0  0  0
  -27.2300  -37.1469   25.8853 H   0  0  0  0  0  0
  -20.9316  -29.8741   21.6927 H   0  0  0  0  0  0
  -26.0182  -38.2859   24.1381 H   0  0  0  0  0  0
  -29.9984  -20.9467   21.2582 H   0  0  0  0  0  0
  -26.3218  -21.8774   17.7640 H   0  0  0  0  0  0
  -27.3386  -20.9903   16.6392 H   0  0  0  0  0  0
  -27.8704  -22.5319   17.2404 H   0  0  0  0  0  0
  -28.7298  -17.7339   17.1276 H   0  0  0  0  0  0
  -27.6680  -18.8655   16.3048 H   0  0  0  0  0  0
  -27.1254  -17.2316   16.6088 H   0  0  0  0  0  0
  -25.2147  -19.1828   19.2165 H   0  0  0  0  0  0
  -25.0457  -17.9867   17.9399 H   0  0  0  0  0  0
  -25.4520  -19.6386   17.5303 H   0  0  0  0  0  0
  -29.0403  -25.0006   17.2234 H   0  0  0  0  0  0
  -29.0422  -26.7302   17.5146 H   0  0  0  0  0  0
  -27.5352  -25.8407   17.5048 H   0  0  0  0  0  0
  -28.0455  -17.6479   21.1479 H   0  0  0  0  0  0
  -29.4274  -18.3143   21.9580 H   0  0  0  0  0  0
  -28.1481  -24.1508   20.9004 H   0  0  0  0  0  0
  -27.2804  -23.9068   19.4111 H   0  0  0  0  0  0
  -29.6438  -23.1382   18.4396 H   0  0  0  0  0  0
  -30.1877  -23.1058   20.0705 H   0  0  0  0  0  0
  -31.0001  -17.3617   20.3661 H   0  0  0  0  0  0
  -29.7350  -17.0163   19.2195 H   0  0  0  0  0  0
  -27.1662  -17.6092   19.0440 H   0  0  0  0  0  0
  -29.8320  -25.5051   19.4729 H   0  0  0  0  0  0
  -28.9021  -15.3831   21.1279 H   0  0  0  0  0  0
  1 25  1  0  0  0
  1 30  2  0  0  0
  1 86  1  0  0  0
  2  3  1  0  0  0
  2 25  1  0  0  0
  2 87  1  0  0  0
  2 88  1  0  0  0
  3  4  1  0  0  0
  3 89  1  0  0  0
  3 90  1  0  0  0
  4  5  1  0  0  0
  4 91  1  0  0  0
  4 92  1  0  0  0
  5  6  1  0  0  0
  5 26  1  0  0  0
  5 93  1  0  0  0
  6 25  1  0  0  0
  6 94  1  0  0  0
  6 95  1  0  0  0
  7  8  2  0  0  0
  7 26  1  0  0  0
  7 29  1  0  0  0
  8  9  1  0  0  0
  8 22  1  0  0  0
  9 10  1  0  0  0
  9 27  2  0  0  0
 10 11  2  0  0  0
 10 15  1  0  0  0
 11 12  1  0  0  0
 11 96  1  0  0  0
 12 13  2  0  0  0
 12 97  1  0  0  0
 13 14  1  0  0  0
 13 31  1  0  0  0
 14 15  2  0  0  0
 14 98  1  0  0  0
 15 99  1  0  0  0
 16 17  2  0  0  0
 16 21  1  0  0  0
 16 31  1  0  0  0
 17 18  1  0  0  0
 17100  1  0  0  0
 18 19  2  0  0  0
 18101  1  0  0  0
 19 20  1  0  0  0
 19 24  1  0  0  0
 20 21  2  0  0  0
 20102  1  0  0  0
 21 23  1  0  0  0
 22 28  1  0  0  0
 22 32  2  0  0  0
 26 27  1  0  0  0
 28103  1  0  0  0
 28104  1  0  0  0
 29105  1  0  0  0
 29106  1  0  0  0
 33 34  1  0  0  0
 33 66  1  0  0  0
 33 70  2  0  0  0
 34 36  1  0  0  0
 34 59  1  0  0  0
 34107  1  0  0  0
 35 44  2  0  0  0
 35 45  1  0  0  0
 35 68  1  0  0  0
 36 56  1  0  0  0
 36108  1  0  0  0
 37 39  1  0  0  0
 37 47  1  0  0  0
 37 66  1  0  0  0
 37109  1  0  0  0
 38 43  2  0  0  0
 38 46  1  0  0  0
 38 47  1  0  0  0
 39 64  1  0  0  0
 39 67  2  0  0  0
 40 52  1  0  0  0
 40 53  2  0  0  0
 40 58  1  0  0  0
 41110  1  0  0  0
 41111  1  0  0  0
 41112  1  0  0  0
 41 48  1  0  0  0
 42 43  1  0  0  0
 42 66  1  0  0  0
 42113  1  0  0  0
 42114  1  0  0  0
 43 44  1  0  0  0
 44115  1  0  0  0
 45 46  2  0  0  0
 45116  1  0  0  0
 46117  1  0  0  0
 47118  1  0  0  0
 47119  1  0  0  0
 48 56  1  0  0  0
 48 65  1  0  0  0
 48120  1  0  0  0
 49 50  1  0  0  0
 49 53  1  0  0  0
 49 64  1  0  0  0
 49121  1  0  0  0
 50 51  1  0  0  0
 50122  1  0  0  0
 50123  1  0  0  0
 51 52  1  0  0  0
 51124  1  0  0  0
 51125  1  0  0  0
 52126  1  0  0  0
 52127  1  0  0  0
 53 54  1  0  0  0
 54 55  2  0  0  0
 54128  1  0  0  0
 55 57  1  0  0  0
 55129  1  0  0  0
 56 69  2  0  0  0
 57 58  2  0  0  0
 57130  1  0  0  0
 58131  1  0  0  0
 59 60  1  0  0  0
 59 61  1  0  0  0
 59 62  1  0  0  0
 60132  1  0  0  0
 60133  1  0  0  0
 60134  1  0  0  0
 61135  1  0  0  0
 61136  1  0  0  0
 61137  1  0  0  0
 62138  1  0  0  0
 62139  1  0  0  0
 62140  1  0  0  0
 63 65  1  0  0  0
 63141  1  0  0  0
 63142  1  0  0  0
 63143  1  0  0  0
 64144  1  0  0  0
 65145  1  0  0  0
 68 84  1  0  0  0
 71 72  2  0  0  0
 71 85  1  0  0  0
 71146  1  0  0  0
 72 73  1  0  0  0
 72 79  1  0  0  0
 73 74  2  0  0  0
 73 83  1  0  0  0
 74 75  1  0  0  0
 74 85  1  0  0  0
 75147  1  0  0  0
 75148  1  0  0  0
 75149  1  0  0  0
 76150  1  0  0  0
 76151  1  0  0  0
 76152  1  0  0  0
 76 83  1  0  0  0
 77 83  1  0  0  0
 77153  1  0  0  0
 77154  1  0  0  0
 77155  1  0  0  0
 78156  1  0  0  0
 78157  1  0  0  0
 78158  1  0  0  0
 78 84  1  0  0  0
 79 82  1  0  0  0
 79159  1  0  0  0
 79160  1  0  0  0
 80 81  1  0  0  0
 80 84  1  0  0  0
 80161  1  0  0  0
 80162  1  0  0  0
 81 85  1  0  0  0
 81163  1  0  0  0
 81164  1  0  0  0
 82 86  1  0  0  0
 82165  1  0  0  0
 82166  1  0  0  0
 83167  1  0  0  0
 84168  1  0  0  0
 86169  1  0  0  0
M  ISO  4   1 100  68 101  84 101  86 100
M  END
> <chiral flag>
0

> <version>
0

> <s_m_source_file>
/data/baiqing/PycharmProjects/Reinvent-master-3.2/result/LINK_invent/BTK/process_docking_weight1_custom_sum_contain_oxygen_bond_distance_aromatic_linkinvent_7_9_3/rearranged_h_0103.sdf

> <i_m_source_file_index>
42

> <r_mmod_Potential_Energy-OPLS-2005>
-89.5054626464844

> <r_mmod_Stretch_Energy-OPLS-2005>
48.6754684448242

> <r_mmod_Bend_Energy-OPLS-2005>
139.652221679688

> <r_mmod_Torsional_Energy-OPLS-2005>
220.88703918457

> <r_mmod_Improper_Torsional_Energy-OPLS-2005>
7.18383646011353

> <r_mmod_Van_der_Waal_Energy-OPLS-2005>
112.792984008789

> <r_mmod_Electrostatic_Energy-OPLS-2005>
-438.068725585938

> <r_mmod_Solvation_Energy-OPLS-2005>
-207.711547851562

> <b_mmod_Minimization_Converged-OPLS-2005>
0

> <r_mmod_RMS_Derivative-OPLS-2005>
4.76907587051392

$$$$
42
                    3D
 Structure written by MMmdl.
175183  0  0  1  0            999 V2000
  -30.7213  -14.5258   20.6022 C   0  0  0  0  0  0
  -30.4087  -12.3588   19.4291 C   0  0  0  0  0  0
  -29.4924  -12.5827   18.2113 C   0  0  0  0  0  0
  -28.0139  -12.4238   18.6138 C   0  0  0  0  0  0
  -27.6614  -13.2334   19.8908 C   0  0  2  0  0  0
  -28.7087  -13.0260   21.0096 C   0  0  0  0  0  0
  -25.2577  -13.8212   20.5772 C   0  0  0  0  0  0
  -24.1846  -13.0447   20.9237 C   0  0  0  0  0  0
  -24.6425  -11.6937   20.8732 C   0  0  0  0  0  0
  -23.9078  -10.4300   21.0366 C   0  0  0  0  0  0
  -24.3634   -9.4223   21.9137 C   0  0  0  0  0  0
  -23.6330   -8.2242   22.0725 C   0  0  0  0  0  0
  -22.4296   -8.0279   21.3528 C   0  0  0  0  0  0
  -21.9925   -9.0246   20.4617 C   0  0  0  0  0  0
  -22.7252  -10.2130   20.3006 C   0  0  0  0  0  0
  -21.6857   -6.0738   22.5282 C   0  0  0  0  0  0
  -21.4004   -6.5638   23.8215 C   0  0  0  0  0  0
  -21.3661   -5.6783   24.9184 C   0  0  0  0  0  0
  -21.6045   -4.3046   24.7220 C   0  0  0  0  0  0
  -21.8821   -3.8155   23.4344 C   0  0  0  0  0  0
  -21.9206   -4.6971   22.3411 C   0  0  0  0  0  0
  -22.7864  -13.5212   21.1910 C   0  0  0  0  0  0
  -22.1676   -4.2162   21.0977 F   0  0  0  0  0  0
  -21.5641   -3.4523   25.7730 F   0  0  0  0  0  0
  -30.0352  -13.3476   20.4635 N   0  0  0  0  0  0
  -26.3045  -12.9430   20.3476 N   0  0  0  0  0  0
  -25.9360  -11.6552   20.5776 N   0  0  0  0  0  0
  -22.0471  -12.8180   22.0432 N   0  0  0  0  0  0
  -25.4201  -15.1940   20.4225 N   0  0  0  0  0  0
  -31.7719  -14.7285   19.9852 O   0  0  0  0  0  0
  -21.6654   -6.8877   21.4248 O   0  0  0  0  0  0
  -22.3536  -14.5510   20.6770 O   0  0  0  0  0  0
  -24.6192  -31.8671   23.2102 C   0  0  0  0  0  0
  -25.9080  -32.4806   23.8426 C   0  0  1  0  0  0
  -27.2134  -27.3777   20.1252 C   0  0  0  0  0  0
  -25.5960  -33.8600   24.2396 N   0  0  0  0  0  0
  -23.4062  -30.4959   21.5510 C   0  0  2  0  0  0
  -24.8496  -28.9646   20.1081 C   0  0  0  0  0  0
  -22.7431  -29.4679   22.4968 C   0  0  0  0  0  0
  -18.0279  -28.1360   22.8491 C   0  0  0  0  0  0
  -24.1470  -36.7256   23.2647 C   0  0  0  0  0  0
  -25.9378  -30.8275   21.3632 C   0  0  0  0  0  0
  -26.0133  -29.4559   20.7127 C   0  0  0  0  0  0
  -27.1981  -28.6718   20.7166 C   0  0  0  0  0  0
  -26.0299  -26.9292   19.4927 C   0  0  0  0  0  0
  -24.8561  -27.7053   19.4898 C   0  0  0  0  0  0
  -23.6124  -29.8336   20.1633 C   0  0  0  0  0  0
  -25.4093  -36.3088   24.0366 C   0  0  1  0  0  0
  -20.5869  -28.3654   23.1292 C   0  0  2  0  0  0
  -20.6760  -26.9382   22.5403 C   0  0  0  0  0  0
  -19.5748  -26.6376   21.5189 C   0  0  0  0  0  0
  -18.1931  -26.7907   22.1600 C   0  0  0  0  0  0
  -19.1528  -28.8817   23.2897 C   0  0  0  0  0  0
  -18.9449  -30.1419   23.8918 C   0  0  0  0  0  0
  -17.6453  -30.6567   24.0555 C   0  0  0  0  0  0
  -25.9041  -34.9459   23.5161 C   0  0  0  0  0  0
  -16.5346  -29.9070   23.6307 C   0  0  0  0  0  0
  -16.7268  -28.6469   23.0363 C   0  0  0  0  0  0
  -26.4534  -31.6547   25.0716 C   0  0  0  0  0  0
  -25.3846  -31.3517   26.1471 C   0  0  0  0  0  0
  -27.0384  -30.3025   24.6005 C   0  0  0  0  0  0
  -27.6154  -32.4224   25.7473 C   0  0  0  0  0  0
  -27.5563  -37.1791   24.8485 C   0  0  0  0  0  0
  -21.4163  -29.3025   22.3701 N   0  0  0  0  0  0
  -26.4269  -37.3794   23.9448 N   0  0  0  0  0  0
  -24.6736  -31.0779   22.1006 N   0  0  0  0  0  0
  -23.4185  -28.8222   23.3027 O   0  0  0  0  0  0
  -28.3499  -26.5736   20.1991 O   0  0  0  0  0  0
  -26.5558  -34.8914   22.4701 O   0  0  0  0  0  0
  -23.5374  -32.1419   23.7483 O   0  0  0  0  0  0
  -28.7461  -19.6141   23.2883 C   0  0  0  0  0  0
  -28.3065  -18.5717   24.0436 C   0  0  0  0  0  0
  -28.4784  -17.3958   23.2518 C   0  0  0  0  0  0
  -29.1635  -17.7428   22.1035 C   0  0  0  0  0  0
  -27.9915  -16.0123   23.6220 C   0  0  0  0  0  0
  -26.3558  -19.4367   25.3670 C   0  0  0  0  0  0
  -28.6880  -19.4146   26.3896 C   0  0  0  0  0  0
  -28.5191  -22.3569   18.9234 C   0  0  0  0  0  0
  -31.2136  -15.6039   22.6285 C   0  0  0  0  0  0
  -29.7237  -16.7782   21.0315 C   0  0  0  0  0  0
  -29.2454  -21.6455   21.2640 C   0  0  0  0  0  0
  -29.3332  -24.2359   20.5526 C   0  0  0  0  0  0
  -29.5962  -20.1149   20.9800 C   0  0  0  0  0  0
  -28.1830  -25.1391   19.9853 C   0  0  0  0  0  0
  -27.7091  -18.7116   25.4320 C   0  0  0  0  0  0
  -29.4246  -22.7084   20.1166 C   0  0  2  0  0  0
  -29.1935  -19.1642   22.0591 N   0  0  0  0  0  0
  -30.2774  -15.4546   21.5027 N   0  0  0  0  0  0
  -31.4569  -12.4337   19.1326 H   0  0  0  0  0  0
  -30.2800  -11.3419   19.8048 H   0  0  0  0  0  0
  -29.7447  -11.8928   17.4051 H   0  0  0  0  0  0
  -29.6603  -13.5862   17.8154 H   0  0  0  0  0  0
  -27.8127  -11.3630   18.7656 H   0  0  0  0  0  0
  -27.3686  -12.7362   17.7897 H   0  0  0  0  0  0
  -27.6934  -14.2883   19.6145 H   0  0  0  0  0  0
  -28.6959  -11.9887   21.3488 H   0  0  0  0  0  0
  -28.4712  -13.6260   21.8873 H   0  0  0  0  0  0
  -25.2741   -9.5740   22.4747 H   0  0  0  0  0  0
  -24.0052   -7.4621   22.7420 H   0  0  0  0  0  0
  -21.0855   -8.8728   19.8928 H   0  0  0  0  0  0
  -22.3652  -10.9658   19.6141 H   0  0  0  0  0  0
  -21.1953   -7.6132   23.9744 H   0  0  0  0  0  0
  -21.1492   -6.0494   25.9094 H   0  0  0  0  0  0
  -22.0601   -2.7610   23.2836 H   0  0  0  0  0  0
  -22.4076  -11.9851   22.4840 H   0  0  0  0  0  0
  -21.1072  -13.1179   22.2549 H   0  0  0  0  0  0
  -24.6565  -15.8444   20.5657 H   0  0  0  0  0  0
  -26.2764  -15.6513   20.1394 H   0  0  0  0  0  0
  -26.7145  -32.5534   23.1195 H   0  0  0  0  0  0
  -25.0266  -33.9780   25.0640 H   0  0  0  0  0  0
  -22.6961  -31.3142   21.4164 H   0  0  0  0  0  0
  -23.3767  -35.9548   23.3284 H   0  0  0  0  0  0
  -24.3563  -36.8875   22.2061 H   0  0  0  0  0  0
  -23.7150  -37.6432   23.6655 H   0  0  0  0  0  0
  -26.0432  -31.5893   20.5900 H   0  0  0  0  0  0
  -26.8284  -30.8888   21.9760 H   0  0  0  0  0  0
  -28.0888  -29.0426   21.2027 H   0  0  0  0  0  0
  -25.9751  -25.9673   19.0068 H   0  0  0  0  0  0
  -23.9635  -27.3265   19.0126 H   0  0  0  0  0  0
  -23.7168  -30.6093   19.4040 H   0  0  0  0  0  0
  -22.7351  -29.2568   19.8671 H   0  0  0  0  0  0
  -25.1253  -36.1971   25.0855 H   0  0  0  0  0  0
  -20.9976  -28.3195   24.1404 H   0  0  0  0  0  0
  -20.5605  -26.2268   23.3590 H   0  0  0  0  0  0
  -21.6641  -26.7401   22.1225 H   0  0  0  0  0  0
  -19.6911  -25.6291   21.1200 H   0  0  0  0  0  0
  -19.6677  -27.3198   20.6722 H   0  0  0  0  0  0
  -17.4201  -26.6655   21.4005 H   0  0  0  0  0  0
  -18.0351  -26.0036   22.8977 H   0  0  0  0  0  0
  -19.7932  -30.7230   24.2308 H   0  0  0  0  0  0
  -17.5007  -31.6255   24.5155 H   0  0  0  0  0  0
  -15.5343  -30.2990   23.7608 H   0  0  0  0  0  0
  -15.8665  -28.0783   22.7106 H   0  0  0  0  0  0
  -24.6160  -30.6699   25.7800 H   0  0  0  0  0  0
  -24.8862  -32.2567   26.4943 H   0  0  0  0  0  0
  -25.8285  -30.8732   27.0210 H   0  0  0  0  0  0
  -26.2897  -29.6751   24.1145 H   0  0  0  0  0  0
  -27.4326  -29.7266   25.4386 H   0  0  0  0  0  0
  -27.8653  -30.4407   23.9031 H   0  0  0  0  0  0
  -27.2894  -33.3606   26.1969 H   0  0  0  0  0  0
  -28.4025  -32.6602   25.0305 H   0  0  0  0  0  0
  -28.0748  -31.8351   26.5440 H   0  0  0  0  0  0
  -28.2579  -38.0097   24.7585 H   0  0  0  0  0  0
  -28.1067  -36.2632   24.6268 H   0  0  0  0  0  0
  -27.2284  -37.1385   25.8888 H   0  0  0  0  0  0
  -20.9320  -29.8747   21.6926 H   0  0  0  0  0  0
  -26.0143  -38.2855   24.1501 H   0  0  0  0  0  0
  -28.7244  -20.6643   23.5358 H   0  0  0  0  0  0
  -27.2177  -16.0498   24.3855 H   0  0  0  0  0  0
  -28.7925  -15.3771   23.9962 H   0  0  0  0  0  0
  -27.5500  -15.5333   22.7486 H   0  0  0  0  0  0
  -25.6496  -18.8834   24.7466 H   0  0  0  0  0  0
  -26.4571  -20.4377   24.9461 H   0  0  0  0  0  0
  -25.9118  -19.5364   26.3565 H   0  0  0  0  0  0
  -29.6090  -18.8393   26.4905 H   0  0  0  0  0  0
  -28.2623  -19.5212   27.3870 H   0  0  0  0  0  0
  -28.9574  -20.4117   26.0408 H   0  0  0  0  0  0
  -28.7255  -21.3539   18.5552 H   0  0  0  0  0  0
  -28.6744  -23.0200   18.0731 H   0  0  0  0  0  0
  -27.4649  -22.3926   19.1987 H   0  0  0  0  0  0
  -32.1036  -16.1507   22.3167 H   0  0  0  0  0  0
  -31.5388  -14.6299   23.0021 H   0  0  0  0  0  0
  -30.7968  -16.1374   23.4776 H   0  0  0  0  0  0
  -30.4904  -17.2876   20.4447 H   0  0  0  0  0  0
  -28.9206  -16.5565   20.3303 H   0  0  0  0  0  0
  -29.8584  -21.9726   22.1063 H   0  0  0  0  0  0
  -28.2092  -21.7182   21.5989 H   0  0  0  0  0  0
  -29.3232  -24.3135   21.6407 H   0  0  0  0  0  0
  -30.2686  -24.7128   20.2570 H   0  0  0  0  0  0
  -30.6652  -20.0063   20.7964 H   0  0  0  0  0  0
  -29.0890  -19.7873   20.0733 H   0  0  0  0  0  0
  -27.2518  -24.7857   20.4315 H   0  0  0  0  0  0
  -28.0918  -24.9987   18.9097 H   0  0  0  0  0  0
  -27.5347  -17.7161   25.8375 H   0  0  0  0  0  0
  -30.4513  -22.5828   19.7705 H   0  0  0  0  0  0
  1 25  1  0  0  0
  1 30  2  0  0  0
  1 88  1  0  0  0
  2  3  1  0  0  0
  2 25  1  0  0  0
  2 89  1  0  0  0
  2 90  1  0  0  0
  3  4  1  0  0  0
  3 91  1  0  0  0
  3 92  1  0  0  0
  4  5  1  0  0  0
  4 93  1  0  0  0
  4 94  1  0  0  0
  5  6  1  0  0  0
  5 26  1  0  0  0
  5 95  1  0  0  0
  6 25  1  0  0  0
  6 96  1  0  0  0
  6 97  1  0  0  0
  7  8  2  0  0  0
  7 26  1  0  0  0
  7 29  1  0  0  0
  8  9  1  0  0  0
  8 22  1  0  0  0
  9 10  1  0  0  0
  9 27  2  0  0  0
 10 11  2  0  0  0
 10 15  1  0  0  0
 11 12  1  0  0  0
 11 98  1  0  0  0
 12 13  2  0  0  0
 12 99  1  0  0  0
 13 14  1  0  0  0
 13 31  1  0  0  0
 14 15  2  0  0  0
 14100  1  0  0  0
 15101  1  0  0  0
 16 17  2  0  0  0
 16 21  1  0  0  0
 16 31  1  0  0  0
 17 18  1  0  0  0
 17102  1  0  0  0
 18 19  2  0  0  0
 18103  1  0  0  0
 19 20  1  0  0  0
 19 24  1  0  0  0
 20 21  2  0  0  0
 20104  1  0  0  0
 21 23  1  0  0  0
 22 28  1  0  0  0
 22 32  2  0  0  0
 26 27  1  0  0  0
 28105  1  0  0  0
 28106  1  0  0  0
 29107  1  0  0  0
 29108  1  0  0  0
 33 34  1  0  0  0
 33 66  1  0  0  0
 33 70  2  0  0  0
 34 36  1  0  0  0
 34 59  1  0  0  0
 34109  1  0  0  0
 35 44  2  0  0  0
 35 45  1  0  0  0
 35 68  1  0  0  0
 36 56  1  0  0  0
 36110  1  0  0  0
 37 39  1  0  0  0
 37 47  1  0  0  0
 37 66  1  0  0  0
 37111  1  0  0  0
 38 43  2  0  0  0
 38 46  1  0  0  0
 38 47  1  0  0  0
 39 64  1  0  0  0
 39 67  2  0  0  0
 40 52  1  0  0  0
 40 53  2  0  0  0
 40 58  1  0  0  0
 41112  1  0  0  0
 41113  1  0  0  0
 41114  1  0  0  0
 41 48  1  0  0  0
 42 43  1  0  0  0
 42 66  1  0  0  0
 42115  1  0  0  0
 42116  1  0  0  0
 43 44  1  0  0  0
 44117  1  0  0  0
 45 46  2  0  0  0
 45118  1  0  0  0
 46119  1  0  0  0
 47120  1  0  0  0
 47121  1  0  0  0
 48 56  1  0  0  0
 48 65  1  0  0  0
 48122  1  0  0  0
 49 50  1  0  0  0
 49 53  1  0  0  0
 49 64  1  0  0  0
 49123  1  0  0  0
 50 51  1  0  0  0
 50124  1  0  0  0
 50125  1  0  0  0
 51 52  1  0  0  0
 51126  1  0  0  0
 51127  1  0  0  0
 52128  1  0  0  0
 52129  1  0  0  0
 53 54  1  0  0  0
 54 55  2  0  0  0
 54130  1  0  0  0
 55 57  1  0  0  0
 55131  1  0  0  0
 56 69  2  0  0  0
 57 58  2  0  0  0
 57132  1  0  0  0
 58133  1  0  0  0
 59 60  1  0  0  0
 59 61  1  0  0  0
 59 62  1  0  0  0
 60134  1  0  0  0
 60135  1  0  0  0
 60136  1  0  0  0
 61137  1  0  0  0
 61138  1  0  0  0
 61139  1  0  0  0
 62140  1  0  0  0
 62141  1  0  0  0
 62142  1  0  0  0
 63 65  1  0  0  0
 63143  1  0  0  0
 63144  1  0  0  0
 63145  1  0  0  0
 64146  1  0  0  0
 65147  1  0  0  0
 68 84  1  0  0  0
 71 72  2  0  0  0
 71 87  1  0  0  0
 71148  1  0  0  0
 72 73  1  0  0  0
 72 85  1  0  0  0
 73 74  2  0  0  0
 73 75  1  0  0  0
 74 80  1  0  0  0
 74 87  1  0  0  0
 75149  1  0  0  0
 75150  1  0  0  0
 75151  1  0  0  0
 76152  1  0  0  0
 76153  1  0  0  0
 76154  1  0  0  0
 76 85  1  0  0  0
 77 85  1  0  0  0
 77155  1  0  0  0
 77156  1  0  0  0
 77157  1  0  0  0
 78158  1  0  0  0
 78159  1  0  0  0
 78160  1  0  0  0
 78 86  1  0  0  0
 79 88  1  0  0  0
 79161  1  0  0  0
 79162  1  0  0  0
 79163  1  0  0  0
 80 88  1  0  0  0
 80164  1  0  0  0
 80165  1  0  0  0
 81 83  1  0  0  0
 81 86  1  0  0  0
 81166  1  0  0  0
 81167  1  0  0  0
 82 84  1  0  0  0
 82 86  1  0  0  0
 82168  1  0  0  0
 82169  1  0  0  0
 83 87  1  0  0  0
 83170  1  0  0  0
 83171  1  0  0  0
 84172  1  0  0  0
 84173  1  0  0  0
 85174  1  0  0  0
 86175  1  0  0  0
M  ISO  4   1 100  68 101  84 101  88 100
M  END
> <chiral flag>
0

> <version>
0

> <s_m_source_file>
/data/baiqing/PycharmProjects/Reinvent-master-3.2/result/LINK_invent/BTK/process_docking_weight1_custom_sum_contain_oxygen_bond_distance_aromatic_linkinvent_7_9_3/rearranged_h_0103.sdf

> <i_m_source_file_index>
43

> <r_mmod_Potential_Energy-OPLS-2005>
146.0166015625

> <r_mmod_Stretch_Energy-OPLS-2005>
71.0945434570312

> <r_mmod_Bend_Energy-OPLS-2005>
145.909729003906

> <r_mmod_Torsional_Energy-OPLS-2005>
302.298370361328

> <r_mmod_Improper_Torsional_Energy-OPLS-2005>
6.54150581359863

> <r_mmod_Van_der_Waal_Energy-OPLS-2005>
131.851104736328

> <r_mmod_Electrostatic_Energy-OPLS-2005>
-353.182006835938

> <r_mmod_Solvation_Energy-OPLS-2005>
-182.991928100586

> <b_mmod_Minimization_Converged-OPLS-2005>
0

> <r_mmod_RMS_Derivative-OPLS-2005>
4.27531433105469

$$$$
43
                    3D
 Structure written by MMmdl.
164172  0  0  1  0            999 V2000
  -30.5324  -14.9001   20.4387 C   0  0  0  0  0  0
  -30.4570  -12.5504   19.5027 C   0  0  0  0  0  0
  -29.5308  -12.5290   18.2613 C   0  0  0  0  0  0
  -28.0597  -12.3262   18.6731 C   0  0  0  0  0  0
  -27.6471  -13.2384   19.8580 C   0  0  2  0  0  0
  -28.6931  -13.2111   20.9981 C   0  0  0  0  0  0
  -25.2541  -13.8203   20.5721 C   0  0  0  0  0  0
  -24.1832  -13.0442   20.9213 C   0  0  0  0  0  0
  -24.6423  -11.6920   20.8742 C   0  0  0  0  0  0
  -23.9094  -10.4297   21.0406 C   0  0  0  0  0  0
  -24.3638   -9.4210   21.9192 C   0  0  0  0  0  0
  -23.6305   -8.2249   22.0761 C   0  0  0  0  0  0
  -22.4289   -8.0288   21.3542 C   0  0  0  0  0  0
  -21.9929   -9.0270   20.4647 C   0  0  0  0  0  0
  -22.7265  -10.2142   20.3054 C   0  0  0  0  0  0
  -21.6855   -6.0738   22.5280 C   0  0  0  0  0  0
  -21.4016   -6.5643   23.8214 C   0  0  0  0  0  0
  -21.3658   -5.6795   24.9175 C   0  0  0  0  0  0
  -21.6046   -4.3061   24.7223 C   0  0  0  0  0  0
  -21.8820   -3.8148   23.4349 C   0  0  0  0  0  0
  -21.9196   -4.6964   22.3402 C   0  0  0  0  0  0
  -22.7852  -13.5225   21.1875 C   0  0  0  0  0  0
  -22.1663   -4.2151   21.0979 F   0  0  0  0  0  0
  -21.5627   -3.4543   25.7736 F   0  0  0  0  0  0
  -29.9839  -13.6214   20.4215 N   0  0  0  0  0  0
  -26.2983  -12.9414   20.3326 N   0  0  0  0  0  0
  -25.9368  -11.6549   20.5785 N   0  0  0  0  0  0
  -22.0504  -12.8189   22.0413 N   0  0  0  0  0  0
  -25.4207  -15.1933   20.4146 N   0  0  0  0  0  0
  -31.6887  -15.0494   20.0336 O   0  0  0  0  0  0
  -21.6644   -6.8887   21.4247 O   0  0  0  0  0  0
  -22.3531  -14.5535   20.6734 O   0  0  0  0  0  0
  -24.6423  -31.8485   23.1905 C   0  0  0  0  0  0
  -25.9202  -32.4724   23.8281 C   0  0  1  0  0  0
  -27.2222  -27.1637   20.1280 C   0  0  0  0  0  0
  -25.5956  -33.8533   24.2190 N   0  0  0  0  0  0
  -23.4422  -30.4727   21.5358 C   0  0  2  0  0  0
  -24.8920  -28.9107   20.1094 C   0  0  0  0  0  0
  -22.7557  -29.4569   22.4840 C   0  0  0  0  0  0
  -18.0305  -28.1402   22.8453 C   0  0  0  0  0  0
  -24.1501  -36.7257   23.2637 C   0  0  0  0  0  0
  -26.0012  -30.7313   21.3867 C   0  0  0  0  0  0
  -26.0746  -29.3482   20.7187 C   0  0  0  0  0  0
  -27.2384  -28.4931   20.7111 C   0  0  0  0  0  0
  -26.0042  -26.8311   19.4849 C   0  0  0  0  0  0
  -24.8690  -27.6613   19.4792 C   0  0  0  0  0  0
  -23.6695  -29.8099   20.1540 C   0  0  0  0  0  0
  -25.4133  -36.3041   24.0293 C   0  0  1  0  0  0
  -20.5921  -28.3707   23.1246 C   0  0  2  0  0  0
  -20.6803  -26.9412   22.5406 C   0  0  0  0  0  0
  -19.5776  -26.6373   21.5222 C   0  0  0  0  0  0
  -18.1947  -26.7942   22.1610 C   0  0  0  0  0  0
  -19.1558  -28.8866   23.2846 C   0  0  0  0  0  0
  -18.9478  -30.1465   23.8873 C   0  0  0  0  0  0
  -17.6481  -30.6594   24.0549 C   0  0  0  0  0  0
  -25.9079  -34.9420   23.5045 C   0  0  0  0  0  0
  -16.5368  -29.9077   23.6351 C   0  0  0  0  0  0
  -16.7290  -28.6503   23.0352 C   0  0  0  0  0  0
  -26.4532  -31.6577   25.0717 C   0  0  0  0  0  0
  -25.3703  -31.3750   26.1399 C   0  0  0  0  0  0
  -27.0390  -30.2967   24.6292 C   0  0  0  0  0  0
  -27.6066  -32.4332   25.7517 C   0  0  0  0  0  0
  -27.5565  -37.1793   24.8459 C   0  0  0  0  0  0
  -21.4248  -29.3046   22.3613 N   0  0  0  0  0  0
  -26.4282  -37.3763   23.9396 N   0  0  0  0  0  0
  -24.7147  -31.0363   22.0927 N   0  0  0  0  0  0
  -23.4228  -28.8095   23.2948 O   0  0  0  0  0  0
  -28.2719  -26.1739   20.1905 O   0  0  0  0  0  0
  -26.5666  -34.8902   22.4623 O   0  0  0  0  0  0
  -23.5536  -32.1335   23.7128 O   0  0  0  0  0  0
  -29.9166  -21.2913   19.1768 C   0  0  0  0  0  0
  -29.4893  -22.6708   19.1187 C   0  0  0  0  0  0
  -29.6622  -20.3922   20.2762 C   0  0  0  0  0  0
  -28.7613  -23.3016   20.1667 C   0  0  0  0  0  0
  -28.9350  -21.1215   21.2944 C   0  0  0  0  0  0
  -26.9733  -20.2602   22.6264 C   0  0  0  0  0  0
  -29.0149  -21.2097   23.8345 C   0  0  0  0  0  0
  -31.3604  -18.7924   21.4482 C   0  0  0  0  0  0
  -31.0546  -18.5557   19.0273 C   0  0  0  0  0  0
  -27.8884  -24.6872   19.9947 C   0  0  0  0  0  0
  -29.3342  -17.4928   20.4922 C   0  0  0  0  0  0
  -28.4964  -20.4550   22.5963 C   0  0  0  0  0  0
  -30.2881  -18.8391   20.3405 C   0  0  0  0  0  0
  -28.5096  -22.4520   21.2165 N   0  0  0  0  0  0
  -29.6807  -15.9735   20.7631 N   0  0  0  0  0  0
  -31.4922  -12.7093   19.1964 H   0  0  0  0  0  0
  -30.4437  -11.5857   20.0111 H   0  0  0  0  0  0
  -29.8419  -11.7381   17.5763 H   0  0  0  0  0  0
  -29.6293  -13.4660   17.7111 H   0  0  0  0  0  0
  -27.9395  -11.2803   18.9557 H   0  0  0  0  0  0
  -27.4013  -12.4882   17.8188 H   0  0  0  0  0  0
  -27.6293  -14.2527   19.4586 H   0  0  0  0  0  0
  -28.7675  -12.2168   21.4409 H   0  0  0  0  0  0
  -28.3980  -13.8802   21.8079 H   0  0  0  0  0  0
  -25.2787   -9.5688   22.4761 H   0  0  0  0  0  0
  -24.0015   -7.4642   22.7480 H   0  0  0  0  0  0
  -21.0862   -8.8794   19.8943 H   0  0  0  0  0  0
  -22.3742  -10.9681   19.6151 H   0  0  0  0  0  0
  -21.2004   -7.6152   23.9718 H   0  0  0  0  0  0
  -21.1480   -6.0525   25.9079 H   0  0  0  0  0  0
  -22.0600   -2.7611   23.2849 H   0  0  0  0  0  0
  -22.4138  -11.9837   22.4751 H   0  0  0  0  0  0
  -21.1118  -13.1194   22.2640 H   0  0  0  0  0  0
  -24.6474  -15.8404   20.5227 H   0  0  0  0  0  0
  -26.2626  -15.6378   20.0741 H   0  0  0  0  0  0
  -26.7250  -32.5342   23.0991 H   0  0  0  0  0  0
  -25.0092  -33.9663   25.0327 H   0  0  0  0  0  0
  -22.7425  -31.2977   21.3852 H   0  0  0  0  0  0
  -23.3770  -35.9590   23.3306 H   0  0  0  0  0  0
  -24.3582  -36.8897   22.2051 H   0  0  0  0  0  0
  -23.7248  -37.6444   23.6688 H   0  0  0  0  0  0
  -26.1568  -31.4956   20.6249 H   0  0  0  0  0  0
  -26.8725  -30.7724   22.0294 H   0  0  0  0  0  0
  -28.1379  -28.8257   21.2061 H   0  0  0  0  0  0
  -25.8728  -25.8852   18.9866 H   0  0  0  0  0  0
  -23.9645  -27.3193   18.9956 H   0  0  0  0  0  0
  -23.8054  -30.5920   19.4055 H   0  0  0  0  0  0
  -22.7859  -29.2547   19.8374 H   0  0  0  0  0  0
  -25.1341  -36.1847   25.0783 H   0  0  0  0  0  0
  -21.0000  -28.3286   24.1369 H   0  0  0  0  0  0
  -20.5736  -26.2298   23.3607 H   0  0  0  0  0  0
  -21.6662  -26.7452   22.1176 H   0  0  0  0  0  0
  -19.6952  -25.6287   21.1238 H   0  0  0  0  0  0
  -19.6745  -27.3203   20.6777 H   0  0  0  0  0  0
  -17.4232  -26.6679   21.3999 H   0  0  0  0  0  0
  -18.0307  -26.0122   22.9029 H   0  0  0  0  0  0
  -19.7963  -30.7277   24.2218 H   0  0  0  0  0  0
  -17.5047  -31.6281   24.5144 H   0  0  0  0  0  0
  -15.5370  -30.2972   23.7716 H   0  0  0  0  0  0
  -15.8683  -28.0833   22.7075 H   0  0  0  0  0  0
  -24.5938  -30.7040   25.7706 H   0  0  0  0  0  0
  -24.8848  -32.2939   26.4715 H   0  0  0  0  0  0
  -25.8007  -30.9001   27.0229 H   0  0  0  0  0  0
  -26.3013  -29.6695   24.1300 H   0  0  0  0  0  0
  -27.3989  -29.7256   25.4863 H   0  0  0  0  0  0
  -27.8919  -30.4183   23.9619 H   0  0  0  0  0  0
  -27.2675  -33.3667   26.1999 H   0  0  0  0  0  0
  -28.3950  -32.6820   25.0407 H   0  0  0  0  0  0
  -28.0641  -31.8500   26.5512 H   0  0  0  0  0  0
  -28.2586  -38.0093   24.7531 H   0  0  0  0  0  0
  -28.1054  -36.2625   24.6280 H   0  0  0  0  0  0
  -27.2275  -37.1433   25.8860 H   0  0  0  0  0  0
  -20.9413  -29.8760   21.6833 H   0  0  0  0  0  0
  -26.0135  -38.2815   24.1450 H   0  0  0  0  0  0
  -30.4572  -20.9364   18.3148 H   0  0  0  0  0  0
  -29.6822  -23.2308   18.2141 H   0  0  0  0  0  0
  -26.6476  -19.6521   21.7815 H   0  0  0  0  0  0
  -26.4520  -21.2159   22.5733 H   0  0  0  0  0  0
  -26.6604  -19.7550   23.5396 H   0  0  0  0  0  0
  -28.6310  -22.2291   23.8717 H   0  0  0  0  0  0
  -30.1037  -21.2696   23.8338 H   0  0  0  0  0  0
  -28.7076  -20.7124   24.7536 H   0  0  0  0  0  0
  -32.1199  -19.5598   21.2901 H   0  0  0  0  0  0
  -31.8810  -17.8342   21.4592 H   0  0  0  0  0  0
  -30.9633  -18.9338   22.4492 H   0  0  0  0  0  0
  -31.8628  -19.2668   18.8524 H   0  0  0  0  0  0
  -30.3961  -18.5792   18.1576 H   0  0  0  0  0  0
  -31.5187  -17.5690   19.0370 H   0  0  0  0  0  0
  -27.0059  -24.5262   20.6160 H   0  0  0  0  0  0
  -27.5387  -24.6088   18.9666 H   0  0  0  0  0  0
  -28.6879  -17.4692   19.6137 H   0  0  0  0  0  0
  -28.6410  -17.7156   21.3033 H   0  0  0  0  0  0
  -28.9239  -19.4602   22.6513 H   0  0  0  0  0  0
  -28.8685  -15.5520   21.1878 H   0  0  0  0  0  0
  1 25  1  0  0  0
  1 30  2  0  0  0
  1 85  1  0  0  0
  2  3  1  0  0  0
  2 25  1  0  0  0
  2 86  1  0  0  0
  2 87  1  0  0  0
  3  4  1  0  0  0
  3 88  1  0  0  0
  3 89  1  0  0  0
  4  5  1  0  0  0
  4 90  1  0  0  0
  4 91  1  0  0  0
  5  6  1  0  0  0
  5 26  1  0  0  0
  5 92  1  0  0  0
  6 25  1  0  0  0
  6 93  1  0  0  0
  6 94  1  0  0  0
  7  8  2  0  0  0
  7 26  1  0  0  0
  7 29  1  0  0  0
  8  9  1  0  0  0
  8 22  1  0  0  0
  9 10  1  0  0  0
  9 27  2  0  0  0
 10 11  2  0  0  0
 10 15  1  0  0  0
 11 12  1  0  0  0
 11 95  1  0  0  0
 12 13  2  0  0  0
 12 96  1  0  0  0
 13 14  1  0  0  0
 13 31  1  0  0  0
 14 15  2  0  0  0
 14 97  1  0  0  0
 15 98  1  0  0  0
 16 17  2  0  0  0
 16 21  1  0  0  0
 16 31  1  0  0  0
 17 18  1  0  0  0
 17 99  1  0  0  0
 18 19  2  0  0  0
 18100  1  0  0  0
 19 20  1  0  0  0
 19 24  1  0  0  0
 20 21  2  0  0  0
 20101  1  0  0  0
 21 23  1  0  0  0
 22 28  1  0  0  0
 22 32  2  0  0  0
 26 27  1  0  0  0
 28102  1  0  0  0
 28103  1  0  0  0
 29104  1  0  0  0
 29105  1  0  0  0
 33 34  1  0  0  0
 33 66  1  0  0  0
 33 70  2  0  0  0
 34 36  1  0  0  0
 34 59  1  0  0  0
 34106  1  0  0  0
 35 44  2  0  0  0
 35 45  1  0  0  0
 35 68  1  0  0  0
 36 56  1  0  0  0
 36107  1  0  0  0
 37 39  1  0  0  0
 37 47  1  0  0  0
 37 66  1  0  0  0
 37108  1  0  0  0
 38 43  2  0  0  0
 38 46  1  0  0  0
 38 47  1  0  0  0
 39 64  1  0  0  0
 39 67  2  0  0  0
 40 52  1  0  0  0
 40 53  2  0  0  0
 40 58  1  0  0  0
 41109  1  0  0  0
 41110  1  0  0  0
 41111  1  0  0  0
 41 48  1  0  0  0
 42 43  1  0  0  0
 42 66  1  0  0  0
 42112  1  0  0  0
 42113  1  0  0  0
 43 44  1  0  0  0
 44114  1  0  0  0
 45 46  2  0  0  0
 45115  1  0  0  0
 46116  1  0  0  0
 47117  1  0  0  0
 47118  1  0  0  0
 48 56  1  0  0  0
 48 65  1  0  0  0
 48119  1  0  0  0
 49 50  1  0  0  0
 49 53  1  0  0  0
 49 64  1  0  0  0
 49120  1  0  0  0
 50 51  1  0  0  0
 50121  1  0  0  0
 50122  1  0  0  0
 51 52  1  0  0  0
 51123  1  0  0  0
 51124  1  0  0  0
 52125  1  0  0  0
 52126  1  0  0  0
 53 54  1  0  0  0
 54 55  2  0  0  0
 54127  1  0  0  0
 55 57  1  0  0  0
 55128  1  0  0  0
 56 69  2  0  0  0
 57 58  2  0  0  0
 57129  1  0  0  0
 58130  1  0  0  0
 59 60  1  0  0  0
 59 61  1  0  0  0
 59 62  1  0  0  0
 60131  1  0  0  0
 60132  1  0  0  0
 60133  1  0  0  0
 61134  1  0  0  0
 61135  1  0  0  0
 61136  1  0  0  0
 62137  1  0  0  0
 62138  1  0  0  0
 62139  1  0  0  0
 63 65  1  0  0  0
 63140  1  0  0  0
 63141  1  0  0  0
 63142  1  0  0  0
 64143  1  0  0  0
 65144  1  0  0  0
 68 80  1  0  0  0
 71 72  2  0  0  0
 71 73  1  0  0  0
 71145  1  0  0  0
 72 74  1  0  0  0
 72146  1  0  0  0
 73 75  2  0  0  0
 73 83  1  0  0  0
 74 80  1  0  0  0
 74 84  2  0  0  0
 75 82  1  0  0  0
 75 84  1  0  0  0
 76147  1  0  0  0
 76148  1  0  0  0
 76149  1  0  0  0
 76 82  1  0  0  0
 77 82  1  0  0  0
 77150  1  0  0  0
 77151  1  0  0  0
 77152  1  0  0  0
 78153  1  0  0  0
 78154  1  0  0  0
 78155  1  0  0  0
 78 83  1  0  0  0
 79 83  1  0  0  0
 79156  1  0  0  0
 79157  1  0  0  0
 79158  1  0  0  0
 80159  1  0  0  0
 80160  1  0  0  0
 81 83  1  0  0  0
 81 85  1  0  0  0
 81161  1  0  0  0
 81162  1  0  0  0
 82163  1  0  0  0
 85164  1  0  0  0
M  ISO  4   1 100  68 101  80 101  85 100
M  END
> <chiral flag>
0

> <version>
0

> <s_m_source_file>
/data/baiqing/PycharmProjects/Reinvent-master-3.2/result/LINK_invent/BTK/process_docking_weight1_custom_sum_contain_oxygen_bond_distance_aromatic_linkinvent_7_9_3/rearranged_h_0103.sdf

> <i_m_source_file_index>
44

> <r_mmod_Potential_Energy-OPLS-2005>
288.719116210938

> <r_mmod_Stretch_Energy-OPLS-2005>
225.767501831055

> <r_mmod_Bend_Energy-OPLS-2005>
322.552764892578

> <r_mmod_Torsional_Energy-OPLS-2005>
219.401809692383

> <r_mmod_Improper_Torsional_Energy-OPLS-2005>
8.42307758331299

> <r_mmod_Van_der_Waal_Energy-OPLS-2005>
142.773559570312

> <r_mmod_Electrostatic_Energy-OPLS-2005>
-579.764587402344

> <r_mmod_Solvation_Energy-OPLS-2005>
-216.196197509766

> <b_mmod_Minimization_Converged-OPLS-2005>
0

> <r_mmod_RMS_Derivative-OPLS-2005>
2.91651749610901

$$$$
44
                    3D
 Structure written by MMmdl.
165172  0  0  1  0            999 V2000
  -30.3508  -15.4590   20.3960 C   0  0  0  0  0  0
  -30.4339  -12.9372   19.5729 C   0  0  0  0  0  0
  -29.5527  -12.6344   18.3254 C   0  0  0  0  0  0
  -28.1032  -12.3188   18.7295 C   0  0  0  0  0  0
  -27.6054  -13.2929   19.8227 C   0  0  2  0  0  0
  -28.6201  -13.5139   20.9633 C   0  0  0  0  0  0
  -25.2292  -13.8242   20.5601 C   0  0  0  0  0  0
  -24.1704  -13.0435   20.9236 C   0  0  0  0  0  0
  -24.6402  -11.6938   20.8771 C   0  0  0  0  0  0
  -23.9095  -10.4289   21.0410 C   0  0  0  0  0  0
  -24.3634   -9.4195   21.9183 C   0  0  0  0  0  0
  -23.6294   -8.2243   22.0760 C   0  0  0  0  0  0
  -22.4274   -8.0279   21.3562 C   0  0  0  0  0  0
  -21.9914   -9.0257   20.4663 C   0  0  0  0  0  0
  -22.7256  -10.2127   20.3067 C   0  0  0  0  0  0
  -21.6852   -6.0713   22.5284 C   0  0  0  0  0  0
  -21.4013   -6.5625   23.8195 C   0  0  0  0  0  0
  -21.3662   -5.6789   24.9170 C   0  0  0  0  0  0
  -21.6049   -4.3049   24.7232 C   0  0  0  0  0  0
  -21.8819   -3.8132   23.4355 C   0  0  0  0  0  0
  -21.9191   -4.6947   22.3400 C   0  0  0  0  0  0
  -22.7724  -13.5176   21.1922 C   0  0  0  0  0  0
  -22.1662   -4.2121   21.0983 F   0  0  0  0  0  0
  -21.5627   -3.4537   25.7751 F   0  0  0  0  0  0
  -29.8427  -14.0992   20.3696 N   0  0  0  0  0  0
  -26.2764  -12.9568   20.3161 N   0  0  0  0  0  0
  -25.9343  -11.6661   20.5703 N   0  0  0  0  0  0
  -22.0399  -12.8166   22.0503 N   0  0  0  0  0  0
  -25.3855  -15.1948   20.3767 N   0  0  0  0  0  0
  -31.5517  -15.4263   20.0740 O   0  0  0  0  0  0
  -21.6644   -6.8874   21.4240 O   0  0  0  0  0  0
  -22.3390  -14.5474   20.6765 O   0  0  0  0  0  0
  -24.6768  -31.8093   23.1589 C   0  0  0  0  0  0
  -25.9398  -32.4509   23.8102 C   0  0  1  0  0  0
  -27.2294  -26.8004   20.2180 C   0  0  0  0  0  0
  -25.6011  -33.8328   24.2002 N   0  0  0  0  0  0
  -23.4985  -30.4172   21.5080 C   0  0  2  0  0  0
  -24.9552  -28.7728   20.1225 C   0  0  0  0  0  0
  -22.7752  -29.4379   22.4713 C   0  0  0  0  0  0
  -18.0407  -28.1375   22.8488 C   0  0  0  0  0  0
  -24.1504  -36.7160   23.2651 C   0  0  0  0  0  0
  -26.0748  -30.5765   21.4089 C   0  0  0  0  0  0
  -26.1438  -29.1515   20.7584 C   0  0  0  0  0  0
  -27.2721  -28.1929   20.7716 C   0  0  0  0  0  0
  -26.0074  -26.6026   19.5299 C   0  0  0  0  0  0
  -24.9194  -27.5211   19.4865 C   0  0  0  0  0  0
  -23.7499  -29.7191   20.1416 C   0  0  0  0  0  0
  -25.4146  -36.2909   24.0292 C   0  0  1  0  0  0
  -20.6008  -28.3799   23.1202 C   0  0  2  0  0  0
  -20.6906  -26.9481   22.5429 C   0  0  0  0  0  0
  -19.5917  -26.6412   21.5222 C   0  0  0  0  0  0
  -18.2097  -26.7905   22.1655 C   0  0  0  0  0  0
  -19.1626  -28.8912   23.2843 C   0  0  0  0  0  0
  -18.9484  -30.1496   23.8870 C   0  0  0  0  0  0
  -17.6443  -30.6571   24.0521 C   0  0  0  0  0  0
  -25.9119  -34.9296   23.4975 C   0  0  0  0  0  0
  -16.5373  -29.8999   23.6295 C   0  0  0  0  0  0
  -16.7363  -28.6411   23.0361 C   0  0  0  0  0  0
  -26.4596  -31.6508   25.0693 C   0  0  0  0  0  0
  -25.3688  -31.3808   26.1335 C   0  0  0  0  0  0
  -27.0514  -30.2856   24.6541 C   0  0  0  0  0  0
  -27.6067  -32.4335   25.7506 C   0  0  0  0  0  0
  -27.5561  -37.1749   24.8467 C   0  0  0  0  0  0
  -21.4397  -29.3092   22.3534 N   0  0  0  0  0  0
  -26.4271  -37.3655   23.9409 N   0  0  0  0  0  0
  -24.7719  -30.9651   22.0779 N   0  0  0  0  0  0
  -23.4253  -28.7932   23.2973 O   0  0  0  0  0  0
  -28.2270  -25.6452   20.2577 O   0  0  0  0  0  0
  -26.5721  -34.8847   22.4568 O   0  0  0  0  0  0
  -23.5805  -32.1131   23.6595 O   0  0  0  0  0  0
  -28.9945  -22.2962   18.5498 C   0  0  0  0  0  0
  -29.1017  -18.6107   18.6606 C   0  0  0  0  0  0
  -25.6327  -17.2069   23.4771 C   0  0  0  0  0  0
  -27.0059  -18.7736   24.7683 C   0  0  0  0  0  0
  -28.3092  -16.8769   21.6769 C   0  0  0  0  0  0
  -28.8513  -20.5242   20.5910 C   0  0  0  0  0  0
  -28.1103  -17.2264   23.2004 C   0  0  0  0  0  0
  -28.0253  -23.9491   20.4188 C   0  0  0  0  0  0
  -29.6207  -17.1029   20.8236 C   0  0  2  0  0  0
  -28.9459  -22.3396   20.0785 C   0  0  2  0  0  0
  -29.5735  -18.8480   20.0963 C   0  0  1  0  0  0
  -26.8772  -18.0097   23.5057 N   0  3  0  0  0  0
  -31.4511  -13.1555   19.2455 H   0  0  0  0  0  0
  -30.5283  -12.0459   20.1971 H   0  0  0  0  0  0
  -29.9694  -11.8111   17.7441 H   0  0  0  0  0  0
  -29.5567  -13.5042   17.6675 H   0  0  0  0  0  0
  -28.0651  -11.2932   19.0990 H   0  0  0  0  0  0
  -27.4478  -12.3535   17.8582 H   0  0  0  0  0  0
  -27.5084  -14.2502   19.3116 H   0  0  0  0  0  0
  -28.8166  -12.5876   21.5031 H   0  0  0  0  0  0
  -28.1977  -14.1922   21.6996 H   0  0  0  0  0  0
  -25.2788   -9.5648   22.4750 H   0  0  0  0  0  0
  -23.9988   -7.4618   22.7488 H   0  0  0  0  0  0
  -21.0842   -8.8790   19.8970 H   0  0  0  0  0  0
  -22.3726  -10.9658   19.6172 H   0  0  0  0  0  0
  -21.2011   -7.6132   23.9695 H   0  0  0  0  0  0
  -21.1483   -6.0523   25.9071 H   0  0  0  0  0  0
  -22.0601   -2.7590   23.2872 H   0  0  0  0  0  0
  -22.4018  -11.9793   22.4832 H   0  0  0  0  0  0
  -21.1022  -13.1162   22.2763 H   0  0  0  0  0  0
  -24.5741  -15.8011   20.3437 H   0  0  0  0  0  0
  -26.1860  -15.5847   19.8973 H   0  0  0  0  0  0
  -26.7478  -32.4994   23.0812 H   0  0  0  0  0  0
  -25.0121  -33.9366   25.0134 H   0  0  0  0  0  0
  -22.8214  -31.2534   21.3223 H   0  0  0  0  0  0
  -23.3766  -35.9486   23.3282 H   0  0  0  0  0  0
  -24.3575  -36.8842   22.2066 H   0  0  0  0  0  0
  -23.7260  -37.6345   23.6724 H   0  0  0  0  0  0
  -26.2714  -31.3088   20.6257 H   0  0  0  0  0  0
  -26.9262  -30.6365   22.0743 H   0  0  0  0  0  0
  -28.1746  -28.4887   21.2894 H   0  0  0  0  0  0
  -25.8649  -25.6525   19.0375 H   0  0  0  0  0  0
  -24.0194  -27.2227   18.9666 H   0  0  0  0  0  0
  -23.9310  -30.4803   19.3816 H   0  0  0  0  0  0
  -22.8573  -29.1838   19.8128 H   0  0  0  0  0  0
  -25.1346  -36.1680   25.0776 H   0  0  0  0  0  0
  -21.0089  -28.3424   24.1334 H   0  0  0  0  0  0
  -20.5812  -26.2434   23.3692 H   0  0  0  0  0  0
  -21.6782  -26.7483   22.1254 H   0  0  0  0  0  0
  -19.7129  -25.6333   21.1221 H   0  0  0  0  0  0
  -19.6854  -27.3251   20.6771 H   0  0  0  0  0  0
  -17.4381  -26.6601   21.4053 H   0  0  0  0  0  0
  -18.0518  -26.0061   22.9072 H   0  0  0  0  0  0
  -19.7916  -30.7363   24.2243 H   0  0  0  0  0  0
  -17.4908  -31.6279   24.5048 H   0  0  0  0  0  0
  -15.5339  -30.2845   23.7534 H   0  0  0  0  0  0
  -15.8804  -28.0665   22.7069 H   0  0  0  0  0  0
  -24.5876  -30.7154   25.7649 H   0  0  0  0  0  0
  -24.8875  -32.3026   26.4610 H   0  0  0  0  0  0
  -25.7895  -30.9076   27.0218 H   0  0  0  0  0  0
  -26.3209  -29.6496   24.1540 H   0  0  0  0  0  0
  -27.3982  -29.7279   25.5250 H   0  0  0  0  0  0
  -27.9174  -30.4008   24.0025 H   0  0  0  0  0  0
  -27.2631  -33.3680   26.1950 H   0  0  0  0  0  0
  -28.3958  -32.6838   25.0401 H   0  0  0  0  0  0
  -28.0656  -31.8561   26.5547 H   0  0  0  0  0  0
  -28.2560  -38.0060   24.7482 H   0  0  0  0  0  0
  -28.1081  -36.2581   24.6330 H   0  0  0  0  0  0
  -27.2275  -37.1421   25.8871 H   0  0  0  0  0  0
  -20.9641  -29.8854   21.6730 H   0  0  0  0  0  0
  -26.0113  -38.2712   24.1405 H   0  0  0  0  0  0
  -28.0466  -21.9377   18.1479 H   0  0  0  0  0  0
  -29.7863  -21.6404   18.1918 H   0  0  0  0  0  0
  -29.1828  -23.2853   18.1321 H   0  0  0  0  0  0
  -29.3774  -19.4333   18.0029 H   0  0  0  0  0  0
  -28.0197  -18.4832   18.6223 H   0  0  0  0  0  0
  -29.5528  -17.7079   18.2492 H   0  0  0  0  0  0
  -24.7577  -17.8532   23.5593 H   0  0  0  0  0  0
  -25.5930  -16.4939   24.3015 H   0  0  0  0  0  0
  -25.5328  -16.6520   22.5473 H   0  0  0  0  0  0
  -26.1322  -19.4026   24.9356 H   0  0  0  0  0  0
  -27.8773  -19.4291   24.7394 H   0  0  0  0  0  0
  -27.1153  -18.1081   25.6264 H   0  0  0  0  0  0
  -28.9423  -16.1612   22.1946 H   0  0  0  0  0  0
  -28.1643  -17.9471   21.6007 H   0  0  0  0  0  0
  -27.7784  -20.3308   20.5678 H   0  0  0  0  0  0
  -29.0852  -20.5768   21.6554 H   0  0  0  0  0  0
  -28.9763  -17.8016   23.5424 H   0  0  0  0  0  0
  -28.0777  -16.3490   23.8593 H   0  0  0  0  0  0
  -27.7760  -23.8605   21.4774 H   0  0  0  0  0  0
  -27.0683  -23.7880   19.9245 H   0  0  0  0  0  0
  -30.3860  -17.3480   21.5673 H   0  0  0  0  0  0
  -29.9537  -22.6004   20.4022 H   0  0  0  0  0  0
  -30.6353  -19.0766   20.0087 H   0  0  0  0  0  0
  -26.7871  -18.7001   22.7744 H   0  0  0  0  0  0
  1 25  1  0  0  0
  1 30  2  0  0  0
  1 79  1  0  0  0
  2  3  1  0  0  0
  2 25  1  0  0  0
  2 83  1  0  0  0
  2 84  1  0  0  0
  3  4  1  0  0  0
  3 85  1  0  0  0
  3 86  1  0  0  0
  4  5  1  0  0  0
  4 87  1  0  0  0
  4 88  1  0  0  0
  5  6  1  0  0  0
  5 26  1  0  0  0
  5 89  1  0  0  0
  6 25  1  0  0  0
  6 90  1  0  0  0
  6 91  1  0  0  0
  7  8  2  0  0  0
  7 26  1  0  0  0
  7 29  1  0  0  0
  8  9  1  0  0  0
  8 22  1  0  0  0
  9 10  1  0  0  0
  9 27  2  0  0  0
 10 11  2  0  0  0
 10 15  1  0  0  0
 11 12  1  0  0  0
 11 92  1  0  0  0
 12 13  2  0  0  0
 12 93  1  0  0  0
 13 14  1  0  0  0
 13 31  1  0  0  0
 14 15  2  0  0  0
 14 94  1  0  0  0
 15 95  1  0  0  0
 16 17  2  0  0  0
 16 21  1  0  0  0
 16 31  1  0  0  0
 17 18  1  0  0  0
 17 96  1  0  0  0
 18 19  2  0  0  0
 18 97  1  0  0  0
 19 20  1  0  0  0
 19 24  1  0  0  0
 20 21  2  0  0  0
 20 98  1  0  0  0
 21 23  1  0  0  0
 22 28  1  0  0  0
 22 32  2  0  0  0
 26 27  1  0  0  0
 28 99  1  0  0  0
 28100  1  0  0  0
 29101  1  0  0  0
 29102  1  0  0  0
 33 34  1  0  0  0
 33 66  1  0  0  0
 33 70  2  0  0  0
 34 36  1  0  0  0
 34 59  1  0  0  0
 34103  1  0  0  0
 35 44  2  0  0  0
 35 45  1  0  0  0
 35 68  1  0  0  0
 36 56  1  0  0  0
 36104  1  0  0  0
 37 39  1  0  0  0
 37 47  1  0  0  0
 37 66  1  0  0  0
 37105  1  0  0  0
 38 43  2  0  0  0
 38 46  1  0  0  0
 38 47  1  0  0  0
 39 64  1  0  0  0
 39 67  2  0  0  0
 40 52  1  0  0  0
 40 53  2  0  0  0
 40 58  1  0  0  0
 41106  1  0  0  0
 41107  1  0  0  0
 41108  1  0  0  0
 41 48  1  0  0  0
 42 43  1  0  0  0
 42 66  1  0  0  0
 42109  1  0  0  0
 42110  1  0  0  0
 43 44  1  0  0  0
 44111  1  0  0  0
 45 46  2  0  0  0
 45112  1  0  0  0
 46113  1  0  0  0
 47114  1  0  0  0
 47115  1  0  0  0
 48 56  1  0  0  0
 48 65  1  0  0  0
 48116  1  0  0  0
 49 50  1  0  0  0
 49 53  1  0  0  0
 49 64  1  0  0  0
 49117  1  0  0  0
 50 51  1  0  0  0
 50118  1  0  0  0
 50119  1  0  0  0
 51 52  1  0  0  0
 51120  1  0  0  0
 51121  1  0  0  0
 52122  1  0  0  0
 52123  1  0  0  0
 53 54  1  0  0  0
 54 55  2  0  0  0
 54124  1  0  0  0
 55 57  1  0  0  0
 55125  1  0  0  0
 56 69  2  0  0  0
 57 58  2  0  0  0
 57126  1  0  0  0
 58127  1  0  0  0
 59 60  1  0  0  0
 59 61  1  0  0  0
 59 62  1  0  0  0
 60128  1  0  0  0
 60129  1  0  0  0
 60130  1  0  0  0
 61131  1  0  0  0
 61132  1  0  0  0
 61133  1  0  0  0
 62134  1  0  0  0
 62135  1  0  0  0
 62136  1  0  0  0
 63 65  1  0  0  0
 63137  1  0  0  0
 63138  1  0  0  0
 63139  1  0  0  0
 64140  1  0  0  0
 65141  1  0  0  0
 68 78  1  0  0  0
 71142  1  0  0  0
 71143  1  0  0  0
 71144  1  0  0  0
 71 80  1  0  0  0
 72145  1  0  0  0
 72146  1  0  0  0
 72147  1  0  0  0
 72 81  1  0  0  0
 73148  1  0  0  0
 73149  1  0  0  0
 73150  1  0  0  0
 73 82  1  0  0  0
 74 82  1  0  0  0
 74151  1  0  0  0
 74152  1  0  0  0
 74153  1  0  0  0
 75 77  1  0  0  0
 75154  1  0  0  0
 75155  1  0  0  0
 75 79  1  0  0  0
 76 80  1  0  0  0
 76 81  1  0  0  0
 76156  1  0  0  0
 76157  1  0  0  0
 77 82  1  0  0  0
 77158  1  0  0  0
 77159  1  0  0  0
 78 80  1  0  0  0
 78160  1  0  0  0
 78161  1  0  0  0
 79 81  1  0  0  0
 79162  1  0  0  0
 80163  1  0  0  0
 81164  1  0  0  0
 82165  1  0  0  0
M  CHG  1  82   1
M  ISO  4   1 100  68 101  78 101  79 100
M  END
> <chiral flag>
0

> <version>
0

> <s_m_source_file>
/data/baiqing/PycharmProjects/Reinvent-master-3.2/result/LINK_invent/BTK/process_docking_weight1_custom_sum_contain_oxygen_bond_distance_aromatic_linkinvent_7_9_3/rearranged_h_0103.sdf

> <i_m_source_file_index>
45

> <r_mmod_Potential_Energy-OPLS-2005>
2246.31274414062

> <r_mmod_Stretch_Energy-OPLS-2005>
1015.65374755859

> <r_mmod_Bend_Energy-OPLS-2005>
816.206420898438

> <r_mmod_Torsional_Energy-OPLS-2005>
227.122177124023

> <r_mmod_Improper_Torsional_Energy-OPLS-2005>
3.12248396873474

> <r_mmod_Van_der_Waal_Energy-OPLS-2005>
130.351928710938

> <r_mmod_Electrostatic_Energy-OPLS-2005>
-174.955963134766

> <r_mmod_Solvation_Energy-OPLS-2005>
-435.037536621094

> <b_mmod_Minimization_Converged-OPLS-2005>
0

> <r_mmod_RMS_Derivative-OPLS-2005>
3.16399168968201

$$$$
45
                    3D
 Structure written by MMmdl.
147154  0  0  1  0            999 V2000
  -30.2821  -15.6974   20.3235 C   0  0  0  0  0  0
  -30.4187  -13.1293   19.5381 C   0  0  0  0  0  0
  -29.5510  -12.6684   18.3301 C   0  0  0  0  0  0
  -28.1307  -12.2969   18.7794 C   0  0  0  0  0  0
  -27.5924  -13.3128   19.8105 C   0  0  2  0  0  0
  -28.6043  -13.6776   20.9240 C   0  0  0  0  0  0
  -25.2309  -13.8290   20.5804 C   0  0  0  0  0  0
  -24.1703  -13.0433   20.9291 C   0  0  0  0  0  0
  -24.6411  -11.6947   20.8766 C   0  0  0  0  0  0
  -23.9118  -10.4292   21.0397 C   0  0  0  0  0  0
  -24.3653   -9.4205   21.9178 C   0  0  0  0  0  0
  -23.6312   -8.2248   22.0752 C   0  0  0  0  0  0
  -22.4292   -8.0288   21.3544 C   0  0  0  0  0  0
  -21.9940   -9.0263   20.4642 C   0  0  0  0  0  0
  -22.7285  -10.2134   20.3048 C   0  0  0  0  0  0
  -21.6860   -6.0741   22.5277 C   0  0  0  0  0  0
  -21.4019   -6.5643   23.8211 C   0  0  0  0  0  0
  -21.3659   -5.6794   24.9172 C   0  0  0  0  0  0
  -21.6044   -4.3056   24.7222 C   0  0  0  0  0  0
  -21.8819   -3.8150   23.4343 C   0  0  0  0  0  0
  -21.9194   -4.6967   22.3400 C   0  0  0  0  0  0
  -22.7716  -13.5160   21.1923 C   0  0  0  0  0  0
  -22.1662   -4.2153   21.0977 F   0  0  0  0  0  0
  -21.5626   -3.4538   25.7734 F   0  0  0  0  0  0
  -29.7662  -14.3204   20.2608 N   0  0  0  0  0  0
  -26.2761  -12.9630   20.3242 N   0  0  0  0  0  0
  -25.9359  -11.6696   20.5702 N   0  0  0  0  0  0
  -22.0385  -12.8134   22.0476 N   0  0  0  0  0  0
  -25.3896  -15.2034   20.4248 N   0  0  0  0  0  0
  -31.5196  -15.6202   20.1848 O   0  0  0  0  0  0
  -21.6648   -6.8888   21.4242 O   0  0  0  0  0  0
  -22.3388  -14.5457   20.6757 O   0  0  0  0  0  0
  -24.6893  -31.7935   23.1468 C   0  0  0  0  0  0
  -25.9447  -32.4437   23.8034 C   0  0  1  0  0  0
  -27.2274  -26.6477   20.2197 C   0  0  0  0  0  0
  -25.6005  -33.8265   24.1920 N   0  0  0  0  0  0
  -23.5177  -30.3936   21.5021 C   0  0  2  0  0  0
  -24.9753  -28.7221   20.1201 C   0  0  0  0  0  0
  -22.7790  -29.4288   22.4695 C   0  0  0  0  0  0
  -18.0341  -28.1431   22.8454 C   0  0  0  0  0  0
  -24.1491  -36.7135   23.2657 C   0  0  0  0  0  0
  -26.1011  -30.5087   21.4189 C   0  0  0  0  0  0
  -26.1659  -29.0673   20.7702 C   0  0  0  0  0  0
  -27.2750  -28.0599   20.7846 C   0  0  0  0  0  0
  -26.0026  -26.5255   19.5121 C   0  0  0  0  0  0
  -24.9359  -27.4778   19.4669 C   0  0  0  0  0  0
  -23.7745  -29.6850   20.1399 C   0  0  0  0  0  0
  -25.4145  -36.2877   24.0280 C   0  0  1  0  0  0
  -20.5980  -28.3793   23.1132 C   0  0  2  0  0  0
  -20.6806  -26.9445   22.5405 C   0  0  0  0  0  0
  -19.5782  -26.6375   21.5219 C   0  0  0  0  0  0
  -18.1964  -26.7959   22.1619 C   0  0  0  0  0  0
  -19.1610  -28.8937   23.2773 C   0  0  0  0  0  0
  -18.9516  -30.1519   23.8822 C   0  0  0  0  0  0
  -17.6505  -30.6612   24.0553 C   0  0  0  0  0  0
  -25.9128  -34.9269   23.4941 C   0  0  0  0  0  0
  -16.5394  -29.9095   23.6355 C   0  0  0  0  0  0
  -16.7321  -28.6516   23.0372 C   0  0  0  0  0  0
  -26.4605  -31.6495   25.0679 C   0  0  0  0  0  0
  -25.3655  -31.3830   26.1282 C   0  0  0  0  0  0
  -27.0548  -30.2829   24.6618 C   0  0  0  0  0  0
  -27.6047  -32.4365   25.7497 C   0  0  0  0  0  0
  -27.5553  -37.1731   24.8474 C   0  0  0  0  0  0
  -21.4432  -29.3029   22.3443 N   0  0  0  0  0  0
  -26.4268  -37.3643   23.9405 N   0  0  0  0  0  0
  -24.7936  -30.9328   22.0751 N   0  0  0  0  0  0
  -23.4207  -28.7895   23.3063 O   0  0  0  0  0  0
  -28.1825  -25.4030   20.2879 O   0  0  0  0  0  0
  -26.5772  -34.8859   22.4561 O   0  0  0  0  0  0
  -23.5899  -32.1033   23.6385 O   0  0  0  0  0  0
  -28.7392  -20.4865   20.2531 C   0  0  0  0  0  0
  -28.9413  -22.0339   20.2914 C   0  0  0  0  0  0
  -27.2959  -20.0605   20.0949 C   0  0  0  0  0  0
  -30.3847  -22.4568   20.4614 C   0  0  0  0  0  0
  -29.7332  -18.8817   20.3286 C   0  0  0  0  0  0
  -27.9435  -23.6355   20.1797 C   0  0  0  0  0  0
  -29.5309  -17.0856   20.3552 N   0  0  0  0  0  0
  -31.4054  -13.4026   19.1629 H   0  0  0  0  0  0
  -30.5987  -12.3009   20.2253 H   0  0  0  0  0  0
  -30.0194  -11.8255   17.8203 H   0  0  0  0  0  0
  -29.4979  -13.4781   17.6010 H   0  0  0  0  0  0
  -28.1721  -11.3064   19.2343 H   0  0  0  0  0  0
  -27.4611  -12.2163   17.9222 H   0  0  0  0  0  0
  -27.4445  -14.2230   19.2273 H   0  0  0  0  0  0
  -28.8812  -12.8089   21.5233 H   0  0  0  0  0  0
  -28.1580  -14.3959   21.6132 H   0  0  0  0  0  0
  -25.2791   -9.5680   22.4762 H   0  0  0  0  0  0
  -24.0012   -7.4642   22.7479 H   0  0  0  0  0  0
  -21.0869   -8.8790   19.8950 H   0  0  0  0  0  0
  -22.3741  -10.9675   19.6159 H   0  0  0  0  0  0
  -21.2016   -7.6151   23.9715 H   0  0  0  0  0  0
  -21.1480   -6.0523   25.9075 H   0  0  0  0  0  0
  -22.0598   -2.7611   23.2841 H   0  0  0  0  0  0
  -22.4030  -11.9809   22.4868 H   0  0  0  0  0  0
  -21.0990  -13.1127   22.2679 H   0  0  0  0  0  0
  -24.6171  -15.8509   20.5376 H   0  0  0  0  0  0
  -26.2303  -15.6466   20.0796 H   0  0  0  0  0  0
  -26.7532  -32.4895   23.0745 H   0  0  0  0  0  0
  -25.0067  -33.9295   25.0018 H   0  0  0  0  0  0
  -22.8465  -31.2327   21.3070 H   0  0  0  0  0  0
  -23.3768  -35.9451   23.3287 H   0  0  0  0  0  0
  -24.3551  -36.8828   22.2078 H   0  0  0  0  0  0
  -23.7237  -37.6302   23.6754 H   0  0  0  0  0  0
  -26.3093  -31.2293   20.6269 H   0  0  0  0  0  0
  -26.9508  -30.5797   22.0856 H   0  0  0  0  0  0
  -28.1699  -28.3331   21.3253 H   0  0  0  0  0  0
  -25.8259  -25.5870   19.0064 H   0  0  0  0  0  0
  -24.0384  -27.2038   18.9294 H   0  0  0  0  0  0
  -23.9551  -30.4426   19.3764 H   0  0  0  0  0  0
  -22.8779  -29.1549   19.8137 H   0  0  0  0  0  0
  -25.1359  -36.1634   25.0771 H   0  0  0  0  0  0
  -21.0063  -28.3422   24.1258 H   0  0  0  0  0  0
  -20.5670  -26.2417   23.3673 H   0  0  0  0  0  0
  -21.6666  -26.7386   22.1222 H   0  0  0  0  0  0
  -19.6938  -25.6268   21.1297 H   0  0  0  0  0  0
  -19.6728  -27.3146   20.6718 H   0  0  0  0  0  0
  -17.4234  -26.6705   21.4019 H   0  0  0  0  0  0
  -18.0347  -26.0125   22.9035 H   0  0  0  0  0  0
  -19.7992  -30.7355   24.2158 H   0  0  0  0  0  0
  -17.5058  -31.6285   24.5170 H   0  0  0  0  0  0
  -15.5393  -30.2975   23.7728 H   0  0  0  0  0  0
  -15.8719  -28.0811   22.7133 H   0  0  0  0  0  0
  -24.5872  -30.7145   25.7580 H   0  0  0  0  0  0
  -24.8808  -32.3057   26.4484 H   0  0  0  0  0  0
  -25.7821  -30.9140   27.0205 H   0  0  0  0  0  0
  -26.3278  -29.6427   24.1612 H   0  0  0  0  0  0
  -27.3962  -29.7292   25.5375 H   0  0  0  0  0  0
  -27.9261  -30.3950   24.0164 H   0  0  0  0  0  0
  -27.2587  -33.3748   26.1847 H   0  0  0  0  0  0
  -28.3975  -32.6798   25.0410 H   0  0  0  0  0  0
  -28.0584  -31.8644   26.5601 H   0  0  0  0  0  0
  -28.2564  -38.0030   24.7490 H   0  0  0  0  0  0
  -28.1052  -36.2554   24.6343 H   0  0  0  0  0  0
  -27.2263  -37.1418   25.8875 H   0  0  0  0  0  0
  -20.9747  -29.8669   21.6489 H   0  0  0  0  0  0
  -26.0089  -38.2691   24.1406 H   0  0  0  0  0  0
  -26.6283  -20.9171   19.9987 H   0  0  0  0  0  0
  -26.9790  -19.4790   20.9610 H   0  0  0  0  0  0
  -27.1818  -19.4407   19.2053 H   0  0  0  0  0  0
  -31.0528  -21.5982   20.5359 H   0  0  0  0  0  0
  -30.4966  -23.0554   21.3660 H   0  0  0  0  0  0
  -30.7021  -23.0610   19.6111 H   0  0  0  0  0  0
  -30.3776  -19.0553   21.1909 H   0  0  0  0  0  0
  -30.4131  -19.0107   19.4860 H   0  0  0  0  0  0
  -27.1362  -23.4592   20.8906 H   0  0  0  0  0  0
  -27.4528  -23.5288   19.2124 H   0  0  0  0  0  0
  -28.5435  -16.8782   20.4110 H   0  0  0  0  0  0
  1 25  1  0  0  0
  1 30  2  0  0  0
  1 77  1  0  0  0
  2  3  1  0  0  0
  2 25  1  0  0  0
  2 78  1  0  0  0
  2 79  1  0  0  0
  3  4  1  0  0  0
  3 80  1  0  0  0
  3 81  1  0  0  0
  4  5  1  0  0  0
  4 82  1  0  0  0
  4 83  1  0  0  0
  5  6  1  0  0  0
  5 26  1  0  0  0
  5 84  1  0  0  0
  6 25  1  0  0  0
  6 85  1  0  0  0
  6 86  1  0  0  0
  7  8  2  0  0  0
  7 26  1  0  0  0
  7 29  1  0  0  0
  8  9  1  0  0  0
  8 22  1  0  0  0
  9 10  1  0  0  0
  9 27  2  0  0  0
 10 11  2  0  0  0
 10 15  1  0  0  0
 11 12  1  0  0  0
 11 87  1  0  0  0
 12 13  2  0  0  0
 12 88  1  0  0  0
 13 14  1  0  0  0
 13 31  1  0  0  0
 14 15  2  0  0  0
 14 89  1  0  0  0
 15 90  1  0  0  0
 16 17  2  0  0  0
 16 21  1  0  0  0
 16 31  1  0  0  0
 17 18  1  0  0  0
 17 91  1  0  0  0
 18 19  2  0  0  0
 18 92  1  0  0  0
 19 20  1  0  0  0
 19 24  1  0  0  0
 20 21  2  0  0  0
 20 93  1  0  0  0
 21 23  1  0  0  0
 22 28  1  0  0  0
 22 32  2  0  0  0
 26 27  1  0  0  0
 28 94  1  0  0  0
 28 95  1  0  0  0
 29 96  1  0  0  0
 29 97  1  0  0  0
 33 34  1  0  0  0
 33 66  1  0  0  0
 33 70  2  0  0  0
 34 36  1  0  0  0
 34 59  1  0  0  0
 34 98  1  0  0  0
 35 44  2  0  0  0
 35 45  1  0  0  0
 35 68  1  0  0  0
 36 56  1  0  0  0
 36 99  1  0  0  0
 37 39  1  0  0  0
 37 47  1  0  0  0
 37 66  1  0  0  0
 37100  1  0  0  0
 38 43  2  0  0  0
 38 46  1  0  0  0
 38 47  1  0  0  0
 39 64  1  0  0  0
 39 67  2  0  0  0
 40 52  1  0  0  0
 40 53  2  0  0  0
 40 58  1  0  0  0
 41101  1  0  0  0
 41102  1  0  0  0
 41103  1  0  0  0
 41 48  1  0  0  0
 42 43  1  0  0  0
 42 66  1  0  0  0
 42104  1  0  0  0
 42105  1  0  0  0
 43 44  1  0  0  0
 44106  1  0  0  0
 45 46  2  0  0  0
 45107  1  0  0  0
 46108  1  0  0  0
 47109  1  0  0  0
 47110  1  0  0  0
 48 56  1  0  0  0
 48 65  1  0  0  0
 48111  1  0  0  0
 49 50  1  0  0  0
 49 53  1  0  0  0
 49 64  1  0  0  0
 49112  1  0  0  0
 50 51  1  0  0  0
 50113  1  0  0  0
 50114  1  0  0  0
 51 52  1  0  0  0
 51115  1  0  0  0
 51116  1  0  0  0
 52117  1  0  0  0
 52118  1  0  0  0
 53 54  1  0  0  0
 54 55  2  0  0  0
 54119  1  0  0  0
 55 57  1  0  0  0
 55120  1  0  0  0
 56 69  2  0  0  0
 57 58  2  0  0  0
 57121  1  0  0  0
 58122  1  0  0  0
 59 60  1  0  0  0
 59 61  1  0  0  0
 59 62  1  0  0  0
 60123  1  0  0  0
 60124  1  0  0  0
 60125  1  0  0  0
 61126  1  0  0  0
 61127  1  0  0  0
 61128  1  0  0  0
 62129  1  0  0  0
 62130  1  0  0  0
 62131  1  0  0  0
 63 65  1  0  0  0
 63132  1  0  0  0
 63133  1  0  0  0
 63134  1  0  0  0
 64135  1  0  0  0
 65136  1  0  0  0
 68 76  1  0  0  0
 71 72  2  0  0  0
 71 73  1  0  0  0
 71 75  1  0  0  0
 72 74  1  0  0  0
 72 76  1  0  0  0
 73137  1  0  0  0
 73138  1  0  0  0
 73139  1  0  0  0
 74140  1  0  0  0
 74141  1  0  0  0
 74142  1  0  0  0
 75 77  1  0  0  0
 75143  1  0  0  0
 75144  1  0  0  0
 76145  1  0  0  0
 76146  1  0  0  0
 77147  1  0  0  0
M  ISO  4   1 100  68 101  76 101  77 100
M  END
> <chiral flag>
0

> <version>
0

> <s_m_source_file>
/data/baiqing/PycharmProjects/Reinvent-master-3.2/result/LINK_invent/BTK/process_docking_weight1_custom_sum_contain_oxygen_bond_distance_aromatic_linkinvent_7_9_3/rearranged_h_0103.sdf

> <i_m_source_file_index>
46

> <r_mmod_Potential_Energy-OPLS-2005>
2585.20532226562

> <r_mmod_Stretch_Energy-OPLS-2005>
1215.38708496094

> <r_mmod_Bend_Energy-OPLS-2005>
622.689086914062

> <r_mmod_Torsional_Energy-OPLS-2005>
210.511840820312

> <r_mmod_Improper_Torsional_Energy-OPLS-2005>
3.73094272613525

> <r_mmod_Van_der_Waal_Energy-OPLS-2005>
107.697303771973

> <r_mmod_Electrostatic_Energy-OPLS-2005>
-371.845550537109

> <r_mmod_Solvation_Energy-OPLS-2005>
-210.378265380859

> <b_mmod_Minimization_Converged-OPLS-2005>
0

> <r_mmod_RMS_Derivative-OPLS-2005>
0.50994211435318

$$$$
46
                    3D
 Structure written by MMmdl.
171179  0  0  1  0            999 V2000
  -30.6417  -14.6855   20.4143 C   0  0  0  0  0  0
  -30.4123  -12.4028   19.4721 C   0  0  0  0  0  0
  -29.4863  -12.4763   18.2387 C   0  0  0  0  0  0
  -28.0165  -12.3149   18.6676 C   0  0  0  0  0  0
  -27.6385  -13.2287   19.8617 C   0  0  2  0  0  0
  -28.6910  -13.1676   20.9902 C   0  0  0  0  0  0
  -25.2477  -13.8219   20.5670 C   0  0  0  0  0  0
  -24.1752  -13.0449   20.9213 C   0  0  0  0  0  0
  -24.6376  -11.6942   20.8810 C   0  0  0  0  0  0
  -23.9092  -10.4287   21.0442 C   0  0  0  0  0  0
  -24.3648   -9.4184   21.9209 C   0  0  0  0  0  0
  -23.6305   -8.2213   22.0767 C   0  0  0  0  0  0
  -22.4273   -8.0274   21.3557 C   0  0  0  0  0  0
  -21.9947   -9.0265   20.4647 C   0  0  0  0  0  0
  -22.7284  -10.2134   20.3071 C   0  0  0  0  0  0
  -21.6819   -6.0750   22.5278 C   0  0  0  0  0  0
  -21.3975   -6.5644   23.8214 C   0  0  0  0  0  0
  -21.3669   -5.6795   24.9178 C   0  0  0  0  0  0
  -21.6057   -4.3066   24.7210 C   0  0  0  0  0  0
  -21.8810   -3.8162   23.4327 C   0  0  0  0  0  0
  -21.9178   -4.6989   22.3388 C   0  0  0  0  0  0
  -22.7788  -13.5246   21.1867 C   0  0  0  0  0  0
  -22.1644   -4.2179   21.0966 F   0  0  0  0  0  0
  -21.5659   -3.4546   25.7729 F   0  0  0  0  0  0
  -29.9923  -13.4788   20.3866 N   0  0  0  0  0  0
  -26.2920  -12.9404   20.3420 N   0  0  0  0  0  0
  -25.9313  -11.6564   20.5918 N   0  0  0  0  0  0
  -22.0465  -12.8162   22.0401 N   0  0  0  0  0  0
  -25.4251  -15.1898   20.3918 N   0  0  0  0  0  0
  -31.8413  -14.7572   20.1453 O   0  0  0  0  0  0
  -21.6595   -6.8897   21.4237 O   0  0  0  0  0  0
  -22.3462  -14.5582   20.6787 O   0  0  0  0  0  0
  -24.6267  -31.8581   23.2102 C   0  0  0  0  0  0
  -25.9119  -32.4739   23.8433 C   0  0  1  0  0  0
  -27.1819  -27.2617   20.1265 C   0  0  0  0  0  0
  -25.5967  -33.8552   24.2292 N   0  0  0  0  0  0
  -23.4208  -30.4874   21.5566 C   0  0  2  0  0  0
  -24.8625  -28.9546   20.1104 C   0  0  0  0  0  0
  -22.7518  -29.4520   22.4928 C   0  0  0  0  0  0
  -18.0286  -28.1260   22.8426 C   0  0  0  0  0  0
  -24.1479  -36.7296   23.2622 C   0  0  0  0  0  0
  -25.9686  -30.7775   21.3870 C   0  0  0  0  0  0
  -26.0393  -29.4025   20.7209 C   0  0  0  0  0  0
  -27.2092  -28.5716   20.7152 C   0  0  0  0  0  0
  -25.9839  -26.8941   19.4714 C   0  0  0  0  0  0
  -24.8418  -27.7081   19.4732 C   0  0  0  0  0  0
  -23.6371  -29.8470   20.1638 C   0  0  0  0  0  0
  -25.4092  -36.3039   24.0288 C   0  0  1  0  0  0
  -20.5898  -28.3541   23.1245 C   0  0  2  0  0  0
  -20.6742  -26.9257   22.5361 C   0  0  0  0  0  0
  -19.5738  -26.6276   21.5125 C   0  0  0  0  0  0
  -18.1926  -26.7806   22.1563 C   0  0  0  0  0  0
  -19.1549  -28.8722   23.2821 C   0  0  0  0  0  0
  -18.9469  -30.1344   23.8778 C   0  0  0  0  0  0
  -17.6460  -30.6451   24.0490 C   0  0  0  0  0  0
  -25.9051  -34.9410   23.5064 C   0  0  0  0  0  0
  -16.5351  -29.8925   23.6284 C   0  0  0  0  0  0
  -16.7286  -28.6369   23.0276 C   0  0  0  0  0  0
  -26.4529  -31.6565   25.0804 C   0  0  0  0  0  0
  -25.3770  -31.3731   26.1546 C   0  0  0  0  0  0
  -27.0385  -30.2969   24.6292 C   0  0  0  0  0  0
  -27.6082  -32.4347   25.7604 C   0  0  0  0  0  0
  -27.5569  -37.1767   24.8445 C   0  0  0  0  0  0
  -21.4232  -29.2946   22.3715 N   0  0  0  0  0  0
  -26.4246  -37.3745   23.9419 N   0  0  0  0  0  0
  -24.6901  -31.0586   22.1079 N   0  0  0  0  0  0
  -23.4254  -28.8002   23.2948 O   0  0  0  0  0  0
  -28.2402  -26.3237   20.1948 O   0  0  0  0  0  0
  -26.5617  -34.8880   22.4639 O   0  0  0  0  0  0
  -23.5437  -32.1459   23.7389 O   0  0  0  0  0  0
  -29.3988  -19.7139   20.5717 C   0  0  0  0  0  0
  -28.3045  -19.4820   18.0442 C   0  0  0  0  0  0
  -28.6874  -20.8608   20.0470 C   0  0  0  0  0  0
  -29.5590  -18.4537   19.8732 C   0  0  0  0  0  0
  -28.0661  -20.6692   18.7805 C   0  0  0  0  0  0
  -29.0499  -18.3906   18.5470 C   0  0  0  0  0  0
  -25.6173  -21.3165   18.4915 C   0  0  0  0  0  0
  -27.5638  -23.5606   16.5729 C   0  0  0  0  0  0
  -26.3866  -21.4702   15.6940 C   0  0  0  0  0  0
  -28.4370  -22.1910   20.8856 C   0  0  0  0  0  0
  -30.3918  -17.2566   20.4883 C   0  0  0  0  0  0
  -28.9177  -23.6608   20.3946 C   0  0  0  0  0  0
  -27.8630  -24.8801   20.4073 C   0  0  0  0  0  0
  -27.0838  -21.6850   18.1935 C   0  0  2  0  0  0
  -27.3958  -22.0406   16.7155 C   0  0  0  0  0  0
  -29.2881  -17.1853   17.6247 C   0  0  0  0  0  0
  -29.8867  -15.8288   20.5271 N   0  0  0  0  0  0
  -28.9165  -17.4282   16.3647 F   0  0  0  0  0  0
  -30.5788  -16.8492   17.5969 F   0  0  0  0  0  0
  -28.5790  -16.1411   18.0440 F   0  0  0  0  0  0
  -31.4587  -12.4872   19.1719 H   0  0  0  0  0  0
  -30.3207  -11.4374   19.9749 H   0  0  0  0  0  0
  -29.7490  -11.6959   17.5231 H   0  0  0  0  0  0
  -29.6158  -13.4300   17.7242 H   0  0  0  0  0  0
  -27.8788  -11.2726   18.9605 H   0  0  0  0  0  0
  -27.3407  -12.4895   17.8270 H   0  0  0  0  0  0
  -27.6304  -14.2472   19.4767 H   0  0  0  0  0  0
  -28.7109  -12.1788   21.4498 H   0  0  0  0  0  0
  -28.4466  -13.8747   21.7853 H   0  0  0  0  0  0
  -25.2809   -9.5587   22.4788 H   0  0  0  0  0  0
  -24.0003   -7.4562   22.7472 H   0  0  0  0  0  0
  -21.0904   -8.8803   19.8922 H   0  0  0  0  0  0
  -22.3807  -10.9686   19.6172 H   0  0  0  0  0  0
  -21.1915   -7.6146   23.9710 H   0  0  0  0  0  0
  -21.1525   -6.0536   25.9089 H   0  0  0  0  0  0
  -22.0586   -2.7627   23.2807 H   0  0  0  0  0  0
  -22.4134  -11.9801   22.4682 H   0  0  0  0  0  0
  -21.1109  -13.1159   22.2709 H   0  0  0  0  0  0
  -24.6558  -15.8494   20.4007 H   0  0  0  0  0  0
  -26.2769  -15.5900   20.0190 H   0  0  0  0  0  0
  -26.7173  -32.5365   23.1195 H   0  0  0  0  0  0
  -25.0125  -33.9696   25.0437 H   0  0  0  0  0  0
  -22.7096  -31.3032   21.4311 H   0  0  0  0  0  0
  -23.3702  -35.9660   23.3263 H   0  0  0  0  0  0
  -24.3618  -36.9010   22.2063 H   0  0  0  0  0  0
  -23.7319  -37.6490   23.6717 H   0  0  0  0  0  0
  -26.1139  -31.5420   20.6242 H   0  0  0  0  0  0
  -26.8462  -30.8258   22.0197 H   0  0  0  0  0  0
  -28.1073  -28.9134   21.2097 H   0  0  0  0  0  0
  -25.8745  -25.9612   18.9437 H   0  0  0  0  0  0
  -23.9399  -27.3656   18.9872 H   0  0  0  0  0  0
  -23.7776  -30.6438   19.4315 H   0  0  0  0  0  0
  -22.7472  -29.3041   19.8365 H   0  0  0  0  0  0
  -25.1270  -36.1869   25.0770 H   0  0  0  0  0  0
  -20.9966  -28.3026   24.1377 H   0  0  0  0  0  0
  -20.5508  -26.2115   23.3554 H   0  0  0  0  0  0
  -21.6615  -26.7172   22.1236 H   0  0  0  0  0  0
  -19.6877  -25.6183   21.1128 H   0  0  0  0  0  0
  -19.6669  -27.3041   20.6619 H   0  0  0  0  0  0
  -17.4183  -26.6477   21.3972 H   0  0  0  0  0  0
  -18.0374  -25.9921   22.8942 H   0  0  0  0  0  0
  -19.7958  -30.7177   24.2093 H   0  0  0  0  0  0
  -17.5010  -31.6147   24.5091 H   0  0  0  0  0  0
  -15.5329  -30.2765   23.7675 H   0  0  0  0  0  0
  -15.8730  -28.0679   22.6963 H   0  0  0  0  0  0
  -24.5943  -30.7054   25.7958 H   0  0  0  0  0  0
  -24.8930  -32.2891   26.4911 H   0  0  0  0  0  0
  -25.8102  -30.9017   27.0385 H   0  0  0  0  0  0
  -26.2971  -29.6717   24.1272 H   0  0  0  0  0  0
  -27.4049  -29.7224   25.4818 H   0  0  0  0  0  0
  -27.8884  -30.4256   23.9584 H   0  0  0  0  0  0
  -27.2678  -33.3704   26.2056 H   0  0  0  0  0  0
  -28.3963  -32.6825   25.0476 H   0  0  0  0  0  0
  -28.0662  -31.8559   26.5636 H   0  0  0  0  0  0
  -28.2475  -38.0153   24.7545 H   0  0  0  0  0  0
  -28.1180  -36.2681   24.6183 H   0  0  0  0  0  0
  -27.2325  -37.1347   25.8852 H   0  0  0  0  0  0
  -20.9336  -29.8954   21.7243 H   0  0  0  0  0  0
  -26.0095  -38.2791   24.1469 H   0  0  0  0  0  0
  -29.8189  -19.7883   21.5623 H   0  0  0  0  0  0
  -27.8856  -19.3912   17.0538 H   0  0  0  0  0  0
  -25.4394  -21.2969   19.5672 H   0  0  0  0  0  0
  -25.3438  -20.3383   18.0999 H   0  0  0  0  0  0
  -24.9296  -22.0520   18.0695 H   0  0  0  0  0  0
  -27.9338  -23.8315   15.5879 H   0  0  0  0  0  0
  -28.2862  -23.9393   17.2974 H   0  0  0  0  0  0
  -26.6234  -24.0824   16.7506 H   0  0  0  0  0  0
  -26.7873  -21.5136   14.6809 H   0  0  0  0  0  0
  -25.4463  -22.0223   15.6877 H   0  0  0  0  0  0
  -26.1465  -20.4240   15.8888 H   0  0  0  0  0  0
  -28.8418  -22.0264   21.8870 H   0  0  0  0  0  0
  -27.3602  -22.2244   21.0574 H   0  0  0  0  0  0
  -30.6569  -17.5226   21.5085 H   0  0  0  0  0  0
  -31.3440  -17.2590   19.9523 H   0  0  0  0  0  0
  -29.3421  -23.5773   19.3944 H   0  0  0  0  0  0
  -29.7549  -23.9500   21.0312 H   0  0  0  0  0  0
  -27.3298  -24.8482   21.3576 H   0  0  0  0  0  0
  -27.1306  -24.5750   19.6670 H   0  0  0  0  0  0
  -27.2127  -22.6012   18.7458 H   0  0  0  0  0  0
  -28.3706  -21.6273   16.4543 H   0  0  0  0  0  0
  -28.8949  -15.7004   20.6629 H   0  0  0  0  0  0
  1 25  1  0  0  0
  1 30  2  0  0  0
  1 87  1  0  0  0
  2  3  1  0  0  0
  2 25  1  0  0  0
  2 91  1  0  0  0
  2 92  1  0  0  0
  3  4  1  0  0  0
  3 93  1  0  0  0
  3 94  1  0  0  0
  4  5  1  0  0  0
  4 95  1  0  0  0
  4 96  1  0  0  0
  5  6  1  0  0  0
  5 26  1  0  0  0
  5 97  1  0  0  0
  6 25  1  0  0  0
  6 98  1  0  0  0
  6 99  1  0  0  0
  7  8  2  0  0  0
  7 26  1  0  0  0
  7 29  1  0  0  0
  8  9  1  0  0  0
  8 22  1  0  0  0
  9 10  1  0  0  0
  9 27  2  0  0  0
 10 11  2  0  0  0
 10 15  1  0  0  0
 11 12  1  0  0  0
 11100  1  0  0  0
 12 13  2  0  0  0
 12101  1  0  0  0
 13 14  1  0  0  0
 13 31  1  0  0  0
 14 15  2  0  0  0
 14102  1  0  0  0
 15103  1  0  0  0
 16 17  2  0  0  0
 16 21  1  0  0  0
 16 31  1  0  0  0
 17 18  1  0  0  0
 17104  1  0  0  0
 18 19  2  0  0  0
 18105  1  0  0  0
 19 20  1  0  0  0
 19 24  1  0  0  0
 20 21  2  0  0  0
 20106  1  0  0  0
 21 23  1  0  0  0
 22 28  1  0  0  0
 22 32  2  0  0  0
 26 27  1  0  0  0
 28107  1  0  0  0
 28108  1  0  0  0
 29109  1  0  0  0
 29110  1  0  0  0
 33 34  1  0  0  0
 33 66  1  0  0  0
 33 70  2  0  0  0
 34 36  1  0  0  0
 34 59  1  0  0  0
 34111  1  0  0  0
 35 44  2  0  0  0
 35 45  1  0  0  0
 35 68  1  0  0  0
 36 56  1  0  0  0
 36112  1  0  0  0
 37 39  1  0  0  0
 37 47  1  0  0  0
 37 66  1  0  0  0
 37113  1  0  0  0
 38 43  2  0  0  0
 38 46  1  0  0  0
 38 47  1  0  0  0
 39 64  1  0  0  0
 39 67  2  0  0  0
 40 52  1  0  0  0
 40 53  2  0  0  0
 40 58  1  0  0  0
 41114  1  0  0  0
 41115  1  0  0  0
 41116  1  0  0  0
 41 48  1  0  0  0
 42 43  1  0  0  0
 42 66  1  0  0  0
 42117  1  0  0  0
 42118  1  0  0  0
 43 44  1  0  0  0
 44119  1  0  0  0
 45 46  2  0  0  0
 45120  1  0  0  0
 46121  1  0  0  0
 47122  1  0  0  0
 47123  1  0  0  0
 48 56  1  0  0  0
 48 65  1  0  0  0
 48124  1  0  0  0
 49 50  1  0  0  0
 49 53  1  0  0  0
 49 64  1  0  0  0
 49125  1  0  0  0
 50 51  1  0  0  0
 50126  1  0  0  0
 50127  1  0  0  0
 51 52  1  0  0  0
 51128  1  0  0  0
 51129  1  0  0  0
 52130  1  0  0  0
 52131  1  0  0  0
 53 54  1  0  0  0
 54 55  2  0  0  0
 54132  1  0  0  0
 55 57  1  0  0  0
 55133  1  0  0  0
 56 69  2  0  0  0
 57 58  2  0  0  0
 57134  1  0  0  0
 58135  1  0  0  0
 59 60  1  0  0  0
 59 61  1  0  0  0
 59 62  1  0  0  0
 60136  1  0  0  0
 60137  1  0  0  0
 60138  1  0  0  0
 61139  1  0  0  0
 61140  1  0  0  0
 61141  1  0  0  0
 62142  1  0  0  0
 62143  1  0  0  0
 62144  1  0  0  0
 63 65  1  0  0  0
 63145  1  0  0  0
 63146  1  0  0  0
 63147  1  0  0  0
 64148  1  0  0  0
 65149  1  0  0  0
 68 83  1  0  0  0
 71 73  2  0  0  0
 71 74  1  0  0  0
 71150  1  0  0  0
 72 75  2  0  0  0
 72 76  1  0  0  0
 72151  1  0  0  0
 73 75  1  0  0  0
 73 80  1  0  0  0
 74 76  2  0  0  0
 74 81  1  0  0  0
 75 84  1  0  0  0
 76 86  1  0  0  0
 77152  1  0  0  0
 77153  1  0  0  0
 77154  1  0  0  0
 77 84  1  0  0  0
 78155  1  0  0  0
 78156  1  0  0  0
 78157  1  0  0  0
 78 85  1  0  0  0
 79 85  1  0  0  0
 79158  1  0  0  0
 79159  1  0  0  0
 79160  1  0  0  0
 80 82  1  0  0  0
 80161  1  0  0  0
 80162  1  0  0  0
 81 87  1  0  0  0
 81163  1  0  0  0
 81164  1  0  0  0
 82 83  1  0  0  0
 82165  1  0  0  0
 82166  1  0  0  0
 83167  1  0  0  0
 83168  1  0  0  0
 84 85  1  0  0  0
 84169  1  0  0  0
 85170  1  0  0  0
 86 88  1  0  0  0
 86 89  1  0  0  0
 86 90  1  0  0  0
 87171  1  0  0  0
M  ISO  4   1 100  68 101  83 101  87 100
M  END
> <chiral flag>
0

> <version>
0

> <s_m_source_file>
/data/baiqing/PycharmProjects/Reinvent-master-3.2/result/LINK_invent/BTK/process_docking_weight1_custom_sum_contain_oxygen_bond_distance_aromatic_linkinvent_7_9_3/rearranged_h_0103.sdf

> <i_m_source_file_index>
47

> <r_mmod_Potential_Energy-OPLS-2005>
175.389129638672

> <r_mmod_Stretch_Energy-OPLS-2005>
111.780044555664

> <r_mmod_Bend_Energy-OPLS-2005>
165.21955871582

> <r_mmod_Torsional_Energy-OPLS-2005>
245.931793212891

> <r_mmod_Improper_Torsional_Energy-OPLS-2005>
6.5019736289978

> <r_mmod_Van_der_Waal_Energy-OPLS-2005>
151.30094909668

> <r_mmod_Electrostatic_Energy-OPLS-2005>
-395.986663818359

> <r_mmod_Solvation_Energy-OPLS-2005>
-192.43684387207

> <b_mmod_Minimization_Converged-OPLS-2005>
0

> <r_mmod_RMS_Derivative-OPLS-2005>
7.0397481918335

$$$$
47
                    3D
 Structure written by MMmdl.
170178  0  0  1  0            999 V2000
  -30.5865  -14.7560   20.4423 C   0  0  0  0  0  0
  -30.4582  -12.4614   19.4546 C   0  0  0  0  0  0
  -29.5152  -12.4987   18.2292 C   0  0  0  0  0  0
  -28.0411  -12.3200   18.6488 C   0  0  0  0  0  0
  -27.6472  -13.2180   19.8492 C   0  0  2  0  0  0
  -28.7021  -13.1432   20.9749 C   0  0  0  0  0  0
  -25.2570  -13.8149   20.5700 C   0  0  0  0  0  0
  -24.1835  -13.0431   20.9163 C   0  0  0  0  0  0
  -24.6384  -11.6882   20.8709 C   0  0  0  0  0  0
  -23.9034  -10.4274   21.0365 C   0  0  0  0  0  0
  -24.3585   -9.4215   21.9175 C   0  0  0  0  0  0
  -23.6274   -8.2253   22.0742 C   0  0  0  0  0  0
  -22.4268   -8.0254   21.3516 C   0  0  0  0  0  0
  -21.9879   -9.0227   20.4638 C   0  0  0  0  0  0
  -22.7189  -10.2121   20.3044 C   0  0  0  0  0  0
  -21.6875   -6.0696   22.5273 C   0  0  0  0  0  0
  -21.4033   -6.5632   23.8192 C   0  0  0  0  0  0
  -21.3652   -5.6807   24.9174 C   0  0  0  0  0  0
  -21.6033   -4.3054   24.7257 C   0  0  0  0  0  0
  -21.8829   -3.8122   23.4388 C   0  0  0  0  0  0
  -21.9206   -4.6920   22.3425 C   0  0  0  0  0  0
  -22.7865  -13.5237   21.1842 C   0  0  0  0  0  0
  -22.1677   -4.2111   21.1008 F   0  0  0  0  0  0
  -21.5606   -3.4534   25.7772 F   0  0  0  0  0  0
  -30.0030  -13.5109   20.3885 N   0  0  0  0  0  0
  -26.2987  -12.9317   20.3300 N   0  0  0  0  0  0
  -25.9320  -11.6476   20.5725 N   0  0  0  0  0  0
  -22.0551  -12.8200   22.0400 N   0  0  0  0  0  0
  -25.4340  -15.1882   20.4093 N   0  0  0  0  0  0
  -31.7708  -14.9364   20.1520 O   0  0  0  0  0  0
  -21.6647   -6.8838   21.4228 O   0  0  0  0  0  0
  -22.3524  -14.5560   20.6705 O   0  0  0  0  0  0
  -24.6294  -31.8593   23.1966 C   0  0  0  0  0  0
  -25.9116  -32.4778   23.8345 C   0  0  1  0  0  0
  -27.2402  -27.2566   20.1225 C   0  0  0  0  0  0
  -25.5913  -33.8579   24.2257 N   0  0  0  0  0  0
  -23.4287  -30.4755   21.5450 C   0  0  2  0  0  0
  -24.8815  -28.9179   20.1178 C   0  0  0  0  0  0
  -22.7510  -29.4611   22.4948 C   0  0  0  0  0  0
  -18.0299  -28.1408   22.8492 C   0  0  0  0  0  0
  -24.1499  -36.7272   23.2636 C   0  0  0  0  0  0
  -25.9762  -30.7638   21.3825 C   0  0  0  0  0  0
  -26.0540  -29.3858   20.7209 C   0  0  0  0  0  0
  -27.2343  -28.5700   20.7093 C   0  0  0  0  0  0
  -26.0376  -26.8625   19.4867 C   0  0  0  0  0  0
  -24.8792  -27.6638   19.4914 C   0  0  0  0  0  0
  -23.6477  -29.8003   20.1661 C   0  0  0  0  0  0
  -25.4136  -36.3082   24.0326 C   0  0  1  0  0  0
  -20.5891  -28.3716   23.1288 C   0  0  2  0  0  0
  -20.6796  -26.9439   22.5417 C   0  0  0  0  0  0
  -19.5767  -26.6400   21.5235 C   0  0  0  0  0  0
  -18.1937  -26.7946   22.1627 C   0  0  0  0  0  0
  -19.1546  -28.8880   23.2876 C   0  0  0  0  0  0
  -18.9466  -30.1482   23.8884 C   0  0  0  0  0  0
  -17.6466  -30.6602   24.0569 C   0  0  0  0  0  0
  -25.9086  -34.9451   23.5105 C   0  0  0  0  0  0
  -16.5353  -29.9092   23.6347 C   0  0  0  0  0  0
  -16.7277  -28.6519   23.0363 C   0  0  0  0  0  0
  -26.4483  -31.6593   25.0724 C   0  0  0  0  0  0
  -25.3658  -31.3729   26.1394 C   0  0  0  0  0  0
  -27.0325  -30.3017   24.6211 C   0  0  0  0  0  0
  -27.6063  -32.4330   25.7447 C   0  0  0  0  0  0
  -27.5597  -37.1783   24.8469 C   0  0  0  0  0  0
  -21.4218  -29.3050   22.3674 N   0  0  0  0  0  0
  -26.4310  -37.3784   23.9405 N   0  0  0  0  0  0
  -24.6986  -31.0506   22.0977 N   0  0  0  0  0  0
  -23.4185  -28.8174   23.3077 O   0  0  0  0  0  0
  -28.3524  -26.3670   20.1543 O   0  0  0  0  0  0
  -26.5667  -34.8912   22.4678 O   0  0  0  0  0  0
  -23.5444  -32.1409   23.7249 O   0  0  0  0  0  0
  -31.1401  -21.7809   18.9491 C   0  0  0  0  0  0
  -31.0406  -21.6578   17.5557 C   0  0  0  0  0  0
  -30.1762  -21.0941   19.7149 C   0  0  0  0  0  0
  -29.8059  -19.7818   19.1552 C   0  0  0  0  0  0
  -29.5377  -19.8974   17.7587 C   0  0  0  0  0  0
  -28.7025  -18.8934   16.9767 C   0  0  0  0  0  0
  -27.7021  -24.7365   21.8446 C   0  0  0  0  0  0
  -32.4517  -18.2169   18.1540 C   0  0  0  0  0  0
  -32.5773  -18.9107   20.5060 C   0  0  0  0  0  0
  -29.1107  -22.1660   20.2650 C   0  0  0  0  0  0
  -29.3318  -23.7904   20.0756 C   0  0  0  0  0  0
  -29.7562  -17.3511   20.6992 C   0  0  0  0  0  0
  -30.3555  -18.2853   19.5409 C   0  0  2  0  0  0
  -28.1541  -24.8783   20.3790 C   0  0  2  0  0  0
  -30.1533  -20.8179   16.9801 N   0  0  0  0  0  0
  -29.7156  -15.8178   20.5844 N   0  0  0  0  0  0
  -31.8374  -18.1171   19.5002 N   0  3  0  0  0  0
  -31.4884  -12.6276   19.1355 H   0  0  0  0  0  0
  -30.4357  -11.4796   19.9370 H   0  0  0  0  0  0
  -29.7932  -11.7311   17.5066 H   0  0  0  0  0  0
  -29.6332  -13.4522   17.7152 H   0  0  0  0  0  0
  -27.8961  -11.2698   18.9104 H   0  0  0  0  0  0
  -27.3850  -12.5135   17.8015 H   0  0  0  0  0  0
  -27.6382  -14.2367   19.4658 H   0  0  0  0  0  0
  -28.7482  -12.1425   21.4014 H   0  0  0  0  0  0
  -28.4392  -13.8059   21.8010 H   0  0  0  0  0  0
  -25.2733   -9.5712   22.4739 H   0  0  0  0  0  0
  -23.9988   -7.4649   22.7446 H   0  0  0  0  0  0
  -21.0820   -8.8713   19.8954 H   0  0  0  0  0  0
  -22.3602  -10.9637   19.6143 H   0  0  0  0  0  0
  -21.2048   -7.6140   23.9698 H   0  0  0  0  0  0
  -21.1448   -6.0532   25.9073 H   0  0  0  0  0  0
  -22.0612   -2.7577   23.2921 H   0  0  0  0  0  0
  -22.4195  -11.9845   22.4743 H   0  0  0  0  0  0
  -21.1160  -13.1149   22.2669 H   0  0  0  0  0  0
  -24.6700  -15.8469   20.5089 H   0  0  0  0  0  0
  -26.2765  -15.6134   20.0457 H   0  0  0  0  0  0
  -26.7158  -32.5409   23.1074 H   0  0  0  0  0  0
  -25.0030  -33.9755   25.0377 H   0  0  0  0  0  0
  -22.7244  -31.2969   21.3953 H   0  0  0  0  0  0
  -23.3799  -35.9566   23.3317 H   0  0  0  0  0  0
  -24.3603  -36.8890   22.2054 H   0  0  0  0  0  0
  -23.7211  -37.6455   23.6661 H   0  0  0  0  0  0
  -26.1197  -31.5284   20.6160 H   0  0  0  0  0  0
  -26.8494  -30.8117   22.0200 H   0  0  0  0  0  0
  -28.1325  -28.9287   21.1914 H   0  0  0  0  0  0
  -25.9676  -25.9159   18.9736 H   0  0  0  0  0  0
  -23.9786  -27.3055   19.0122 H   0  0  0  0  0  0
  -23.7529  -30.5702   19.4007 H   0  0  0  0  0  0
  -22.7658  -29.2248   19.8750 H   0  0  0  0  0  0
  -25.1310  -36.1960   25.0819 H   0  0  0  0  0  0
  -20.9968  -28.3296   24.1423 H   0  0  0  0  0  0
  -20.5787  -26.2303   23.3618 H   0  0  0  0  0  0
  -21.6651  -26.7532   22.1152 H   0  0  0  0  0  0
  -19.6952  -25.6323   21.1261 H   0  0  0  0  0  0
  -19.6704  -27.3217   20.6776 H   0  0  0  0  0  0
  -17.4222  -26.6732   21.4018 H   0  0  0  0  0  0
  -18.0312  -26.0082   22.9014 H   0  0  0  0  0  0
  -19.7938  -30.7327   24.2217 H   0  0  0  0  0  0
  -17.5010  -31.6273   24.5191 H   0  0  0  0  0  0
  -15.5352  -30.2989   23.7699 H   0  0  0  0  0  0
  -15.8676  -28.0843   22.7078 H   0  0  0  0  0  0
  -24.5858  -30.7095   25.7661 H   0  0  0  0  0  0
  -24.8795  -32.2872   26.4793 H   0  0  0  0  0  0
  -25.7888  -30.8883   27.0192 H   0  0  0  0  0  0
  -26.2912  -29.6757   24.1232 H   0  0  0  0  0  0
  -27.4019  -29.7297   25.4732 H   0  0  0  0  0  0
  -27.8781  -30.4324   23.9453 H   0  0  0  0  0  0
  -27.2748  -33.3676   26.1978 H   0  0  0  0  0  0
  -28.3837  -32.6827   25.0211 H   0  0  0  0  0  0
  -28.0752  -31.8472   26.5355 H   0  0  0  0  0  0
  -28.2604  -38.0091   24.7556 H   0  0  0  0  0  0
  -28.1102  -36.2629   24.6260 H   0  0  0  0  0  0
  -27.2309  -37.1378   25.8866 H   0  0  0  0  0  0
  -20.9428  -29.8678   21.6780 H   0  0  0  0  0  0
  -26.0212  -38.2864   24.1418 H   0  0  0  0  0  0
  -31.6581  -22.6571   19.3153 H   0  0  0  0  0  0
  -31.5961  -22.3221   16.9075 H   0  0  0  0  0  0
  -27.8088  -18.6197   17.5385 H   0  0  0  0  0  0
  -29.2612  -17.9885   16.7379 H   0  0  0  0  0  0
  -28.3766  -19.3186   16.0247 H   0  0  0  0  0  0
  -27.5130  -23.6975   22.1104 H   0  0  0  0  0  0
  -26.7813  -25.2850   22.0367 H   0  0  0  0  0  0
  -28.4623  -25.1159   22.5288 H   0  0  0  0  0  0
  -33.5050  -17.9364   18.2045 H   0  0  0  0  0  0
  -32.4071  -19.2294   17.7605 H   0  0  0  0  0  0
  -31.9791  -17.5524   17.4297 H   0  0  0  0  0  0
  -33.5889  -18.5177   20.6197 H   0  0  0  0  0  0
  -32.0977  -18.8849   21.4848 H   0  0  0  0  0  0
  -32.6665  -19.9526   20.2037 H   0  0  0  0  0  0
  -28.9740  -21.9538   21.3273 H   0  0  0  0  0  0
  -28.1620  -21.9117   19.7913 H   0  0  0  0  0  0
  -29.6245  -23.9616   19.0410 H   0  0  0  0  0  0
  -30.1990  -24.0745   20.6720 H   0  0  0  0  0  0
  -30.1923  -17.6185   21.6608 H   0  0  0  0  0  0
  -28.7052  -17.6277   20.7877 H   0  0  0  0  0  0
  -30.0575  -17.6670   18.7007 H   0  0  0  0  0  0
  -27.3306  -24.5473   19.7489 H   0  0  0  0  0  0
  -28.7778  -15.4688   20.7029 H   0  0  0  0  0  0
  -31.9744  -17.1454   19.7578 H   0  0  0  0  0  0
  1 25  1  0  0  0
  1 30  2  0  0  0
  1 86  1  0  0  0
  2  3  1  0  0  0
  2 25  1  0  0  0
  2 88  1  0  0  0
  2 89  1  0  0  0
  3  4  1  0  0  0
  3 90  1  0  0  0
  3 91  1  0  0  0
  4  5  1  0  0  0
  4 92  1  0  0  0
  4 93  1  0  0  0
  5  6  1  0  0  0
  5 26  1  0  0  0
  5 94  1  0  0  0
  6 25  1  0  0  0
  6 95  1  0  0  0
  6 96  1  0  0  0
  7  8  2  0  0  0
  7 26  1  0  0  0
  7 29  1  0  0  0
  8  9  1  0  0  0
  8 22  1  0  0  0
  9 10  1  0  0  0
  9 27  2  0  0  0
 10 11  2  0  0  0
 10 15  1  0  0  0
 11 12  1  0  0  0
 11 97  1  0  0  0
 12 13  2  0  0  0
 12 98  1  0  0  0
 13 14  1  0  0  0
 13 31  1  0  0  0
 14 15  2  0  0  0
 14 99  1  0  0  0
 15100  1  0  0  0
 16 17  2  0  0  0
 16 21  1  0  0  0
 16 31  1  0  0  0
 17 18  1  0  0  0
 17101  1  0  0  0
 18 19  2  0  0  0
 18102  1  0  0  0
 19 20  1  0  0  0
 19 24  1  0  0  0
 20 21  2  0  0  0
 20103  1  0  0  0
 21 23  1  0  0  0
 22 28  1  0  0  0
 22 32  2  0  0  0
 26 27  1  0  0  0
 28104  1  0  0  0
 28105  1  0  0  0
 29106  1  0  0  0
 29107  1  0  0  0
 33 34  1  0  0  0
 33 66  1  0  0  0
 33 70  2  0  0  0
 34 36  1  0  0  0
 34 59  1  0  0  0
 34108  1  0  0  0
 35 44  2  0  0  0
 35 45  1  0  0  0
 35 68  1  0  0  0
 36 56  1  0  0  0
 36109  1  0  0  0
 37 39  1  0  0  0
 37 47  1  0  0  0
 37 66  1  0  0  0
 37110  1  0  0  0
 38 43  2  0  0  0
 38 46  1  0  0  0
 38 47  1  0  0  0
 39 64  1  0  0  0
 39 67  2  0  0  0
 40 52  1  0  0  0
 40 53  2  0  0  0
 40 58  1  0  0  0
 41111  1  0  0  0
 41112  1  0  0  0
 41113  1  0  0  0
 41 48  1  0  0  0
 42 43  1  0  0  0
 42 66  1  0  0  0
 42114  1  0  0  0
 42115  1  0  0  0
 43 44  1  0  0  0
 44116  1  0  0  0
 45 46  2  0  0  0
 45117  1  0  0  0
 46118  1  0  0  0
 47119  1  0  0  0
 47120  1  0  0  0
 48 56  1  0  0  0
 48 65  1  0  0  0
 48121  1  0  0  0
 49 50  1  0  0  0
 49 53  1  0  0  0
 49 64  1  0  0  0
 49122  1  0  0  0
 50 51  1  0  0  0
 50123  1  0  0  0
 50124  1  0  0  0
 51 52  1  0  0  0
 51125  1  0  0  0
 51126  1  0  0  0
 52127  1  0  0  0
 52128  1  0  0  0
 53 54  1  0  0  0
 54 55  2  0  0  0
 54129  1  0  0  0
 55 57  1  0  0  0
 55130  1  0  0  0
 56 69  2  0  0  0
 57 58  2  0  0  0
 57131  1  0  0  0
 58132  1  0  0  0
 59 60  1  0  0  0
 59 61  1  0  0  0
 59 62  1  0  0  0
 60133  1  0  0  0
 60134  1  0  0  0
 60135  1  0  0  0
 61136  1  0  0  0
 61137  1  0  0  0
 61138  1  0  0  0
 62139  1  0  0  0
 62140  1  0  0  0
 62141  1  0  0  0
 63 65  1  0  0  0
 63142  1  0  0  0
 63143  1  0  0  0
 63144  1  0  0  0
 64145  1  0  0  0
 65146  1  0  0  0
 68 84  1  0  0  0
 71 72  2  0  0  0
 71 73  1  0  0  0
 71147  1  0  0  0
 72 85  1  0  0  0
 72148  1  0  0  0
 73 74  2  0  0  0
 73 80  1  0  0  0
 74 75  1  0  0  0
 74 83  1  0  0  0
 75 76  1  0  0  0
 75 85  2  0  0  0
 76149  1  0  0  0
 76150  1  0  0  0
 76151  1  0  0  0
 77152  1  0  0  0
 77153  1  0  0  0
 77154  1  0  0  0
 77 84  1  0  0  0
 78155  1  0  0  0
 78156  1  0  0  0
 78157  1  0  0  0
 78 87  1  0  0  0
 79 87  1  0  0  0
 79158  1  0  0  0
 79159  1  0  0  0
 79160  1  0  0  0
 80 81  1  0  0  0
 80161  1  0  0  0
 80162  1  0  0  0
 81 84  1  0  0  0
 81163  1  0  0  0
 81164  1  0  0  0
 82 86  1  0  0  0
 82165  1  0  0  0
 82166  1  0  0  0
 82 83  1  0  0  0
 83 87  1  0  0  0
 83167  1  0  0  0
 84168  1  0  0  0
 86169  1  0  0  0
 87170  1  0  0  0
M  CHG  1  87   1
M  ISO  4   1 100  68 101  84 101  86 100
M  END
> <chiral flag>
0

> <version>
0

> <s_m_source_file>
/data/baiqing/PycharmProjects/Reinvent-master-3.2/result/LINK_invent/BTK/process_docking_weight1_custom_sum_contain_oxygen_bond_distance_aromatic_linkinvent_7_9_3/rearranged_h_0103.sdf

> <i_m_source_file_index>
48

> <r_mmod_Potential_Energy-OPLS-2005>
192.571975708008

> <r_mmod_Stretch_Energy-OPLS-2005>
161.345947265625

> <r_mmod_Bend_Energy-OPLS-2005>
249.880218505859

> <r_mmod_Torsional_Energy-OPLS-2005>
461.930969238281

> <r_mmod_Improper_Torsional_Energy-OPLS-2005>
35.303352355957

> <r_mmod_Van_der_Waal_Energy-OPLS-2005>
143.039703369141

> <r_mmod_Electrostatic_Energy-OPLS-2005>
-541.912109375

> <r_mmod_Solvation_Energy-OPLS-2005>
-407.498840332031

> <b_mmod_Minimization_Converged-OPLS-2005>
0

> <r_mmod_RMS_Derivative-OPLS-2005>
4.68861675262451

$$$$
48
                    3D
 Structure written by MMmdl.
154162  0  0  1  0            999 V2000
  -30.5092  -15.0331   20.4821 C   0  0  0  0  0  0
  -30.4346  -12.6439   19.5611 C   0  0  0  0  0  0
  -29.5392  -12.5534   18.3004 C   0  0  0  0  0  0
  -28.0759  -12.3082   18.7008 C   0  0  0  0  0  0
  -27.6238  -13.2527   19.8410 C   0  0  2  0  0  0
  -28.6475  -13.3223   20.9960 C   0  0  0  0  0  0
  -25.2427  -13.8209   20.5671 C   0  0  0  0  0  0
  -24.1747  -13.0429   20.9191 C   0  0  0  0  0  0
  -24.6349  -11.6919   20.8708 C   0  0  0  0  0  0
  -23.9021  -10.4275   21.0355 C   0  0  0  0  0  0
  -24.3590   -9.4226   21.9154 C   0  0  0  0  0  0
  -23.6276   -8.2266   22.0741 C   0  0  0  0  0  0
  -22.4264   -8.0256   21.3534 C   0  0  0  0  0  0
  -21.9874   -9.0204   20.4639 C   0  0  0  0  0  0
  -22.7169  -10.2096   20.3029 C   0  0  0  0  0  0
  -21.6858   -6.0701   22.5265 C   0  0  0  0  0  0
  -21.4013   -6.5615   23.8194 C   0  0  0  0  0  0
  -21.3681   -5.6784   24.9169 C   0  0  0  0  0  0
  -21.6085   -4.3041   24.7222 C   0  0  0  0  0  0
  -21.8815   -3.8117   23.4343 C   0  0  0  0  0  0
  -21.9210   -4.6944   22.3393 C   0  0  0  0  0  0
  -22.7782  -13.5225   21.1870 C   0  0  0  0  0  0
  -22.1667   -4.2133   21.0971 F   0  0  0  0  0  0
  -21.5652   -3.4529   25.7731 F   0  0  0  0  0  0
  -29.9236  -13.7581   20.4257 N   0  0  0  0  0  0
  -26.2844  -12.9445   20.3217 N   0  0  0  0  0  0
  -25.9283  -11.6560   20.5661 N   0  0  0  0  0  0
  -22.0452  -12.8215   22.0451 N   0  0  0  0  0  0
  -25.4083  -15.1927   20.4019 N   0  0  0  0  0  0
  -31.6975  -15.0852   20.1402 O   0  0  0  0  0  0
  -21.6659   -6.8834   21.4215 O   0  0  0  0  0  0
  -22.3483  -14.5524   20.6701 O   0  0  0  0  0  0
  -24.6383  -31.8450   23.1877 C   0  0  0  0  0  0
  -25.9156  -32.4712   23.8289 C   0  0  1  0  0  0
  -27.2022  -27.0939   20.2231 C   0  0  0  0  0  0
  -25.5942  -33.8520   24.2221 N   0  0  0  0  0  0
  -23.4461  -30.4595   21.5335 C   0  0  2  0  0  0
  -24.9027  -28.8785   20.1175 C   0  0  0  0  0  0
  -22.7582  -29.4508   22.4874 C   0  0  0  0  0  0
  -18.0302  -28.1373   22.8493 C   0  0  0  0  0  0
  -24.1480  -36.7234   23.2642 C   0  0  0  0  0  0
  -26.0017  -30.7107   21.3910 C   0  0  0  0  0  0
  -26.0746  -29.3102   20.7524 C   0  0  0  0  0  0
  -27.2271  -28.4385   20.7805 C   0  0  0  0  0  0
  -26.0243  -26.7771   19.5164 C   0  0  0  0  0  0
  -24.8944  -27.6316   19.4719 C   0  0  0  0  0  0
  -23.6786  -29.7846   20.1550 C   0  0  0  0  0  0
  -25.4122  -36.3043   24.0322 C   0  0  1  0  0  0
  -20.5925  -28.3669   23.1257 C   0  0  2  0  0  0
  -20.6802  -26.9378   22.5394 C   0  0  0  0  0  0
  -19.5774  -26.6367   21.5203 C   0  0  0  0  0  0
  -18.1942  -26.7910   22.1596 C   0  0  0  0  0  0
  -19.1572  -28.8834   23.2871 C   0  0  0  0  0  0
  -18.9462  -30.1441   23.8892 C   0  0  0  0  0  0
  -17.6463  -30.6572   24.0527 C   0  0  0  0  0  0
  -25.9062  -34.9421   23.5069 C   0  0  0  0  0  0
  -16.5356  -29.9045   23.6333 C   0  0  0  0  0  0
  -16.7280  -28.6445   23.0376 C   0  0  0  0  0  0
  -26.4556  -31.6565   25.0680 C   0  0  0  0  0  0
  -25.3754  -31.3715   26.1350 C   0  0  0  0  0  0
  -27.0468  -30.2996   24.6208 C   0  0  0  0  0  0
  -27.6152  -32.4311   25.7433 C   0  0  0  0  0  0
  -27.5593  -37.1741   24.8487 C   0  0  0  0  0  0
  -21.4270  -29.3010   22.3651 N   0  0  0  0  0  0
  -26.4292  -37.3752   23.9439 N   0  0  0  0  0  0
  -24.7164  -31.0280   22.0935 N   0  0  0  0  0  0
  -23.4238  -28.8069   23.3007 O   0  0  0  0  0  0
  -28.2781  -26.1301   20.2255 O   0  0  0  0  0  0
  -26.5643  -34.8896   22.4636 O   0  0  0  0  0  0
  -23.5476  -32.1367   23.7057 O   0  0  0  0  0  0
  -28.8589  -20.3435   20.0837 C   0  0  0  0  0  0
  -29.2425  -21.2680   22.0057 C   0  0  0  0  0  0
  -28.7272  -21.6567   20.7883 C   0  0  0  0  0  0
  -29.4649  -19.2616   20.7908 C   0  0  0  0  0  0
  -26.5674  -22.9612   20.2220 C   0  0  0  0  0  0
  -30.4661  -19.3689   23.1272 C   0  0  0  0  0  0
  -30.1089  -17.7692   20.3595 C   0  0  0  0  0  0
  -28.3188  -24.7097   20.9060 C   0  0  0  0  0  0
  -28.0916  -23.1421   20.2772 C   0  0  1  0  0  0
  -29.7273  -19.9293   22.0042 N   0  0  0  0  0  0
  -29.7661  -16.2439   20.7262 N   0  0  0  0  0  0
  -31.4692  -12.8107   19.2653 H   0  0  0  0  0  0
  -30.4262  -11.6939   20.1025 H   0  0  0  0  0  0
  -29.8875  -11.7566   17.6436 H   0  0  0  0  0  0
  -29.6091  -13.4763   17.7243 H   0  0  0  0  0  0
  -27.9900  -11.2683   19.0213 H   0  0  0  0  0  0
  -27.4245  -12.4204   17.8332 H   0  0  0  0  0  0
  -27.5697  -14.2404   19.3861 H   0  0  0  0  0  0
  -28.7460  -12.3592   21.4930 H   0  0  0  0  0  0
  -28.3145  -14.0295   21.7567 H   0  0  0  0  0  0
  -25.2717   -9.5764   22.4736 H   0  0  0  0  0  0
  -24.0015   -7.4683   22.7453 H   0  0  0  0  0  0
  -21.0826   -8.8661   19.8932 H   0  0  0  0  0  0
  -22.3559  -10.9619   19.6157 H   0  0  0  0  0  0
  -21.1949   -7.6113   23.9691 H   0  0  0  0  0  0
  -21.1524   -6.0507   25.9084 H   0  0  0  0  0  0
  -22.0570   -2.7574   23.2842 H   0  0  0  0  0  0
  -22.4027  -11.9866   22.4860 H   0  0  0  0  0  0
  -21.1063  -13.1211   22.2589 H   0  0  0  0  0  0
  -24.6368  -15.8429   20.4989 H   0  0  0  0  0  0
  -26.2539  -15.6312   20.0594 H   0  0  0  0  0  0
  -26.7179  -32.5360   23.0993 H   0  0  0  0  0  0
  -25.0212  -33.9689   25.0438 H   0  0  0  0  0  0
  -22.7405  -31.2769   21.3765 H   0  0  0  0  0  0
  -23.3801  -35.9511   23.3272 H   0  0  0  0  0  0
  -24.3591  -36.8876   22.2074 H   0  0  0  0  0  0
  -23.7120  -37.6371   23.6679 H   0  0  0  0  0  0
  -26.1454  -31.4543   20.6063 H   0  0  0  0  0  0
  -26.8781  -30.7875   22.0204 H   0  0  0  0  0  0
  -28.1295  -28.7702   21.2728 H   0  0  0  0  0  0
  -25.9733  -25.8394   18.9831 H   0  0  0  0  0  0
  -24.0103  -27.3189   18.9348 H   0  0  0  0  0  0
  -23.8116  -30.5586   19.3989 H   0  0  0  0  0  0
  -22.7914  -29.2272   19.8540 H   0  0  0  0  0  0
  -25.1279  -36.1925   25.0809 H   0  0  0  0  0  0
  -21.0022  -28.3223   24.1371 H   0  0  0  0  0  0
  -20.5681  -26.2280   23.3595 H   0  0  0  0  0  0
  -21.6662  -26.7342   22.1182 H   0  0  0  0  0  0
  -19.6943  -25.6276   21.1226 H   0  0  0  0  0  0
  -19.6729  -27.3186   20.6741 H   0  0  0  0  0  0
  -17.4220  -26.6668   21.3993 H   0  0  0  0  0  0
  -18.0300  -26.0046   22.8967 H   0  0  0  0  0  0
  -19.7946  -30.7270   24.2261 H   0  0  0  0  0  0
  -17.4986  -31.6259   24.5109 H   0  0  0  0  0  0
  -15.5347  -30.2914   23.7660 H   0  0  0  0  0  0
  -15.8675  -28.0721   22.7139 H   0  0  0  0  0  0
  -24.5920  -30.7119   25.7571 H   0  0  0  0  0  0
  -24.8961  -32.2897   26.4768 H   0  0  0  0  0  0
  -25.7971  -30.8813   27.0125 H   0  0  0  0  0  0
  -26.3093  -29.6668   24.1243 H   0  0  0  0  0  0
  -27.4222  -29.7298   25.4716 H   0  0  0  0  0  0
  -27.8921  -30.4316   23.9449 H   0  0  0  0  0  0
  -27.2841  -33.3642   26.2003 H   0  0  0  0  0  0
  -28.3956  -32.6808   25.0231 H   0  0  0  0  0  0
  -28.0862  -31.8441   26.5329 H   0  0  0  0  0  0
  -28.2561  -38.0084   24.7580 H   0  0  0  0  0  0
  -28.1113  -36.2600   24.6245 H   0  0  0  0  0  0
  -27.2322  -37.1305   25.8889 H   0  0  0  0  0  0
  -20.9467  -29.8715   21.6836 H   0  0  0  0  0  0
  -26.0185  -38.2805   24.1520 H   0  0  0  0  0  0
  -28.5559  -20.2348   19.0520 H   0  0  0  0  0  0
  -29.3459  -21.8638   22.9055 H   0  0  0  0  0  0
  -26.2949  -22.0706   19.6589 H   0  0  0  0  0  0
  -26.0770  -23.8122   19.7546 H   0  0  0  0  0  0
  -26.1511  -22.8593   21.2251 H   0  0  0  0  0  0
  -30.6584  -20.1373   23.8805 H   0  0  0  0  0  0
  -31.4331  -19.0018   22.7814 H   0  0  0  0  0  0
  -29.9112  -18.5575   23.5987 H   0  0  0  0  0  0
  -31.1809  -17.8523   20.5526 H   0  0  0  0  0  0
  -30.0546  -17.7608   19.2704 H   0  0  0  0  0  0
  -29.3503  -24.6692   21.2546 H   0  0  0  0  0  0
  -27.7433  -24.7964   21.8297 H   0  0  0  0  0  0
  -28.4375  -23.2216   19.2498 H   0  0  0  0  0  0
  -28.8153  -16.0861   21.0269 H   0  0  0  0  0  0
  1 25  1  0  0  0
  1 30  2  0  0  0
  1 81  1  0  0  0
  2  3  1  0  0  0
  2 25  1  0  0  0
  2 82  1  0  0  0
  2 83  1  0  0  0
  3  4  1  0  0  0
  3 84  1  0  0  0
  3 85  1  0  0  0
  4  5  1  0  0  0
  4 86  1  0  0  0
  4 87  1  0  0  0
  5  6  1  0  0  0
  5 26  1  0  0  0
  5 88  1  0  0  0
  6 25  1  0  0  0
  6 89  1  0  0  0
  6 90  1  0  0  0
  7  8  2  0  0  0
  7 26  1  0  0  0
  7 29  1  0  0  0
  8  9  1  0  0  0
  8 22  1  0  0  0
  9 10  1  0  0  0
  9 27  2  0  0  0
 10 11  2  0  0  0
 10 15  1  0  0  0
 11 12  1  0  0  0
 11 91  1  0  0  0
 12 13  2  0  0  0
 12 92  1  0  0  0
 13 14  1  0  0  0
 13 31  1  0  0  0
 14 15  2  0  0  0
 14 93  1  0  0  0
 15 94  1  0  0  0
 16 17  2  0  0  0
 16 21  1  0  0  0
 16 31  1  0  0  0
 17 18  1  0  0  0
 17 95  1  0  0  0
 18 19  2  0  0  0
 18 96  1  0  0  0
 19 20  1  0  0  0
 19 24  1  0  0  0
 20 21  2  0  0  0
 20 97  1  0  0  0
 21 23  1  0  0  0
 22 28  1  0  0  0
 22 32  2  0  0  0
 26 27  1  0  0  0
 28 98  1  0  0  0
 28 99  1  0  0  0
 29100  1  0  0  0
 29101  1  0  0  0
 33 34  1  0  0  0
 33 66  1  0  0  0
 33 70  2  0  0  0
 34 36  1  0  0  0
 34 59  1  0  0  0
 34102  1  0  0  0
 35 44  2  0  0  0
 35 45  1  0  0  0
 35 68  1  0  0  0
 36 56  1  0  0  0
 36103  1  0  0  0
 37 39  1  0  0  0
 37 47  1  0  0  0
 37 66  1  0  0  0
 37104  1  0  0  0
 38 43  2  0  0  0
 38 46  1  0  0  0
 38 47  1  0  0  0
 39 64  1  0  0  0
 39 67  2  0  0  0
 40 52  1  0  0  0
 40 53  2  0  0  0
 40 58  1  0  0  0
 41105  1  0  0  0
 41106  1  0  0  0
 41107  1  0  0  0
 41 48  1  0  0  0
 42 43  1  0  0  0
 42 66  1  0  0  0
 42108  1  0  0  0
 42109  1  0  0  0
 43 44  1  0  0  0
 44110  1  0  0  0
 45 46  2  0  0  0
 45111  1  0  0  0
 46112  1  0  0  0
 47113  1  0  0  0
 47114  1  0  0  0
 48 56  1  0  0  0
 48 65  1  0  0  0
 48115  1  0  0  0
 49 50  1  0  0  0
 49 53  1  0  0  0
 49 64  1  0  0  0
 49116  1  0  0  0
 50 51  1  0  0  0
 50117  1  0  0  0
 50118  1  0  0  0
 51 52  1  0  0  0
 51119  1  0  0  0
 51120  1  0  0  0
 52121  1  0  0  0
 52122  1  0  0  0
 53 54  1  0  0  0
 54 55  2  0  0  0
 54123  1  0  0  0
 55 57  1  0  0  0
 55124  1  0  0  0
 56 69  2  0  0  0
 57 58  2  0  0  0
 57125  1  0  0  0
 58126  1  0  0  0
 59 60  1  0  0  0
 59 61  1  0  0  0
 59 62  1  0  0  0
 60127  1  0  0  0
 60128  1  0  0  0
 60129  1  0  0  0
 61130  1  0  0  0
 61131  1  0  0  0
 61132  1  0  0  0
 62133  1  0  0  0
 62134  1  0  0  0
 62135  1  0  0  0
 63 65  1  0  0  0
 63136  1  0  0  0
 63137  1  0  0  0
 63138  1  0  0  0
 64139  1  0  0  0
 65140  1  0  0  0
 68 78  1  0  0  0
 71 73  1  0  0  0
 71 74  2  0  0  0
 71141  1  0  0  0
 72 73  2  0  0  0
 72 80  1  0  0  0
 72142  1  0  0  0
 73 79  1  0  0  0
 74 77  1  0  0  0
 74 80  1  0  0  0
 75143  1  0  0  0
 75144  1  0  0  0
 75145  1  0  0  0
 75 79  1  0  0  0
 76 80  1  0  0  0
 76146  1  0  0  0
 76147  1  0  0  0
 76148  1  0  0  0
 77 81  1  0  0  0
 77149  1  0  0  0
 77150  1  0  0  0
 78 79  1  0  0  0
 78151  1  0  0  0
 78152  1  0  0  0
 79153  1  0  0  0
 81154  1  0  0  0
M  ISO  4   1 100  68 101  78 101  81 100
M  END
> <chiral flag>
0

> <version>
0

> <s_m_source_file>
/data/baiqing/PycharmProjects/Reinvent-master-3.2/result/LINK_invent/BTK/process_docking_weight1_custom_sum_contain_oxygen_bond_distance_aromatic_linkinvent_7_9_3/rearranged_h_0103.sdf

> <i_m_source_file_index>
49

> <r_mmod_Potential_Energy-OPLS-2005>
601.445251464844

> <r_mmod_Stretch_Energy-OPLS-2005>
310.031585693359

> <r_mmod_Bend_Energy-OPLS-2005>
329.908538818359

> <r_mmod_Torsional_Energy-OPLS-2005>
237.646224975586

> <r_mmod_Improper_Torsional_Energy-OPLS-2005>
6.45264959335327

> <r_mmod_Van_der_Waal_Energy-OPLS-2005>
104.403388977051

> <r_mmod_Electrostatic_Energy-OPLS-2005>
-410.361663818359

> <r_mmod_Solvation_Energy-OPLS-2005>
-214.124496459961

> <b_mmod_Minimization_Converged-OPLS-2005>
0

> <r_mmod_RMS_Derivative-OPLS-2005>
5.91820907592773

$$$$
49
                    3D
 Structure written by MMmdl.
172180  0  0  1  0            999 V2000
  -30.5984  -14.9490   20.3812 C   0  0  0  0  0  0
  -30.4710  -12.5835   19.4814 C   0  0  0  0  0  0
  -29.5475  -12.4579   18.2533 C   0  0  0  0  0  0
  -28.0733  -12.2580   18.6695 C   0  0  0  0  0  0
  -27.6393  -13.1854   19.8323 C   0  0  2  0  0  0
  -28.7024  -13.2867   20.9521 C   0  0  0  0  0  0
  -25.2656  -13.7998   20.5684 C   0  0  0  0  0  0
  -24.1884  -13.0383   20.9183 C   0  0  0  0  0  0
  -24.6381  -11.6823   20.8771 C   0  0  0  0  0  0
  -23.9023  -10.4273   21.0448 C   0  0  0  0  0  0
  -24.3564   -9.4203   21.9238 C   0  0  0  0  0  0
  -23.6254   -8.2235   22.0817 C   0  0  0  0  0  0
  -22.4249   -8.0265   21.3563 C   0  0  0  0  0  0
  -21.9874   -9.0237   20.4672 C   0  0  0  0  0  0
  -22.7187  -10.2117   20.3093 C   0  0  0  0  0  0
  -21.6863   -6.0686   22.5234 C   0  0  0  0  0  0
  -21.4020   -6.5598   23.8162 C   0  0  0  0  0  0
  -21.3681   -5.6762   24.9131 C   0  0  0  0  0  0
  -21.6064   -4.3019   24.7179 C   0  0  0  0  0  0
  -21.8853   -3.8107   23.4307 C   0  0  0  0  0  0
  -21.9206   -4.6917   22.3348 C   0  0  0  0  0  0
  -22.7919  -13.5278   21.1733 C   0  0  0  0  0  0
  -22.1683   -4.2106   21.0930 F   0  0  0  0  0  0
  -21.5633   -3.4511   25.7703 F   0  0  0  0  0  0
  -29.9627  -13.7053   20.3160 N   0  0  0  0  0  0
  -26.3001  -12.9085   20.3311 N   0  0  0  0  0  0
  -25.9316  -11.6291   20.5805 N   0  0  0  0  0  0
  -22.0412  -12.8418   22.0244 N   0  0  0  0  0  0
  -25.4487  -15.1696   20.3997 N   0  0  0  0  0  0
  -31.8303  -14.9528   20.3012 O   0  0  0  0  0  0
  -21.6661   -6.8827   21.4204 O   0  0  0  0  0  0
  -22.3705  -14.5571   20.6455 O   0  0  0  0  0  0
  -24.6383  -31.8455   23.1934 C   0  0  0  0  0  0
  -25.9165  -32.4692   23.8307 C   0  0  1  0  0  0
  -27.2227  -27.1643   20.1696 C   0  0  0  0  0  0
  -25.5932  -33.8507   24.2217 N   0  0  0  0  0  0
  -23.4400  -30.4656   21.5357 C   0  0  2  0  0  0
  -24.8926  -28.8972   20.1087 C   0  0  0  0  0  0
  -22.7516  -29.4553   22.4882 C   0  0  0  0  0  0
  -18.0275  -28.1370   22.8481 C   0  0  0  0  0  0
  -24.1473  -36.7224   23.2654 C   0  0  0  0  0  0
  -25.9914  -30.7339   21.3866 C   0  0  0  0  0  0
  -26.0639  -29.3484   20.7259 C   0  0  0  0  0  0
  -27.2261  -28.4971   20.7372 C   0  0  0  0  0  0
  -26.0256  -26.8048   19.5096 C   0  0  0  0  0  0
  -24.8852  -27.6405   19.4841 C   0  0  0  0  0  0
  -23.6632  -29.7902   20.1554 C   0  0  0  0  0  0
  -25.4109  -36.3025   24.0323 C   0  0  1  0  0  0
  -20.5874  -28.3696   23.1237 C   0  0  2  0  0  0
  -20.6732  -26.9401   22.5412 C   0  0  0  0  0  0
  -19.5714  -26.6359   21.5207 C   0  0  0  0  0  0
  -18.1896  -26.7919   22.1615 C   0  0  0  0  0  0
  -19.1534  -28.8859   23.2841 C   0  0  0  0  0  0
  -18.9468  -30.1446   23.8862 C   0  0  0  0  0  0
  -17.6471  -30.6587   24.0548 C   0  0  0  0  0  0
  -25.9058  -34.9400   23.5071 C   0  0  0  0  0  0
  -16.5355  -29.9075   23.6340 C   0  0  0  0  0  0
  -16.7265  -28.6483   23.0388 C   0  0  0  0  0  0
  -26.4538  -31.6555   25.0729 C   0  0  0  0  0  0
  -25.3752  -31.3736   26.1441 C   0  0  0  0  0  0
  -27.0418  -30.2949   24.6312 C   0  0  0  0  0  0
  -27.6056  -32.4349   25.7521 C   0  0  0  0  0  0
  -27.5553  -37.1758   24.8463 C   0  0  0  0  0  0
  -21.4210  -29.3042   22.3618 N   0  0  0  0  0  0
  -26.4264  -37.3735   23.9417 N   0  0  0  0  0  0
  -24.7089  -31.0347   22.0932 N   0  0  0  0  0  0
  -23.4171  -28.8076   23.2999 O   0  0  0  0  0  0
  -28.3122  -26.2362   20.3103 O   0  0  0  0  0  0
  -26.5655  -34.8890   22.4658 O   0  0  0  0  0  0
  -23.5518  -32.1313   23.7176 O   0  0  0  0  0  0
  -28.8341  -16.3012   19.2625 C   0  0  0  0  0  0
  -30.2422  -17.5987   20.8702 C   0  0  0  0  0  0
  -28.6250  -17.6196   18.4423 C   0  0  0  0  0  0
  -29.4929  -18.9654   20.2970 C   0  0  1  0  0  0
  -29.7246  -23.8348   21.8909 C   0  0  0  0  0  0
  -30.4404  -19.9769   16.8967 C   0  0  0  0  0  0
  -31.4081  -17.7224   17.5825 C   0  0  0  0  0  0
  -31.9192  -21.6069   21.3649 C   0  0  0  0  0  0
  -29.0274  -21.9071   20.1334 C   0  0  0  0  0  0
  -28.3446  -24.7506   19.8825 C   0  0  0  0  0  0
  -29.7810  -20.5484   20.7915 C   0  0  2  0  0  0
  -28.7143  -23.4162   20.8179 C   0  0  2  0  0  0
  -30.7045  -19.0105   18.0598 C   0  0  0  0  0  0
  -29.8784  -16.1870   20.3049 N   0  0  0  0  0  0
  -29.4306  -18.8070   18.8254 N   0  3  1  0  0  0
  -31.2018  -20.6196   20.6467 O   0  0  0  0  0  0
  -31.4926  -12.7647   19.1447 H   0  0  0  0  0  0
  -30.5029  -11.6490   20.0455 H   0  0  0  0  0  0
  -29.8730  -11.6154   17.6413 H   0  0  0  0  0  0
  -29.6531  -13.3422   17.6248 H   0  0  0  0  0  0
  -27.9502  -11.2149   18.9608 H   0  0  0  0  0  0
  -27.4293  -12.4135   17.8035 H   0  0  0  0  0  0
  -27.5480  -14.1380   19.3455 H   0  0  0  0  0  0
  -28.8231  -12.3308   21.4668 H   0  0  0  0  0  0
  -28.4033  -14.0109   21.7099 H   0  0  0  0  0  0
  -25.2690   -9.5690   22.4849 H   0  0  0  0  0  0
  -23.9942   -7.4644   22.7561 H   0  0  0  0  0  0
  -21.0812   -8.8738   19.8955 H   0  0  0  0  0  0
  -22.3643  -10.9674   19.6219 H   0  0  0  0  0  0
  -21.2027   -7.6110   23.9640 H   0  0  0  0  0  0
  -21.1487   -6.0487   25.9029 H   0  0  0  0  0  0
  -22.0625   -2.7559   23.2802 H   0  0  0  0  0  0
  -22.3879  -12.0102   22.4809 H   0  0  0  0  0  0
  -21.1037  -13.1593   22.2232 H   0  0  0  0  0  0
  -24.7017  -15.8460   20.5061 H   0  0  0  0  0  0
  -26.3084  -15.5738   20.0569 H   0  0  0  0  0  0
  -26.7226  -32.5320   23.1041 H   0  0  0  0  0  0
  -25.0066  -33.9648   25.0358 H   0  0  0  0  0  0
  -22.7391  -31.2896   21.3825 H   0  0  0  0  0  0
  -23.3760  -35.9523   23.3281 H   0  0  0  0  0  0
  -24.3565  -36.8897   22.2074 H   0  0  0  0  0  0
  -23.7185  -37.6389   23.6719 H   0  0  0  0  0  0
  -26.1418  -31.4974   20.6231 H   0  0  0  0  0  0
  -26.8612  -30.7819   22.0300 H   0  0  0  0  0  0
  -28.1183  -28.8365   21.2432 H   0  0  0  0  0  0
  -25.9155  -25.8424   19.0383 H   0  0  0  0  0  0
  -23.9848  -27.2931   18.9977 H   0  0  0  0  0  0
  -23.7823  -30.5617   19.3943 H   0  0  0  0  0  0
  -22.7823  -29.2209   19.8547 H   0  0  0  0  0  0
  -25.1302  -36.1854   25.0814 H   0  0  0  0  0  0
  -20.9971  -28.3293   24.1353 H   0  0  0  0  0  0
  -20.5576  -26.2333   23.3634 H   0  0  0  0  0  0
  -21.6596  -26.7355   22.1239 H   0  0  0  0  0  0
  -19.6862  -25.6258   21.1262 H   0  0  0  0  0  0
  -19.6653  -27.3146   20.6713 H   0  0  0  0  0  0
  -17.4162  -26.6692   21.4012 H   0  0  0  0  0  0
  -18.0272  -26.0041   22.8990 H   0  0  0  0  0  0
  -19.7948  -30.7264   24.2214 H   0  0  0  0  0  0
  -17.5037  -31.6280   24.5119 H   0  0  0  0  0  0
  -15.5359  -30.2992   23.7666 H   0  0  0  0  0  0
  -15.8652  -28.0790   22.7158 H   0  0  0  0  0  0
  -24.5900  -30.7120   25.7763 H   0  0  0  0  0  0
  -24.8995  -32.2927   26.4873 H   0  0  0  0  0  0
  -25.8064  -30.8895   27.0211 H   0  0  0  0  0  0
  -26.3043  -29.6660   24.1303 H   0  0  0  0  0  0
  -27.4003  -29.7262   25.4908 H   0  0  0  0  0  0
  -27.8963  -30.4179   23.9648 H   0  0  0  0  0  0
  -27.2602  -33.3643   26.2063 H   0  0  0  0  0  0
  -28.3883  -32.6927   25.0374 H   0  0  0  0  0  0
  -28.0698  -31.8511   26.5481 H   0  0  0  0  0  0
  -28.2560  -38.0066   24.7528 H   0  0  0  0  0  0
  -28.1065  -36.2599   24.6278 H   0  0  0  0  0  0
  -27.2270  -37.1367   25.8865 H   0  0  0  0  0  0
  -20.9405  -29.8831   21.6871 H   0  0  0  0  0  0
  -26.0127  -38.2790   24.1480 H   0  0  0  0  0  0
  -28.9625  -15.5105   18.5217 H   0  0  0  0  0  0
  -27.8982  -16.1320   19.7847 H   0  0  0  0  0  0
  -30.0729  -17.5543   21.9452 H   0  0  0  0  0  0
  -31.3211  -17.7212   20.7664 H   0  0  0  0  0  0
  -27.5792  -17.9042   18.5577 H   0  0  0  0  0  0
  -28.6998  -17.4328   17.3709 H   0  0  0  0  0  0
  -28.4547  -18.8381   20.6145 H   0  0  0  0  0  0
  -29.3205  -24.6398   22.5048 H   0  0  0  0  0  0
  -30.6515  -24.1998   21.4522 H   0  0  0  0  0  0
  -29.9276  -23.0213   22.5809 H   0  0  0  0  0  0
  -31.3639  -20.2350   16.3762 H   0  0  0  0  0  0
  -30.0043  -20.9132   17.2473 H   0  0  0  0  0  0
  -29.7530  -19.5467   16.1668 H   0  0  0  0  0  0
  -32.2894  -17.9717   16.9932 H   0  0  0  0  0  0
  -30.7908  -17.0936   16.9447 H   0  0  0  0  0  0
  -31.7571  -17.1262   18.4238 H   0  0  0  0  0  0
  -31.9476  -22.5511   20.8213 H   0  0  0  0  0  0
  -32.9509  -21.2791   21.4802 H   0  0  0  0  0  0
  -31.5331  -21.7488   22.3701 H   0  0  0  0  0  0
  -28.0316  -21.5513   19.8639 H   0  0  0  0  0  0
  -29.5034  -22.0948   19.1715 H   0  0  0  0  0  0
  -27.4485  -24.4894   19.3272 H   0  0  0  0  0  0
  -29.1181  -24.7524   19.1150 H   0  0  0  0  0  0
  -29.5581  -20.5526   21.8586 H   0  0  0  0  0  0
  -27.8086  -23.2349   21.4017 H   0  0  0  0  0  0
  -31.4395  -19.4977   18.6883 H   0  0  0  0  0  0
  -28.8715  -19.5875   18.5129 H   0  0  0  0  0  0
  1 25  1  0  0  0
  1 30  2  0  0  0
  1 84  1  0  0  0
  2  3  1  0  0  0
  2 25  1  0  0  0
  2 87  1  0  0  0
  2 88  1  0  0  0
  3  4  1  0  0  0
  3 89  1  0  0  0
  3 90  1  0  0  0
  4  5  1  0  0  0
  4 91  1  0  0  0
  4 92  1  0  0  0
  5  6  1  0  0  0
  5 26  1  0  0  0
  5 93  1  0  0  0
  6 25  1  0  0  0
  6 94  1  0  0  0
  6 95  1  0  0  0
  7  8  2  0  0  0
  7 26  1  0  0  0
  7 29  1  0  0  0
  8  9  1  0  0  0
  8 22  1  0  0  0
  9 10  1  0  0  0
  9 27  2  0  0  0
 10 11  2  0  0  0
 10 15  1  0  0  0
 11 12  1  0  0  0
 11 96  1  0  0  0
 12 13  2  0  0  0
 12 97  1  0  0  0
 13 14  1  0  0  0
 13 31  1  0  0  0
 14 15  2  0  0  0
 14 98  1  0  0  0
 15 99  1  0  0  0
 16 17  2  0  0  0
 16 21  1  0  0  0
 16 31  1  0  0  0
 17 18  1  0  0  0
 17100  1  0  0  0
 18 19  2  0  0  0
 18101  1  0  0  0
 19 20  1  0  0  0
 19 24  1  0  0  0
 20 21  2  0  0  0
 20102  1  0  0  0
 21 23  1  0  0  0
 22 28  1  0  0  0
 22 32  2  0  0  0
 26 27  1  0  0  0
 28103  1  0  0  0
 28104  1  0  0  0
 29105  1  0  0  0
 29106  1  0  0  0
 33 34  1  0  0  0
 33 66  1  0  0  0
 33 70  2  0  0  0
 34 36  1  0  0  0
 34 59  1  0  0  0
 34107  1  0  0  0
 35 44  2  0  0  0
 35 45  1  0  0  0
 35 68  1  0  0  0
 36 56  1  0  0  0
 36108  1  0  0  0
 37 39  1  0  0  0
 37 47  1  0  0  0
 37 66  1  0  0  0
 37109  1  0  0  0
 38 43  2  0  0  0
 38 46  1  0  0  0
 38 47  1  0  0  0
 39 64  1  0  0  0
 39 67  2  0  0  0
 40 52  1  0  0  0
 40 53  2  0  0  0
 40 58  1  0  0  0
 41110  1  0  0  0
 41111  1  0  0  0
 41112  1  0  0  0
 41 48  1  0  0  0
 42 43  1  0  0  0
 42 66  1  0  0  0
 42113  1  0  0  0
 42114  1  0  0  0
 43 44  1  0  0  0
 44115  1  0  0  0
 45 46  2  0  0  0
 45116  1  0  0  0
 46117  1  0  0  0
 47118  1  0  0  0
 47119  1  0  0  0
 48 56  1  0  0  0
 48 65  1  0  0  0
 48120  1  0  0  0
 49 50  1  0  0  0
 49 53  1  0  0  0
 49 64  1  0  0  0
 49121  1  0  0  0
 50 51  1  0  0  0
 50122  1  0  0  0
 50123  1  0  0  0
 51 52  1  0  0  0
 51124  1  0  0  0
 51125  1  0  0  0
 52126  1  0  0  0
 52127  1  0  0  0
 53 54  1  0  0  0
 54 55  2  0  0  0
 54128  1  0  0  0
 55 57  1  0  0  0
 55129  1  0  0  0
 56 69  2  0  0  0
 57 58  2  0  0  0
 57130  1  0  0  0
 58131  1  0  0  0
 59 60  1  0  0  0
 59 61  1  0  0  0
 59 62  1  0  0  0
 60132  1  0  0  0
 60133  1  0  0  0
 60134  1  0  0  0
 61135  1  0  0  0
 61136  1  0  0  0
 61137  1  0  0  0
 62138  1  0  0  0
 62139  1  0  0  0
 62140  1  0  0  0
 63 65  1  0  0  0
 63141  1  0  0  0
 63142  1  0  0  0
 63143  1  0  0  0
 64144  1  0  0  0
 65145  1  0  0  0
 68 80  1  0  0  0
 71 73  1  0  0  0
 71 84  1  0  0  0
 71146  1  0  0  0
 71147  1  0  0  0
 72 84  1  0  0  0
 72148  1  0  0  0
 72149  1  0  0  0
 72 74  1  0  0  0
 73150  1  0  0  0
 73151  1  0  0  0
 73 85  1  0  0  0
 74 81  1  0  0  0
 74 85  1  0  0  0
 74152  1  0  0  0
 75153  1  0  0  0
 75154  1  0  0  0
 75155  1  0  0  0
 75 82  1  0  0  0
 76156  1  0  0  0
 76157  1  0  0  0
 76158  1  0  0  0
 76 83  1  0  0  0
 77 83  1  0  0  0
 77159  1  0  0  0
 77160  1  0  0  0
 77161  1  0  0  0
 78 86  1  0  0  0
 78162  1  0  0  0
 78163  1  0  0  0
 78164  1  0  0  0
 79 82  1  0  0  0
 79165  1  0  0  0
 79166  1  0  0  0
 79 81  1  0  0  0
 80 82  1  0  0  0
 80167  1  0  0  0
 80168  1  0  0  0
 81 86  1  0  0  0
 81169  1  0  0  0
 82170  1  0  0  0
 83 85  1  0  0  0
 83171  1  0  0  0
 85172  1  0  0  0
M  CHG  1  85   1
M  ISO  4   1 100  68 101  80 101  84 100
M  END
> <chiral flag>
0

> <version>
0

> <s_m_source_file>
/data/baiqing/PycharmProjects/Reinvent-master-3.2/result/LINK_invent/BTK/process_docking_weight1_custom_sum_contain_oxygen_bond_distance_aromatic_linkinvent_7_9_3/rearranged_h_0103.sdf

> <i_m_source_file_index>
50

> <r_mmod_Potential_Energy-OPLS-2005>
747.917297363281

> <r_mmod_Stretch_Energy-OPLS-2005>
252.823364257812

> <r_mmod_Bend_Energy-OPLS-2005>
316.895324707031

> <r_mmod_Torsional_Energy-OPLS-2005>
448.151794433594

> <r_mmod_Improper_Torsional_Energy-OPLS-2005>
5.66714382171631

> <r_mmod_Van_der_Waal_Energy-OPLS-2005>
126.192108154297

> <r_mmod_Electrostatic_Energy-OPLS-2005>
-178.748397827148

> <r_mmod_Solvation_Energy-OPLS-2005>
-410.894195556641

> <b_mmod_Minimization_Converged-OPLS-2005>
0

> <r_mmod_RMS_Derivative-OPLS-2005>
5.55719661712646

$$$$
50
                    3D
 Structure written by MMmdl.
165172  0  0  1  0            999 V2000
  -30.5090  -14.9525   20.4215 C   0  0  0  0  0  0
  -30.4501  -12.5952   19.4670 C   0  0  0  0  0  0
  -29.5161  -12.5198   18.2359 C   0  0  0  0  0  0
  -28.0498  -12.3076   18.6634 C   0  0  0  0  0  0
  -27.6249  -13.2420   19.8246 C   0  0  2  0  0  0
  -28.6744  -13.2591   20.9531 C   0  0  0  0  0  0
  -25.2460  -13.8188   20.5708 C   0  0  0  0  0  0
  -24.1796  -13.0425   20.9285 C   0  0  0  0  0  0
  -24.6389  -11.6907   20.8762 C   0  0  0  0  0  0
  -23.9067  -10.4284   21.0423 C   0  0  0  0  0  0
  -24.3618   -9.4198   21.9203 C   0  0  0  0  0  0
  -23.6290   -8.2234   22.0768 C   0  0  0  0  0  0
  -22.4274   -8.0275   21.3549 C   0  0  0  0  0  0
  -21.9906   -9.0253   20.4657 C   0  0  0  0  0  0
  -22.7237  -10.2129   20.3074 C   0  0  0  0  0  0
  -21.6846   -6.0725   22.5271 C   0  0  0  0  0  0
  -21.4016   -6.5638   23.8202 C   0  0  0  0  0  0
  -21.3656   -5.6799   24.9170 C   0  0  0  0  0  0
  -21.6043   -4.3060   24.7225 C   0  0  0  0  0  0
  -21.8819   -3.8140   23.4349 C   0  0  0  0  0  0
  -21.9195   -4.6953   22.3400 C   0  0  0  0  0  0
  -22.7815  -13.5201   21.1924 C   0  0  0  0  0  0
  -22.1671   -4.2130   21.0980 F   0  0  0  0  0  0
  -21.5622   -3.4553   25.7742 F   0  0  0  0  0  0
  -29.9414  -13.6842   20.3409 N   0  0  0  0  0  0
  -26.2852  -12.9412   20.3149 N   0  0  0  0  0  0
  -25.9302  -11.6548   20.5689 N   0  0  0  0  0  0
  -22.0459  -12.8180   22.0456 N   0  0  0  0  0  0
  -25.4051  -15.1907   20.4056 N   0  0  0  0  0  0
  -31.7331  -15.0500   20.2855 O   0  0  0  0  0  0
  -21.6645   -6.8864   21.4232 O   0  0  0  0  0  0
  -22.3516  -14.5511   20.6757 O   0  0  0  0  0  0
  -24.6445  -31.8427   23.1851 C   0  0  0  0  0  0
  -25.9213  -32.4680   23.8257 C   0  0  1  0  0  0
  -27.2245  -27.1301   20.1629 C   0  0  0  0  0  0
  -25.5950  -33.8490   24.2172 N   0  0  0  0  0  0
  -23.4486  -30.4583   21.5322 C   0  0  2  0  0  0
  -24.8960  -28.8684   20.1235 C   0  0  0  0  0  0
  -22.7558  -29.4554   22.4881 C   0  0  0  0  0  0
  -18.0299  -28.1393   22.8467 C   0  0  0  0  0  0
  -24.1485  -36.7254   23.2642 C   0  0  0  0  0  0
  -26.0031  -30.7149   21.3809 C   0  0  0  0  0  0
  -26.0747  -29.3207   20.7313 C   0  0  0  0  0  0
  -27.2431  -28.4713   20.7224 C   0  0  0  0  0  0
  -26.0174  -26.7653   19.5358 C   0  0  0  0  0  0
  -24.8793  -27.6039   19.5100 C   0  0  0  0  0  0
  -23.6748  -29.7753   20.1563 C   0  0  0  0  0  0
  -25.4116  -36.3029   24.0314 C   0  0  1  0  0  0
  -20.5909  -28.3735   23.1222 C   0  0  2  0  0  0
  -20.6779  -26.9438   22.5394 C   0  0  0  0  0  0
  -19.5764  -26.6381   21.5200 C   0  0  0  0  0  0
  -18.1948  -26.7931   22.1609 C   0  0  0  0  0  0
  -19.1555  -28.8877   23.2835 C   0  0  0  0  0  0
  -18.9473  -30.1467   23.8873 C   0  0  0  0  0  0
  -17.6470  -30.6585   24.0567 C   0  0  0  0  0  0
  -25.9065  -34.9402   23.5052 C   0  0  0  0  0  0
  -16.5359  -29.9088   23.6335 C   0  0  0  0  0  0
  -16.7284  -28.6504   23.0358 C   0  0  0  0  0  0
  -26.4531  -31.6559   25.0710 C   0  0  0  0  0  0
  -25.3708  -31.3753   26.1409 C   0  0  0  0  0  0
  -27.0400  -30.2950   24.6298 C   0  0  0  0  0  0
  -27.6045  -32.4351   25.7497 C   0  0  0  0  0  0
  -27.5576  -37.1779   24.8463 C   0  0  0  0  0  0
  -21.4254  -29.3065   22.3609 N   0  0  0  0  0  0
  -26.4280  -37.3745   23.9411 N   0  0  0  0  0  0
  -24.7190  -31.0272   22.0877 N   0  0  0  0  0  0
  -23.4193  -28.8118   23.3051 O   0  0  0  0  0  0
  -28.3185  -26.1965   20.1094 O   0  0  0  0  0  0
  -26.5669  -34.8903   22.4637 O   0  0  0  0  0  0
  -23.5563  -32.1314   23.7056 O   0  0  0  0  0  0
  -26.2765  -17.3073   16.9791 C   0  0  0  0  0  0
  -30.7175  -22.0866   20.1968 C   0  0  0  0  0  0
  -26.5023  -18.7527   17.4382 C   0  0  0  0  0  0
  -27.4012  -18.8178   18.6869 C   0  0  0  0  0  0
  -28.3838  -23.2169   19.9507 C   0  0  0  0  0  0
  -29.5603  -17.5794   20.9450 C   0  0  0  0  0  0
  -27.9590  -20.2304   18.9905 C   0  0  0  0  0  0
  -29.8590  -19.0691   20.1974 C   0  0  0  0  0  0
  -28.3222  -24.7463   20.6859 C   0  0  0  0  0  0
  -29.2304  -21.8391   20.5101 C   0  0  1  0  0  0
  -26.1716  -17.0785   15.6768 N   0  0  0  0  0  0
  -29.6519  -16.0856   20.4086 N   0  0  0  0  0  0
  -28.8354  -20.3076   20.1969 N   0  3  1  0  0  0
  -26.2214  -16.3853   17.7910 O   0  0  0  0  0  0
  -31.4758  -12.7868   19.1477 H   0  0  0  0  0  0
  -30.4714  -11.6440   20.0015 H   0  0  0  0  0  0
  -29.8283  -11.7151   17.5679 H   0  0  0  0  0  0
  -29.5967  -13.4422   17.6579 H   0  0  0  0  0  0
  -27.9465  -11.2677   18.9767 H   0  0  0  0  0  0
  -27.3842  -12.4368   17.8095 H   0  0  0  0  0  0
  -27.5855  -14.2437   19.3962 H   0  0  0  0  0  0
  -28.7692  -12.2768   21.4178 H   0  0  0  0  0  0
  -28.3786  -13.9502   21.7453 H   0  0  0  0  0  0
  -25.2766   -9.5673   22.4771 H   0  0  0  0  0  0
  -23.9987   -7.4625   22.7493 H   0  0  0  0  0  0
  -21.0838   -8.8780   19.8960 H   0  0  0  0  0  0
  -22.3703  -10.9673   19.6184 H   0  0  0  0  0  0
  -21.2020   -7.6148   23.9692 H   0  0  0  0  0  0
  -21.1478   -6.0543   25.9070 H   0  0  0  0  0  0
  -22.0600   -2.7597   23.2864 H   0  0  0  0  0  0
  -22.4086  -11.9833   22.4818 H   0  0  0  0  0  0
  -21.1077  -13.1186   22.2669 H   0  0  0  0  0  0
  -24.5419  -15.7211   20.4347 H   0  0  0  0  0  0
  -25.9760  -15.4978   19.6200 H   0  0  0  0  0  0
  -26.7291  -32.5288   23.1002 H   0  0  0  0  0  0
  -25.0074  -33.9599   25.0307 H   0  0  0  0  0  0
  -22.7538  -31.2843   21.3708 H   0  0  0  0  0  0
  -23.3750  -35.9583   23.3282 H   0  0  0  0  0  0
  -24.3560  -36.8913   22.2057 H   0  0  0  0  0  0
  -23.7231  -37.6438   23.6695 H   0  0  0  0  0  0
  -26.1566  -31.4626   20.6028 H   0  0  0  0  0  0
  -26.8754  -30.7704   22.0213 H   0  0  0  0  0  0
  -28.1538  -28.8259   21.1835 H   0  0  0  0  0  0
  -25.9510  -25.7942   19.0642 H   0  0  0  0  0  0
  -23.9796  -27.2512   19.0254 H   0  0  0  0  0  0
  -23.8165  -30.5435   19.3951 H   0  0  0  0  0  0
  -22.7885  -29.2177   19.8478 H   0  0  0  0  0  0
  -25.1301  -36.1862   25.0807 H   0  0  0  0  0  0
  -20.9991  -28.3333   24.1351 H   0  0  0  0  0  0
  -20.5651  -26.2362   23.3621 H   0  0  0  0  0  0
  -21.6652  -26.7434   22.1217 H   0  0  0  0  0  0
  -19.6928  -25.6285   21.1257 H   0  0  0  0  0  0
  -19.6693  -27.3168   20.6710 H   0  0  0  0  0  0
  -17.4211  -26.6665   21.4019 H   0  0  0  0  0  0
  -18.0352  -26.0080   22.9005 H   0  0  0  0  0  0
  -19.7950  -30.7279   24.2245 H   0  0  0  0  0  0
  -17.5030  -31.6265   24.5170 H   0  0  0  0  0  0
  -15.5364  -30.2987   23.7656 H   0  0  0  0  0  0
  -15.8687  -28.0806   22.7101 H   0  0  0  0  0  0
  -24.5885  -30.7104   25.7738 H   0  0  0  0  0  0
  -24.8898  -32.2932   26.4794 H   0  0  0  0  0  0
  -25.7992  -30.8958   27.0219 H   0  0  0  0  0  0
  -26.3020  -29.6662   24.1304 H   0  0  0  0  0  0
  -27.4003  -29.7268   25.4884 H   0  0  0  0  0  0
  -27.8931  -30.4178   23.9625 H   0  0  0  0  0  0
  -27.2614  -33.3664   26.2023 H   0  0  0  0  0  0
  -28.3881  -32.6904   25.0349 H   0  0  0  0  0  0
  -28.0699  -31.8527   26.5464 H   0  0  0  0  0  0
  -28.2584  -38.0089   24.7529 H   0  0  0  0  0  0
  -28.1089  -36.2616   24.6272 H   0  0  0  0  0  0
  -27.2298  -37.1414   25.8869 H   0  0  0  0  0  0
  -20.9476  -29.8775   21.6778 H   0  0  0  0  0  0
  -26.0147  -38.2812   24.1427 H   0  0  0  0  0  0
  -30.9847  -23.1269   20.3826 H   0  0  0  0  0  0
  -30.9413  -21.8720   19.1519 H   0  0  0  0  0  0
  -31.3803  -21.4910   20.8219 H   0  0  0  0  0  0
  -25.5373  -19.2213   17.6353 H   0  0  0  0  0  0
  -26.9662  -19.3141   16.6257 H   0  0  0  0  0  0
  -28.2145  -18.1126   18.5213 H   0  0  0  0  0  0
  -26.8428  -18.4477   19.5473 H   0  0  0  0  0  0
  -28.7177  -23.3830   18.9271 H   0  0  0  0  0  0
  -27.3378  -22.9379   19.8436 H   0  0  0  0  0  0
  -28.5436  -17.6449   21.3317 H   0  0  0  0  0  0
  -30.1684  -17.5764   21.8512 H   0  0  0  0  0  0
  -27.1103  -20.8995   19.1157 H   0  0  0  0  0  0
  -28.5213  -20.5956   18.1305 H   0  0  0  0  0  0
  -30.2193  -18.9031   19.1824 H   0  0  0  0  0  0
  -30.7487  -19.4266   20.7098 H   0  0  0  0  0  0
  -29.2128  -24.7649   21.3141 H   0  0  0  0  0  0
  -27.5077  -24.7133   21.4106 H   0  0  0  0  0  0
  -29.1417  -21.8890   21.5960 H   0  0  0  0  0  0
  -26.2317  -17.8338   15.0067 H   0  0  0  0  0  0
  -26.0479  -16.1333   15.3416 H   0  0  0  0  0  0
  -28.7190  -15.7585   20.2022 H   0  0  0  0  0  0
  -28.2126  -20.0945   20.9631 H   0  0  0  0  0  0
  1 25  1  0  0  0
  1 30  2  0  0  0
  1 82  1  0  0  0
  2  3  1  0  0  0
  2 25  1  0  0  0
  2 85  1  0  0  0
  2 86  1  0  0  0
  3  4  1  0  0  0
  3 87  1  0  0  0
  3 88  1  0  0  0
  4  5  1  0  0  0
  4 89  1  0  0  0
  4 90  1  0  0  0
  5  6  1  0  0  0
  5 26  1  0  0  0
  5 91  1  0  0  0
  6 25  1  0  0  0
  6 92  1  0  0  0
  6 93  1  0  0  0
  7  8  2  0  0  0
  7 26  1  0  0  0
  7 29  1  0  0  0
  8  9  1  0  0  0
  8 22  1  0  0  0
  9 10  1  0  0  0
  9 27  2  0  0  0
 10 11  2  0  0  0
 10 15  1  0  0  0
 11 12  1  0  0  0
 11 94  1  0  0  0
 12 13  2  0  0  0
 12 95  1  0  0  0
 13 14  1  0  0  0
 13 31  1  0  0  0
 14 15  2  0  0  0
 14 96  1  0  0  0
 15 97  1  0  0  0
 16 17  2  0  0  0
 16 21  1  0  0  0
 16 31  1  0  0  0
 17 18  1  0  0  0
 17 98  1  0  0  0
 18 19  2  0  0  0
 18 99  1  0  0  0
 19 20  1  0  0  0
 19 24  1  0  0  0
 20 21  2  0  0  0
 20100  1  0  0  0
 21 23  1  0  0  0
 22 28  1  0  0  0
 22 32  2  0  0  0
 26 27  1  0  0  0
 28101  1  0  0  0
 28102  1  0  0  0
 29103  1  0  0  0
 29104  1  0  0  0
 33 34  1  0  0  0
 33 66  1  0  0  0
 33 70  2  0  0  0
 34 36  1  0  0  0
 34 59  1  0  0  0
 34105  1  0  0  0
 35 44  2  0  0  0
 35 45  1  0  0  0
 35 68  1  0  0  0
 36 56  1  0  0  0
 36106  1  0  0  0
 37 39  1  0  0  0
 37 47  1  0  0  0
 37 66  1  0  0  0
 37107  1  0  0  0
 38 43  2  0  0  0
 38 46  1  0  0  0
 38 47  1  0  0  0
 39 64  1  0  0  0
 39 67  2  0  0  0
 40 52  1  0  0  0
 40 53  2  0  0  0
 40 58  1  0  0  0
 41108  1  0  0  0
 41109  1  0  0  0
 41110  1  0  0  0
 41 48  1  0  0  0
 42 43  1  0  0  0
 42 66  1  0  0  0
 42111  1  0  0  0
 42112  1  0  0  0
 43 44  1  0  0  0
 44113  1  0  0  0
 45 46  2  0  0  0
 45114  1  0  0  0
 46115  1  0  0  0
 47116  1  0  0  0
 47117  1  0  0  0
 48 56  1  0  0  0
 48 65  1  0  0  0
 48118  1  0  0  0
 49 50  1  0  0  0
 49 53  1  0  0  0
 49 64  1  0  0  0
 49119  1  0  0  0
 50 51  1  0  0  0
 50120  1  0  0  0
 50121  1  0  0  0
 51 52  1  0  0  0
 51122  1  0  0  0
 51123  1  0  0  0
 52124  1  0  0  0
 52125  1  0  0  0
 53 54  1  0  0  0
 54 55  2  0  0  0
 54126  1  0  0  0
 55 57  1  0  0  0
 55127  1  0  0  0
 56 69  2  0  0  0
 57 58  2  0  0  0
 57128  1  0  0  0
 58129  1  0  0  0
 59 60  1  0  0  0
 59 61  1  0  0  0
 59 62  1  0  0  0
 60130  1  0  0  0
 60131  1  0  0  0
 60132  1  0  0  0
 61133  1  0  0  0
 61134  1  0  0  0
 61135  1  0  0  0
 62136  1  0  0  0
 62137  1  0  0  0
 62138  1  0  0  0
 63 65  1  0  0  0
 63139  1  0  0  0
 63140  1  0  0  0
 63141  1  0  0  0
 64142  1  0  0  0
 65143  1  0  0  0
 68 79  1  0  0  0
 71 73  1  0  0  0
 71 81  1  0  0  0
 71 84  2  0  0  0
 72144  1  0  0  0
 72145  1  0  0  0
 72146  1  0  0  0
 72 80  1  0  0  0
 73 74  1  0  0  0
 73147  1  0  0  0
 73148  1  0  0  0
 74 77  1  0  0  0
 74149  1  0  0  0
 74150  1  0  0  0
 75 79  1  0  0  0
 75 80  1  0  0  0
 75151  1  0  0  0
 75152  1  0  0  0
 76 78  1  0  0  0
 76 82  1  0  0  0
 76153  1  0  0  0
 76154  1  0  0  0
 77155  1  0  0  0
 77156  1  0  0  0
 77 83  1  0  0  0
 78 83  1  0  0  0
 78157  1  0  0  0
 78158  1  0  0  0
 79159  1  0  0  0
 79160  1  0  0  0
 80 83  1  0  0  0
 80161  1  0  0  0
 81162  1  0  0  0
 81163  1  0  0  0
 82164  1  0  0  0
 83165  1  0  0  0
M  CHG  1  83   1
M  ISO  4   1 100  68 101  79 101  82 100
M  END
> <chiral flag>
0

> <version>
0

> <s_m_source_file>
/data/baiqing/PycharmProjects/Reinvent-master-3.2/result/LINK_invent/BTK/process_docking_weight1_custom_sum_contain_oxygen_bond_distance_aromatic_linkinvent_7_9_3/rearranged_h_0103.sdf

> <i_m_source_file_index>
51

> <r_mmod_Potential_Energy-OPLS-2005>
367.291534423828

> <r_mmod_Stretch_Energy-OPLS-2005>
293.292083740234

> <r_mmod_Bend_Energy-OPLS-2005>
334.248962402344

> <r_mmod_Torsional_Energy-OPLS-2005>
319.296051025391

> <r_mmod_Improper_Torsional_Energy-OPLS-2005>
11.2659769058228

> <r_mmod_Van_der_Waal_Energy-OPLS-2005>
107.480010986328

> <r_mmod_Electrostatic_Energy-OPLS-2005>
-423.958892822266

> <r_mmod_Solvation_Energy-OPLS-2005>
-468.973602294922

> <b_mmod_Minimization_Converged-OPLS-2005>
0

> <r_mmod_RMS_Derivative-OPLS-2005>
1.82241415977478

$$$$
51
                    3D
 Structure written by MMmdl.
165173  0  0  1  0            999 V2000
  -30.6195  -14.7016   20.4684 C   0  0  0  0  0  0
  -30.4266  -12.4263   19.4718 C   0  0  0  0  0  0
  -29.5066  -12.5039   18.2335 C   0  0  0  0  0  0
  -28.0300  -12.3395   18.6432 C   0  0  0  0  0  0
  -27.6419  -13.2302   19.8541 C   0  0  2  0  0  0
  -28.6843  -13.1424   20.9904 C   0  0  0  0  0  0
  -25.2500  -13.8203   20.5715 C   0  0  0  0  0  0
  -24.1791  -13.0440   20.9211 C   0  0  0  0  0  0
  -24.6379  -11.6919   20.8742 C   0  0  0  0  0  0
  -23.9064  -10.4293   21.0408 C   0  0  0  0  0  0
  -24.3621   -9.4206   21.9181 C   0  0  0  0  0  0
  -23.6298   -8.2240   22.0749 C   0  0  0  0  0  0
  -22.4278   -8.0280   21.3544 C   0  0  0  0  0  0
  -21.9915   -9.0251   20.4645 C   0  0  0  0  0  0
  -22.7239  -10.2131   20.3054 C   0  0  0  0  0  0
  -21.6853   -6.0734   22.5280 C   0  0  0  0  0  0
  -21.4017   -6.5639   23.8213 C   0  0  0  0  0  0
  -21.3661   -5.6792   24.9174 C   0  0  0  0  0  0
  -21.6044   -4.3054   24.7225 C   0  0  0  0  0  0
  -21.8820   -3.8146   23.4345 C   0  0  0  0  0  0
  -21.9191   -4.6963   22.3402 C   0  0  0  0  0  0
  -22.7813  -13.5217   21.1880 C   0  0  0  0  0  0
  -22.1659   -4.2151   21.0979 F   0  0  0  0  0  0
  -21.5629   -3.4536   25.7735 F   0  0  0  0  0  0
  -29.9912  -13.4807   20.4142 N   0  0  0  0  0  0
  -26.2924  -12.9407   20.3293 N   0  0  0  0  0  0
  -25.9307  -11.6546   20.5745 N   0  0  0  0  0  0
  -22.0470  -12.8200   22.0442 N   0  0  0  0  0  0
  -25.4185  -15.1934   20.4166 N   0  0  0  0  0  0
  -31.8019  -14.8078   20.1335 O   0  0  0  0  0  0
  -21.6639   -6.8879   21.4242 O   0  0  0  0  0  0
  -22.3489  -14.5517   20.6725 O   0  0  0  0  0  0
  -24.6299  -31.8564   23.1992 C   0  0  0  0  0  0
  -25.9134  -32.4758   23.8332 C   0  0  1  0  0  0
  -27.2192  -27.2736   20.1153 C   0  0  0  0  0  0
  -25.5937  -33.8560   24.2256 N   0  0  0  0  0  0
  -23.4248  -30.4805   21.5432 C   0  0  2  0  0  0
  -24.8685  -28.9299   20.1094 C   0  0  0  0  0  0
  -22.7489  -29.4614   22.4922 C   0  0  0  0  0  0
  -18.0289  -28.1389   22.8483 C   0  0  0  0  0  0
  -24.1491  -36.7284   23.2640 C   0  0  0  0  0  0
  -25.9699  -30.7723   21.3769 C   0  0  0  0  0  0
  -26.0397  -29.3969   20.7164 C   0  0  0  0  0  0
  -27.2135  -28.5801   20.7095 C   0  0  0  0  0  0
  -26.0147  -26.8654   19.4947 C   0  0  0  0  0  0
  -24.8610  -27.6718   19.4909 C   0  0  0  0  0  0
  -23.6397  -29.8159   20.1585 C   0  0  0  0  0  0
  -25.4119  -36.3071   24.0324 C   0  0  1  0  0  0
  -20.5892  -28.3697   23.1276 C   0  0  2  0  0  0
  -20.6778  -26.9415   22.5413 C   0  0  0  0  0  0
  -19.5757  -26.6385   21.5212 C   0  0  0  0  0  0
  -18.1936  -26.7931   22.1621 C   0  0  0  0  0  0
  -19.1542  -28.8861   23.2876 C   0  0  0  0  0  0
  -18.9460  -30.1462   23.8888 C   0  0  0  0  0  0
  -17.6459  -30.6590   24.0558 C   0  0  0  0  0  0
  -25.9059  -34.9442   23.5091 C   0  0  0  0  0  0
  -16.5352  -29.9084   23.6332 C   0  0  0  0  0  0
  -16.7276  -28.6504   23.0350 C   0  0  0  0  0  0
  -26.4502  -31.6585   25.0722 C   0  0  0  0  0  0
  -25.3722  -31.3741   26.1442 C   0  0  0  0  0  0
  -27.0352  -30.3001   24.6215 C   0  0  0  0  0  0
  -27.6049  -32.4335   25.7499 C   0  0  0  0  0  0
  -27.5579  -37.1801   24.8465 C   0  0  0  0  0  0
  -21.4201  -29.3044   22.3663 N   0  0  0  0  0  0
  -26.4292  -37.3771   23.9406 N   0  0  0  0  0  0
  -24.6941  -31.0545   22.0957 N   0  0  0  0  0  0
  -23.4197  -28.8154   23.3016 O   0  0  0  0  0  0
  -28.3488  -26.4269   20.1881 O   0  0  0  0  0  0
  -26.5631  -34.8916   22.4661 O   0  0  0  0  0  0
  -23.5456  -32.1386   23.7298 O   0  0  0  0  0  0
  -28.2522  -18.3190   21.6809 C   0  0  0  0  0  0
  -29.3723  -19.8081   20.1649 C   0  0  0  0  0  0
  -29.2622  -18.4800   20.7255 C   0  0  0  0  0  0
  -27.2996  -19.3307   21.9274 C   0  0  0  0  0  0
  -28.4149  -20.8801   20.3852 C   0  0  0  0  0  0
  -27.2343  -20.5266   21.1347 C   0  0  0  0  0  0
  -26.3775  -19.0615   23.1110 C   0  0  0  0  0  0
  -24.6782  -20.3140   20.8130 C   0  0  0  0  0  0
  -25.6348  -22.3760   20.0161 C   0  0  0  0  0  0
  -28.6532  -22.3024   19.7020 C   0  0  0  0  0  0
  -30.2485  -17.2755   20.4202 C   0  0  0  0  0  0
  -28.6349  -23.7151   20.4965 C   0  0  0  0  0  0
  -28.4078  -25.0461   19.6090 C   0  0  0  0  0  0
  -25.8617  -21.2840   21.0869 C   0  0  0  0  0  0
  -29.8497  -15.8283   20.6767 N   0  0  0  0  0  0
  -31.4700  -12.5410   19.1728 H   0  0  0  0  0  0
  -30.3570  -11.4439   19.9419 H   0  0  0  0  0  0
  -29.7812  -11.7351   17.5099 H   0  0  0  0  0  0
  -29.6447  -13.4620   17.7302 H   0  0  0  0  0  0
  -27.8736  -11.2890   18.8924 H   0  0  0  0  0  0
  -27.3776  -12.5501   17.7950 H   0  0  0  0  0  0
  -27.6428  -14.2566   19.4860 H   0  0  0  0  0  0
  -28.7042  -12.1403   21.4211 H   0  0  0  0  0  0
  -28.4258  -13.8205   21.8054 H   0  0  0  0  0  0
  -25.2765   -9.5680   22.4752 H   0  0  0  0  0  0
  -24.0008   -7.4630   22.7465 H   0  0  0  0  0  0
  -21.0848   -8.8769   19.8950 H   0  0  0  0  0  0
  -22.3699  -10.9669   19.6164 H   0  0  0  0  0  0
  -21.2011   -7.6148   23.9718 H   0  0  0  0  0  0
  -21.1486   -6.0521   25.9079 H   0  0  0  0  0  0
  -22.0599   -2.7609   23.2844 H   0  0  0  0  0  0
  -22.4100  -11.9863   22.4822 H   0  0  0  0  0  0
  -21.1084  -13.1210   22.2652 H   0  0  0  0  0  0
  -24.6499  -15.8441   20.5347 H   0  0  0  0  0  0
  -26.2627  -15.6400   20.0831 H   0  0  0  0  0  0
  -26.7196  -32.5402   23.1067 H   0  0  0  0  0  0
  -25.0075  -33.9696   25.0396 H   0  0  0  0  0  0
  -22.7205  -31.3023   21.3996 H   0  0  0  0  0  0
  -23.3752  -35.9617   23.3305 H   0  0  0  0  0  0
  -24.3577  -36.8906   22.2054 H   0  0  0  0  0  0
  -23.7241  -37.6485   23.6665 H   0  0  0  0  0  0
  -26.1116  -31.5350   20.6100 H   0  0  0  0  0  0
  -26.8459  -30.8157   22.0126 H   0  0  0  0  0  0
  -28.1108  -28.9355   21.1965 H   0  0  0  0  0  0
  -25.9016  -25.9031   19.0253 H   0  0  0  0  0  0
  -23.9599  -27.3044   19.0193 H   0  0  0  0  0  0
  -23.7616  -30.5923   19.4022 H   0  0  0  0  0  0
  -22.7572  -29.2495   19.8555 H   0  0  0  0  0  0
  -25.1303  -36.1918   25.0816 H   0  0  0  0  0  0
  -20.9983  -28.3270   24.1397 H   0  0  0  0  0  0
  -20.5676  -26.2302   23.3614 H   0  0  0  0  0  0
  -21.6646  -26.7441   22.1208 H   0  0  0  0  0  0
  -19.6920  -25.6295   21.1242 H   0  0  0  0  0  0
  -19.6695  -27.3192   20.6741 H   0  0  0  0  0  0
  -17.4209  -26.6675   21.4021 H   0  0  0  0  0  0
  -18.0336  -26.0074   22.9018 H   0  0  0  0  0  0
  -19.7935  -30.7283   24.2249 H   0  0  0  0  0  0
  -17.5012  -31.6266   24.5160 H   0  0  0  0  0  0
  -15.5350  -30.2976   23.7666 H   0  0  0  0  0  0
  -15.8678  -28.0817   22.7070 H   0  0  0  0  0  0
  -24.5890  -30.7100   25.7770 H   0  0  0  0  0  0
  -24.8924  -32.2912   26.4865 H   0  0  0  0  0  0
  -25.8033  -30.8915   27.0220 H   0  0  0  0  0  0
  -26.2938  -29.6745   24.1228 H   0  0  0  0  0  0
  -27.4016  -29.7273   25.4744 H   0  0  0  0  0  0
  -27.8823  -30.4276   23.9471 H   0  0  0  0  0  0
  -27.2645  -33.3634   26.2069 H   0  0  0  0  0  0
  -28.3861  -32.6900   25.0331 H   0  0  0  0  0  0
  -28.0714  -31.8468   26.5423 H   0  0  0  0  0  0
  -28.2602  -38.0094   24.7509 H   0  0  0  0  0  0
  -28.1070  -36.2624   24.6298 H   0  0  0  0  0  0
  -27.2296  -37.1456   25.8869 H   0  0  0  0  0  0
  -20.9383  -29.8763   21.6868 H   0  0  0  0  0  0
  -26.0172  -38.2846   24.1400 H   0  0  0  0  0  0
  -28.2035  -17.3986   22.2463 H   0  0  0  0  0  0
  -30.2116  -20.0034   19.5116 H   0  0  0  0  0  0
  -26.9714  -18.7680   23.9773 H   0  0  0  0  0  0
  -25.6963  -18.2372   22.8978 H   0  0  0  0  0  0
  -25.8005  -19.9328   23.4177 H   0  0  0  0  0  0
  -24.5220  -19.5422   21.5562 H   0  0  0  0  0  0
  -24.8056  -19.8093   19.8546 H   0  0  0  0  0  0
  -23.7267  -20.8451   20.7714 H   0  0  0  0  0  0
  -26.1974  -23.2830   20.1672 H   0  0  0  0  0  0
  -24.6027  -22.7274   20.0349 H   0  0  0  0  0  0
  -25.8105  -22.0008   19.0079 H   0  0  0  0  0  0
  -27.9786  -22.3670   18.8515 H   0  0  0  0  0  0
  -29.6297  -22.2490   19.2207 H   0  0  0  0  0  0
  -30.5288  -17.3500   19.3686 H   0  0  0  0  0  0
  -31.1654  -17.4649   20.9805 H   0  0  0  0  0  0
  -27.8912  -23.6917   21.2909 H   0  0  0  0  0  0
  -29.5795  -23.8113   21.0320 H   0  0  0  0  0  0
  -27.5917  -24.8480   18.9229 H   0  0  0  0  0  0
  -29.2642  -25.0904   18.9354 H   0  0  0  0  0  0
  -25.7158  -21.7522   22.0615 H   0  0  0  0  0  0
  -28.8818  -15.6655   20.9040 H   0  0  0  0  0  0
  1 25  1  0  0  0
  1 30  2  0  0  0
  1 85  1  0  0  0
  2  3  1  0  0  0
  2 25  1  0  0  0
  2 86  1  0  0  0
  2 87  1  0  0  0
  3  4  1  0  0  0
  3 88  1  0  0  0
  3 89  1  0  0  0
  4  5  1  0  0  0
  4 90  1  0  0  0
  4 91  1  0  0  0
  5  6  1  0  0  0
  5 26  1  0  0  0
  5 92  1  0  0  0
  6 25  1  0  0  0
  6 93  1  0  0  0
  6 94  1  0  0  0
  7  8  2  0  0  0
  7 26  1  0  0  0
  7 29  1  0  0  0
  8  9  1  0  0  0
  8 22  1  0  0  0
  9 10  1  0  0  0
  9 27  2  0  0  0
 10 11  2  0  0  0
 10 15  1  0  0  0
 11 12  1  0  0  0
 11 95  1  0  0  0
 12 13  2  0  0  0
 12 96  1  0  0  0
 13 14  1  0  0  0
 13 31  1  0  0  0
 14 15  2  0  0  0
 14 97  1  0  0  0
 15 98  1  0  0  0
 16 17  2  0  0  0
 16 21  1  0  0  0
 16 31  1  0  0  0
 17 18  1  0  0  0
 17 99  1  0  0  0
 18 19  2  0  0  0
 18100  1  0  0  0
 19 20  1  0  0  0
 19 24  1  0  0  0
 20 21  2  0  0  0
 20101  1  0  0  0
 21 23  1  0  0  0
 22 28  1  0  0  0
 22 32  2  0  0  0
 26 27  1  0  0  0
 28102  1  0  0  0
 28103  1  0  0  0
 29104  1  0  0  0
 29105  1  0  0  0
 33 34  1  0  0  0
 33 66  1  0  0  0
 33 70  2  0  0  0
 34 36  1  0  0  0
 34 59  1  0  0  0
 34106  1  0  0  0
 35 44  2  0  0  0
 35 45  1  0  0  0
 35 68  1  0  0  0
 36 56  1  0  0  0
 36107  1  0  0  0
 37 39  1  0  0  0
 37 47  1  0  0  0
 37 66  1  0  0  0
 37108  1  0  0  0
 38 43  2  0  0  0
 38 46  1  0  0  0
 38 47  1  0  0  0
 39 64  1  0  0  0
 39 67  2  0  0  0
 40 52  1  0  0  0
 40 53  2  0  0  0
 40 58  1  0  0  0
 41109  1  0  0  0
 41110  1  0  0  0
 41111  1  0  0  0
 41 48  1  0  0  0
 42 43  1  0  0  0
 42 66  1  0  0  0
 42112  1  0  0  0
 42113  1  0  0  0
 43 44  1  0  0  0
 44114  1  0  0  0
 45 46  2  0  0  0
 45115  1  0  0  0
 46116  1  0  0  0
 47117  1  0  0  0
 47118  1  0  0  0
 48 56  1  0  0  0
 48 65  1  0  0  0
 48119  1  0  0  0
 49 50  1  0  0  0
 49 53  1  0  0  0
 49 64  1  0  0  0
 49120  1  0  0  0
 50 51  1  0  0  0
 50121  1  0  0  0
 50122  1  0  0  0
 51 52  1  0  0  0
 51123  1  0  0  0
 51124  1  0  0  0
 52125  1  0  0  0
 52126  1  0  0  0
 53 54  1  0  0  0
 54 55  2  0  0  0
 54127  1  0  0  0
 55 57  1  0  0  0
 55128  1  0  0  0
 56 69  2  0  0  0
 57 58  2  0  0  0
 57129  1  0  0  0
 58130  1  0  0  0
 59 60  1  0  0  0
 59 61  1  0  0  0
 59 62  1  0  0  0
 60131  1  0  0  0
 60132  1  0  0  0
 60133  1  0  0  0
 61134  1  0  0  0
 61135  1  0  0  0
 61136  1  0  0  0
 62137  1  0  0  0
 62138  1  0  0  0
 62139  1  0  0  0
 63 65  1  0  0  0
 63140  1  0  0  0
 63141  1  0  0  0
 63142  1  0  0  0
 64143  1  0  0  0
 65144  1  0  0  0
 68 83  1  0  0  0
 71 73  2  0  0  0
 71 74  1  0  0  0
 71145  1  0  0  0
 72 73  1  0  0  0
 72 75  2  0  0  0
 72146  1  0  0  0
 73 81  1  0  0  0
 74 76  2  0  0  0
 74 77  1  0  0  0
 75 76  1  0  0  0
 75 80  1  0  0  0
 76 84  1  0  0  0
 77147  1  0  0  0
 77148  1  0  0  0
 77149  1  0  0  0
 78150  1  0  0  0
 78151  1  0  0  0
 78152  1  0  0  0
 78 84  1  0  0  0
 79 84  1  0  0  0
 79153  1  0  0  0
 79154  1  0  0  0
 79155  1  0  0  0
 80 82  1  0  0  0
 80156  1  0  0  0
 80157  1  0  0  0
 81 85  1  0  0  0
 81158  1  0  0  0
 81159  1  0  0  0
 82 83  1  0  0  0
 82160  1  0  0  0
 82161  1  0  0  0
 83162  1  0  0  0
 83163  1  0  0  0
 84164  1  0  0  0
 85165  1  0  0  0
M  ISO  4   1 100  68 101  83 101  85 100
M  END
> <chiral flag>
0

> <version>
0

> <s_m_source_file>
/data/baiqing/PycharmProjects/Reinvent-master-3.2/result/LINK_invent/BTK/process_docking_weight1_custom_sum_contain_oxygen_bond_distance_aromatic_linkinvent_7_9_3/rearranged_h_0103.sdf

> <i_m_source_file_index>
52

> <r_mmod_Potential_Energy-OPLS-2005>
140.116714477539

> <r_mmod_Stretch_Energy-OPLS-2005>
121.450645446777

> <r_mmod_Bend_Energy-OPLS-2005>
190.151947021484

> <r_mmod_Torsional_Energy-OPLS-2005>
235.207336425781

> <r_mmod_Improper_Torsional_Energy-OPLS-2005>
6.08029365539551

> <r_mmod_Van_der_Waal_Energy-OPLS-2005>
159.501617431641

> <r_mmod_Electrostatic_Energy-OPLS-2005>
-441.760498046875

> <r_mmod_Solvation_Energy-OPLS-2005>
-200.595886230469

> <b_mmod_Minimization_Converged-OPLS-2005>
0

> <r_mmod_RMS_Derivative-OPLS-2005>
0.83014452457428

$$$$
52
                    3D
 Structure written by MMmdl.
167175  0  0  1  0            999 V2000
  -30.5454  -14.9643   20.4164 C   0  0  0  0  0  0
  -30.4402  -12.5943   19.5142 C   0  0  0  0  0  0
  -29.5289  -12.5295   18.2666 C   0  0  0  0  0  0
  -28.0604  -12.3194   18.6788 C   0  0  0  0  0  0
  -27.6317  -13.2533   19.8416 C   0  0  2  0  0  0
  -28.6716  -13.2955   20.9827 C   0  0  0  0  0  0
  -25.2470  -13.8226   20.5720 C   0  0  0  0  0  0
  -24.1789  -13.0447   20.9231 C   0  0  0  0  0  0
  -24.6406  -11.6936   20.8765 C   0  0  0  0  0  0
  -23.9083  -10.4305   21.0415 C   0  0  0  0  0  0
  -24.3628   -9.4217   21.9188 C   0  0  0  0  0  0
  -23.6304   -8.2247   22.0754 C   0  0  0  0  0  0
  -22.4286   -8.0288   21.3542 C   0  0  0  0  0  0
  -21.9924   -9.0264   20.4650 C   0  0  0  0  0  0
  -22.7251  -10.2147   20.3067 C   0  0  0  0  0  0
  -21.6853   -6.0749   22.5283 C   0  0  0  0  0  0
  -21.4019   -6.5650   23.8219 C   0  0  0  0  0  0
  -21.3658   -5.6795   24.9176 C   0  0  0  0  0  0
  -21.6044   -4.3059   24.7222 C   0  0  0  0  0  0
  -21.8815   -3.8155   23.4341 C   0  0  0  0  0  0
  -21.9191   -4.6977   22.3401 C   0  0  0  0  0  0
  -22.7805  -13.5221   21.1877 C   0  0  0  0  0  0
  -22.1660   -4.2160   21.0979 F   0  0  0  0  0  0
  -21.5618   -3.4541   25.7731 F   0  0  0  0  0  0
  -29.9494  -13.7016   20.3864 N   0  0  0  0  0  0
  -26.2903  -12.9471   20.3261 N   0  0  0  0  0  0
  -25.9346  -11.6598   20.5749 N   0  0  0  0  0  0
  -22.0448  -12.8222   22.0439 N   0  0  0  0  0  0
  -25.4112  -15.1957   20.4133 N   0  0  0  0  0  0
  -31.7416  -15.0257   20.1184 O   0  0  0  0  0  0
  -21.6637   -6.8893   21.4248 O   0  0  0  0  0  0
  -22.3494  -14.5517   20.6705 O   0  0  0  0  0  0
  -24.6456  -31.8432   23.1870 C   0  0  0  0  0  0
  -25.9222  -32.4685   23.8269 C   0  0  1  0  0  0
  -27.2131  -27.1090   20.1675 C   0  0  0  0  0  0
  -25.5962  -33.8490   24.2183 N   0  0  0  0  0  0
  -23.4511  -30.4628   21.5324 C   0  0  2  0  0  0
  -24.9022  -28.8858   20.1126 C   0  0  0  0  0  0
  -22.7584  -29.4541   22.4835 C   0  0  0  0  0  0
  -18.0319  -28.1392   22.8486 C   0  0  0  0  0  0
  -24.1493  -36.7254   23.2641 C   0  0  0  0  0  0
  -26.0093  -30.7077   21.3921 C   0  0  0  0  0  0
  -26.0803  -29.3161   20.7366 C   0  0  0  0  0  0
  -27.2389  -28.4462   20.7443 C   0  0  0  0  0  0
  -26.0144  -26.7941   19.4905 C   0  0  0  0  0  0
  -24.8843  -27.6394   19.4707 C   0  0  0  0  0  0
  -23.6811  -29.7930   20.1520 C   0  0  0  0  0  0
  -25.4125  -36.3022   24.0313 C   0  0  1  0  0  0
  -20.5934  -28.3724   23.1228 C   0  0  2  0  0  0
  -20.6797  -26.9423   22.5402 C   0  0  0  0  0  0
  -19.5762  -26.6376   21.5220 C   0  0  0  0  0  0
  -18.1949  -26.7930   22.1636 C   0  0  0  0  0  0
  -19.1578  -28.8878   23.2850 C   0  0  0  0  0  0
  -18.9486  -30.1472   23.8875 C   0  0  0  0  0  0
  -17.6478  -30.6584   24.0562 C   0  0  0  0  0  0
  -25.9077  -34.9401   23.5054 C   0  0  0  0  0  0
  -16.5370  -29.9075   23.6333 C   0  0  0  0  0  0
  -16.7304  -28.6496   23.0358 C   0  0  0  0  0  0
  -26.4534  -31.6560   25.0718 C   0  0  0  0  0  0
  -25.3708  -31.3771   26.1406 C   0  0  0  0  0  0
  -27.0408  -30.2951   24.6326 C   0  0  0  0  0  0
  -27.6049  -32.4339   25.7507 C   0  0  0  0  0  0
  -27.5578  -37.1782   24.8464 C   0  0  0  0  0  0
  -21.4274  -29.3050   22.3589 N   0  0  0  0  0  0
  -26.4286  -37.3739   23.9407 N   0  0  0  0  0  0
  -24.7219  -31.0261   22.0921 N   0  0  0  0  0  0
  -23.4220  -28.8093   23.2996 O   0  0  0  0  0  0
  -28.2489  -26.0959   20.2055 O   0  0  0  0  0  0
  -26.5659  -34.8901   22.4632 O   0  0  0  0  0  0
  -23.5569  -32.1314   23.7076 O   0  0  0  0  0  0
  -30.2537  -20.9521   19.2877 C   0  0  0  0  0  0
  -30.4223  -22.2836   18.8379 C   0  0  0  0  0  0
  -29.3111  -20.6220   20.2808 C   0  0  0  0  0  0
  -28.5815  -21.8356   20.7685 C   0  0  0  0  0  0
  -28.7752  -23.2184   20.2213 C   0  0  0  0  0  0
  -27.3511  -22.9585   25.4573 C   0  0  0  0  0  0
  -26.7409  -20.5607   24.8739 C   0  0  0  0  0  0
  -29.3416  -21.3012   23.6314 C   0  0  0  0  0  0
  -29.1234  -19.0196   20.7120 C   0  0  0  0  0  0
  -27.5627  -21.6445   21.8992 C   0  0  0  0  0  0
  -27.9074  -24.6028   20.5572 C   0  0  0  0  0  0
  -30.0784  -17.6896   20.2569 C   0  0  0  0  0  0
  -27.0285  -21.9723   24.3185 C   0  0  0  0  0  0
  -29.7199  -23.3638   19.2671 N   0  0  0  0  0  0
  -29.7740  -16.1554   20.5669 N   0  0  0  0  0  0
  -28.0825  -21.9987   23.2566 N   0  3  1  0  0  0
  -31.4763  -12.7446   19.2078 H   0  0  0  0  0  0
  -30.4255  -11.6461   20.0546 H   0  0  0  0  0  0
  -29.8503  -11.7269   17.6011 H   0  0  0  0  0  0
  -29.6218  -13.4564   17.6986 H   0  0  0  0  0  0
  -27.9540  -11.2776   18.9833 H   0  0  0  0  0  0
  -27.4015  -12.4553   17.8208 H   0  0  0  0  0  0
  -27.5905  -14.2535   19.4098 H   0  0  0  0  0  0
  -28.7590  -12.3278   21.4769 H   0  0  0  0  0  0
  -28.3667  -14.0095   21.7502 H   0  0  0  0  0  0
  -25.2779   -9.5672   22.4759 H   0  0  0  0  0  0
  -24.0001   -7.4637   22.7479 H   0  0  0  0  0  0
  -21.0845   -8.8792   19.8966 H   0  0  0  0  0  0
  -22.3711  -10.9683   19.6174 H   0  0  0  0  0  0
  -21.2020   -7.6160   23.9726 H   0  0  0  0  0  0
  -21.1480   -6.0528   25.9076 H   0  0  0  0  0  0
  -22.0594   -2.7619   23.2841 H   0  0  0  0  0  0
  -22.4059  -11.9887   22.4842 H   0  0  0  0  0  0
  -21.1060  -13.1243   22.2624 H   0  0  0  0  0  0
  -24.6332  -15.8390   20.5114 H   0  0  0  0  0  0
  -26.2460  -15.6371   20.0513 H   0  0  0  0  0  0
  -26.7289  -32.5287   23.0996 H   0  0  0  0  0  0
  -25.0094  -33.9604   25.0321 H   0  0  0  0  0  0
  -22.7549  -31.2898   21.3772 H   0  0  0  0  0  0
  -23.3752  -35.9590   23.3288 H   0  0  0  0  0  0
  -24.3578  -36.8899   22.2059 H   0  0  0  0  0  0
  -23.7251  -37.6449   23.6687 H   0  0  0  0  0  0
  -26.1710  -31.4605   20.6193 H   0  0  0  0  0  0
  -26.8769  -30.7581   22.0379 H   0  0  0  0  0  0
  -28.1366  -28.7739   21.2497 H   0  0  0  0  0  0
  -25.9245  -25.8533   18.9685 H   0  0  0  0  0  0
  -23.9910  -27.3109   18.9577 H   0  0  0  0  0  0
  -23.8238  -30.5691   19.3988 H   0  0  0  0  0  0
  -22.7941  -29.2407   19.8365 H   0  0  0  0  0  0
  -25.1312  -36.1848   25.0804 H   0  0  0  0  0  0
  -21.0044  -28.3318   24.1343 H   0  0  0  0  0  0
  -20.5697  -26.2343   23.3629 H   0  0  0  0  0  0
  -21.6658  -26.7418   22.1196 H   0  0  0  0  0  0
  -19.6915  -25.6280   21.1263 H   0  0  0  0  0  0
  -19.6689  -27.3178   20.6744 H   0  0  0  0  0  0
  -17.4217  -26.6690   21.4037 H   0  0  0  0  0  0
  -18.0338  -26.0074   22.9035 H   0  0  0  0  0  0
  -19.7961  -30.7304   24.2229 H   0  0  0  0  0  0
  -17.5025  -31.6262   24.5167 H   0  0  0  0  0  0
  -15.5367  -30.2964   23.7658 H   0  0  0  0  0  0
  -15.8712  -28.0798   22.7074 H   0  0  0  0  0  0
  -24.5869  -30.7146   25.7721 H   0  0  0  0  0  0
  -24.8926  -32.2971   26.4778 H   0  0  0  0  0  0
  -25.7971  -30.8964   27.0219 H   0  0  0  0  0  0
  -26.3042  -29.6657   24.1317 H   0  0  0  0  0  0
  -27.3996  -29.7264   25.4915 H   0  0  0  0  0  0
  -27.8960  -30.4176   23.9674 H   0  0  0  0  0  0
  -27.2620  -33.3647   26.2037 H   0  0  0  0  0  0
  -28.3883  -32.6891   25.0358 H   0  0  0  0  0  0
  -28.0697  -31.8504   26.5464 H   0  0  0  0  0  0
  -28.2577  -38.0096   24.7507 H   0  0  0  0  0  0
  -28.1087  -36.2617   24.6285 H   0  0  0  0  0  0
  -27.2294  -37.1426   25.8867 H   0  0  0  0  0  0
  -20.9483  -29.8767   21.6770 H   0  0  0  0  0  0
  -26.0145  -38.2806   24.1408 H   0  0  0  0  0  0
  -30.8636  -20.1768   18.8456 H   0  0  0  0  0  0
  -31.1571  -22.4913   18.0731 H   0  0  0  0  0  0
  -26.5372  -22.9905   26.1825 H   0  0  0  0  0  0
  -27.4847  -23.9744   25.0839 H   0  0  0  0  0  0
  -28.2512  -22.6814   26.0056 H   0  0  0  0  0  0
  -25.8843  -20.5821   25.5487 H   0  0  0  0  0  0
  -27.5808  -20.1638   25.4444 H   0  0  0  0  0  0
  -26.5048  -19.8500   24.0826 H   0  0  0  0  0  0
  -30.1418  -21.5168   22.9236 H   0  0  0  0  0  0
  -29.2094  -20.2212   23.6713 H   0  0  0  0  0  0
  -29.7016  -21.6211   24.6081 H   0  0  0  0  0  0
  -28.1049  -18.7730   20.4142 H   0  0  0  0  0  0
  -29.0996  -18.9984   21.7991 H   0  0  0  0  0  0
  -27.2069  -20.6139   21.9043 H   0  0  0  0  0  0
  -26.6835  -22.2491   21.6724 H   0  0  0  0  0  0
  -27.7785  -24.6054   21.6390 H   0  0  0  0  0  0
  -26.9139  -24.3797   20.1746 H   0  0  0  0  0  0
  -31.0916  -17.8804   20.6136 H   0  0  0  0  0  0
  -30.1578  -17.7343   19.1705 H   0  0  0  0  0  0
  -26.1011  -22.3343   23.8703 H   0  0  0  0  0  0
  -28.8114  -15.9673   20.8041 H   0  0  0  0  0  0
  -28.3397  -22.9714   23.1962 H   0  0  0  0  0  0
  1 25  1  0  0  0
  1 30  2  0  0  0
  1 85  1  0  0  0
  2  3  1  0  0  0
  2 25  1  0  0  0
  2 87  1  0  0  0
  2 88  1  0  0  0
  3  4  1  0  0  0
  3 89  1  0  0  0
  3 90  1  0  0  0
  4  5  1  0  0  0
  4 91  1  0  0  0
  4 92  1  0  0  0
  5  6  1  0  0  0
  5 26  1  0  0  0
  5 93  1  0  0  0
  6 25  1  0  0  0
  6 94  1  0  0  0
  6 95  1  0  0  0
  7  8  2  0  0  0
  7 26  1  0  0  0
  7 29  1  0  0  0
  8  9  1  0  0  0
  8 22  1  0  0  0
  9 10  1  0  0  0
  9 27  2  0  0  0
 10 11  2  0  0  0
 10 15  1  0  0  0
 11 12  1  0  0  0
 11 96  1  0  0  0
 12 13  2  0  0  0
 12 97  1  0  0  0
 13 14  1  0  0  0
 13 31  1  0  0  0
 14 15  2  0  0  0
 14 98  1  0  0  0
 15 99  1  0  0  0
 16 17  2  0  0  0
 16 21  1  0  0  0
 16 31  1  0  0  0
 17 18  1  0  0  0
 17100  1  0  0  0
 18 19  2  0  0  0
 18101  1  0  0  0
 19 20  1  0  0  0
 19 24  1  0  0  0
 20 21  2  0  0  0
 20102  1  0  0  0
 21 23  1  0  0  0
 22 28  1  0  0  0
 22 32  2  0  0  0
 26 27  1  0  0  0
 28103  1  0  0  0
 28104  1  0  0  0
 29105  1  0  0  0
 29106  1  0  0  0
 33 34  1  0  0  0
 33 66  1  0  0  0
 33 70  2  0  0  0
 34 36  1  0  0  0
 34 59  1  0  0  0
 34107  1  0  0  0
 35 44  2  0  0  0
 35 45  1  0  0  0
 35 68  1  0  0  0
 36 56  1  0  0  0
 36108  1  0  0  0
 37 39  1  0  0  0
 37 47  1  0  0  0
 37 66  1  0  0  0
 37109  1  0  0  0
 38 43  2  0  0  0
 38 46  1  0  0  0
 38 47  1  0  0  0
 39 64  1  0  0  0
 39 67  2  0  0  0
 40 52  1  0  0  0
 40 53  2  0  0  0
 40 58  1  0  0  0
 41110  1  0  0  0
 41111  1  0  0  0
 41112  1  0  0  0
 41 48  1  0  0  0
 42 43  1  0  0  0
 42 66  1  0  0  0
 42113  1  0  0  0
 42114  1  0  0  0
 43 44  1  0  0  0
 44115  1  0  0  0
 45 46  2  0  0  0
 45116  1  0  0  0
 46117  1  0  0  0
 47118  1  0  0  0
 47119  1  0  0  0
 48 56  1  0  0  0
 48 65  1  0  0  0
 48120  1  0  0  0
 49 50  1  0  0  0
 49 53  1  0  0  0
 49 64  1  0  0  0
 49121  1  0  0  0
 50 51  1  0  0  0
 50122  1  0  0  0
 50123  1  0  0  0
 51 52  1  0  0  0
 51124  1  0  0  0
 51125  1  0  0  0
 52126  1  0  0  0
 52127  1  0  0  0
 53 54  1  0  0  0
 54 55  2  0  0  0
 54128  1  0  0  0
 55 57  1  0  0  0
 55129  1  0  0  0
 56 69  2  0  0  0
 57 58  2  0  0  0
 57130  1  0  0  0
 58131  1  0  0  0
 59 60  1  0  0  0
 59 61  1  0  0  0
 59 62  1  0  0  0
 60132  1  0  0  0
 60133  1  0  0  0
 60134  1  0  0  0
 61135  1  0  0  0
 61136  1  0  0  0
 61137  1  0  0  0
 62138  1  0  0  0
 62139  1  0  0  0
 62140  1  0  0  0
 63 65  1  0  0  0
 63141  1  0  0  0
 63142  1  0  0  0
 63143  1  0  0  0
 64144  1  0  0  0
 65145  1  0  0  0
 68 81  1  0  0  0
 71 72  2  0  0  0
 71 73  1  0  0  0
 71146  1  0  0  0
 72 84  1  0  0  0
 72147  1  0  0  0
 73 74  2  0  0  0
 73 79  1  0  0  0
 74 75  1  0  0  0
 74 80  1  0  0  0
 75 81  1  0  0  0
 75 84  2  0  0  0
 76148  1  0  0  0
 76149  1  0  0  0
 76150  1  0  0  0
 76 83  1  0  0  0
 77 83  1  0  0  0
 77151  1  0  0  0
 77152  1  0  0  0
 77153  1  0  0  0
 78154  1  0  0  0
 78155  1  0  0  0
 78156  1  0  0  0
 78 86  1  0  0  0
 79 82  1  0  0  0
 79157  1  0  0  0
 79158  1  0  0  0
 80 86  1  0  0  0
 80159  1  0  0  0
 80160  1  0  0  0
 81161  1  0  0  0
 81162  1  0  0  0
 82 85  1  0  0  0
 82163  1  0  0  0
 82164  1  0  0  0
 83 86  1  0  0  0
 83165  1  0  0  0
 85166  1  0  0  0
 86167  1  0  0  0
M  CHG  1  86   1
M  ISO  4   1 100  68 101  81 101  85 100
M  END
> <chiral flag>
0

> <version>
0

> <s_m_source_file>
/data/baiqing/PycharmProjects/Reinvent-master-3.2/result/LINK_invent/BTK/process_docking_weight1_custom_sum_contain_oxygen_bond_distance_aromatic_linkinvent_7_9_3/rearranged_h_0103.sdf

> <i_m_source_file_index>
53

> <r_mmod_Potential_Energy-OPLS-2005>
331.659027099609

> <r_mmod_Stretch_Energy-OPLS-2005>
291.067687988281

> <r_mmod_Bend_Energy-OPLS-2005>
256.801879882812

> <r_mmod_Torsional_Energy-OPLS-2005>
220.19401550293

> <r_mmod_Improper_Torsional_Energy-OPLS-2005>
4.94754695892334

> <r_mmod_Van_der_Waal_Energy-OPLS-2005>
129.722579956055

> <r_mmod_Electrostatic_Energy-OPLS-2005>
-305.966491699219

> <r_mmod_Solvation_Energy-OPLS-2005>
-475.837371826172

> <b_mmod_Minimization_Converged-OPLS-2005>
0

> <r_mmod_RMS_Derivative-OPLS-2005>
1.60036826133728

$$$$
53
                    3D
 Structure written by MMmdl.
159167  0  0  1  0            999 V2000
  -30.3672  -15.4665   20.3567 C   0  0  0  0  0  0
  -30.4354  -12.9629   19.5154 C   0  0  0  0  0  0
  -29.5363  -12.6165   18.2976 C   0  0  0  0  0  0
  -28.1005  -12.2874   18.7406 C   0  0  0  0  0  0
  -27.6036  -13.2736   19.8228 C   0  0  2  0  0  0
  -28.6438  -13.4995   20.9436 C   0  0  0  0  0  0
  -25.2306  -13.8170   20.5766 C   0  0  0  0  0  0
  -24.1687  -13.0359   20.9274 C   0  0  0  0  0  0
  -24.6379  -11.6877   20.8777 C   0  0  0  0  0  0
  -23.9085  -10.4248   21.0413 C   0  0  0  0  0  0
  -24.3629   -9.4168   21.9194 C   0  0  0  0  0  0
  -23.6293   -8.2212   22.0756 C   0  0  0  0  0  0
  -22.4276   -8.0262   21.3544 C   0  0  0  0  0  0
  -21.9919   -9.0234   20.4642 C   0  0  0  0  0  0
  -22.7260  -10.2104   20.3054 C   0  0  0  0  0  0
  -21.6846   -6.0726   22.5281 C   0  0  0  0  0  0
  -21.4011   -6.5631   23.8213 C   0  0  0  0  0  0
  -21.3658   -5.6785   24.9177 C   0  0  0  0  0  0
  -21.6044   -4.3049   24.7229 C   0  0  0  0  0  0
  -21.8822   -3.8139   23.4350 C   0  0  0  0  0  0
  -21.9192   -4.6954   22.3405 C   0  0  0  0  0  0
  -22.7709  -13.5121   21.1918 C   0  0  0  0  0  0
  -22.1661   -4.2140   21.0983 F   0  0  0  0  0  0
  -21.5627   -3.4534   25.7744 F   0  0  0  0  0  0
  -29.8241  -14.1208   20.2963 N   0  0  0  0  0  0
  -26.2779  -12.9475   20.3273 N   0  0  0  0  0  0
  -25.9322  -11.6578   20.5751 N   0  0  0  0  0  0
  -22.0375  -12.8115   22.0482 N   0  0  0  0  0  0
  -25.3776  -15.1898   20.4192 N   0  0  0  0  0  0
  -31.5974  -15.4078   20.1729 O   0  0  0  0  0  0
  -21.6628   -6.8868   21.4244 O   0  0  0  0  0  0
  -22.3395  -14.5429   20.6761 O   0  0  0  0  0  0
  -24.6713  -31.8112   23.1594 C   0  0  0  0  0  0
  -25.9352  -32.4519   23.8097 C   0  0  1  0  0  0
  -27.2302  -26.8261   20.2051 C   0  0  0  0  0  0
  -25.5982  -33.8337   24.2001 N   0  0  0  0  0  0
  -23.4904  -30.4156   21.5106 C   0  0  2  0  0  0
  -24.9441  -28.7720   20.1174 C   0  0  0  0  0  0
  -22.7701  -29.4372   22.4755 C   0  0  0  0  0  0
  -18.0322  -28.1414   22.8455 C   0  0  0  0  0  0
  -24.1488  -36.7174   23.2651 C   0  0  0  0  0  0
  -26.0624  -30.5860   21.4004 C   0  0  0  0  0  0
  -26.1287  -29.1621   20.7522 C   0  0  0  0  0  0
  -27.2590  -28.2140   20.7610 C   0  0  0  0  0  0
  -26.0106  -26.6019   19.5245 C   0  0  0  0  0  0
  -24.9157  -27.5158   19.4824 C   0  0  0  0  0  0
  -23.7351  -29.7141   20.1433 C   0  0  0  0  0  0
  -25.4135  -36.2921   24.0290 C   0  0  1  0  0  0
  -20.5951  -28.3757   23.1173 C   0  0  2  0  0  0
  -20.6795  -26.9430   22.5406 C   0  0  0  0  0  0
  -19.5776  -26.6374   21.5211 C   0  0  0  0  0  0
  -18.1954  -26.7943   22.1612 C   0  0  0  0  0  0
  -19.1588  -28.8908   23.2795 C   0  0  0  0  0  0
  -18.9501  -30.1494   23.8834 C   0  0  0  0  0  0
  -17.6497  -30.6601   24.0552 C   0  0  0  0  0  0
  -25.9109  -34.9310   23.4974 C   0  0  0  0  0  0
  -16.5383  -29.9088   23.6348 C   0  0  0  0  0  0
  -16.7305  -28.6511   23.0360 C   0  0  0  0  0  0
  -26.4572  -31.6511   25.0673 C   0  0  0  0  0  0
  -25.3674  -31.3795   26.1315 C   0  0  0  0  0  0
  -27.0489  -30.2868   24.6472 C   0  0  0  0  0  0
  -27.6038  -32.4349   25.7491 C   0  0  0  0  0  0
  -27.5558  -37.1739   24.8468 C   0  0  0  0  0  0
  -21.4361  -29.3029   22.3512 N   0  0  0  0  0  0
  -26.4265  -37.3675   23.9413 N   0  0  0  0  0  0
  -24.7638  -30.9679   22.0772 N   0  0  0  0  0  0
  -23.4203  -28.7965   23.3050 O   0  0  0  0  0  0
  -28.2923  -25.7460   20.2668 O   0  0  0  0  0  0
  -26.5734  -34.8871   22.4580 O   0  0  0  0  0  0
  -23.5764  -32.1127   23.6635 O   0  0  0  0  0  0
  -29.2049  -21.3603   21.3871 C   0  0  0  0  0  0
  -29.0291  -21.3220   19.1050 C   0  0  0  0  0  0
  -28.4571  -22.9030   21.4271 C   0  0  0  0  0  0
  -28.2678  -22.8591   19.1033 C   0  0  0  0  0  0
  -28.9890  -20.1301   20.2795 C   0  0  1  0  0  0
  -28.5105  -24.0428   20.2281 C   0  0  1  0  0  0
  -31.1181  -18.7558   21.2044 C   0  0  0  0  0  0
  -30.5747  -18.5497   18.7957 C   0  0  0  0  0  0
  -28.1964  -16.7544   20.6605 C   0  0  0  0  0  0
  -29.9702  -18.5101   20.2111 C   0  0  0  0  0  0
  -29.6263  -16.8232   20.4036 N   0  0  0  0  0  0
  -31.4305  -13.2147   19.1474 H   0  0  0  0  0  0
  -30.5850  -12.0878   20.1501 H   0  0  0  0  0  0
  -29.9574  -11.7811   17.7370 H   0  0  0  0  0  0
  -29.5182  -13.4670   17.6143 H   0  0  0  0  0  0
  -28.1018  -11.2745   19.1459 H   0  0  0  0  0  0
  -27.4260  -12.2754   17.8839 H   0  0  0  0  0  0
  -27.4900  -14.2129   19.2859 H   0  0  0  0  0  0
  -28.8879  -12.5599   21.4413 H   0  0  0  0  0  0
  -28.2481  -14.1342   21.7319 H   0  0  0  0  0  0
  -25.2768   -9.5642   22.4780 H   0  0  0  0  0  0
  -23.9991   -7.4599   22.7476 H   0  0  0  0  0  0
  -21.0848   -8.8761   19.8946 H   0  0  0  0  0  0
  -22.3723  -10.9650   19.6166 H   0  0  0  0  0  0
  -21.2003   -7.6139   23.9715 H   0  0  0  0  0  0
  -21.1477   -6.0516   25.9079 H   0  0  0  0  0  0
  -22.0604   -2.7601   23.2855 H   0  0  0  0  0  0
  -22.4004  -11.9783   22.4873 H   0  0  0  0  0  0
  -21.0991  -13.1127   22.2697 H   0  0  0  0  0  0
  -24.6019  -15.8312   20.5403 H   0  0  0  0  0  0
  -26.2273  -15.6468   20.1197 H   0  0  0  0  0  0
  -26.7425  -32.5022   23.0808 H   0  0  0  0  0  0
  -25.0076  -33.9391   25.0116 H   0  0  0  0  0  0
  -22.8091  -31.2492   21.3280 H   0  0  0  0  0  0
  -23.3764  -35.9489   23.3276 H   0  0  0  0  0  0
  -24.3560  -36.8869   22.2074 H   0  0  0  0  0  0
  -23.7237  -37.6341   23.6746 H   0  0  0  0  0  0
  -26.2468  -31.3177   20.6125 H   0  0  0  0  0  0
  -26.9211  -30.6525   22.0567 H   0  0  0  0  0  0
  -28.1604  -28.5193   21.2732 H   0  0  0  0  0  0
  -25.8784  -25.6455   19.0383 H   0  0  0  0  0  0
  -24.0162  -27.2106   18.9653 H   0  0  0  0  0  0
  -23.8994  -30.4749   19.3796 H   0  0  0  0  0  0
  -22.8421  -29.1728   19.8255 H   0  0  0  0  0  0
  -25.1338  -36.1693   25.0781 H   0  0  0  0  0  0
  -21.0026  -28.3374   24.1302 H   0  0  0  0  0  0
  -20.5664  -26.2376   23.3653 H   0  0  0  0  0  0
  -21.6659  -26.7392   22.1221 H   0  0  0  0  0  0
  -19.6938  -25.6271   21.1276 H   0  0  0  0  0  0
  -19.6726  -27.3151   20.6715 H   0  0  0  0  0  0
  -17.4226  -26.6680   21.4014 H   0  0  0  0  0  0
  -18.0347  -26.0099   22.9022 H   0  0  0  0  0  0
  -19.7982  -30.7320   24.2177 H   0  0  0  0  0  0
  -17.5055  -31.6275   24.5166 H   0  0  0  0  0  0
  -15.5383  -30.2975   23.7715 H   0  0  0  0  0  0
  -15.8701  -28.0816   22.7110 H   0  0  0  0  0  0
  -24.5883  -30.7111   25.7631 H   0  0  0  0  0  0
  -24.8832  -32.3006   26.4566 H   0  0  0  0  0  0
  -25.7884  -30.9085   27.0207 H   0  0  0  0  0  0
  -26.3177  -29.6511   24.1467 H   0  0  0  0  0  0
  -27.3979  -29.7272   25.5162 H   0  0  0  0  0  0
  -27.9129  -30.4031   23.9927 H   0  0  0  0  0  0
  -27.2588  -33.3712   26.1889 H   0  0  0  0  0  0
  -28.3944  -32.6809   25.0390 H   0  0  0  0  0  0
  -28.0599  -31.8595   26.5557 H   0  0  0  0  0  0
  -28.2547  -38.0059   24.7512 H   0  0  0  0  0  0
  -28.1078  -36.2581   24.6296 H   0  0  0  0  0  0
  -27.2273  -37.1382   25.8869 H   0  0  0  0  0  0
  -20.9642  -29.8696   21.6604 H   0  0  0  0  0  0
  -26.0097  -38.2721   24.1442 H   0  0  0  0  0  0
  -29.0197  -20.9117   22.3634 H   0  0  0  0  0  0
  -30.2746  -21.5715   21.4008 H   0  0  0  0  0  0
  -30.0841  -21.5356   18.9289 H   0  0  0  0  0  0
  -28.7054  -20.8337   18.1853 H   0  0  0  0  0  0
  -28.8419  -23.3957   22.3205 H   0  0  0  0  0  0
  -27.4032  -22.7358   21.6531 H   0  0  0  0  0  0
  -27.1926  -22.6804   19.0596 H   0  0  0  0  0  0
  -28.5003  -23.3100   18.1382 H   0  0  0  0  0  0
  -27.9417  -19.8387   20.3507 H   0  0  0  0  0  0
  -29.5914  -24.1481   20.1314 H   0  0  0  0  0  0
  -31.6094  -19.7121   21.0234 H   0  0  0  0  0  0
  -31.8905  -17.9892   21.1397 H   0  0  0  0  0  0
  -30.7487  -18.7658   22.2299 H   0  0  0  0  0  0
  -31.0882  -19.4901   18.5970 H   0  0  0  0  0  0
  -29.7984  -18.4311   18.0390 H   0  0  0  0  0  0
  -31.3085  -17.7585   18.6386 H   0  0  0  0  0  0
  -27.9738  -16.1937   21.5639 H   0  0  0  0  0  0
  -27.7017  -16.3156   19.7991 H   0  0  0  0  0  0
  -27.7439  -17.7295   20.8159 H   0  0  0  0  0  0
  1 25  1  0  0  0
  1 30  2  0  0  0
  1 81  1  0  0  0
  2  3  1  0  0  0
  2 25  1  0  0  0
  2 82  1  0  0  0
  2 83  1  0  0  0
  3  4  1  0  0  0
  3 84  1  0  0  0
  3 85  1  0  0  0
  4  5  1  0  0  0
  4 86  1  0  0  0
  4 87  1  0  0  0
  5  6  1  0  0  0
  5 26  1  0  0  0
  5 88  1  0  0  0
  6 25  1  0  0  0
  6 89  1  0  0  0
  6 90  1  0  0  0
  7  8  2  0  0  0
  7 26  1  0  0  0
  7 29  1  0  0  0
  8  9  1  0  0  0
  8 22  1  0  0  0
  9 10  1  0  0  0
  9 27  2  0  0  0
 10 11  2  0  0  0
 10 15  1  0  0  0
 11 12  1  0  0  0
 11 91  1  0  0  0
 12 13  2  0  0  0
 12 92  1  0  0  0
 13 14  1  0  0  0
 13 31  1  0  0  0
 14 15  2  0  0  0
 14 93  1  0  0  0
 15 94  1  0  0  0
 16 17  2  0  0  0
 16 21  1  0  0  0
 16 31  1  0  0  0
 17 18  1  0  0  0
 17 95  1  0  0  0
 18 19  2  0  0  0
 18 96  1  0  0  0
 19 20  1  0  0  0
 19 24  1  0  0  0
 20 21  2  0  0  0
 20 97  1  0  0  0
 21 23  1  0  0  0
 22 28  1  0  0  0
 22 32  2  0  0  0
 26 27  1  0  0  0
 28 98  1  0  0  0
 28 99  1  0  0  0
 29100  1  0  0  0
 29101  1  0  0  0
 33 34  1  0  0  0
 33 66  1  0  0  0
 33 70  2  0  0  0
 34 36  1  0  0  0
 34 59  1  0  0  0
 34102  1  0  0  0
 35 44  2  0  0  0
 35 45  1  0  0  0
 35 68  1  0  0  0
 36 56  1  0  0  0
 36103  1  0  0  0
 37 39  1  0  0  0
 37 47  1  0  0  0
 37 66  1  0  0  0
 37104  1  0  0  0
 38 43  2  0  0  0
 38 46  1  0  0  0
 38 47  1  0  0  0
 39 64  1  0  0  0
 39 67  2  0  0  0
 40 52  1  0  0  0
 40 53  2  0  0  0
 40 58  1  0  0  0
 41105  1  0  0  0
 41106  1  0  0  0
 41107  1  0  0  0
 41 48  1  0  0  0
 42 43  1  0  0  0
 42 66  1  0  0  0
 42108  1  0  0  0
 42109  1  0  0  0
 43 44  1  0  0  0
 44110  1  0  0  0
 45 46  2  0  0  0
 45111  1  0  0  0
 46112  1  0  0  0
 47113  1  0  0  0
 47114  1  0  0  0
 48 56  1  0  0  0
 48 65  1  0  0  0
 48115  1  0  0  0
 49 50  1  0  0  0
 49 53  1  0  0  0
 49 64  1  0  0  0
 49116  1  0  0  0
 50 51  1  0  0  0
 50117  1  0  0  0
 50118  1  0  0  0
 51 52  1  0  0  0
 51119  1  0  0  0
 51120  1  0  0  0
 52121  1  0  0  0
 52122  1  0  0  0
 53 54  1  0  0  0
 54 55  2  0  0  0
 54123  1  0  0  0
 55 57  1  0  0  0
 55124  1  0  0  0
 56 69  2  0  0  0
 57 58  2  0  0  0
 57125  1  0  0  0
 58126  1  0  0  0
 59 60  1  0  0  0
 59 61  1  0  0  0
 59 62  1  0  0  0
 60127  1  0  0  0
 60128  1  0  0  0
 60129  1  0  0  0
 61130  1  0  0  0
 61131  1  0  0  0
 61132  1  0  0  0
 62133  1  0  0  0
 62134  1  0  0  0
 62135  1  0  0  0
 63 65  1  0  0  0
 63136  1  0  0  0
 63137  1  0  0  0
 63138  1  0  0  0
 64139  1  0  0  0
 65140  1  0  0  0
 68 76  1  0  0  0
 71 73  1  0  0  0
 71141  1  0  0  0
 71142  1  0  0  0
 71 75  1  0  0  0
 72 74  1  0  0  0
 72 75  1  0  0  0
 72143  1  0  0  0
 72144  1  0  0  0
 73 76  1  0  0  0
 73145  1  0  0  0
 73146  1  0  0  0
 74 76  1  0  0  0
 74147  1  0  0  0
 74148  1  0  0  0
 75 80  1  0  0  0
 75149  1  0  0  0
 76150  1  0  0  0
 77151  1  0  0  0
 77152  1  0  0  0
 77153  1  0  0  0
 77 80  1  0  0  0
 78 80  1  0  0  0
 78154  1  0  0  0
 78155  1  0  0  0
 78156  1  0  0  0
 79 81  1  0  0  0
 79157  1  0  0  0
 79158  1  0  0  0
 79159  1  0  0  0
 80 81  1  0  0  0
M  ISO  4   1 100  68 101  76 101  81 100
M  END
> <chiral flag>
0

> <version>
0

> <s_m_source_file>
/data/baiqing/PycharmProjects/Reinvent-master-3.2/result/LINK_invent/BTK/process_docking_weight1_custom_sum_contain_oxygen_bond_distance_aromatic_linkinvent_7_9_3/rearranged_h_0103.sdf

> <i_m_source_file_index>
54

> <r_mmod_Potential_Energy-OPLS-2005>
2107.54223632812

> <r_mmod_Stretch_Energy-OPLS-2005>
790.379455566406

> <r_mmod_Bend_Energy-OPLS-2005>
701.037475585938

> <r_mmod_Torsional_Energy-OPLS-2005>
321.968048095703

> <r_mmod_Improper_Torsional_Energy-OPLS-2005>
4.22931480407715

> <r_mmod_Van_der_Waal_Energy-OPLS-2005>
118.868537902832

> <r_mmod_Electrostatic_Energy-OPLS-2005>
-279.706207275391

> <r_mmod_Solvation_Energy-OPLS-2005>
-185.662841796875

> <b_mmod_Minimization_Converged-OPLS-2005>
0

> <r_mmod_RMS_Derivative-OPLS-2005>
0.505967915058136

$$$$
54
                    3D
 Structure written by MMmdl.
163171  0  0  1  0            999 V2000
  -30.3727  -15.4324   20.2857 C   0  0  0  0  0  0
  -30.4343  -12.9260   19.4926 C   0  0  0  0  0  0
  -29.5312  -12.5766   18.2815 C   0  0  0  0  0  0
  -28.0956  -12.2625   18.7384 C   0  0  0  0  0  0
  -27.5941  -13.2574   19.8127 C   0  0  2  0  0  0
  -28.6375  -13.5453   20.9136 C   0  0  0  0  0  0
  -25.2389  -13.8157   20.5842 C   0  0  0  0  0  0
  -24.1707  -13.0382   20.9299 C   0  0  0  0  0  0
  -24.6345  -11.6873   20.8809 C   0  0  0  0  0  0
  -23.9040  -10.4248   21.0434 C   0  0  0  0  0  0
  -24.3598   -9.4158   21.9204 C   0  0  0  0  0  0
  -23.6283   -8.2195   22.0748 C   0  0  0  0  0  0
  -22.4265   -8.0243   21.3532 C   0  0  0  0  0  0
  -21.9894   -9.0216   20.4637 C   0  0  0  0  0  0
  -22.7221  -10.2099   20.3067 C   0  0  0  0  0  0
  -21.6836   -6.0715   22.5285 C   0  0  0  0  0  0
  -21.4001   -6.5625   23.8211 C   0  0  0  0  0  0
  -21.3663   -5.6780   24.9178 C   0  0  0  0  0  0
  -21.6050   -4.3046   24.7237 C   0  0  0  0  0  0
  -21.8816   -3.8136   23.4355 C   0  0  0  0  0  0
  -21.9179   -4.6944   22.3408 C   0  0  0  0  0  0
  -22.7737  -13.5171   21.1924 C   0  0  0  0  0  0
  -22.1650   -4.2130   21.0987 F   0  0  0  0  0  0
  -21.5637   -3.4535   25.7753 F   0  0  0  0  0  0
  -29.8289  -14.0968   20.2349 N   0  0  0  0  0  0
  -26.2770  -12.9365   20.3327 N   0  0  0  0  0  0
  -25.9282  -11.6492   20.5792 N   0  0  0  0  0  0
  -22.0362  -12.8177   22.0468 N   0  0  0  0  0  0
  -25.4109  -15.1895   20.4315 N   0  0  0  0  0  0
  -31.6152  -15.3879   20.2902 O   0  0  0  0  0  0
  -21.6616   -6.8857   21.4239 O   0  0  0  0  0  0
  -22.3449  -14.5491   20.6769 O   0  0  0  0  0  0
  -24.6689  -31.8156   23.1655 C   0  0  0  0  0  0
  -25.9348  -32.4553   23.8134 C   0  0  1  0  0  0
  -27.2219  -26.8606   20.2001 C   0  0  0  0  0  0
  -25.5990  -33.8367   24.2052 N   0  0  0  0  0  0
  -23.4866  -30.4251   21.5148 C   0  0  2  0  0  0
  -24.9406  -28.7928   20.1221 C   0  0  0  0  0  0
  -22.7686  -29.4406   22.4750 C   0  0  0  0  0  0
  -18.0335  -28.1418   22.8458 C   0  0  0  0  0  0
  -24.1502  -36.7176   23.2648 C   0  0  0  0  0  0
  -26.0594  -30.6004   21.4049 C   0  0  0  0  0  0
  -26.1271  -29.1817   20.7562 C   0  0  0  0  0  0
  -27.2616  -28.2401   20.7639 C   0  0  0  0  0  0
  -26.0021  -26.6375   19.5182 C   0  0  0  0  0  0
  -24.9069  -27.5435   19.4822 C   0  0  0  0  0  0
  -23.7325  -29.7327   20.1447 C   0  0  0  0  0  0
  -25.4144  -36.2942   24.0296 C   0  0  1  0  0  0
  -20.5958  -28.3765   23.1167 C   0  0  2  0  0  0
  -20.6818  -26.9440   22.5393 C   0  0  0  0  0  0
  -19.5791  -26.6385   21.5209 C   0  0  0  0  0  0
  -18.1971  -26.7946   22.1614 C   0  0  0  0  0  0
  -19.1598  -28.8912   23.2799 C   0  0  0  0  0  0
  -18.9499  -30.1500   23.8836 C   0  0  0  0  0  0
  -17.6489  -30.6602   24.0549 C   0  0  0  0  0  0
  -25.9100  -34.9330   23.4993 C   0  0  0  0  0  0
  -16.5379  -29.9080   23.6349 C   0  0  0  0  0  0
  -16.7311  -28.6504   23.0363 C   0  0  0  0  0  0
  -26.4588  -31.6508   25.0673 C   0  0  0  0  0  0
  -25.3703  -31.3754   26.1310 C   0  0  0  0  0  0
  -27.0502  -30.2877   24.6448 C   0  0  0  0  0  0
  -27.6086  -32.4320   25.7457 C   0  0  0  0  0  0
  -27.5571  -37.1750   24.8463 C   0  0  0  0  0  0
  -21.4347  -29.3034   22.3499 N   0  0  0  0  0  0
  -26.4281  -37.3694   23.9406 N   0  0  0  0  0  0
  -24.7608  -30.9765   22.0816 N   0  0  0  0  0  0
  -23.4196  -28.7991   23.3034 O   0  0  0  0  0  0
  -28.2348  -25.7425   20.2249 O   0  0  0  0  0  0
  -26.5707  -34.8870   22.4593 O   0  0  0  0  0  0
  -23.5752  -32.1144   23.6726 O   0  0  0  0  0  0
  -29.3282  -18.8889   21.6666 C   0  0  0  0  0  0
  -29.3502  -19.6093   19.6387 C   0  0  0  0  0  0
  -29.5157  -18.3292   20.3512 C   0  0  0  0  0  0
  -29.0788  -20.2845   21.6770 C   0  0  0  0  0  0
  -28.8485  -21.1387   22.8820 C   0  0  0  0  0  0
  -28.8545  -17.2901   14.8360 C   0  0  0  0  0  0
  -30.8860  -17.0431   17.1988 C   0  0  0  0  0  0
  -28.5857  -16.5839   16.1734 C   0  0  0  0  0  0
  -29.0022  -22.5610   19.9713 C   0  0  0  0  0  0
  -28.8482  -16.5053   18.6855 C   0  0  0  0  0  0
  -28.0399  -24.0744   20.3951 C   0  0  0  0  0  0
  -29.3623  -17.1613   17.3761 C   0  0  1  0  0  0
  -29.0658  -20.8894   20.3964 N   0  0  0  0  0  0
  -29.6310  -16.7229   19.9285 N   0  0  0  0  0  0
  -31.4320  -13.1730   19.1305 H   0  0  0  0  0  0
  -30.5613  -12.0670   20.1534 H   0  0  0  0  0  0
  -29.9468  -11.7301   17.7320 H   0  0  0  0  0  0
  -29.5170  -13.4128   17.5802 H   0  0  0  0  0  0
  -28.1027  -11.2567   19.1599 H   0  0  0  0  0  0
  -27.4162  -12.2350   17.8869 H   0  0  0  0  0  0
  -27.4323  -14.1777   19.2662 H   0  0  0  0  0  0
  -28.8667  -12.6571   21.5037 H   0  0  0  0  0  0
  -28.2459  -14.2890   21.6081 H   0  0  0  0  0  0
  -25.2730   -9.5650   22.4793 H   0  0  0  0  0  0
  -23.9985   -7.4587   22.7476 H   0  0  0  0  0  0
  -21.0822   -8.8744   19.8955 H   0  0  0  0  0  0
  -22.3678  -10.9646   19.6195 H   0  0  0  0  0  0
  -21.1985   -7.6131   23.9717 H   0  0  0  0  0  0
  -21.1496   -6.0506   25.9081 H   0  0  0  0  0  0
  -22.0597   -2.7598   23.2861 H   0  0  0  0  0  0
  -22.3964  -11.9858   22.4905 H   0  0  0  0  0  0
  -21.0985  -13.1223   22.2651 H   0  0  0  0  0  0
  -24.6588  -15.8536   20.5749 H   0  0  0  0  0  0
  -26.2807  -15.6298   20.1609 H   0  0  0  0  0  0
  -26.7404  -32.5063   23.0824 H   0  0  0  0  0  0
  -25.0131  -33.9454   25.0199 H   0  0  0  0  0  0
  -22.8011  -31.2571   21.3366 H   0  0  0  0  0  0
  -23.3788  -35.9479   23.3267 H   0  0  0  0  0  0
  -24.3579  -36.8865   22.2069 H   0  0  0  0  0  0
  -23.7238  -37.6344   23.6727 H   0  0  0  0  0  0
  -26.2479  -31.3338   20.6198 H   0  0  0  0  0  0
  -26.9145  -30.6624   22.0646 H   0  0  0  0  0  0
  -28.1624  -28.5412   21.2815 H   0  0  0  0  0  0
  -25.8643  -25.6902   19.0172 H   0  0  0  0  0  0
  -24.0076  -27.2415   18.9638 H   0  0  0  0  0  0
  -23.8968  -30.4934   19.3804 H   0  0  0  0  0  0
  -22.8401  -29.1909   19.8274 H   0  0  0  0  0  0
  -25.1365  -36.1724   25.0792 H   0  0  0  0  0  0
  -21.0062  -28.3385   24.1280 H   0  0  0  0  0  0
  -20.5713  -26.2375   23.3636 H   0  0  0  0  0  0
  -21.6686  -26.7406   22.1199 H   0  0  0  0  0  0
  -19.6940  -25.6283   21.1273 H   0  0  0  0  0  0
  -19.6753  -27.3161   20.6715 H   0  0  0  0  0  0
  -17.4250  -26.6693   21.4005 H   0  0  0  0  0  0
  -18.0362  -26.0094   22.9021 H   0  0  0  0  0  0
  -19.7973  -30.7353   24.2158 H   0  0  0  0  0  0
  -17.5036  -31.6271   24.5182 H   0  0  0  0  0  0
  -15.5379  -30.2964   23.7720 H   0  0  0  0  0  0
  -15.8708  -28.0812   22.7096 H   0  0  0  0  0  0
  -24.5908  -30.7096   25.7582 H   0  0  0  0  0  0
  -24.8867  -32.2956   26.4604 H   0  0  0  0  0  0
  -25.7924  -30.8978   27.0162 H   0  0  0  0  0  0
  -26.3180  -29.6524   24.1455 H   0  0  0  0  0  0
  -27.4019  -29.7274   25.5118 H   0  0  0  0  0  0
  -27.9129  -30.4049   23.9887 H   0  0  0  0  0  0
  -27.2684  -33.3686   26.1872 H   0  0  0  0  0  0
  -28.3969  -32.6769   25.0326 H   0  0  0  0  0  0
  -28.0671  -31.8543   26.5491 H   0  0  0  0  0  0
  -28.2577  -38.0063   24.7536 H   0  0  0  0  0  0
  -28.1093  -36.2596   24.6279 H   0  0  0  0  0  0
  -27.2279  -37.1358   25.8863 H   0  0  0  0  0  0
  -20.9612  -29.8680   21.6585 H   0  0  0  0  0  0
  -26.0117  -38.2745   24.1437 H   0  0  0  0  0  0
  -29.3353  -18.3005   22.5741 H   0  0  0  0  0  0
  -29.4337  -19.7814   18.5769 H   0  0  0  0  0  0
  -29.2278  -20.6541   23.7828 H   0  0  0  0  0  0
  -27.7834  -21.3214   23.0323 H   0  0  0  0  0  0
  -29.3515  -22.1027   22.7916 H   0  0  0  0  0  0
  -28.2243  -16.8710   14.0506 H   0  0  0  0  0  0
  -29.8899  -17.1673   14.5171 H   0  0  0  0  0  0
  -28.6405  -18.3584   14.8960 H   0  0  0  0  0  0
  -31.2300  -17.6193   16.3405 H   0  0  0  0  0  0
  -31.1930  -16.0081   17.0493 H   0  0  0  0  0  0
  -31.4261  -17.4318   18.0629 H   0  0  0  0  0  0
  -28.7998  -15.5186   16.0672 H   0  0  0  0  0  0
  -27.5155  -16.6536   16.3784 H   0  0  0  0  0  0
  -30.0246  -22.8824   20.1716 H   0  0  0  0  0  0
  -28.9605  -22.5442   18.8822 H   0  0  0  0  0  0
  -28.7725  -15.4572   18.4315 H   0  0  0  0  0  0
  -27.8251  -16.8300   18.8798 H   0  0  0  0  0  0
  -27.8764  -23.9799   21.4678 H   0  0  0  0  0  0
  -27.0531  -23.8874   19.9740 H   0  0  0  0  0  0
  -29.1060  -18.2130   17.3785 H   0  0  0  0  0  0
  1 25  1  0  0  0
  1 30  2  0  0  0
  1 84  1  0  0  0
  2  3  1  0  0  0
  2 25  1  0  0  0
  2 85  1  0  0  0
  2 86  1  0  0  0
  3  4  1  0  0  0
  3 87  1  0  0  0
  3 88  1  0  0  0
  4  5  1  0  0  0
  4 89  1  0  0  0
  4 90  1  0  0  0
  5  6  1  0  0  0
  5 26  1  0  0  0
  5 91  1  0  0  0
  6 25  1  0  0  0
  6 92  1  0  0  0
  6 93  1  0  0  0
  7  8  2  0  0  0
  7 26  1  0  0  0
  7 29  1  0  0  0
  8  9  1  0  0  0
  8 22  1  0  0  0
  9 10  1  0  0  0
  9 27  2  0  0  0
 10 11  2  0  0  0
 10 15  1  0  0  0
 11 12  1  0  0  0
 11 94  1  0  0  0
 12 13  2  0  0  0
 12 95  1  0  0  0
 13 14  1  0  0  0
 13 31  1  0  0  0
 14 15  2  0  0  0
 14 96  1  0  0  0
 15 97  1  0  0  0
 16 17  2  0  0  0
 16 21  1  0  0  0
 16 31  1  0  0  0
 17 18  1  0  0  0
 17 98  1  0  0  0
 18 19  2  0  0  0
 18 99  1  0  0  0
 19 20  1  0  0  0
 19 24  1  0  0  0
 20 21  2  0  0  0
 20100  1  0  0  0
 21 23  1  0  0  0
 22 28  1  0  0  0
 22 32  2  0  0  0
 26 27  1  0  0  0
 28101  1  0  0  0
 28102  1  0  0  0
 29103  1  0  0  0
 29104  1  0  0  0
 33 34  1  0  0  0
 33 66  1  0  0  0
 33 70  2  0  0  0
 34 36  1  0  0  0
 34 59  1  0  0  0
 34105  1  0  0  0
 35 44  2  0  0  0
 35 45  1  0  0  0
 35 68  1  0  0  0
 36 56  1  0  0  0
 36106  1  0  0  0
 37 39  1  0  0  0
 37 47  1  0  0  0
 37 66  1  0  0  0
 37107  1  0  0  0
 38 43  2  0  0  0
 38 46  1  0  0  0
 38 47  1  0  0  0
 39 64  1  0  0  0
 39 67  2  0  0  0
 40 52  1  0  0  0
 40 53  2  0  0  0
 40 58  1  0  0  0
 41108  1  0  0  0
 41109  1  0  0  0
 41110  1  0  0  0
 41 48  1  0  0  0
 42 43  1  0  0  0
 42 66  1  0  0  0
 42111  1  0  0  0
 42112  1  0  0  0
 43 44  1  0  0  0
 44113  1  0  0  0
 45 46  2  0  0  0
 45114  1  0  0  0
 46115  1  0  0  0
 47116  1  0  0  0
 47117  1  0  0  0
 48 56  1  0  0  0
 48 65  1  0  0  0
 48118  1  0  0  0
 49 50  1  0  0  0
 49 53  1  0  0  0
 49 64  1  0  0  0
 49119  1  0  0  0
 50 51  1  0  0  0
 50120  1  0  0  0
 50121  1  0  0  0
 51 52  1  0  0  0
 51122  1  0  0  0
 51123  1  0  0  0
 52124  1  0  0  0
 52125  1  0  0  0
 53 54  1  0  0  0
 54 55  2  0  0  0
 54126  1  0  0  0
 55 57  1  0  0  0
 55127  1  0  0  0
 56 69  2  0  0  0
 57 58  2  0  0  0
 57128  1  0  0  0
 58129  1  0  0  0
 59 60  1  0  0  0
 59 61  1  0  0  0
 59 62  1  0  0  0
 60130  1  0  0  0
 60131  1  0  0  0
 60132  1  0  0  0
 61133  1  0  0  0
 61134  1  0  0  0
 61135  1  0  0  0
 62136  1  0  0  0
 62137  1  0  0  0
 62138  1  0  0  0
 63 65  1  0  0  0
 63139  1  0  0  0
 63140  1  0  0  0
 63141  1  0  0  0
 64142  1  0  0  0
 65143  1  0  0  0
 68 81  1  0  0  0
 71 73  1  0  0  0
 71 74  2  0  0  0
 71144  1  0  0  0
 72 73  2  0  0  0
 72 83  1  0  0  0
 72145  1  0  0  0
 73 84  1  0  0  0
 74 75  1  0  0  0
 74 83  1  0  0  0
 75146  1  0  0  0
 75147  1  0  0  0
 75148  1  0  0  0
 76 78  1  0  0  0
 76149  1  0  0  0
 76150  1  0  0  0
 76151  1  0  0  0
 77152  1  0  0  0
 77153  1  0  0  0
 77154  1  0  0  0
 77 82  1  0  0  0
 78 82  1  0  0  0
 78155  1  0  0  0
 78156  1  0  0  0
 79 81  1  0  0  0
 79 83  1  0  0  0
 79157  1  0  0  0
 79158  1  0  0  0
 80 82  1  0  0  0
 80 84  1  0  0  0
 80159  1  0  0  0
 80160  1  0  0  0
 81161  1  0  0  0
 81162  1  0  0  0
 82163  1  0  0  0
M  ISO  4   1 100  68 101  81 101  84 100
M  END
> <chiral flag>
0

> <version>
0

> <s_m_source_file>
/data/baiqing/PycharmProjects/Reinvent-master-3.2/result/LINK_invent/BTK/process_docking_weight1_custom_sum_contain_oxygen_bond_distance_aromatic_linkinvent_7_9_3/rearranged_h_0103.sdf

> <i_m_source_file_index>
55

> <r_mmod_Potential_Energy-OPLS-2005>
1832.84912109375

> <r_mmod_Stretch_Energy-OPLS-2005>
707.383117675781

> <r_mmod_Bend_Energy-OPLS-2005>
521.551574707031

> <r_mmod_Torsional_Energy-OPLS-2005>
340.463012695312

> <r_mmod_Improper_Torsional_Energy-OPLS-2005>
15.3057069778442

> <r_mmod_Van_der_Waal_Energy-OPLS-2005>
110.468315124512

> <r_mmod_Electrostatic_Energy-OPLS-2005>
-284.3232421875

> <r_mmod_Solvation_Energy-OPLS-2005>
-194.528228759766

> <b_mmod_Minimization_Converged-OPLS-2005>
0

> <r_mmod_RMS_Derivative-OPLS-2005>
2.6839702129364

$$$$
55
                    3D
 Structure written by MMmdl.
157165  0  0  1  0            999 V2000
  -30.6176  -14.7243   20.4578 C   0  0  0  0  0  0
  -30.4286  -12.4374   19.4875 C   0  0  0  0  0  0
  -29.5123  -12.5095   18.2453 C   0  0  0  0  0  0
  -28.0348  -12.3439   18.6491 C   0  0  0  0  0  0
  -27.6444  -13.2336   19.8596 C   0  0  2  0  0  0
  -28.6856  -13.1552   20.9991 C   0  0  0  0  0  0
  -25.2502  -13.8205   20.5699 C   0  0  0  0  0  0
  -24.1790  -13.0444   20.9199 C   0  0  0  0  0  0
  -24.6387  -11.6924   20.8745 C   0  0  0  0  0  0
  -23.9068  -10.4296   21.0402 C   0  0  0  0  0  0
  -24.3619   -9.4213   21.9182 C   0  0  0  0  0  0
  -23.6294   -8.2247   22.0755 C   0  0  0  0  0  0
  -22.4277   -8.0282   21.3544 C   0  0  0  0  0  0
  -21.9910   -9.0255   20.4646 C   0  0  0  0  0  0
  -22.7240  -10.2134   20.3053 C   0  0  0  0  0  0
  -21.6857   -6.0732   22.5276 C   0  0  0  0  0  0
  -21.4017   -6.5637   23.8209 C   0  0  0  0  0  0
  -21.3661   -5.6791   24.9170 C   0  0  0  0  0  0
  -21.6043   -4.3052   24.7222 C   0  0  0  0  0  0
  -21.8821   -3.8144   23.4343 C   0  0  0  0  0  0
  -21.9192   -4.6958   22.3399 C   0  0  0  0  0  0
  -22.7810  -13.5224   21.1855 C   0  0  0  0  0  0
  -22.1661   -4.2143   21.0976 F   0  0  0  0  0  0
  -21.5627   -3.4539   25.7735 F   0  0  0  0  0  0
  -29.9938  -13.4975   20.4272 N   0  0  0  0  0  0
  -26.2941  -12.9420   20.3315 N   0  0  0  0  0  0
  -25.9324  -11.6557   20.5766 N   0  0  0  0  0  0
  -22.0464  -12.8211   22.0416 N   0  0  0  0  0  0
  -25.4189  -15.1925   20.4119 N   0  0  0  0  0  0
  -31.7929  -14.8210   20.0941 O   0  0  0  0  0  0
  -21.6643   -6.8875   21.4240 O   0  0  0  0  0  0
  -22.3489  -14.5528   20.6702 O   0  0  0  0  0  0
  -24.6299  -31.8552   23.1994 C   0  0  0  0  0  0
  -25.9128  -32.4749   23.8337 C   0  0  1  0  0  0
  -27.2123  -27.2681   20.1426 C   0  0  0  0  0  0
  -25.5927  -33.8552   24.2257 N   0  0  0  0  0  0
  -23.4263  -30.4783   21.5407 C   0  0  2  0  0  0
  -24.8764  -28.9313   20.1023 C   0  0  0  0  0  0
  -22.7500  -29.4596   22.4904 C   0  0  0  0  0  0
  -18.0293  -28.1385   22.8484 C   0  0  0  0  0  0
  -24.1493  -36.7287   23.2643 C   0  0  0  0  0  0
  -25.9719  -30.7702   21.3806 C   0  0  0  0  0  0
  -26.0447  -29.3944   20.7238 C   0  0  0  0  0  0
  -27.2168  -28.5730   20.7375 C   0  0  0  0  0  0
  -26.0432  -26.8939   19.4475 C   0  0  0  0  0  0
  -24.8813  -27.6885   19.4502 C   0  0  0  0  0  0
  -23.6441  -29.8139   20.1554 C   0  0  0  0  0  0
  -25.4118  -36.3066   24.0330 C   0  0  1  0  0  0
  -20.5899  -28.3697   23.1269 C   0  0  2  0  0  0
  -20.6777  -26.9414   22.5406 C   0  0  0  0  0  0
  -19.5753  -26.6381   21.5210 C   0  0  0  0  0  0
  -18.1936  -26.7927   22.1624 C   0  0  0  0  0  0
  -19.1549  -28.8861   23.2869 C   0  0  0  0  0  0
  -18.9467  -30.1458   23.8883 C   0  0  0  0  0  0
  -17.6467  -30.6583   24.0570 C   0  0  0  0  0  0
  -25.9060  -34.9439   23.5101 C   0  0  0  0  0  0
  -16.5358  -29.9081   23.6332 C   0  0  0  0  0  0
  -16.7281  -28.6503   23.0351 C   0  0  0  0  0  0
  -26.4494  -31.6570   25.0725 C   0  0  0  0  0  0
  -25.3720  -31.3723   26.1452 C   0  0  0  0  0  0
  -27.0337  -30.2984   24.6211 C   0  0  0  0  0  0
  -27.6044  -32.4316   25.7491 C   0  0  0  0  0  0
  -27.5572  -37.1798   24.8466 C   0  0  0  0  0  0
  -21.4208  -29.3043   22.3651 N   0  0  0  0  0  0
  -26.4288  -37.3767   23.9413 N   0  0  0  0  0  0
  -24.6947  -31.0531   22.0958 N   0  0  0  0  0  0
  -23.4204  -28.8152   23.3009 O   0  0  0  0  0  0
  -28.2766  -26.3400   20.2095 O   0  0  0  0  0  0
  -26.5641  -34.8921   22.4672 O   0  0  0  0  0  0
  -23.5453  -32.1365   23.7293 O   0  0  0  0  0  0
  -30.2506  -19.2074   21.7449 C   0  0  0  0  0  0
  -28.9951  -19.7007   20.0023 C   0  0  0  0  0  0
  -29.7258  -18.6374   20.5458 C   0  0  0  0  0  0
  -29.8506  -20.5216   21.8799 C   0  0  0  0  0  0
  -30.1311  -21.4837   22.9910 C   0  0  0  0  0  0
  -26.6482  -24.7015   21.3665 C   0  0  0  0  0  0
  -30.0405  -17.1999   19.9351 C   0  0  0  0  0  0
  -28.8271  -23.6385   20.3304 C   0  0  0  0  0  0
  -28.2276  -22.1651   20.6754 C   0  0  0  0  0  0
  -28.0920  -24.9924   20.8846 C   0  0  1  0  0  0
  -29.0460  -20.8759   20.7999 N   0  0  0  0  0  0
  -29.8489  -15.8623   20.6433 N   0  0  0  0  0  0
  -31.4727  -12.5487   19.1905 H   0  0  0  0  0  0
  -30.3591  -11.4581   19.9634 H   0  0  0  0  0  0
  -29.7914  -11.7401   17.5243 H   0  0  0  0  0  0
  -29.6497  -13.4673   17.7411 H   0  0  0  0  0  0
  -27.8760  -11.2935   18.8948 H   0  0  0  0  0  0
  -27.3848  -12.5575   17.7999 H   0  0  0  0  0  0
  -27.6444  -14.2589   19.4902 H   0  0  0  0  0  0
  -28.7101  -12.1554   21.4341 H   0  0  0  0  0  0
  -28.4235  -13.8349   21.8114 H   0  0  0  0  0  0
  -25.2766   -9.5683   22.4756 H   0  0  0  0  0  0
  -23.9998   -7.4638   22.7477 H   0  0  0  0  0  0
  -21.0841   -8.8773   19.8952 H   0  0  0  0  0  0
  -22.3700  -10.9669   19.6156 H   0  0  0  0  0  0
  -21.2019   -7.6147   23.9708 H   0  0  0  0  0  0
  -21.1479   -6.0523   25.9071 H   0  0  0  0  0  0
  -22.0600   -2.7607   23.2847 H   0  0  0  0  0  0
  -22.4096  -11.9880   22.4803 H   0  0  0  0  0  0
  -21.1077  -13.1216   22.2628 H   0  0  0  0  0  0
  -24.6519  -15.8460   20.5258 H   0  0  0  0  0  0
  -26.2654  -15.6340   20.0775 H   0  0  0  0  0  0
  -26.7200  -32.5416   23.1084 H   0  0  0  0  0  0
  -25.0066  -33.9692   25.0397 H   0  0  0  0  0  0
  -22.7233  -31.3013   21.3944 H   0  0  0  0  0  0
  -23.3752  -35.9622   23.3306 H   0  0  0  0  0  0
  -24.3582  -36.8906   22.2056 H   0  0  0  0  0  0
  -23.7257  -37.6492   23.6668 H   0  0  0  0  0  0
  -26.1148  -31.5295   20.6104 H   0  0  0  0  0  0
  -26.8488  -30.8198   22.0148 H   0  0  0  0  0  0
  -28.1050  -28.9136   21.2494 H   0  0  0  0  0  0
  -26.0127  -25.9430   18.9357 H   0  0  0  0  0  0
  -23.9942  -27.3357   18.9430 H   0  0  0  0  0  0
  -23.7634  -30.5913   19.4004 H   0  0  0  0  0  0
  -22.7630  -29.2459   19.8500 H   0  0  0  0  0  0
  -25.1301  -36.1907   25.0822 H   0  0  0  0  0  0
  -21.0003  -28.3277   24.1384 H   0  0  0  0  0  0
  -20.5677  -26.2300   23.3609 H   0  0  0  0  0  0
  -21.6648  -26.7443   22.1201 H   0  0  0  0  0  0
  -19.6922  -25.6291   21.1243 H   0  0  0  0  0  0
  -19.6690  -27.3193   20.6744 H   0  0  0  0  0  0
  -17.4204  -26.6672   21.4026 H   0  0  0  0  0  0
  -18.0327  -26.0069   22.9024 H   0  0  0  0  0  0
  -19.7948  -30.7282   24.2225 H   0  0  0  0  0  0
  -17.5033  -31.6259   24.5179 H   0  0  0  0  0  0
  -15.5364  -30.2991   23.7659 H   0  0  0  0  0  0
  -15.8681  -28.0830   22.7058 H   0  0  0  0  0  0
  -24.5911  -30.7038   25.7808 H   0  0  0  0  0  0
  -24.8895  -32.2891   26.4850 H   0  0  0  0  0  0
  -25.8050  -30.8935   27.0244 H   0  0  0  0  0  0
  -26.2910  -29.6748   24.1221 H   0  0  0  0  0  0
  -27.3999  -29.7219   25.4718 H   0  0  0  0  0  0
  -27.8805  -30.4267   23.9469 H   0  0  0  0  0  0
  -27.2632  -33.3630   26.2023 H   0  0  0  0  0  0
  -28.3864  -32.6860   25.0321 H   0  0  0  0  0  0
  -28.0704  -31.8475   26.5437 H   0  0  0  0  0  0
  -28.2587  -38.0097   24.7504 H   0  0  0  0  0  0
  -28.1070  -36.2623   24.6298 H   0  0  0  0  0  0
  -27.2293  -37.1453   25.8871 H   0  0  0  0  0  0
  -20.9393  -29.8769   21.6862 H   0  0  0  0  0  0
  -26.0162  -38.2841   24.1403 H   0  0  0  0  0  0
  -30.8900  -18.6943   22.4509 H   0  0  0  0  0  0
  -28.4124  -19.7215   19.0897 H   0  0  0  0  0  0
  -30.8570  -21.0711   23.6919 H   0  0  0  0  0  0
  -29.2247  -21.7081   23.5544 H   0  0  0  0  0  0
  -30.5348  -22.4230   22.6135 H   0  0  0  0  0  0
  -26.1729  -25.5725   21.8185 H   0  0  0  0  0  0
  -26.0140  -24.3394   20.5577 H   0  0  0  0  0  0
  -26.6274  -23.9538   22.1562 H   0  0  0  0  0  0
  -31.0792  -17.2563   19.6074 H   0  0  0  0  0  0
  -29.4667  -17.1291   19.0104 H   0  0  0  0  0  0
  -28.8818  -23.7084   19.2443 H   0  0  0  0  0  0
  -29.8653  -23.6715   20.6601 H   0  0  0  0  0  0
  -27.4195  -21.9668   19.9706 H   0  0  0  0  0  0
  -27.7265  -22.2339   21.6373 H   0  0  0  0  0  0
  -28.6139  -25.1762   21.8242 H   0  0  0  0  0  0
  -28.9179  -15.6940   20.9927 H   0  0  0  0  0  0
  1 25  1  0  0  0
  1 30  2  0  0  0
  1 82  1  0  0  0
  2  3  1  0  0  0
  2 25  1  0  0  0
  2 83  1  0  0  0
  2 84  1  0  0  0
  3  4  1  0  0  0
  3 85  1  0  0  0
  3 86  1  0  0  0
  4  5  1  0  0  0
  4 87  1  0  0  0
  4 88  1  0  0  0
  5  6  1  0  0  0
  5 26  1  0  0  0
  5 89  1  0  0  0
  6 25  1  0  0  0
  6 90  1  0  0  0
  6 91  1  0  0  0
  7  8  2  0  0  0
  7 26  1  0  0  0
  7 29  1  0  0  0
  8  9  1  0  0  0
  8 22  1  0  0  0
  9 10  1  0  0  0
  9 27  2  0  0  0
 10 11  2  0  0  0
 10 15  1  0  0  0
 11 12  1  0  0  0
 11 92  1  0  0  0
 12 13  2  0  0  0
 12 93  1  0  0  0
 13 14  1  0  0  0
 13 31  1  0  0  0
 14 15  2  0  0  0
 14 94  1  0  0  0
 15 95  1  0  0  0
 16 17  2  0  0  0
 16 21  1  0  0  0
 16 31  1  0  0  0
 17 18  1  0  0  0
 17 96  1  0  0  0
 18 19  2  0  0  0
 18 97  1  0  0  0
 19 20  1  0  0  0
 19 24  1  0  0  0
 20 21  2  0  0  0
 20 98  1  0  0  0
 21 23  1  0  0  0
 22 28  1  0  0  0
 22 32  2  0  0  0
 26 27  1  0  0  0
 28 99  1  0  0  0
 28100  1  0  0  0
 29101  1  0  0  0
 29102  1  0  0  0
 33 34  1  0  0  0
 33 66  1  0  0  0
 33 70  2  0  0  0
 34 36  1  0  0  0
 34 59  1  0  0  0
 34103  1  0  0  0
 35 44  2  0  0  0
 35 45  1  0  0  0
 35 68  1  0  0  0
 36 56  1  0  0  0
 36104  1  0  0  0
 37 39  1  0  0  0
 37 47  1  0  0  0
 37 66  1  0  0  0
 37105  1  0  0  0
 38 43  2  0  0  0
 38 46  1  0  0  0
 38 47  1  0  0  0
 39 64  1  0  0  0
 39 67  2  0  0  0
 40 52  1  0  0  0
 40 53  2  0  0  0
 40 58  1  0  0  0
 41106  1  0  0  0
 41107  1  0  0  0
 41108  1  0  0  0
 41 48  1  0  0  0
 42 43  1  0  0  0
 42 66  1  0  0  0
 42109  1  0  0  0
 42110  1  0  0  0
 43 44  1  0  0  0
 44111  1  0  0  0
 45 46  2  0  0  0
 45112  1  0  0  0
 46113  1  0  0  0
 47114  1  0  0  0
 47115  1  0  0  0
 48 56  1  0  0  0
 48 65  1  0  0  0
 48116  1  0  0  0
 49 50  1  0  0  0
 49 53  1  0  0  0
 49 64  1  0  0  0
 49117  1  0  0  0
 50 51  1  0  0  0
 50118  1  0  0  0
 50119  1  0  0  0
 51 52  1  0  0  0
 51120  1  0  0  0
 51121  1  0  0  0
 52122  1  0  0  0
 52123  1  0  0  0
 53 54  1  0  0  0
 54 55  2  0  0  0
 54124  1  0  0  0
 55 57  1  0  0  0
 55125  1  0  0  0
 56 69  2  0  0  0
 57 58  2  0  0  0
 57126  1  0  0  0
 58127  1  0  0  0
 59 60  1  0  0  0
 59 61  1  0  0  0
 59 62  1  0  0  0
 60128  1  0  0  0
 60129  1  0  0  0
 60130  1  0  0  0
 61131  1  0  0  0
 61132  1  0  0  0
 61133  1  0  0  0
 62134  1  0  0  0
 62135  1  0  0  0
 62136  1  0  0  0
 63 65  1  0  0  0
 63137  1  0  0  0
 63138  1  0  0  0
 63139  1  0  0  0
 64140  1  0  0  0
 65141  1  0  0  0
 68 80  1  0  0  0
 71 73  1  0  0  0
 71 74  2  0  0  0
 71142  1  0  0  0
 72 73  2  0  0  0
 72 81  1  0  0  0
 72143  1  0  0  0
 73 77  1  0  0  0
 74 75  1  0  0  0
 74 81  1  0  0  0
 75144  1  0  0  0
 75145  1  0  0  0
 75146  1  0  0  0
 76147  1  0  0  0
 76148  1  0  0  0
 76149  1  0  0  0
 76 80  1  0  0  0
 77 82  1  0  0  0
 77150  1  0  0  0
 77151  1  0  0  0
 78 79  1  0  0  0
 78 80  1  0  0  0
 78152  1  0  0  0
 78153  1  0  0  0
 79 81  1  0  0  0
 79154  1  0  0  0
 79155  1  0  0  0
 80156  1  0  0  0
 82157  1  0  0  0
M  ISO  4   1 100  68 101  80 101  82 100
M  END
> <chiral flag>
0

> <version>
0

> <s_m_source_file>
/data/baiqing/PycharmProjects/Reinvent-master-3.2/result/LINK_invent/BTK/process_docking_weight1_custom_sum_contain_oxygen_bond_distance_aromatic_linkinvent_7_9_3/rearranged_h_0103.sdf

> <i_m_source_file_index>
56

> <r_mmod_Potential_Energy-OPLS-2005>
154.646667480469

> <r_mmod_Stretch_Energy-OPLS-2005>
122.280303955078

> <r_mmod_Bend_Energy-OPLS-2005>
188.020065307617

> <r_mmod_Torsional_Energy-OPLS-2005>
269.820220947266

> <r_mmod_Improper_Torsional_Energy-OPLS-2005>
9.47101593017578

> <r_mmod_Van_der_Waal_Energy-OPLS-2005>
124.198104858398

> <r_mmod_Electrostatic_Energy-OPLS-2005>
-428.853576660156

> <r_mmod_Solvation_Energy-OPLS-2005>
-213.265686035156

> <b_mmod_Minimization_Converged-OPLS-2005>
0

> <r_mmod_RMS_Derivative-OPLS-2005>
1.29303240776062

$$$$
56
                    3D
 Structure written by MMmdl.
163171  0  0  1  0            999 V2000
  -30.6238  -14.7245   20.4846 C   0  0  0  0  0  0
  -30.4328  -12.4514   19.4595 C   0  0  0  0  0  0
  -29.5080  -12.5148   18.2254 C   0  0  0  0  0  0
  -28.0340  -12.3358   18.6402 C   0  0  0  0  0  0
  -27.6427  -13.2275   19.8489 C   0  0  2  0  0  0
  -28.6898  -13.1503   20.9804 C   0  0  0  0  0  0
  -25.2526  -13.8183   20.5675 C   0  0  0  0  0  0
  -24.1815  -13.0440   20.9204 C   0  0  0  0  0  0
  -24.6399  -11.6914   20.8736 C   0  0  0  0  0  0
  -23.9062  -10.4301   21.0390 C   0  0  0  0  0  0
  -24.3611   -9.4219   21.9179 C   0  0  0  0  0  0
  -23.6297   -8.2245   22.0752 C   0  0  0  0  0  0
  -22.4280   -8.0274   21.3539 C   0  0  0  0  0  0
  -21.9909   -9.0246   20.4639 C   0  0  0  0  0  0
  -22.7226  -10.2137   20.3041 C   0  0  0  0  0  0
  -21.6861   -6.0732   22.5280 C   0  0  0  0  0  0
  -21.4017   -6.5638   23.8215 C   0  0  0  0  0  0
  -21.3661   -5.6795   24.9179 C   0  0  0  0  0  0
  -21.6044   -4.3056   24.7229 C   0  0  0  0  0  0
  -21.8821   -3.8141   23.4352 C   0  0  0  0  0  0
  -21.9195   -4.6957   22.3411 C   0  0  0  0  0  0
  -22.7839  -13.5220   21.1861 C   0  0  0  0  0  0
  -22.1656   -4.2144   21.0988 F   0  0  0  0  0  0
  -21.5630   -3.4540   25.7742 F   0  0  0  0  0  0
  -29.9872  -13.5078   20.3947 N   0  0  0  0  0  0
  -26.2946  -12.9372   20.3263 N   0  0  0  0  0  0
  -25.9329  -11.6519   20.5744 N   0  0  0  0  0  0
  -22.0479  -12.8227   22.0429 N   0  0  0  0  0  0
  -25.4220  -15.1902   20.4058 N   0  0  0  0  0  0
  -31.8176  -14.8169   20.1898 O   0  0  0  0  0  0
  -21.6638   -6.8872   21.4240 O   0  0  0  0  0  0
  -22.3532  -14.5523   20.6699 O   0  0  0  0  0  0
  -24.6300  -31.8558   23.1987 C   0  0  0  0  0  0
  -25.9119  -32.4767   23.8335 C   0  0  1  0  0  0
  -27.2238  -27.2690   20.1412 C   0  0  0  0  0  0
  -25.5911  -33.8570   24.2258 N   0  0  0  0  0  0
  -23.4275  -30.4778   21.5402 C   0  0  2  0  0  0
  -24.8771  -28.9226   20.1122 C   0  0  0  0  0  0
  -22.7504  -29.4611   22.4900 C   0  0  0  0  0  0
  -18.0289  -28.1405   22.8491 C   0  0  0  0  0  0
  -24.1476  -36.7289   23.2644 C   0  0  0  0  0  0
  -25.9724  -30.7730   21.3755 C   0  0  0  0  0  0
  -26.0474  -29.3945   20.7213 C   0  0  0  0  0  0
  -27.2263  -28.5807   20.7226 C   0  0  0  0  0  0
  -26.0354  -26.8649   19.4965 C   0  0  0  0  0  0
  -24.8754  -27.6659   19.4872 C   0  0  0  0  0  0
  -23.6471  -29.8097   20.1568 C   0  0  0  0  0  0
  -25.4105  -36.3081   24.0329 C   0  0  1  0  0  0
  -20.5901  -28.3712   23.1265 C   0  0  2  0  0  0
  -20.6773  -26.9425   22.5410 C   0  0  0  0  0  0
  -19.5748  -26.6386   21.5214 C   0  0  0  0  0  0
  -18.1931  -26.7940   22.1627 C   0  0  0  0  0  0
  -19.1548  -28.8866   23.2874 C   0  0  0  0  0  0
  -18.9472  -30.1465   23.8899 C   0  0  0  0  0  0
  -17.6477  -30.6600   24.0565 C   0  0  0  0  0  0
  -25.9049  -34.9451   23.5097 C   0  0  0  0  0  0
  -16.5363  -29.9110   23.6337 C   0  0  0  0  0  0
  -16.7277  -28.6524   23.0358 C   0  0  0  0  0  0
  -26.4479  -31.6603   25.0729 C   0  0  0  0  0  0
  -25.3705  -31.3768   26.1457 C   0  0  0  0  0  0
  -27.0331  -30.3026   24.6216 C   0  0  0  0  0  0
  -27.6031  -32.4345   25.7503 C   0  0  0  0  0  0
  -27.5571  -37.1801   24.8468 C   0  0  0  0  0  0
  -21.4206  -29.3058   22.3650 N   0  0  0  0  0  0
  -26.4283  -37.3777   23.9413 N   0  0  0  0  0  0
  -24.6958  -31.0530   22.0954 N   0  0  0  0  0  0
  -23.4205  -28.8152   23.2993 O   0  0  0  0  0  0
  -28.3160  -26.3722   20.1679 O   0  0  0  0  0  0
  -26.5628  -34.8926   22.4674 O   0  0  0  0  0  0
  -23.5448  -32.1364   23.7287 O   0  0  0  0  0  0
  -29.7814  -19.0463   19.1799 C   0  0  0  0  0  0
  -29.3803  -19.7760   21.2065 C   0  0  0  0  0  0
  -29.8072  -18.6245   20.5422 C   0  0  0  0  0  0
  -29.4083  -20.3754   19.0648 C   0  0  0  0  0  0
  -27.8533  -21.4990   17.4115 C   0  0  0  0  0  0
  -30.0416  -20.5616   16.6222 C   0  0  0  0  0  0
  -28.3132  -25.1363   22.2296 C   0  0  0  0  0  0
  -30.3428  -17.2453   21.1403 C   0  0  0  0  0  0
  -28.9021  -23.6911   20.1562 C   0  0  0  0  0  0
  -28.5451  -22.2321   20.7838 C   0  0  0  0  0  0
  -29.3077  -21.2045   17.8108 C   0  0  0  0  0  0
  -28.0938  -24.9873   20.7149 C   0  0  2  0  0  0
  -29.1309  -20.8784   20.3433 N   0  0  0  0  0  0
  -29.8668  -15.8559   20.7386 N   0  0  0  0  0  0
  -31.4726  -12.5815   19.1550 H   0  0  0  0  0  0
  -30.3782  -11.4707   19.9362 H   0  0  0  0  0  0
  -29.7910  -11.7513   17.4997 H   0  0  0  0  0  0
  -29.6336  -13.4755   17.7224 H   0  0  0  0  0  0
  -27.8911  -11.2844   18.8950 H   0  0  0  0  0  0
  -27.3751  -12.5345   17.7942 H   0  0  0  0  0  0
  -27.6395  -14.2525   19.4777 H   0  0  0  0  0  0
  -28.7290  -12.1475   21.4092 H   0  0  0  0  0  0
  -28.4285  -13.8218   21.7989 H   0  0  0  0  0  0
  -25.2753   -9.5698   22.4753 H   0  0  0  0  0  0
  -24.0011   -7.4633   22.7467 H   0  0  0  0  0  0
  -21.0834   -8.8754   19.8959 H   0  0  0  0  0  0
  -22.3661  -10.9669   19.6151 H   0  0  0  0  0  0
  -21.2009   -7.6148   23.9718 H   0  0  0  0  0  0
  -21.1478   -6.0524   25.9087 H   0  0  0  0  0  0
  -22.0598   -2.7597   23.2855 H   0  0  0  0  0  0
  -22.4078  -11.9884   22.4826 H   0  0  0  0  0  0
  -21.1088  -13.1250   22.2601 H   0  0  0  0  0  0
  -24.6550  -15.8447   20.5121 H   0  0  0  0  0  0
  -26.2658  -15.6279   20.0589 H   0  0  0  0  0  0
  -26.7198  -32.5421   23.1094 H   0  0  0  0  0  0
  -25.0034  -33.9705   25.0384 H   0  0  0  0  0  0
  -22.7256  -31.3007   21.3929 H   0  0  0  0  0  0
  -23.3739  -35.9622   23.3311 H   0  0  0  0  0  0
  -24.3563  -36.8905   22.2059 H   0  0  0  0  0  0
  -23.7228  -37.6490   23.6666 H   0  0  0  0  0  0
  -26.1058  -31.5315   20.6029 H   0  0  0  0  0  0
  -26.8523  -30.8276   22.0046 H   0  0  0  0  0  0
  -28.1235  -28.9373   21.2088 H   0  0  0  0  0  0
  -25.9912  -25.9031   19.0054 H   0  0  0  0  0  0
  -23.9815  -27.3016   19.0004 H   0  0  0  0  0  0
  -23.7760  -30.5860   19.4019 H   0  0  0  0  0  0
  -22.7652  -29.2444   19.8479 H   0  0  0  0  0  0
  -25.1288  -36.1926   25.0823 H   0  0  0  0  0  0
  -21.0000  -28.3286   24.1382 H   0  0  0  0  0  0
  -20.5661  -26.2322   23.3622 H   0  0  0  0  0  0
  -21.6642  -26.7439   22.1209 H   0  0  0  0  0  0
  -19.6911  -25.6290   21.1253 H   0  0  0  0  0  0
  -19.6688  -27.3184   20.6740 H   0  0  0  0  0  0
  -17.4202  -26.6687   21.4037 H   0  0  0  0  0  0
  -18.0338  -26.0087   22.9030 H   0  0  0  0  0  0
  -19.7951  -30.7273   24.2276 H   0  0  0  0  0  0
  -17.5037  -31.6283   24.5169 H   0  0  0  0  0  0
  -15.5367  -30.3020   23.7651 H   0  0  0  0  0  0
  -15.8672  -28.0838   22.7083 H   0  0  0  0  0  0
  -24.5867  -30.7129   25.7793 H   0  0  0  0  0  0
  -24.8911  -32.2948   26.4869 H   0  0  0  0  0  0
  -25.8014  -30.8953   27.0247 H   0  0  0  0  0  0
  -26.2930  -29.6781   24.1206 H   0  0  0  0  0  0
  -27.3983  -29.7277   25.4736 H   0  0  0  0  0  0
  -27.8810  -30.4309   23.9487 H   0  0  0  0  0  0
  -27.2643  -33.3659   26.2053 H   0  0  0  0  0  0
  -28.3858  -32.6885   25.0343 H   0  0  0  0  0  0
  -28.0685  -31.8492   26.5444 H   0  0  0  0  0  0
  -28.2597  -38.0090   24.7499 H   0  0  0  0  0  0
  -28.1052  -36.2619   24.6304 H   0  0  0  0  0  0
  -27.2291  -37.1468   25.8873 H   0  0  0  0  0  0
  -20.9391  -29.8789   21.6865 H   0  0  0  0  0  0
  -26.0157  -38.2849   24.1417 H   0  0  0  0  0  0
  -30.0662  -18.4244   18.3422 H   0  0  0  0  0  0
  -29.2411  -19.9192   22.2706 H   0  0  0  0  0  0
  -27.3065  -22.0113   18.2012 H   0  0  0  0  0  0
  -27.3154  -20.5785   17.1840 H   0  0  0  0  0  0
  -27.8129  -22.1325   16.5238 H   0  0  0  0  0  0
  -31.0812  -20.3466   16.8716 H   0  0  0  0  0  0
  -30.0480  -21.2271   15.7589 H   0  0  0  0  0  0
  -29.5682  -19.6286   16.3122 H   0  0  0  0  0  0
  -27.9800  -24.2539   22.7753 H   0  0  0  0  0  0
  -27.7539  -25.9819   22.6311 H   0  0  0  0  0  0
  -29.3661  -25.2943   22.4621 H   0  0  0  0  0  0
  -30.2052  -17.3029   22.2210 H   0  0  0  0  0  0
  -31.4255  -17.2715   21.0081 H   0  0  0  0  0  0
  -28.7231  -23.6710   19.0849 H   0  0  0  0  0  0
  -29.9712  -23.8665   20.2725 H   0  0  0  0  0  0
  -27.4623  -22.1185   20.7243 H   0  0  0  0  0  0
  -28.7503  -22.2994   21.8516 H   0  0  0  0  0  0
  -29.8201  -22.1492   17.9893 H   0  0  0  0  0  0
  -27.0422  -24.7333   20.5876 H   0  0  0  0  0  0
  -28.8788  -15.6917   20.8586 H   0  0  0  0  0  0
  1 25  1  0  0  0
  1 30  2  0  0  0
  1 84  1  0  0  0
  2  3  1  0  0  0
  2 25  1  0  0  0
  2 85  1  0  0  0
  2 86  1  0  0  0
  3  4  1  0  0  0
  3 87  1  0  0  0
  3 88  1  0  0  0
  4  5  1  0  0  0
  4 89  1  0  0  0
  4 90  1  0  0  0
  5  6  1  0  0  0
  5 26  1  0  0  0
  5 91  1  0  0  0
  6 25  1  0  0  0
  6 92  1  0  0  0
  6 93  1  0  0  0
  7  8  2  0  0  0
  7 26  1  0  0  0
  7 29  1  0  0  0
  8  9  1  0  0  0
  8 22  1  0  0  0
  9 10  1  0  0  0
  9 27  2  0  0  0
 10 11  2  0  0  0
 10 15  1  0  0  0
 11 12  1  0  0  0
 11 94  1  0  0  0
 12 13  2  0  0  0
 12 95  1  0  0  0
 13 14  1  0  0  0
 13 31  1  0  0  0
 14 15  2  0  0  0
 14 96  1  0  0  0
 15 97  1  0  0  0
 16 17  2  0  0  0
 16 21  1  0  0  0
 16 31  1  0  0  0
 17 18  1  0  0  0
 17 98  1  0  0  0
 18 19  2  0  0  0
 18 99  1  0  0  0
 19 20  1  0  0  0
 19 24  1  0  0  0
 20 21  2  0  0  0
 20100  1  0  0  0
 21 23  1  0  0  0
 22 28  1  0  0  0
 22 32  2  0  0  0
 26 27  1  0  0  0
 28101  1  0  0  0
 28102  1  0  0  0
 29103  1  0  0  0
 29104  1  0  0  0
 33 34  1  0  0  0
 33 66  1  0  0  0
 33 70  2  0  0  0
 34 36  1  0  0  0
 34 59  1  0  0  0
 34105  1  0  0  0
 35 44  2  0  0  0
 35 45  1  0  0  0
 35 68  1  0  0  0
 36 56  1  0  0  0
 36106  1  0  0  0
 37 39  1  0  0  0
 37 47  1  0  0  0
 37 66  1  0  0  0
 37107  1  0  0  0
 38 43  2  0  0  0
 38 46  1  0  0  0
 38 47  1  0  0  0
 39 64  1  0  0  0
 39 67  2  0  0  0
 40 52  1  0  0  0
 40 53  2  0  0  0
 40 58  1  0  0  0
 41108  1  0  0  0
 41109  1  0  0  0
 41110  1  0  0  0
 41 48  1  0  0  0
 42 43  1  0  0  0
 42 66  1  0  0  0
 42111  1  0  0  0
 42112  1  0  0  0
 43 44  1  0  0  0
 44113  1  0  0  0
 45 46  2  0  0  0
 45114  1  0  0  0
 46115  1  0  0  0
 47116  1  0  0  0
 47117  1  0  0  0
 48 56  1  0  0  0
 48 65  1  0  0  0
 48118  1  0  0  0
 49 50  1  0  0  0
 49 53  1  0  0  0
 49 64  1  0  0  0
 49119  1  0  0  0
 50 51  1  0  0  0
 50120  1  0  0  0
 50121  1  0  0  0
 51 52  1  0  0  0
 51122  1  0  0  0
 51123  1  0  0  0
 52124  1  0  0  0
 52125  1  0  0  0
 53 54  1  0  0  0
 54 55  2  0  0  0
 54126  1  0  0  0
 55 57  1  0  0  0
 55127  1  0  0  0
 56 69  2  0  0  0
 57 58  2  0  0  0
 57128  1  0  0  0
 58129  1  0  0  0
 59 60  1  0  0  0
 59 61  1  0  0  0
 59 62  1  0  0  0
 60130  1  0  0  0
 60131  1  0  0  0
 60132  1  0  0  0
 61133  1  0  0  0
 61134  1  0  0  0
 61135  1  0  0  0
 62136  1  0  0  0
 62137  1  0  0  0
 62138  1  0  0  0
 63 65  1  0  0  0
 63139  1  0  0  0
 63140  1  0  0  0
 63141  1  0  0  0
 64142  1  0  0  0
 65143  1  0  0  0
 68 82  1  0  0  0
 71 73  1  0  0  0
 71 74  2  0  0  0
 71144  1  0  0  0
 72 73  2  0  0  0
 72 83  1  0  0  0
 72145  1  0  0  0
 73 78  1  0  0  0
 74 81  1  0  0  0
 74 83  1  0  0  0
 75146  1  0  0  0
 75147  1  0  0  0
 75148  1  0  0  0
 75 81  1  0  0  0
 76 81  1  0  0  0
 76149  1  0  0  0
 76150  1  0  0  0
 76151  1  0  0  0
 77152  1  0  0  0
 77153  1  0  0  0
 77154  1  0  0  0
 77 82  1  0  0  0
 78 84  1  0  0  0
 78155  1  0  0  0
 78156  1  0  0  0
 79 80  1  0  0  0
 79 82  1  0  0  0
 79157  1  0  0  0
 79158  1  0  0  0
 80 83  1  0  0  0
 80159  1  0  0  0
 80160  1  0  0  0
 81161  1  0  0  0
 82162  1  0  0  0
 84163  1  0  0  0
M  ISO  4   1 100  68 101  82 101  84 100
M  END
> <chiral flag>
0

> <version>
0

> <s_m_source_file>
/data/baiqing/PycharmProjects/Reinvent-master-3.2/result/LINK_invent/BTK/process_docking_weight1_custom_sum_contain_oxygen_bond_distance_aromatic_linkinvent_7_9_3/rearranged_h_0103.sdf

> <i_m_source_file_index>
57

> <r_mmod_Potential_Energy-OPLS-2005>
84.6215133666992

> <r_mmod_Stretch_Energy-OPLS-2005>
118.524200439453

> <r_mmod_Bend_Energy-OPLS-2005>
182.439575195312

> <r_mmod_Torsional_Energy-OPLS-2005>
239.632461547852

> <r_mmod_Improper_Torsional_Energy-OPLS-2005>
5.18997383117676

> <r_mmod_Van_der_Waal_Energy-OPLS-2005>
114.480949401855

> <r_mmod_Electrostatic_Energy-OPLS-2005>
-447.856689453125

> <r_mmod_Solvation_Energy-OPLS-2005>
-206.896942138672

> <b_mmod_Minimization_Converged-OPLS-2005>
0

> <r_mmod_RMS_Derivative-OPLS-2005>
1.82527792453766

$$$$
57
                    3D
 Structure written by MMmdl.
158165  0  0  1  0            999 V2000
  -30.5086  -14.9666   20.4543 C   0  0  0  0  0  0
  -30.4483  -12.6035   19.5123 C   0  0  0  0  0  0
  -29.5352  -12.5229   18.2654 C   0  0  0  0  0  0
  -28.0610  -12.3128   18.6765 C   0  0  0  0  0  0
  -27.6271  -13.2470   19.8379 C   0  0  2  0  0  0
  -28.6631  -13.2750   20.9765 C   0  0  0  0  0  0
  -25.2420  -13.8200   20.5711 C   0  0  0  0  0  0
  -24.1755  -13.0415   20.9270 C   0  0  0  0  0  0
  -24.6367  -11.6909   20.8805 C   0  0  0  0  0  0
  -23.9064  -10.4290   21.0492 C   0  0  0  0  0  0
  -24.3615   -9.4172   21.9213 C   0  0  0  0  0  0
  -23.6283   -8.2206   22.0727 C   0  0  0  0  0  0
  -22.4251   -8.0273   21.3554 C   0  0  0  0  0  0
  -21.9907   -9.0275   20.4667 C   0  0  0  0  0  0
  -22.7263  -10.2146   20.3116 C   0  0  0  0  0  0
  -21.6813   -6.0765   22.5322 C   0  0  0  0  0  0
  -21.4023   -6.5662   23.8274 C   0  0  0  0  0  0
  -21.3637   -5.6807   24.9226 C   0  0  0  0  0  0
  -21.6012   -4.3074   24.7262 C   0  0  0  0  0  0
  -21.8795   -3.8167   23.4382 C   0  0  0  0  0  0
  -21.9167   -4.6991   22.3436 C   0  0  0  0  0  0
  -22.7774  -13.5200   21.1930 C   0  0  0  0  0  0
  -22.1649   -4.2181   21.1014 F   0  0  0  0  0  0
  -21.5609   -3.4546   25.7754 F   0  0  0  0  0  0
  -29.9366  -13.6999   20.3804 N   0  0  0  0  0  0
  -26.2848  -12.9431   20.3208 N   0  0  0  0  0  0
  -25.9293  -11.6566   20.5727 N   0  0  0  0  0  0
  -22.0401  -12.8265   22.0514 N   0  0  0  0  0  0
  -25.3995  -15.1935   20.4145 N   0  0  0  0  0  0
  -31.7227  -15.0563   20.2490 O   0  0  0  0  0  0
  -21.6573   -6.8917   21.4292 O   0  0  0  0  0  0
  -22.3467  -14.5499   20.6738 O   0  0  0  0  0  0
  -24.6459  -31.8445   23.1858 C   0  0  0  0  0  0
  -25.9215  -32.4706   23.8247 C   0  0  1  0  0  0
  -27.2121  -27.1155   20.1849 C   0  0  0  0  0  0
  -25.5953  -33.8515   24.2153 N   0  0  0  0  0  0
  -23.4512  -30.4643   21.5278 C   0  0  2  0  0  0
  -24.9009  -28.8790   20.1175 C   0  0  0  0  0  0
  -22.7586  -29.4566   22.4814 C   0  0  0  0  0  0
  -18.0326  -28.1432   22.8481 C   0  0  0  0  0  0
  -24.1488  -36.7227   23.2641 C   0  0  0  0  0  0
  -26.0087  -30.7167   21.3860 C   0  0  0  0  0  0
  -26.0814  -29.3242   20.7332 C   0  0  0  0  0  0
  -27.2398  -28.4631   20.7405 C   0  0  0  0  0  0
  -26.0069  -26.7674   19.5426 C   0  0  0  0  0  0
  -24.8759  -27.6150   19.5100 C   0  0  0  0  0  0
  -23.6847  -29.7941   20.1484 C   0  0  0  0  0  0
  -25.4128  -36.3011   24.0296 C   0  0  1  0  0  0
  -20.5948  -28.3751   23.1221 C   0  0  2  0  0  0
  -20.6800  -26.9452   22.5403 C   0  0  0  0  0  0
  -19.5756  -26.6395   21.5231 C   0  0  0  0  0  0
  -18.1940  -26.7975   22.1639 C   0  0  0  0  0  0
  -19.1578  -28.8900   23.2853 C   0  0  0  0  0  0
  -18.9498  -30.1497   23.8896 C   0  0  0  0  0  0
  -17.6491  -30.6606   24.0575 C   0  0  0  0  0  0
  -25.9077  -34.9403   23.5024 C   0  0  0  0  0  0
  -16.5388  -29.9102   23.6348 C   0  0  0  0  0  0
  -16.7315  -28.6524   23.0366 C   0  0  0  0  0  0
  -26.4531  -31.6626   25.0727 C   0  0  0  0  0  0
  -25.3686  -31.3859   26.1405 C   0  0  0  0  0  0
  -27.0412  -30.3025   24.6342 C   0  0  0  0  0  0
  -27.6059  -32.4439   25.7497 C   0  0  0  0  0  0
  -27.5573  -37.1763   24.8459 C   0  0  0  0  0  0
  -21.4274  -29.3051   22.3559 N   0  0  0  0  0  0
  -26.4263  -37.3741   23.9425 N   0  0  0  0  0  0
  -24.7221  -31.0316   22.0873 N   0  0  0  0  0  0
  -23.4227  -28.8119   23.2973 O   0  0  0  0  0  0
  -28.2773  -26.1439   20.2006 O   0  0  0  0  0  0
  -26.5674  -34.8911   22.4612 O   0  0  0  0  0  0
  -23.5574  -32.1294   23.7085 O   0  0  0  0  0  0
  -28.1146  -22.9131   18.6241 C   0  0  0  0  0  0
  -30.2244  -23.8411   19.5547 C   0  0  0  0  0  0
  -27.2097  -20.3137   20.5123 C   0  0  0  0  0  0
  -29.7982  -17.6482   20.9959 C   0  0  0  0  0  0
  -29.3791  -19.0367   20.1115 C   0  0  0  0  0  0
  -29.2634  -21.8266   20.7826 C   0  0  0  0  0  0
  -28.0926  -24.6433   20.6157 C   0  0  0  0  0  0
  -28.8396  -23.2647   19.9424 C   0  0  0  0  0  0
  -29.6724  -16.1182   20.5654 N   0  0  0  0  0  0
  -28.6801  -20.3417   20.7274 N   0  3  1  0  0  0
  -31.4783  -12.7853   19.2055 H   0  0  0  0  0  0
  -30.4533  -11.6571   20.0546 H   0  0  0  0  0  0
  -29.8644  -11.7165   17.6074 H   0  0  0  0  0  0
  -29.6254  -13.4436   17.6914 H   0  0  0  0  0  0
  -27.9638  -11.2749   18.9870 H   0  0  0  0  0  0
  -27.3988  -12.4444   17.8214 H   0  0  0  0  0  0
  -27.5862  -14.2465   19.4061 H   0  0  0  0  0  0
  -28.7501  -12.2967   21.4473 H   0  0  0  0  0  0
  -28.3511  -13.9647   21.7624 H   0  0  0  0  0  0
  -25.2752   -9.5607   22.4775 H   0  0  0  0  0  0
  -23.9984   -7.4576   22.7383 H   0  0  0  0  0  0
  -21.0834   -8.8849   19.8948 H   0  0  0  0  0  0
  -22.3752  -10.9713   19.6236 H   0  0  0  0  0  0
  -21.2052   -7.6179   23.9815 H   0  0  0  0  0  0
  -21.1461   -6.0528   25.9144 H   0  0  0  0  0  0
  -22.0571   -2.7620   23.2873 H   0  0  0  0  0  0
  -22.3968  -11.9979   22.5062 H   0  0  0  0  0  0
  -21.0980  -13.1316   22.2585 H   0  0  0  0  0  0
  -24.6050  -15.8196   20.5009 H   0  0  0  0  0  0
  -26.2067  -15.6363   19.9946 H   0  0  0  0  0  0
  -26.7301  -32.5324   23.0999 H   0  0  0  0  0  0
  -25.0096  -33.9626   25.0290 H   0  0  0  0  0  0
  -22.7530  -31.2895   21.3700 H   0  0  0  0  0  0
  -23.3766  -35.9536   23.3269 H   0  0  0  0  0  0
  -24.3568  -36.8909   22.2059 H   0  0  0  0  0  0
  -23.7217  -37.6393   23.6722 H   0  0  0  0  0  0
  -26.1731  -31.4705   20.6151 H   0  0  0  0  0  0
  -26.8755  -30.7613   22.0359 H   0  0  0  0  0  0
  -28.1467  -28.8030   21.2206 H   0  0  0  0  0  0
  -25.9281  -25.7959   19.0752 H   0  0  0  0  0  0
  -23.9728  -27.2638   19.0336 H   0  0  0  0  0  0
  -23.8420  -30.5683   19.3956 H   0  0  0  0  0  0
  -22.7950  -29.2478   19.8283 H   0  0  0  0  0  0
  -25.1328  -36.1796   25.0778 H   0  0  0  0  0  0
  -21.0058  -28.3355   24.1335 H   0  0  0  0  0  0
  -20.5686  -26.2375   23.3626 H   0  0  0  0  0  0
  -21.6660  -26.7420   22.1213 H   0  0  0  0  0  0
  -19.6887  -25.6283   21.1298 H   0  0  0  0  0  0
  -19.6698  -27.3173   20.6738 H   0  0  0  0  0  0
  -17.4211  -26.6758   21.4048 H   0  0  0  0  0  0
  -18.0306  -26.0135   22.9040 H   0  0  0  0  0  0
  -19.7959  -30.7328   24.2271 H   0  0  0  0  0  0
  -17.5032  -31.6294   24.5168 H   0  0  0  0  0  0
  -15.5378  -30.3004   23.7656 H   0  0  0  0  0  0
  -15.8728  -28.0836   22.7085 H   0  0  0  0  0  0
  -24.5799  -30.7310   25.7691 H   0  0  0  0  0  0
  -24.8946  -32.3060   26.4823 H   0  0  0  0  0  0
  -25.7892  -30.8981   27.0190 H   0  0  0  0  0  0
  -26.3031  -29.6770   24.1301 H   0  0  0  0  0  0
  -27.3960  -29.7355   25.4952 H   0  0  0  0  0  0
  -27.8970  -30.4308   23.9716 H   0  0  0  0  0  0
  -27.2638  -33.3752   26.2030 H   0  0  0  0  0  0
  -28.3856  -32.7007   25.0317 H   0  0  0  0  0  0
  -28.0743  -31.8613   26.5434 H   0  0  0  0  0  0
  -28.2571  -38.0084   24.7522 H   0  0  0  0  0  0
  -28.1080  -36.2601   24.6247 H   0  0  0  0  0  0
  -27.2291  -37.1378   25.8862 H   0  0  0  0  0  0
  -20.9479  -29.8757   21.6733 H   0  0  0  0  0  0
  -26.0109  -38.2782   24.1491 H   0  0  0  0  0  0
  -28.5782  -22.0652   18.1079 H   0  0  0  0  0  0
  -28.1379  -23.7580   17.9334 H   0  0  0  0  0  0
  -27.0604  -22.6791   18.7869 H   0  0  0  0  0  0
  -30.8182  -23.1616   18.9401 H   0  0  0  0  0  0
  -30.8163  -24.0720   20.4422 H   0  0  0  0  0  0
  -30.1360  -24.7677   18.9883 H   0  0  0  0  0  0
  -26.8022  -19.3422   20.8039 H   0  0  0  0  0  0
  -26.9470  -20.4575   19.4661 H   0  0  0  0  0  0
  -26.6921  -21.0763   21.0969 H   0  0  0  0  0  0
  -29.2331  -17.7065   21.9248 H   0  0  0  0  0  0
  -30.8344  -17.7812   21.3247 H   0  0  0  0  0  0
  -28.7702  -18.7177   19.2647 H   0  0  0  0  0  0
  -30.2878  -19.3891   19.6291 H   0  0  0  0  0  0
  -29.1833  -22.0949   21.8382 H   0  0  0  0  0  0
  -30.3369  -21.6660   20.6604 H   0  0  0  0  0  0
  -28.3989  -24.6523   21.6640 H   0  0  0  0  0  0
  -27.0222  -24.4360   20.6730 H   0  0  0  0  0  0
  -28.7073  -15.8296   20.5511 H   0  0  0  0  0  0
  -28.7510  -20.1226   21.7104 H   0  0  0  0  0  0
  1 25  1  0  0  0
  1 30  2  0  0  0
  1 79  1  0  0  0
  2  3  1  0  0  0
  2 25  1  0  0  0
  2 81  1  0  0  0
  2 82  1  0  0  0
  3  4  1  0  0  0
  3 83  1  0  0  0
  3 84  1  0  0  0
  4  5  1  0  0  0
  4 85  1  0  0  0
  4 86  1  0  0  0
  5  6  1  0  0  0
  5 26  1  0  0  0
  5 87  1  0  0  0
  6 25  1  0  0  0
  6 88  1  0  0  0
  6 89  1  0  0  0
  7  8  2  0  0  0
  7 26  1  0  0  0
  7 29  1  0  0  0
  8  9  1  0  0  0
  8 22  1  0  0  0
  9 10  1  0  0  0
  9 27  2  0  0  0
 10 11  2  0  0  0
 10 15  1  0  0  0
 11 12  1  0  0  0
 11 90  1  0  0  0
 12 13  2  0  0  0
 12 91  1  0  0  0
 13 14  1  0  0  0
 13 31  1  0  0  0
 14 15  2  0  0  0
 14 92  1  0  0  0
 15 93  1  0  0  0
 16 17  2  0  0  0
 16 21  1  0  0  0
 16 31  1  0  0  0
 17 18  1  0  0  0
 17 94  1  0  0  0
 18 19  2  0  0  0
 18 95  1  0  0  0
 19 20  1  0  0  0
 19 24  1  0  0  0
 20 21  2  0  0  0
 20 96  1  0  0  0
 21 23  1  0  0  0
 22 28  1  0  0  0
 22 32  2  0  0  0
 26 27  1  0  0  0
 28 97  1  0  0  0
 28 98  1  0  0  0
 29 99  1  0  0  0
 29100  1  0  0  0
 33 34  1  0  0  0
 33 66  1  0  0  0
 33 70  2  0  0  0
 34 36  1  0  0  0
 34 59  1  0  0  0
 34101  1  0  0  0
 35 44  2  0  0  0
 35 45  1  0  0  0
 35 68  1  0  0  0
 36 56  1  0  0  0
 36102  1  0  0  0
 37 39  1  0  0  0
 37 47  1  0  0  0
 37 66  1  0  0  0
 37103  1  0  0  0
 38 43  2  0  0  0
 38 46  1  0  0  0
 38 47  1  0  0  0
 39 64  1  0  0  0
 39 67  2  0  0  0
 40 52  1  0  0  0
 40 53  2  0  0  0
 40 58  1  0  0  0
 41104  1  0  0  0
 41105  1  0  0  0
 41106  1  0  0  0
 41 48  1  0  0  0
 42 43  1  0  0  0
 42 66  1  0  0  0
 42107  1  0  0  0
 42108  1  0  0  0
 43 44  1  0  0  0
 44109  1  0  0  0
 45 46  2  0  0  0
 45110  1  0  0  0
 46111  1  0  0  0
 47112  1  0  0  0
 47113  1  0  0  0
 48 56  1  0  0  0
 48 65  1  0  0  0
 48114  1  0  0  0
 49 50  1  0  0  0
 49 53  1  0  0  0
 49 64  1  0  0  0
 49115  1  0  0  0
 50 51  1  0  0  0
 50116  1  0  0  0
 50117  1  0  0  0
 51 52  1  0  0  0
 51118  1  0  0  0
 51119  1  0  0  0
 52120  1  0  0  0
 52121  1  0  0  0
 53 54  1  0  0  0
 54 55  2  0  0  0
 54122  1  0  0  0
 55 57  1  0  0  0
 55123  1  0  0  0
 56 69  2  0  0  0
 57 58  2  0  0  0
 57124  1  0  0  0
 58125  1  0  0  0
 59 60  1  0  0  0
 59 61  1  0  0  0
 59 62  1  0  0  0
 60126  1  0  0  0
 60127  1  0  0  0
 60128  1  0  0  0
 61129  1  0  0  0
 61130  1  0  0  0
 61131  1  0  0  0
 62132  1  0  0  0
 62133  1  0  0  0
 62134  1  0  0  0
 63 65  1  0  0  0
 63135  1  0  0  0
 63136  1  0  0  0
 63137  1  0  0  0
 64138  1  0  0  0
 65139  1  0  0  0
 68 77  1  0  0  0
 71140  1  0  0  0
 71141  1  0  0  0
 71142  1  0  0  0
 71 78  1  0  0  0
 72 78  1  0  0  0
 72143  1  0  0  0
 72144  1  0  0  0
 72145  1  0  0  0
 73146  1  0  0  0
 73147  1  0  0  0
 73148  1  0  0  0
 73 80  1  0  0  0
 74 75  1  0  0  0
 74 79  1  0  0  0
 74149  1  0  0  0
 74150  1  0  0  0
 75 80  1  0  0  0
 75151  1  0  0  0
 75152  1  0  0  0
 76 78  1  0  0  0
 76 80  1  0  0  0
 76153  1  0  0  0
 76154  1  0  0  0
 77 78  1  0  0  0
 77155  1  0  0  0
 77156  1  0  0  0
 79157  1  0  0  0
 80158  1  0  0  0
M  CHG  1  80   1
M  ISO  4   1 100  68 101  77 101  79 100
M  END
> <chiral flag>
0

> <version>
0

> <s_m_source_file>
/data/baiqing/PycharmProjects/Reinvent-master-3.2/result/LINK_invent/BTK/process_docking_weight1_custom_sum_contain_oxygen_bond_distance_aromatic_linkinvent_7_9_3/rearranged_h_0103.sdf

> <i_m_source_file_index>
58

> <r_mmod_Potential_Energy-OPLS-2005>
546.951599121094

> <r_mmod_Stretch_Energy-OPLS-2005>
302.15771484375

> <r_mmod_Bend_Energy-OPLS-2005>
348.073516845703

> <r_mmod_Torsional_Energy-OPLS-2005>
300.311859130859

> <r_mmod_Improper_Torsional_Energy-OPLS-2005>
5.02730274200439

> <r_mmod_Van_der_Waal_Energy-OPLS-2005>
109.23592376709

> <r_mmod_Electrostatic_Energy-OPLS-2005>
-258.468048095703

> <r_mmod_Solvation_Energy-OPLS-2005>
-469.044250488281

> <b_mmod_Minimization_Converged-OPLS-2005>
0

> <r_mmod_RMS_Derivative-OPLS-2005>
6.30765390396118

$$$$
58
                    3D
 Structure written by MMmdl.
166174  0  0  1  0            999 V2000
  -30.5982  -14.7234   20.4678 C   0  0  0  0  0  0
  -30.4301  -12.4433   19.4600 C   0  0  0  0  0  0
  -29.5036  -12.4947   18.2247 C   0  0  0  0  0  0
  -28.0296  -12.3277   18.6438 C   0  0  0  0  0  0
  -27.6398  -13.2256   19.8484 C   0  0  2  0  0  0
  -28.6848  -13.1375   20.9800 C   0  0  0  0  0  0
  -25.2503  -13.8181   20.5678 C   0  0  0  0  0  0
  -24.1789  -13.0438   20.9219 C   0  0  0  0  0  0
  -24.6359  -11.6901   20.8734 C   0  0  0  0  0  0
  -23.9047  -10.4283   21.0395 C   0  0  0  0  0  0
  -24.3608   -9.4210   21.9184 C   0  0  0  0  0  0
  -23.6284   -8.2246   22.0768 C   0  0  0  0  0  0
  -22.4267   -8.0270   21.3559 C   0  0  0  0  0  0
  -21.9893   -9.0238   20.4664 C   0  0  0  0  0  0
  -22.7207  -10.2120   20.3064 C   0  0  0  0  0  0
  -21.6857   -6.0704   22.5256 C   0  0  0  0  0  0
  -21.3990   -6.5613   23.8183 C   0  0  0  0  0  0
  -21.3683   -5.6781   24.9164 C   0  0  0  0  0  0
  -21.6068   -4.3044   24.7220 C   0  0  0  0  0  0
  -21.8823   -3.8119   23.4345 C   0  0  0  0  0  0
  -21.9195   -4.6928   22.3392 C   0  0  0  0  0  0
  -22.7814  -13.5214   21.1896 C   0  0  0  0  0  0
  -22.1672   -4.2109   21.0972 F   0  0  0  0  0  0
  -21.5660   -3.4535   25.7749 F   0  0  0  0  0  0
  -29.9834  -13.4964   20.3996 N   0  0  0  0  0  0
  -26.2914  -12.9367   20.3263 N   0  0  0  0  0  0
  -25.9288  -11.6519   20.5729 N   0  0  0  0  0  0
  -22.0500  -12.8179   22.0451 N   0  0  0  0  0  0
  -25.4219  -15.1911   20.4075 N   0  0  0  0  0  0
  -31.7885  -14.8355   20.1618 O   0  0  0  0  0  0
  -21.6653   -6.8844   21.4227 O   0  0  0  0  0  0
  -22.3503  -14.5519   20.6750 O   0  0  0  0  0  0
  -24.6306  -31.8566   23.1963 C   0  0  0  0  0  0
  -25.9130  -32.4749   23.8321 C   0  0  1  0  0  0
  -27.2199  -27.2610   20.1345 C   0  0  0  0  0  0
  -25.5925  -33.8553   24.2245 N   0  0  0  0  0  0
  -23.4264  -30.4784   21.5416 C   0  0  2  0  0  0
  -24.8738  -28.9268   20.1098 C   0  0  0  0  0  0
  -22.7510  -29.4592   22.4916 C   0  0  0  0  0  0
  -18.0286  -28.1365   22.8485 C   0  0  0  0  0  0
  -24.1498  -36.7283   23.2647 C   0  0  0  0  0  0
  -25.9751  -30.7679   21.3798 C   0  0  0  0  0  0
  -26.0438  -29.3929   20.7178 C   0  0  0  0  0  0
  -27.2171  -28.5743   20.7166 C   0  0  0  0  0  0
  -26.0219  -26.8617   19.4962 C   0  0  0  0  0  0
  -24.8668  -27.6702   19.4866 C   0  0  0  0  0  0
  -23.6449  -29.8138   20.1563 C   0  0  0  0  0  0
  -25.4122  -36.3075   24.0334 C   0  0  1  0  0  0
  -20.5892  -28.3685   23.1268 C   0  0  2  0  0  0
  -20.6778  -26.9404   22.5407 C   0  0  0  0  0  0
  -19.5748  -26.6366   21.5217 C   0  0  0  0  0  0
  -18.1923  -26.7899   22.1627 C   0  0  0  0  0  0
  -19.1545  -28.8845   23.2860 C   0  0  0  0  0  0
  -18.9470  -30.1451   23.8869 C   0  0  0  0  0  0
  -17.6472  -30.6569   24.0564 C   0  0  0  0  0  0
  -25.9072  -34.9438   23.5101 C   0  0  0  0  0  0
  -16.5360  -29.9068   23.6334 C   0  0  0  0  0  0
  -16.7272  -28.6490   23.0339 C   0  0  0  0  0  0
  -26.4502  -31.6560   25.0707 C   0  0  0  0  0  0
  -25.3727  -31.3708   26.1433 C   0  0  0  0  0  0
  -27.0369  -30.2965   24.6222 C   0  0  0  0  0  0
  -27.6050  -32.4327   25.7463 C   0  0  0  0  0  0
  -27.5579  -37.1788   24.8463 C   0  0  0  0  0  0
  -21.4222  -29.3021   22.3654 N   0  0  0  0  0  0
  -26.4287  -37.3772   23.9419 N   0  0  0  0  0  0
  -24.6962  -31.0518   22.0944 N   0  0  0  0  0  0
  -23.4215  -28.8148   23.3031 O   0  0  0  0  0  0
  -28.3431  -26.4052   20.2275 O   0  0  0  0  0  0
  -26.5647  -34.8908   22.4679 O   0  0  0  0  0  0
  -23.5461  -32.1395   23.7259 O   0  0  0  0  0  0
  -28.6685  -21.1194   20.7109 C   0  0  0  0  0  0
  -29.4084  -20.0449   20.2027 C   0  0  0  0  0  0
  -30.4313  -20.7094   19.4288 C   0  0  0  0  0  0
  -30.3287  -22.0823   19.6091 C   0  0  0  0  0  0
  -31.1090  -23.5380   17.6406 C   0  0  0  0  0  0
  -30.8825  -19.1093   17.4874 C   0  0  0  0  0  0
  -32.7179  -19.5815   19.2793 C   0  0  0  0  0  0
  -29.0872  -18.4723   20.3499 C   0  0  0  0  0  0
  -31.2555  -23.1687   19.1265 C   0  0  0  0  0  0
  -28.7389  -23.7761   20.8332 C   0  0  0  0  0  0
  -30.2077  -17.3245   20.6122 C   0  0  0  0  0  0
  -28.3597  -24.9615   19.7996 C   0  0  0  0  0  0
  -31.4793  -20.0826   18.5201 C   0  0  0  0  0  0
  -29.1940  -22.3869   20.3579 N   0  0  0  0  0  0
  -29.8112  -15.8457   20.6771 N   0  0  0  0  0  0
  -31.4721  -12.5699   19.1620 H   0  0  0  0  0  0
  -30.3731  -11.4613   19.9300 H   0  0  0  0  0  0
  -29.7763  -11.7068   17.5199 H   0  0  0  0  0  0
  -29.6369  -13.4401   17.6953 H   0  0  0  0  0  0
  -27.8825  -11.2789   18.9047 H   0  0  0  0  0  0
  -27.3686  -12.5253   17.7991 H   0  0  0  0  0  0
  -27.6417  -14.2499   19.4743 H   0  0  0  0  0  0
  -28.7156  -12.1276   21.3947 H   0  0  0  0  0  0
  -28.4235  -13.7999   21.8080 H   0  0  0  0  0  0
  -25.2774   -9.5672   22.4738 H   0  0  0  0  0  0
  -24.0012   -7.4623   22.7462 H   0  0  0  0  0  0
  -21.0849   -8.8711   19.8947 H   0  0  0  0  0  0
  -22.3661  -10.9642   19.6154 H   0  0  0  0  0  0
  -21.1940   -7.6116   23.9652 H   0  0  0  0  0  0
  -21.1537   -6.0533   25.9061 H   0  0  0  0  0  0
  -22.0587   -2.7577   23.2860 H   0  0  0  0  0  0
  -22.4160  -11.9834   22.4794 H   0  0  0  0  0  0
  -21.1116  -13.1134   22.2687 H   0  0  0  0  0  0
  -24.6545  -15.8431   20.5181 H   0  0  0  0  0  0
  -26.2557  -15.6234   20.0312 H   0  0  0  0  0  0
  -26.7209  -32.5392   23.1067 H   0  0  0  0  0  0
  -25.0067  -33.9712   25.0385 H   0  0  0  0  0  0
  -22.7234  -31.3014   21.3946 H   0  0  0  0  0  0
  -23.3770  -35.9603   23.3309 H   0  0  0  0  0  0
  -24.3601  -36.8907   22.2064 H   0  0  0  0  0  0
  -23.7231  -37.6476   23.6676 H   0  0  0  0  0  0
  -26.1261  -31.5324   20.6183 H   0  0  0  0  0  0
  -26.8493  -30.8047   22.0191 H   0  0  0  0  0  0
  -28.1154  -28.9284   21.2014 H   0  0  0  0  0  0
  -25.9186  -25.9077   19.0088 H   0  0  0  0  0  0
  -23.9694  -27.3099   19.0034 H   0  0  0  0  0  0
  -23.7676  -30.5930   19.4029 H   0  0  0  0  0  0
  -22.7645  -29.2467   19.8500 H   0  0  0  0  0  0
  -25.1298  -36.1933   25.0822 H   0  0  0  0  0  0
  -20.9981  -28.3266   24.1390 H   0  0  0  0  0  0
  -20.5683  -26.2306   23.3624 H   0  0  0  0  0  0
  -21.6644  -26.7414   22.1199 H   0  0  0  0  0  0
  -19.6927  -25.6281   21.1237 H   0  0  0  0  0  0
  -19.6670  -27.3202   20.6774 H   0  0  0  0  0  0
  -17.4199  -26.6660   21.4016 H   0  0  0  0  0  0
  -18.0305  -26.0012   22.9001 H   0  0  0  0  0  0
  -19.7952  -30.7270   24.2203 H   0  0  0  0  0  0
  -17.5028  -31.6246   24.5185 H   0  0  0  0  0  0
  -15.5361  -30.2975   23.7658 H   0  0  0  0  0  0
  -15.8667  -28.0824   22.7038 H   0  0  0  0  0  0
  -24.5884  -30.7082   25.7755 H   0  0  0  0  0  0
  -24.8947  -32.2880   26.4876 H   0  0  0  0  0  0
  -25.8035  -30.8852   27.0201 H   0  0  0  0  0  0
  -26.2961  -29.6678   24.1269 H   0  0  0  0  0  0
  -27.4070  -29.7249   25.4751 H   0  0  0  0  0  0
  -27.8829  -30.4232   23.9462 H   0  0  0  0  0  0
  -27.2638  -33.3629   26.2018 H   0  0  0  0  0  0
  -28.3833  -32.6892   25.0264 H   0  0  0  0  0  0
  -28.0752  -31.8476   26.5385 H   0  0  0  0  0  0
  -28.2583  -38.0096   24.7530 H   0  0  0  0  0  0
  -28.1078  -36.2627   24.6259 H   0  0  0  0  0  0
  -27.2302  -37.1399   25.8863 H   0  0  0  0  0  0
  -20.9428  -29.8773   21.6871 H   0  0  0  0  0  0
  -26.0176  -38.2849   24.1414 H   0  0  0  0  0  0
  -27.7757  -21.0930   21.3244 H   0  0  0  0  0  0
  -31.7671  -24.3728   17.4019 H   0  0  0  0  0  0
  -30.0914  -23.8270   17.3836 H   0  0  0  0  0  0
  -31.3802  -22.7212   16.9746 H   0  0  0  0  0  0
  -30.0663  -19.5918   16.9461 H   0  0  0  0  0  0
  -30.4821  -18.1953   17.9163 H   0  0  0  0  0  0
  -31.6298  -18.8255   16.7456 H   0  0  0  0  0  0
  -32.4990  -18.8208   20.0211 H   0  0  0  0  0  0
  -33.1959  -20.4073   19.8073 H   0  0  0  0  0  0
  -33.4559  -19.1753   18.5885 H   0  0  0  0  0  0
  -28.5409  -18.2059   19.4435 H   0  0  0  0  0  0
  -28.3514  -18.3878   21.1508 H   0  0  0  0  0  0
  -32.2860  -22.8669   19.3186 H   0  0  0  0  0  0
  -31.1343  -24.0686   19.7259 H   0  0  0  0  0  0
  -27.8975  -23.6342   21.5116 H   0  0  0  0  0  0
  -29.5429  -24.1471   21.4689 H   0  0  0  0  0  0
  -30.7185  -17.5615   21.5467 H   0  0  0  0  0  0
  -30.9642  -17.3815   19.8374 H   0  0  0  0  0  0
  -27.4488  -24.6507   19.3005 H   0  0  0  0  0  0
  -29.0959  -24.9516   19.0037 H   0  0  0  0  0  0
  -31.8750  -20.8825   17.9025 H   0  0  0  0  0  0
  -28.8432  -15.6507   20.8809 H   0  0  0  0  0  0
  1 25  1  0  0  0
  1 30  2  0  0  0
  1 85  1  0  0  0
  2  3  1  0  0  0
  2 25  1  0  0  0
  2 86  1  0  0  0
  2 87  1  0  0  0
  3  4  1  0  0  0
  3 88  1  0  0  0
  3 89  1  0  0  0
  4  5  1  0  0  0
  4 90  1  0  0  0
  4 91  1  0  0  0
  5  6  1  0  0  0
  5 26  1  0  0  0
  5 92  1  0  0  0
  6 25  1  0  0  0
  6 93  1  0  0  0
  6 94  1  0  0  0
  7  8  2  0  0  0
  7 26  1  0  0  0
  7 29  1  0  0  0
  8  9  1  0  0  0
  8 22  1  0  0  0
  9 10  1  0  0  0
  9 27  2  0  0  0
 10 11  2  0  0  0
 10 15  1  0  0  0
 11 12  1  0  0  0
 11 95  1  0  0  0
 12 13  2  0  0  0
 12 96  1  0  0  0
 13 14  1  0  0  0
 13 31  1  0  0  0
 14 15  2  0  0  0
 14 97  1  0  0  0
 15 98  1  0  0  0
 16 17  2  0  0  0
 16 21  1  0  0  0
 16 31  1  0  0  0
 17 18  1  0  0  0
 17 99  1  0  0  0
 18 19  2  0  0  0
 18100  1  0  0  0
 19 20  1  0  0  0
 19 24  1  0  0  0
 20 21  2  0  0  0
 20101  1  0  0  0
 21 23  1  0  0  0
 22 28  1  0  0  0
 22 32  2  0  0  0
 26 27  1  0  0  0
 28102  1  0  0  0
 28103  1  0  0  0
 29104  1  0  0  0
 29105  1  0  0  0
 33 34  1  0  0  0
 33 66  1  0  0  0
 33 70  2  0  0  0
 34 36  1  0  0  0
 34 59  1  0  0  0
 34106  1  0  0  0
 35 44  2  0  0  0
 35 45  1  0  0  0
 35 68  1  0  0  0
 36 56  1  0  0  0
 36107  1  0  0  0
 37 39  1  0  0  0
 37 47  1  0  0  0
 37 66  1  0  0  0
 37108  1  0  0  0
 38 43  2  0  0  0
 38 46  1  0  0  0
 38 47  1  0  0  0
 39 64  1  0  0  0
 39 67  2  0  0  0
 40 52  1  0  0  0
 40 53  2  0  0  0
 40 58  1  0  0  0
 41109  1  0  0  0
 41110  1  0  0  0
 41111  1  0  0  0
 41 48  1  0  0  0
 42 43  1  0  0  0
 42 66  1  0  0  0
 42112  1  0  0  0
 42113  1  0  0  0
 43 44  1  0  0  0
 44114  1  0  0  0
 45 46  2  0  0  0
 45115  1  0  0  0
 46116  1  0  0  0
 47117  1  0  0  0
 47118  1  0  0  0
 48 56  1  0  0  0
 48 65  1  0  0  0
 48119  1  0  0  0
 49 50  1  0  0  0
 49 53  1  0  0  0
 49 64  1  0  0  0
 49120  1  0  0  0
 50 51  1  0  0  0
 50121  1  0  0  0
 50122  1  0  0  0
 51 52  1  0  0  0
 51123  1  0  0  0
 51124  1  0  0  0
 52125  1  0  0  0
 52126  1  0  0  0
 53 54  1  0  0  0
 54 55  2  0  0  0
 54127  1  0  0  0
 55 57  1  0  0  0
 55128  1  0  0  0
 56 69  2  0  0  0
 57 58  2  0  0  0
 57129  1  0  0  0
 58130  1  0  0  0
 59 60  1  0  0  0
 59 61  1  0  0  0
 59 62  1  0  0  0
 60131  1  0  0  0
 60132  1  0  0  0
 60133  1  0  0  0
 61134  1  0  0  0
 61135  1  0  0  0
 61136  1  0  0  0
 62137  1  0  0  0
 62138  1  0  0  0
 62139  1  0  0  0
 63 65  1  0  0  0
 63140  1  0  0  0
 63141  1  0  0  0
 63142  1  0  0  0
 64143  1  0  0  0
 65144  1  0  0  0
 68 82  1  0  0  0
 71 72  2  0  0  0
 71 84  1  0  0  0
 71145  1  0  0  0
 72 73  1  0  0  0
 72 78  1  0  0  0
 73 74  2  0  0  0
 73 83  1  0  0  0
 74 79  1  0  0  0
 74 84  1  0  0  0
 75 79  1  0  0  0
 75146  1  0  0  0
 75147  1  0  0  0
 75148  1  0  0  0
 76149  1  0  0  0
 76150  1  0  0  0
 76151  1  0  0  0
 76 83  1  0  0  0
 77 83  1  0  0  0
 77152  1  0  0  0
 77153  1  0  0  0
 77154  1  0  0  0
 78 81  1  0  0  0
 78155  1  0  0  0
 78156  1  0  0  0
 79157  1  0  0  0
 79158  1  0  0  0
 80 82  1  0  0  0
 80 84  1  0  0  0
 80159  1  0  0  0
 80160  1  0  0  0
 81 85  1  0  0  0
 81161  1  0  0  0
 81162  1  0  0  0
 82163  1  0  0  0
 82164  1  0  0  0
 83165  1  0  0  0
 85166  1  0  0  0
M  ISO  4   1 100  68 101  82 101  85 100
M  END
> <chiral flag>
0

> <version>
0

> <s_m_source_file>
/data/baiqing/PycharmProjects/Reinvent-master-3.2/result/LINK_invent/BTK/process_docking_weight1_custom_sum_contain_oxygen_bond_distance_aromatic_linkinvent_7_9_3/rearranged_h_0103.sdf

> <i_m_source_file_index>
59

> <r_mmod_Potential_Energy-OPLS-2005>
110.49479675293

> <r_mmod_Stretch_Energy-OPLS-2005>
123.731201171875

> <r_mmod_Bend_Energy-OPLS-2005>
190.1142578125

> <r_mmod_Torsional_Energy-OPLS-2005>
218.813598632812

> <r_mmod_Improper_Torsional_Energy-OPLS-2005>
5.85632038116455

> <r_mmod_Van_der_Waal_Energy-OPLS-2005>
118.494445800781

> <r_mmod_Electrostatic_Energy-OPLS-2005>
-415.69970703125

> <r_mmod_Solvation_Energy-OPLS-2005>
-210.463027954102

> <b_mmod_Minimization_Converged-OPLS-2005>
0

> <r_mmod_RMS_Derivative-OPLS-2005>
3.27510213851929

$$$$
59
                    3D
 Structure written by MMmdl.
157165  0  0  1  0            999 V2000
  -30.5184  -14.9867   20.4197 C   0  0  0  0  0  0
  -30.4488  -12.6218   19.4852 C   0  0  0  0  0  0
  -29.5273  -12.5523   18.2440 C   0  0  0  0  0  0
  -28.0611  -12.3237   18.6636 C   0  0  0  0  0  0
  -27.6287  -13.2527   19.8284 C   0  0  2  0  0  0
  -28.6735  -13.2895   20.9635 C   0  0  0  0  0  0
  -25.2466  -13.8230   20.5670 C   0  0  0  0  0  0
  -24.1795  -13.0445   20.9234 C   0  0  0  0  0  0
  -24.6423  -11.6940   20.8747 C   0  0  0  0  0  0
  -23.9111  -10.4311   21.0420 C   0  0  0  0  0  0
  -24.3659   -9.4211   21.9183 C   0  0  0  0  0  0
  -23.6319   -8.2246   22.0743 C   0  0  0  0  0  0
  -22.4287   -8.0302   21.3547 C   0  0  0  0  0  0
  -21.9948   -9.0278   20.4637 C   0  0  0  0  0  0
  -22.7295  -10.2151   20.3052 C   0  0  0  0  0  0
  -21.6854   -6.0756   22.5290 C   0  0  0  0  0  0
  -21.4014   -6.5643   23.8232 C   0  0  0  0  0  0
  -21.3669   -5.6783   24.9179 C   0  0  0  0  0  0
  -21.6043   -4.3047   24.7223 C   0  0  0  0  0  0
  -21.8825   -3.8156   23.4338 C   0  0  0  0  0  0
  -21.9187   -4.6982   22.3400 C   0  0  0  0  0  0
  -22.7818  -13.5228   21.1887 C   0  0  0  0  0  0
  -22.1661   -4.2181   21.0976 F   0  0  0  0  0  0
  -21.5632   -3.4521   25.7729 F   0  0  0  0  0  0
  -29.9429  -13.7158   20.3588 N   0  0  0  0  0  0
  -26.2890  -12.9464   20.3181 N   0  0  0  0  0  0
  -25.9354  -11.6596   20.5700 N   0  0  0  0  0  0
  -22.0445  -12.8218   22.0432 N   0  0  0  0  0  0
  -25.4083  -15.1955   20.4090 N   0  0  0  0  0  0
  -31.7374  -15.0650   20.2316 O   0  0  0  0  0  0
  -21.6628   -6.8906   21.4257 O   0  0  0  0  0  0
  -22.3510  -14.5528   20.6724 O   0  0  0  0  0  0
  -24.6472  -31.8400   23.1857 C   0  0  0  0  0  0
  -25.9230  -32.4663   23.8267 C   0  0  1  0  0  0
  -27.2097  -27.0979   20.1581 C   0  0  0  0  0  0
  -25.5966  -33.8473   24.2180 N   0  0  0  0  0  0
  -23.4515  -30.4605   21.5305 C   0  0  2  0  0  0
  -24.8999  -28.8779   20.1141 C   0  0  0  0  0  0
  -22.7574  -29.4539   22.4829 C   0  0  0  0  0  0
  -18.0299  -28.1423   22.8490 C   0  0  0  0  0  0
  -24.1469  -36.7211   23.2644 C   0  0  0  0  0  0
  -26.0113  -30.6983   21.3936 C   0  0  0  0  0  0
  -26.0777  -29.3054   20.7400 C   0  0  0  0  0  0
  -27.2336  -28.4306   20.7475 C   0  0  0  0  0  0
  -26.0184  -26.7969   19.4657 C   0  0  0  0  0  0
  -24.8826  -27.6349   19.4635 C   0  0  0  0  0  0
  -23.6826  -29.7891   20.1508 C   0  0  0  0  0  0
  -25.4100  -36.3003   24.0329 C   0  0  1  0  0  0
  -20.5926  -28.3727   23.1214 C   0  0  2  0  0  0
  -20.6770  -26.9430   22.5390 C   0  0  0  0  0  0
  -19.5737  -26.6411   21.5198 C   0  0  0  0  0  0
  -18.1927  -26.7963   22.1631 C   0  0  0  0  0  0
  -19.1572  -28.8892   23.2844 C   0  0  0  0  0  0
  -18.9501  -30.1485   23.8879 C   0  0  0  0  0  0
  -17.6504  -30.6614   24.0570 C   0  0  0  0  0  0
  -25.9068  -34.9389   23.5054 C   0  0  0  0  0  0
  -16.5384  -29.9121   23.6356 C   0  0  0  0  0  0
  -16.7287  -28.6538   23.0377 C   0  0  0  0  0  0
  -26.4547  -31.6546   25.0718 C   0  0  0  0  0  0
  -25.3731  -31.3755   26.1415 C   0  0  0  0  0  0
  -27.0412  -30.2933   24.6321 C   0  0  0  0  0  0
  -27.6073  -32.4317   25.7492 C   0  0  0  0  0  0
  -27.5548  -37.1753   24.8481 C   0  0  0  0  0  0
  -21.4269  -29.3047   22.3576 N   0  0  0  0  0  0
  -26.4249  -37.3732   23.9440 N   0  0  0  0  0  0
  -24.7230  -31.0232   22.0904 N   0  0  0  0  0  0
  -23.4190  -28.8095   23.3009 O   0  0  0  0  0  0
  -28.2653  -26.1005   20.1632 O   0  0  0  0  0  0
  -26.5658  -34.8898   22.4640 O   0  0  0  0  0  0
  -23.5582  -32.1305   23.7040 O   0  0  0  0  0  0
  -30.3767  -18.5788   18.5118 C   0  0  0  0  0  0
  -29.9319  -20.7546   18.3481 C   0  0  0  0  0  0
  -30.4735  -19.7081   17.6664 C   0  0  0  0  0  0
  -29.8249  -18.9105   19.7210 C   0  0  0  0  0  0
  -31.0752  -19.7525   16.2849 C   0  0  0  0  0  0
  -26.6815  -24.2057   20.9504 C   0  0  0  0  0  0
  -29.7827  -17.7046   20.8138 C   0  0  0  0  0  0
  -28.8295  -23.2080   19.8762 C   0  0  0  0  0  0
  -28.8890  -21.5926   20.4636 C   0  0  0  0  0  0
  -28.1299  -24.5814   20.5966 C   0  0  1  0  0  0
  -29.5093  -20.3920   19.6249 N   0  0  0  0  0  0
  -29.6871  -16.1443   20.4856 N   0  0  0  0  0  0
  -30.4605  -11.6703   20.0207 H   0  0  0  0  0  0
  -31.4766  -12.8086   19.1708 H   0  0  0  0  0  0
  -29.8552  -11.7610   17.5688 H   0  0  0  0  0  0
  -29.6051  -13.4837   17.6800 H   0  0  0  0  0  0
  -27.9654  -11.2820   18.9703 H   0  0  0  0  0  0
  -27.3998  -12.4528   17.8054 H   0  0  0  0  0  0
  -27.5840  -14.2547   19.3996 H   0  0  0  0  0  0
  -28.7694  -12.3143   21.4425 H   0  0  0  0  0  0
  -28.3676  -13.9920   21.7417 H   0  0  0  0  0  0
  -25.2816   -9.5664   22.4753 H   0  0  0  0  0  0
  -24.0025   -7.4630   22.7458 H   0  0  0  0  0  0
  -21.0884   -8.8829   19.8936 H   0  0  0  0  0  0
  -22.3792  -10.9694   19.6153 H   0  0  0  0  0  0
  -21.2001   -7.6151   23.9759 H   0  0  0  0  0  0
  -21.1487   -6.0492   25.9090 H   0  0  0  0  0  0
  -22.0590   -2.7621   23.2818 H   0  0  0  0  0  0
  -22.4045  -11.9894   22.4867 H   0  0  0  0  0  0
  -21.1047  -13.1247   22.2577 H   0  0  0  0  0  0
  -24.6276  -15.8358   20.5017 H   0  0  0  0  0  0
  -26.2403  -15.6400   20.0468 H   0  0  0  0  0  0
  -26.7286  -32.5250   23.0977 H   0  0  0  0  0  0
  -25.0107  -33.9582   25.0320 H   0  0  0  0  0  0
  -22.7563  -31.2876   21.3705 H   0  0  0  0  0  0
  -23.3748  -35.9525   23.3299 H   0  0  0  0  0  0
  -24.3538  -36.8839   22.2057 H   0  0  0  0  0  0
  -23.7209  -37.6401   23.6677 H   0  0  0  0  0  0
  -26.1748  -31.4479   20.6189 H   0  0  0  0  0  0
  -26.8773  -30.7490   22.0408 H   0  0  0  0  0  0
  -28.1294  -28.7509   21.2603 H   0  0  0  0  0  0
  -25.9473  -25.8660   18.9241 H   0  0  0  0  0  0
  -23.9913  -27.3082   18.9459 H   0  0  0  0  0  0
  -23.8323  -30.5624   19.3959 H   0  0  0  0  0  0
  -22.7973  -29.2393   19.8291 H   0  0  0  0  0  0
  -25.1284  -36.1809   25.0823 H   0  0  0  0  0  0
  -21.0022  -28.3328   24.1331 H   0  0  0  0  0  0
  -20.5638  -26.2359   23.3619 H   0  0  0  0  0  0
  -21.6634  -26.7423   22.1197 H   0  0  0  0  0  0
  -19.6884  -25.6320   21.1231 H   0  0  0  0  0  0
  -19.6654  -27.3225   20.6729 H   0  0  0  0  0  0
  -17.4182  -26.6710   21.4047 H   0  0  0  0  0  0
  -18.0319  -26.0111   22.9036 H   0  0  0  0  0  0
  -19.7986  -30.7293   24.2244 H   0  0  0  0  0  0
  -17.5076  -31.6298   24.5177 H   0  0  0  0  0  0
  -15.5391  -30.3033   23.7694 H   0  0  0  0  0  0
  -15.8680  -28.0847   22.7126 H   0  0  0  0  0  0
  -24.5930  -30.7063   25.7765 H   0  0  0  0  0  0
  -24.8895  -32.2943   26.4754 H   0  0  0  0  0  0
  -25.8038  -30.9019   27.0247 H   0  0  0  0  0  0
  -26.3039  -29.6638   24.1324 H   0  0  0  0  0  0
  -27.4015  -29.7254   25.4910 H   0  0  0  0  0  0
  -27.8954  -30.4155   23.9653 H   0  0  0  0  0  0
  -27.2672  -33.3644   26.2003 H   0  0  0  0  0  0
  -28.3923  -32.6829   25.0346 H   0  0  0  0  0  0
  -28.0693  -31.8482   26.5464 H   0  0  0  0  0  0
  -28.2594  -38.0027   24.7520 H   0  0  0  0  0  0
  -28.1026  -36.2569   24.6317 H   0  0  0  0  0  0
  -27.2274  -37.1399   25.8887 H   0  0  0  0  0  0
  -20.9488  -29.8757   21.6746 H   0  0  0  0  0  0
  -26.0108  -38.2788   24.1490 H   0  0  0  0  0  0
  -30.7321  -17.5854   18.2669 H   0  0  0  0  0  0
  -29.8369  -21.7727   18.0004 H   0  0  0  0  0  0
  -30.6670  -20.5808   15.7043 H   0  0  0  0  0  0
  -30.8752  -18.8277   15.7429 H   0  0  0  0  0  0
  -32.1563  -19.8838   16.3504 H   0  0  0  0  0  0
  -26.1927  -24.9626   21.5633 H   0  0  0  0  0  0
  -26.6574  -23.2786   21.5223 H   0  0  0  0  0  0
  -26.0824  -24.0316   20.0564 H   0  0  0  0  0  0
  -30.6523  -17.8219   21.4621 H   0  0  0  0  0  0
  -28.9337  -17.9018   21.4709 H   0  0  0  0  0  0
  -29.8626  -23.4863   19.6658 H   0  0  0  0  0  0
  -28.3560  -23.1472   18.8958 H   0  0  0  0  0  0
  -27.8641  -21.3002   20.6902 H   0  0  0  0  0  0
  -29.3952  -21.5988   21.4290 H   0  0  0  0  0  0
  -28.6327  -24.6191   21.5637 H   0  0  0  0  0  0
  -28.7215  -15.8595   20.4601 H   0  0  0  0  0  0
  1 25  1  0  0  0
  1 30  2  0  0  0
  1 82  1  0  0  0
  2  3  1  0  0  0
  2 25  1  0  0  0
  2 83  1  0  0  0
  2 84  1  0  0  0
  3  4  1  0  0  0
  3 85  1  0  0  0
  3 86  1  0  0  0
  4  5  1  0  0  0
  4 87  1  0  0  0
  4 88  1  0  0  0
  5  6  1  0  0  0
  5 26  1  0  0  0
  5 89  1  0  0  0
  6 25  1  0  0  0
  6 90  1  0  0  0
  6 91  1  0  0  0
  7  8  2  0  0  0
  7 26  1  0  0  0
  7 29  1  0  0  0
  8  9  1  0  0  0
  8 22  1  0  0  0
  9 10  1  0  0  0
  9 27  2  0  0  0
 10 11  2  0  0  0
 10 15  1  0  0  0
 11 12  1  0  0  0
 11 92  1  0  0  0
 12 13  2  0  0  0
 12 93  1  0  0  0
 13 14  1  0  0  0
 13 31  1  0  0  0
 14 15  2  0  0  0
 14 94  1  0  0  0
 15 95  1  0  0  0
 16 17  2  0  0  0
 16 21  1  0  0  0
 16 31  1  0  0  0
 17 18  1  0  0  0
 17 96  1  0  0  0
 18 19  2  0  0  0
 18 97  1  0  0  0
 19 20  1  0  0  0
 19 24  1  0  0  0
 20 21  2  0  0  0
 20 98  1  0  0  0
 21 23  1  0  0  0
 22 28  1  0  0  0
 22 32  2  0  0  0
 26 27  1  0  0  0
 28 99  1  0  0  0
 28100  1  0  0  0
 29101  1  0  0  0
 29102  1  0  0  0
 33 34  1  0  0  0
 33 66  1  0  0  0
 33 70  2  0  0  0
 34 36  1  0  0  0
 34 59  1  0  0  0
 34103  1  0  0  0
 35 44  2  0  0  0
 35 45  1  0  0  0
 35 68  1  0  0  0
 36 56  1  0  0  0
 36104  1  0  0  0
 37 39  1  0  0  0
 37 47  1  0  0  0
 37 66  1  0  0  0
 37105  1  0  0  0
 38 43  2  0  0  0
 38 46  1  0  0  0
 38 47  1  0  0  0
 39 64  1  0  0  0
 39 67  2  0  0  0
 40 52  1  0  0  0
 40 53  2  0  0  0
 40 58  1  0  0  0
 41106  1  0  0  0
 41107  1  0  0  0
 41108  1  0  0  0
 41 48  1  0  0  0
 42 43  1  0  0  0
 42 66  1  0  0  0
 42109  1  0  0  0
 42110  1  0  0  0
 43 44  1  0  0  0
 44111  1  0  0  0
 45 46  2  0  0  0
 45112  1  0  0  0
 46113  1  0  0  0
 47114  1  0  0  0
 47115  1  0  0  0
 48 56  1  0  0  0
 48 65  1  0  0  0
 48116  1  0  0  0
 49 50  1  0  0  0
 49 53  1  0  0  0
 49 64  1  0  0  0
 49117  1  0  0  0
 50 51  1  0  0  0
 50118  1  0  0  0
 50119  1  0  0  0
 51 52  1  0  0  0
 51120  1  0  0  0
 51121  1  0  0  0
 52122  1  0  0  0
 52123  1  0  0  0
 53 54  1  0  0  0
 54 55  2  0  0  0
 54124  1  0  0  0
 55 57  1  0  0  0
 55125  1  0  0  0
 56 69  2  0  0  0
 57 58  2  0  0  0
 57126  1  0  0  0
 58127  1  0  0  0
 59 60  1  0  0  0
 59 61  1  0  0  0
 59 62  1  0  0  0
 60128  1  0  0  0
 60129  1  0  0  0
 60130  1  0  0  0
 61131  1  0  0  0
 61132  1  0  0  0
 61133  1  0  0  0
 62134  1  0  0  0
 62135  1  0  0  0
 62136  1  0  0  0
 63 65  1  0  0  0
 63137  1  0  0  0
 63138  1  0  0  0
 63139  1  0  0  0
 64140  1  0  0  0
 65141  1  0  0  0
 68 80  1  0  0  0
 71 73  1  0  0  0
 71 74  2  0  0  0
 71142  1  0  0  0
 72 73  2  0  0  0
 72 81  1  0  0  0
 72143  1  0  0  0
 73 75  1  0  0  0
 74 77  1  0  0  0
 74 81  1  0  0  0
 75144  1  0  0  0
 75145  1  0  0  0
 75146  1  0  0  0
 76147  1  0  0  0
 76148  1  0  0  0
 76149  1  0  0  0
 76 80  1  0  0  0
 77 82  1  0  0  0
 77150  1  0  0  0
 77151  1  0  0  0
 78 79  1  0  0  0
 78 80  1  0  0  0
 78152  1  0  0  0
 78153  1  0  0  0
 79 81  1  0  0  0
 79154  1  0  0  0
 79155  1  0  0  0
 80156  1  0  0  0
 82157  1  0  0  0
M  ISO  4   1 100  68 101  80 101  82 100
M  END
> <chiral flag>
0

> <version>
0

> <s_m_source_file>
/data/baiqing/PycharmProjects/Reinvent-master-3.2/result/LINK_invent/BTK/process_docking_weight1_custom_sum_contain_oxygen_bond_distance_aromatic_linkinvent_7_9_3/rearranged_h_0103.sdf

> <i_m_source_file_index>
60

> <r_mmod_Potential_Energy-OPLS-2005>
598.97265625

> <r_mmod_Stretch_Energy-OPLS-2005>
317.771087646484

> <r_mmod_Bend_Energy-OPLS-2005>
343.606994628906

> <r_mmod_Torsional_Energy-OPLS-2005>
238.145568847656

> <r_mmod_Improper_Torsional_Energy-OPLS-2005>
5.0962986946106

> <r_mmod_Van_der_Waal_Energy-OPLS-2005>
111.324150085449

> <r_mmod_Electrostatic_Energy-OPLS-2005>
-421.282135009766

> <r_mmod_Solvation_Energy-OPLS-2005>
-219.368240356445

> <b_mmod_Minimization_Converged-OPLS-2005>
0

> <r_mmod_RMS_Derivative-OPLS-2005>
2.54900121688843

$$$$
60
                    3D
 Structure written by MMmdl.
158166  0  0  1  0            999 V2000
  -30.4068  -15.3459   20.3689 C   0  0  0  0  0  0
  -30.4422  -12.8774   19.4998 C   0  0  0  0  0  0
  -29.5335  -12.5805   18.2794 C   0  0  0  0  0  0
  -28.0891  -12.2882   18.7228 C   0  0  0  0  0  0
  -27.6060  -13.2768   19.8117 C   0  0  2  0  0  0
  -28.6455  -13.4915   20.9307 C   0  0  0  0  0  0
  -25.2383  -13.8237   20.5764 C   0  0  0  0  0  0
  -24.1742  -13.0423   20.9269 C   0  0  0  0  0  0
  -24.6403  -11.6921   20.8765 C   0  0  0  0  0  0
  -23.9100  -10.4282   21.0409 C   0  0  0  0  0  0
  -24.3645   -9.4198   21.9188 C   0  0  0  0  0  0
  -23.6307   -8.2240   22.0761 C   0  0  0  0  0  0
  -22.4288   -8.0282   21.3548 C   0  0  0  0  0  0
  -21.9928   -9.0258   20.4652 C   0  0  0  0  0  0
  -22.7268  -10.2130   20.3059 C   0  0  0  0  0  0
  -21.6852   -6.0741   22.5281 C   0  0  0  0  0  0
  -21.4016   -6.5647   23.8209 C   0  0  0  0  0  0
  -21.3654   -5.6802   24.9171 C   0  0  0  0  0  0
  -21.6041   -4.3061   24.7222 C   0  0  0  0  0  0
  -21.8819   -3.8153   23.4341 C   0  0  0  0  0  0
  -21.9192   -4.6970   22.3401 C   0  0  0  0  0  0
  -22.7758  -13.5173   21.1907 C   0  0  0  0  0  0
  -22.1661   -4.2155   21.0976 F   0  0  0  0  0  0
  -21.5624   -3.4544   25.7732 F   0  0  0  0  0  0
  -29.8517  -14.0308   20.2762 N   0  0  0  0  0  0
  -26.2811  -12.9516   20.3216 N   0  0  0  0  0  0
  -25.9339  -11.6622   20.5725 N   0  0  0  0  0  0
  -22.0423  -12.8155   22.0465 N   0  0  0  0  0  0
  -25.4002  -15.1977   20.4214 N   0  0  0  0  0  0
  -31.6444  -15.3315   20.2842 O   0  0  0  0  0  0
  -21.6643   -6.8886   21.4240 O   0  0  0  0  0  0
  -22.3428  -14.5469   20.6740 O   0  0  0  0  0  0
  -24.6680  -31.8194   23.1659 C   0  0  0  0  0  0
  -25.9336  -32.4572   23.8143 C   0  0  1  0  0  0
  -27.2204  -26.8789   20.1957 C   0  0  0  0  0  0
  -25.5988  -33.8385   24.2052 N   0  0  0  0  0  0
  -23.4859  -30.4293   21.5160 C   0  0  2  0  0  0
  -24.9396  -28.8051   20.1185 C   0  0  0  0  0  0
  -22.7691  -29.4435   22.4763 C   0  0  0  0  0  0
  -18.0330  -28.1417   22.8476 C   0  0  0  0  0  0
  -24.1490  -36.7188   23.2656 C   0  0  0  0  0  0
  -26.0586  -30.6106   21.4035 C   0  0  0  0  0  0
  -26.1265  -29.1938   20.7521 C   0  0  0  0  0  0
  -27.2632  -28.2565   20.7578 C   0  0  0  0  0  0
  -26.0020  -26.6550   19.5144 C   0  0  0  0  0  0
  -24.9056  -27.5571   19.4776 C   0  0  0  0  0  0
  -23.7293  -29.7406   20.1457 C   0  0  0  0  0  0
  -25.4132  -36.2953   24.0306 C   0  0  1  0  0  0
  -20.5959  -28.3770   23.1175 C   0  0  2  0  0  0
  -20.6806  -26.9444   22.5402 C   0  0  0  0  0  0
  -19.5772  -26.6383   21.5222 C   0  0  0  0  0  0
  -18.1955  -26.7955   22.1628 C   0  0  0  0  0  0
  -19.1592  -28.8911   23.2812 C   0  0  0  0  0  0
  -18.9505  -30.1499   23.8850 C   0  0  0  0  0  0
  -17.6499  -30.6608   24.0558 C   0  0  0  0  0  0
  -25.9101  -34.9341   23.4996 C   0  0  0  0  0  0
  -16.5385  -29.9096   23.6348 C   0  0  0  0  0  0
  -16.7311  -28.6514   23.0372 C   0  0  0  0  0  0
  -26.4563  -31.6538   25.0693 C   0  0  0  0  0  0
  -25.3681  -31.3810   26.1346 C   0  0  0  0  0  0
  -27.0473  -30.2903   24.6472 C   0  0  0  0  0  0
  -27.6048  -32.4357   25.7493 C   0  0  0  0  0  0
  -27.5553  -37.1755   24.8469 C   0  0  0  0  0  0
  -21.4356  -29.3056   22.3515 N   0  0  0  0  0  0
  -26.4264  -37.3699   23.9409 N   0  0  0  0  0  0
  -24.7594  -30.9813   22.0821 N   0  0  0  0  0  0
  -23.4216  -28.8014   23.3029 O   0  0  0  0  0  0
  -28.2201  -25.7517   20.2143 O   0  0  0  0  0  0
  -26.5708  -34.8889   22.4593 O   0  0  0  0  0  0
  -23.5736  -32.1186   23.6714 O   0  0  0  0  0  0
  -28.7170  -21.1618   20.6561 C   0  0  0  0  0  0
  -30.2301  -20.2479   19.0704 C   0  0  0  0  0  0
  -29.4375  -19.8770   20.1769 C   0  0  0  0  0  0
  -28.7905  -22.6045   20.0929 C   0  0  0  0  0  0
  -30.3284  -21.5888   18.5685 C   0  0  0  0  0  0
  -32.2357  -20.7741   17.0311 C   0  0  0  0  0  0
  -32.1740  -23.1341   17.7727 C   0  0  0  0  0  0
  -30.4464  -22.2736   16.1464 C   0  0  0  0  0  0
  -29.6737  -18.2456   20.8296 C   0  0  0  0  0  0
  -27.9225  -24.1176   20.4331 C   0  0  0  0  0  0
  -31.2786  -21.9316   17.3970 C   0  0  0  0  0  0
  -29.6291  -22.6738   19.0349 N   0  0  0  0  0  0
  -29.6251  -16.6249   20.3427 N   0  0  0  0  0  0
  -31.4458  -13.1183   19.1471 H   0  0  0  0  0  0
  -30.5548  -11.9943   20.1312 H   0  0  0  0  0  0
  -29.9281  -11.7398   17.7070 H   0  0  0  0  0  0
  -29.5396  -13.4399   17.6062 H   0  0  0  0  0  0
  -28.0676  -11.2734   19.1211 H   0  0  0  0  0  0
  -27.4135  -12.2969   17.8671 H   0  0  0  0  0  0
  -27.5048  -14.2305   19.2925 H   0  0  0  0  0  0
  -28.8480  -12.5695   21.4785 H   0  0  0  0  0  0
  -28.2734  -14.2131   21.6601 H   0  0  0  0  0  0
  -25.2786   -9.5665   22.4767 H   0  0  0  0  0  0
  -24.0005   -7.4628   22.7484 H   0  0  0  0  0  0
  -21.0856   -8.8780   19.8962 H   0  0  0  0  0  0
  -22.3726  -10.9671   19.6170 H   0  0  0  0  0  0
  -21.2015   -7.6156   23.9711 H   0  0  0  0  0  0
  -21.1473   -6.0533   25.9070 H   0  0  0  0  0  0
  -22.0602   -2.7616   23.2838 H   0  0  0  0  0  0
  -22.4064  -11.9816   22.4841 H   0  0  0  0  0  0
  -21.1040  -13.1161   22.2693 H   0  0  0  0  0  0
  -24.6299  -15.8470   20.5403 H   0  0  0  0  0  0
  -26.2438  -15.6436   20.0870 H   0  0  0  0  0  0
  -26.7405  -32.5094   23.0855 H   0  0  0  0  0  0
  -25.0103  -33.9457   25.0182 H   0  0  0  0  0  0
  -22.8033  -31.2632   21.3392 H   0  0  0  0  0  0
  -23.3762  -35.9509   23.3302 H   0  0  0  0  0  0
  -24.3575  -36.8846   22.2075 H   0  0  0  0  0  0
  -23.7238  -37.6370   23.6719 H   0  0  0  0  0  0
  -26.2447  -31.3476   20.6208 H   0  0  0  0  0  0
  -26.9168  -30.6714   22.0610 H   0  0  0  0  0  0
  -28.1658  -28.5613   21.2677 H   0  0  0  0  0  0
  -25.8651  -25.7093   19.0110 H   0  0  0  0  0  0
  -24.0074  -27.2548   18.9564 H   0  0  0  0  0  0
  -23.8924  -30.5061   19.3857 H   0  0  0  0  0  0
  -22.8379  -29.1990   19.8241 H   0  0  0  0  0  0
  -25.1335  -36.1742   25.0799 H   0  0  0  0  0  0
  -21.0048  -28.3378   24.1296 H   0  0  0  0  0  0
  -20.5689  -26.2389   23.3651 H   0  0  0  0  0  0
  -21.6668  -26.7420   22.1201 H   0  0  0  0  0  0
  -19.6928  -25.6279   21.1285 H   0  0  0  0  0  0
  -19.6705  -27.3168   20.6734 H   0  0  0  0  0  0
  -17.4224  -26.6706   21.4028 H   0  0  0  0  0  0
  -18.0333  -26.0107   22.9029 H   0  0  0  0  0  0
  -19.7977  -30.7329   24.2193 H   0  0  0  0  0  0
  -17.5051  -31.6286   24.5167 H   0  0  0  0  0  0
  -15.5382  -30.2987   23.7708 H   0  0  0  0  0  0
  -15.8710  -28.0820   22.7120 H   0  0  0  0  0  0
  -24.5863  -30.7163   25.7647 H   0  0  0  0  0  0
  -24.8872  -32.3023   26.4644 H   0  0  0  0  0  0
  -25.7905  -30.9049   27.0206 H   0  0  0  0  0  0
  -26.3157  -29.6560   24.1459 H   0  0  0  0  0  0
  -27.3964  -29.7294   25.5152 H   0  0  0  0  0  0
  -27.9115  -30.4072   23.9933 H   0  0  0  0  0  0
  -27.2618  -33.3716   26.1914 H   0  0  0  0  0  0
  -28.3941  -32.6826   25.0377 H   0  0  0  0  0  0
  -28.0630  -31.8586   26.5534 H   0  0  0  0  0  0
  -28.2567  -38.0051   24.7495 H   0  0  0  0  0  0
  -28.1041  -36.2577   24.6314 H   0  0  0  0  0  0
  -27.2267  -37.1421   25.8871 H   0  0  0  0  0  0
  -20.9611  -29.8736   21.6637 H   0  0  0  0  0  0
  -26.0103  -38.2750   24.1422 H   0  0  0  0  0  0
  -28.0772  -21.0413   21.5195 H   0  0  0  0  0  0
  -30.8304  -19.4595   18.6424 H   0  0  0  0  0  0
  -32.8389  -20.4706   17.8883 H   0  0  0  0  0  0
  -32.9302  -21.0684   16.2432 H   0  0  0  0  0  0
  -31.7001  -19.8979   16.6643 H   0  0  0  0  0  0
  -32.7383  -22.9339   18.6839 H   0  0  0  0  0  0
  -31.5901  -24.0392   17.9430 H   0  0  0  0  0  0
  -32.8897  -23.3645   16.9833 H   0  0  0  0  0  0
  -29.8113  -21.4347   15.8596 H   0  0  0  0  0  0
  -31.0823  -22.5168   15.2947 H   0  0  0  0  0  0
  -29.7952  -23.1301   16.3224 H   0  0  0  0  0  0
  -29.0030  -18.2457   21.6887 H   0  0  0  0  0  0
  -30.6612  -18.3189   21.2858 H   0  0  0  0  0  0
  -27.6885  -24.0419   21.4953 H   0  0  0  0  0  0
  -26.9620  -23.9531   19.9459 H   0  0  0  0  0  0
  -28.6655  -16.3906   20.1399 H   0  0  0  0  0  0
  1 25  1  0  0  0
  1 30  2  0  0  0
  1 83  1  0  0  0
  2  3  1  0  0  0
  2 25  1  0  0  0
  2 84  1  0  0  0
  2 85  1  0  0  0
  3  4  1  0  0  0
  3 86  1  0  0  0
  3 87  1  0  0  0
  4  5  1  0  0  0
  4 88  1  0  0  0
  4 89  1  0  0  0
  5  6  1  0  0  0
  5 26  1  0  0  0
  5 90  1  0  0  0
  6 25  1  0  0  0
  6 91  1  0  0  0
  6 92  1  0  0  0
  7  8  2  0  0  0
  7 26  1  0  0  0
  7 29  1  0  0  0
  8  9  1  0  0  0
  8 22  1  0  0  0
  9 10  1  0  0  0
  9 27  2  0  0  0
 10 11  2  0  0  0
 10 15  1  0  0  0
 11 12  1  0  0  0
 11 93  1  0  0  0
 12 13  2  0  0  0
 12 94  1  0  0  0
 13 14  1  0  0  0
 13 31  1  0  0  0
 14 15  2  0  0  0
 14 95  1  0  0  0
 15 96  1  0  0  0
 16 17  2  0  0  0
 16 21  1  0  0  0
 16 31  1  0  0  0
 17 18  1  0  0  0
 17 97  1  0  0  0
 18 19  2  0  0  0
 18 98  1  0  0  0
 19 20  1  0  0  0
 19 24  1  0  0  0
 20 21  2  0  0  0
 20 99  1  0  0  0
 21 23  1  0  0  0
 22 28  1  0  0  0
 22 32  2  0  0  0
 26 27  1  0  0  0
 28100  1  0  0  0
 28101  1  0  0  0
 29102  1  0  0  0
 29103  1  0  0  0
 33 34  1  0  0  0
 33 66  1  0  0  0
 33 70  2  0  0  0
 34 36  1  0  0  0
 34 59  1  0  0  0
 34104  1  0  0  0
 35 44  2  0  0  0
 35 45  1  0  0  0
 35 68  1  0  0  0
 36 56  1  0  0  0
 36105  1  0  0  0
 37 39  1  0  0  0
 37 47  1  0  0  0
 37 66  1  0  0  0
 37106  1  0  0  0
 38 43  2  0  0  0
 38 46  1  0  0  0
 38 47  1  0  0  0
 39 64  1  0  0  0
 39 67  2  0  0  0
 40 52  1  0  0  0
 40 53  2  0  0  0
 40 58  1  0  0  0
 41107  1  0  0  0
 41108  1  0  0  0
 41109  1  0  0  0
 41 48  1  0  0  0
 42 43  1  0  0  0
 42 66  1  0  0  0
 42110  1  0  0  0
 42111  1  0  0  0
 43 44  1  0  0  0
 44112  1  0  0  0
 45 46  2  0  0  0
 45113  1  0  0  0
 46114  1  0  0  0
 47115  1  0  0  0
 47116  1  0  0  0
 48 56  1  0  0  0
 48 65  1  0  0  0
 48117  1  0  0  0
 49 50  1  0  0  0
 49 53  1  0  0  0
 49 64  1  0  0  0
 49118  1  0  0  0
 50 51  1  0  0  0
 50119  1  0  0  0
 50120  1  0  0  0
 51 52  1  0  0  0
 51121  1  0  0  0
 51122  1  0  0  0
 52123  1  0  0  0
 52124  1  0  0  0
 53 54  1  0  0  0
 54 55  2  0  0  0
 54125  1  0  0  0
 55 57  1  0  0  0
 55126  1  0  0  0
 56 69  2  0  0  0
 57 58  2  0  0  0
 57127  1  0  0  0
 58128  1  0  0  0
 59 60  1  0  0  0
 59 61  1  0  0  0
 59 62  1  0  0  0
 60129  1  0  0  0
 60130  1  0  0  0
 60131  1  0  0  0
 61132  1  0  0  0
 61133  1  0  0  0
 61134  1  0  0  0
 62135  1  0  0  0
 62136  1  0  0  0
 62137  1  0  0  0
 63 65  1  0  0  0
 63138  1  0  0  0
 63139  1  0  0  0
 63140  1  0  0  0
 64141  1  0  0  0
 65142  1  0  0  0
 68 80  1  0  0  0
 71 73  2  0  0  0
 71 74  1  0  0  0
 71143  1  0  0  0
 72 73  1  0  0  0
 72 75  2  0  0  0
 72144  1  0  0  0
 73 79  1  0  0  0
 74 80  1  0  0  0
 74 82  2  0  0  0
 75 81  1  0  0  0
 75 82  1  0  0  0
 76145  1  0  0  0
 76146  1  0  0  0
 76147  1  0  0  0
 76 81  1  0  0  0
 77 81  1  0  0  0
 77148  1  0  0  0
 77149  1  0  0  0
 77150  1  0  0  0
 78 81  1  0  0  0
 78151  1  0  0  0
 78152  1  0  0  0
 78153  1  0  0  0
 79 83  1  0  0  0
 79154  1  0  0  0
 79155  1  0  0  0
 80156  1  0  0  0
 80157  1  0  0  0
 83158  1  0  0  0
M  ISO  4   1 100  68 101  80 101  83 100
M  END
> <chiral flag>
0

> <version>
0

> <s_m_source_file>
/data/baiqing/PycharmProjects/Reinvent-master-3.2/result/LINK_invent/BTK/process_docking_weight1_custom_sum_contain_oxygen_bond_distance_aromatic_linkinvent_7_9_3/rearranged_h_0103.sdf

> <i_m_source_file_index>
61

> <r_mmod_Potential_Energy-OPLS-2005>
1194.17028808594

> <r_mmod_Stretch_Energy-OPLS-2005>
641.847778320312

> <r_mmod_Bend_Energy-OPLS-2005>
471.230224609375

> <r_mmod_Torsional_Energy-OPLS-2005>
225.368759155273

> <r_mmod_Improper_Torsional_Energy-OPLS-2005>
7.02287817001343

> <r_mmod_Van_der_Waal_Energy-OPLS-2005>
136.535430908203

> <r_mmod_Electrostatic_Energy-OPLS-2005>
-603.491577148438

> <r_mmod_Solvation_Energy-OPLS-2005>
-228.603729248047

> <b_mmod_Minimization_Converged-OPLS-2005>
0

> <r_mmod_RMS_Derivative-OPLS-2005>
1.32089555263519

$$$$
61
                    3D
 Structure written by MMmdl.
157165  0  0  1  0            999 V2000
  -31.4144  -14.8304   19.2446 C   0  0  0  0  0  0
  -30.5154  -13.4376   20.7717 C   0  0  0  0  0  0
  -29.2740  -12.1486   20.5923 C   0  0  0  0  0  0
  -27.9499  -12.0816   19.5193 C   0  0  0  0  0  0
  -27.2725  -13.6591   19.2246 C   0  0  2  0  0  0
  -28.5528  -15.3856   18.9071 C   0  0  0  0  0  0
  -24.9892  -14.0240   20.4263 C   0  0  0  0  0  0
  -24.0292  -13.1800   20.9298 C   0  0  0  0  0  0
  -24.5388  -11.8620   20.9287 C   0  0  0  0  0  0
  -23.8901  -10.5219   21.0673 C   0  0  0  0  0  0
  -24.3636   -9.4995   21.9254 C   0  0  0  0  0  0
  -23.6553   -8.2788   22.0705 C   0  0  0  0  0  0
  -22.4548   -8.0551   21.3531 C   0  0  0  0  0  0
  -22.0118   -9.0492   20.4635 C   0  0  0  0  0  0
  -22.7199  -10.2590   20.3203 C   0  0  0  0  0  0
  -21.7068   -6.0862   22.5216 C   0  0  0  0  0  0
  -21.4182   -6.5734   23.8144 C   0  0  0  0  0  0
  -21.3709   -5.6866   24.9095 C   0  0  0  0  0  0
  -21.6052   -4.3112   24.7142 C   0  0  0  0  0  0
  -21.8813   -3.8212   23.4249 C   0  0  0  0  0  0
  -21.9272   -4.7063   22.3329 C   0  0  0  0  0  0
  -22.6297  -13.5703   21.2110 C   0  0  0  0  0  0
  -22.1705   -4.2213   21.0908 F   0  0  0  0  0  0
  -21.5578   -3.4599   25.7647 F   0  0  0  0  0  0
  -30.3703  -15.0068   19.8619 N   0  0  0  0  0  0
  -26.1162  -13.3162   20.1980 N   0  0  0  0  0  0
  -25.7991  -12.0094   20.6528 N   0  0  0  0  0  0
  -21.9562  -12.8287   22.0796 N   0  0  0  0  0  0
  -24.9634  -15.3452   20.0435 N   0  0  0  0  0  0
  -32.5276  -14.7884   19.7345 O   0  0  0  0  0  0
  -21.7017   -6.9034   21.4169 O   0  0  0  0  0  0
  -22.1529  -14.5779   20.6984 O   0  0  0  0  0  0
  -24.7122  -31.7620   23.1288 C   0  0  0  0  0  0
  -25.9572  -32.4261   23.7908 C   0  0  1  0  0  0
  -27.0365  -26.2572   20.3774 C   0  0  0  0  0  0
  -25.6040  -33.8117   24.1758 N   0  0  0  0  0  0
  -23.5449  -30.3600   21.4897 C   0  0  2  0  0  0
  -24.9769  -28.6212   20.1279 C   0  0  0  0  0  0
  -22.7856  -29.4123   22.4605 C   0  0  0  0  0  0
  -18.0347  -28.1442   22.8437 C   0  0  0  0  0  0
  -24.1509  -36.7084   23.2656 C   0  0  0  0  0  0
  -26.1328  -30.3496   21.4601 C   0  0  0  0  0  0
  -26.1564  -28.8685   20.8345 C   0  0  0  0  0  0
  -27.1662  -27.7228   20.9151 C   0  0  0  0  0  0
  -25.8851  -26.3409   19.5389 C   0  0  0  0  0  0
  -24.9122  -27.3969   19.4377 C   0  0  0  0  0  0
  -23.8141  -29.6440   20.1295 C   0  0  0  0  0  0
  -25.4169  -36.2783   24.0249 C   0  0  1  0  0  0
  -20.5989  -28.3810   23.1094 C   0  0  2  0  0  0
  -20.6801  -26.9445   22.5406 C   0  0  0  0  0  0
  -19.5782  -26.6362   21.5221 C   0  0  0  0  0  0
  -18.1965  -26.7962   22.1614 C   0  0  0  0  0  0
  -19.1618  -28.8955   23.2740 C   0  0  0  0  0  0
  -18.9519  -30.1530   23.8798 C   0  0  0  0  0  0
  -17.6506  -30.6613   24.0550 C   0  0  0  0  0  0
  -25.9166  -34.9179   23.4861 C   0  0  0  0  0  0
  -16.5394  -29.9090   23.6357 C   0  0  0  0  0  0
  -16.7324  -28.6519   23.0359 C   0  0  0  0  0  0
  -26.4661  -31.6447   25.0669 C   0  0  0  0  0  0
  -25.3640  -31.3869   26.1219 C   0  0  0  0  0  0
  -27.0642  -30.2743   24.6841 C   0  0  0  0  0  0
  -27.6052  -32.4383   25.7495 C   0  0  0  0  0  0
  -27.5559  -37.1700   24.8462 C   0  0  0  0  0  0
  -21.4480  -29.3006   22.3380 N   0  0  0  0  0  0
  -26.4269  -37.3580   23.9395 N   0  0  0  0  0  0
  -24.8263  -30.8697   22.0758 N   0  0  0  0  0  0
  -23.4169  -28.7752   23.3070 O   0  0  0  0  0  0
  -27.7966  -24.8001   20.5788 O   0  0  0  0  0  0
  -26.5839  -34.8814   22.4504 O   0  0  0  0  0  0
  -23.6082  -32.0903   23.6025 O   0  0  0  0  0  0
  -29.1649  -16.1501   21.6713 C   0  0  0  0  0  0
  -29.1368  -17.7488   21.5436 C   0  0  0  0  0  0
  -28.4509  -14.8235   21.0421 C   0  0  0  0  0  0
  -28.1146  -18.7588   21.0248 C   0  0  0  0  0  0
  -27.3802  -16.0332   21.2310 C   0  0  0  0  0  0
  -26.5896  -15.8391   22.5462 C   0  0  0  0  0  0
  -31.9082  -13.2624   17.2917 C   0  0  0  0  0  0
  -29.5791  -13.4751   18.6537 C   0  0  0  0  0  0
  -27.5341  -22.8533   20.4930 C   0  0  0  0  0  0
  -28.0134  -20.8302   21.1716 C   0  0  1  0  0  0
  -30.8897  -14.1658   18.0216 C   0  0  1  0  0  0
  -27.2080  -17.5674   20.9177 N   0  0  0  0  0  0
  -27.4974  -21.0123   22.4799 O   0  0  0  0  0  0
  -31.4550  -12.8918   20.6291 H   0  0  0  0  0  0
  -30.5915  -13.6783   21.8351 H   0  0  0  0  0  0
  -28.8243  -12.0654   21.5841 H   0  0  0  0  0  0
  -29.8026  -11.1994   20.4966 H   0  0  0  0  0  0
  -27.4684  -11.1098   19.6370 H   0  0  0  0  0  0
  -28.1910  -11.6618   18.5362 H   0  0  0  0  0  0
  -26.7589  -13.5995   18.2666 H   0  0  0  0  0  0
  -28.6794  -15.5274   17.8286 H   0  0  0  0  0  0
  -28.1453  -16.3807   19.0271 H   0  0  0  0  0  0
  -25.2663   -9.6661   22.4968 H   0  0  0  0  0  0
  -24.0416   -7.5234   22.7393 H   0  0  0  0  0  0
  -21.1139   -8.8863   19.8861 H   0  0  0  0  0  0
  -22.3395  -11.0071   19.6399 H   0  0  0  0  0  0
  -21.2258   -7.6255   23.9657 H   0  0  0  0  0  0
  -21.1503   -6.0593   25.8991 H   0  0  0  0  0  0
  -22.0519   -2.7666   23.2714 H   0  0  0  0  0  0
  -22.3730  -12.0181   22.5153 H   0  0  0  0  0  0
  -21.0081  -13.0818   22.3184 H   0  0  0  0  0  0
  -25.7497  -15.8573   19.6570 H   0  0  0  0  0  0
  -24.1276  -15.9132   20.1241 H   0  0  0  0  0  0
  -26.7659  -32.4619   23.0598 H   0  0  0  0  0  0
  -25.0072  -33.9110   24.9838 H   0  0  0  0  0  0
  -22.8904  -31.2096   21.2834 H   0  0  0  0  0  0
  -23.3790  -35.9392   23.3235 H   0  0  0  0  0  0
  -24.3568  -36.8858   22.2088 H   0  0  0  0  0  0
  -23.7259  -37.6221   23.6824 H   0  0  0  0  0  0
  -26.3808  -31.0356   20.6485 H   0  0  0  0  0  0
  -26.9751  -30.4271   22.1338 H   0  0  0  0  0  0
  -28.0337  -27.9137   21.5302 H   0  0  0  0  0  0
  -25.6390  -25.4403   18.9923 H   0  0  0  0  0  0
  -24.0407  -27.2091   18.8269 H   0  0  0  0  0  0
  -24.0451  -30.3964   19.3746 H   0  0  0  0  0  0
  -22.9042  -29.1536   19.7803 H   0  0  0  0  0  0
  -25.1401  -36.1497   25.0740 H   0  0  0  0  0  0
  -21.0060  -28.3462   24.1225 H   0  0  0  0  0  0
  -20.5655  -26.2443   23.3693 H   0  0  0  0  0  0
  -21.6662  -26.7358   22.1236 H   0  0  0  0  0  0
  -19.6933  -25.6245   21.1320 H   0  0  0  0  0  0
  -19.6735  -27.3117   20.6710 H   0  0  0  0  0  0
  -17.4237  -26.6705   21.4011 H   0  0  0  0  0  0
  -18.0336  -26.0132   22.9036 H   0  0  0  0  0  0
  -19.7993  -30.7372   24.2126 H   0  0  0  0  0  0
  -17.5052  -31.6278   24.5178 H   0  0  0  0  0  0
  -15.5390  -30.2958   23.7737 H   0  0  0  0  0  0
  -15.8725  -28.0810   22.7116 H   0  0  0  0  0  0
  -24.5860  -30.7192   25.7501 H   0  0  0  0  0  0
  -24.8798  -32.3126   26.4337 H   0  0  0  0  0  0
  -25.7731  -30.9217   27.0196 H   0  0  0  0  0  0
  -26.3407  -29.6229   24.1931 H   0  0  0  0  0  0
  -27.4017  -29.7356   25.5706 H   0  0  0  0  0  0
  -27.9421  -30.3782   24.0460 H   0  0  0  0  0  0
  -27.2562  -33.3793   26.1761 H   0  0  0  0  0  0
  -28.4020  -32.6767   25.0435 H   0  0  0  0  0  0
  -28.0554  -31.8725   26.5665 H   0  0  0  0  0  0
  -28.2523  -38.0041   24.7503 H   0  0  0  0  0  0
  -28.1109  -36.2558   24.6306 H   0  0  0  0  0  0
  -27.2268  -37.1346   25.8860 H   0  0  0  0  0  0
  -20.9835  -29.8670   21.6419 H   0  0  0  0  0  0
  -26.0066  -38.2615   24.1400 H   0  0  0  0  0  0
  -30.1026  -15.8949   22.1408 H   0  0  0  0  0  0
  -29.9928  -18.2327   21.9961 H   0  0  0  0  0  0
  -27.2321  -15.3961   23.3086 H   0  0  0  0  0  0
  -25.7231  -15.1911   22.4881 H   0  0  0  0  0  0
  -26.2422  -16.7867   22.9600 H   0  0  0  0  0  0
  -31.4564  -12.8104   16.4082 H   0  0  0  0  0  0
  -32.2939  -12.4648   17.9262 H   0  0  0  0  0  0
  -32.7571  -13.8548   16.9501 H   0  0  0  0  0  0
  -28.9973  -13.4099   17.7179 H   0  0  0  0  0  0
  -30.0740  -12.4925   18.5879 H   0  0  0  0  0  0
  -26.4439  -22.8245   20.5128 H   0  0  0  0  0  0
  -27.7632  -22.7405   19.4325 H   0  0  0  0  0  0
  -29.0924  -20.9646   21.2450 H   0  0  0  0  0  0
  -30.6343  -14.9578   17.3162 H   0  0  0  0  0  0
  -27.0192  -20.2162   22.6824 H   0  0  0  0  0  0
  1 25  1  0  0  0
  1 30  2  0  0  0
  1 81  1  0  0  0
  2  3  1  0  0  0
  2 25  1  0  0  0
  2 84  1  0  0  0
  2 85  1  0  0  0
  3  4  1  0  0  0
  3 86  1  0  0  0
  3 87  1  0  0  0
  4  5  1  0  0  0
  4 88  1  0  0  0
  4 89  1  0  0  0
  5  6  1  0  0  0
  5 26  1  0  0  0
  5 90  1  0  0  0
  6 25  1  0  0  0
  6 91  1  0  0  0
  6 92  1  0  0  0
  7  8  2  0  0  0
  7 26  1  0  0  0
  7 29  1  0  0  0
  8  9  1  0  0  0
  8 22  1  0  0  0
  9 10  1  0  0  0
  9 27  2  0  0  0
 10 11  2  0  0  0
 10 15  1  0  0  0
 11 12  1  0  0  0
 11 93  1  0  0  0
 12 13  2  0  0  0
 12 94  1  0  0  0
 13 14  1  0  0  0
 13 31  1  0  0  0
 14 15  2  0  0  0
 14 95  1  0  0  0
 15 96  1  0  0  0
 16 17  2  0  0  0
 16 21  1  0  0  0
 16 31  1  0  0  0
 17 18  1  0  0  0
 17 97  1  0  0  0
 18 19  2  0  0  0
 18 98  1  0  0  0
 19 20  1  0  0  0
 19 24  1  0  0  0
 20 21  2  0  0  0
 20 99  1  0  0  0
 21 23  1  0  0  0
 22 28  1  0  0  0
 22 32  2  0  0  0
 26 27  1  0  0  0
 28100  1  0  0  0
 28101  1  0  0  0
 29102  1  0  0  0
 29103  1  0  0  0
 33 34  1  0  0  0
 33 66  1  0  0  0
 33 70  2  0  0  0
 34 36  1  0  0  0
 34 59  1  0  0  0
 34104  1  0  0  0
 35 44  2  0  0  0
 35 45  1  0  0  0
 35 68  1  0  0  0
 36 56  1  0  0  0
 36105  1  0  0  0
 37 39  1  0  0  0
 37 47  1  0  0  0
 37 66  1  0  0  0
 37106  1  0  0  0
 38 43  2  0  0  0
 38 46  1  0  0  0
 38 47  1  0  0  0
 39 64  1  0  0  0
 39 67  2  0  0  0
 40 52  1  0  0  0
 40 53  2  0  0  0
 40 58  1  0  0  0
 41107  1  0  0  0
 41108  1  0  0  0
 41109  1  0  0  0
 41 48  1  0  0  0
 42 43  1  0  0  0
 42 66  1  0  0  0
 42110  1  0  0  0
 42111  1  0  0  0
 43 44  1  0  0  0
 44112  1  0  0  0
 45 46  2  0  0  0
 45113  1  0  0  0
 46114  1  0  0  0
 47115  1  0  0  0
 47116  1  0  0  0
 48 56  1  0  0  0
 48 65  1  0  0  0
 48117  1  0  0  0
 49 50  1  0  0  0
 49 53  1  0  0  0
 49 64  1  0  0  0
 49118  1  0  0  0
 50 51  1  0  0  0
 50119  1  0  0  0
 50120  1  0  0  0
 51 52  1  0  0  0
 51121  1  0  0  0
 51122  1  0  0  0
 52123  1  0  0  0
 52124  1  0  0  0
 53 54  1  0  0  0
 54 55  2  0  0  0
 54125  1  0  0  0
 55 57  1  0  0  0
 55126  1  0  0  0
 56 69  2  0  0  0
 57 58  2  0  0  0
 57127  1  0  0  0
 58128  1  0  0  0
 59 60  1  0  0  0
 59 61  1  0  0  0
 59 62  1  0  0  0
 60129  1  0  0  0
 60130  1  0  0  0
 60131  1  0  0  0
 61132  1  0  0  0
 61133  1  0  0  0
 61134  1  0  0  0
 62135  1  0  0  0
 62136  1  0  0  0
 62137  1  0  0  0
 63 65  1  0  0  0
 63138  1  0  0  0
 63139  1  0  0  0
 63140  1  0  0  0
 64141  1  0  0  0
 65142  1  0  0  0
 68 79  1  0  0  0
 71 72  2  0  0  0
 71 73  1  0  0  0
 71143  1  0  0  0
 72 74  1  0  0  0
 72144  1  0  0  0
 73 75  2  0  0  0
 73 78  1  0  0  0
 74 80  1  0  0  0
 74 82  2  0  0  0
 75 76  1  0  0  0
 75 82  1  0  0  0
 76145  1  0  0  0
 76146  1  0  0  0
 76147  1  0  0  0
 77148  1  0  0  0
 77149  1  0  0  0
 77150  1  0  0  0
 77 81  1  0  0  0
 78 81  1  0  0  0
 78151  1  0  0  0
 78152  1  0  0  0
 79 80  1  0  0  0
 79153  1  0  0  0
 79154  1  0  0  0
 80 83  1  0  0  0
 80155  1  0  0  0
 81156  1  0  0  0
 83157  1  0  0  0
M  ISO  4   1 100  68 101  79 101  81 100
M  END
> <chiral flag>
0

> <version>
0

> <s_m_source_file>
/data/baiqing/PycharmProjects/Reinvent-master-3.2/result/LINK_invent/BTK/process_docking_weight1_custom_sum_contain_oxygen_bond_distance_aromatic_linkinvent_7_9_3/rearranged_h_0103.sdf

> <i_m_source_file_index>
62

> <r_mmod_Potential_Energy-OPLS-2005>
13977.994140625

> <r_mmod_Stretch_Energy-OPLS-2005>
6399.6162109375

> <r_mmod_Bend_Energy-OPLS-2005>
1599.16796875

> <r_mmod_Torsional_Energy-OPLS-2005>
507.958892822266

> <r_mmod_Improper_Torsional_Energy-OPLS-2005>
74.0088577270508

> <r_mmod_Van_der_Waal_Energy-OPLS-2005>
2208.25439453125

> <r_mmod_Electrostatic_Energy-OPLS-2005>
-450.256958007812

> <r_mmod_Solvation_Energy-OPLS-2005>
-217.207153320312

> <b_mmod_Minimization_Converged-OPLS-2005>
0

> <r_mmod_RMS_Derivative-OPLS-2005>
7.24267101287842

$$$$
62
                    3D
 Structure written by MMmdl.
184192  0  0  1  0            999 V2000
  -29.9429  -16.5736   20.2599 C   0  0  0  0  0  0
  -30.3205  -13.7940   19.5411 C   0  0  0  0  0  0
  -29.5742  -12.9533   18.4241 C   0  0  0  0  0  0
  -28.2398  -12.3864   18.9118 C   0  0  0  0  0  0
  -27.5762  -13.4277   19.8239 C   0  0  2  0  0  0
  -28.5154  -14.1279   20.8760 C   0  0  0  0  0  0
  -25.2167  -13.8477   20.5951 C   0  0  0  0  0  0
  -24.1673  -13.0468   20.9351 C   0  0  0  0  0  0
  -24.6532  -11.7025   20.8755 C   0  0  0  0  0  0
  -23.9234  -10.4314   21.0341 C   0  0  0  0  0  0
  -24.3725   -9.4223   21.9148 C   0  0  0  0  0  0
  -23.6346   -8.2279   22.0747 C   0  0  0  0  0  0
  -22.4334   -8.0313   21.3542 C   0  0  0  0  0  0
  -21.9999   -9.0294   20.4645 C   0  0  0  0  0  0
  -22.7367  -10.2148   20.3021 C   0  0  0  0  0  0
  -21.6874   -6.0764   22.5269 C   0  0  0  0  0  0
  -21.4026   -6.5647   23.8205 C   0  0  0  0  0  0
  -21.3662   -5.6793   24.9164 C   0  0  0  0  0  0
  -21.6057   -4.3058   24.7209 C   0  0  0  0  0  0
  -21.8813   -3.8158   23.4326 C   0  0  0  0  0  0
  -21.9194   -4.6984   22.3387 C   0  0  0  0  0  0
  -22.7647  -13.5099   21.1941 C   0  0  0  0  0  0
  -22.1659   -4.2160   21.0970 F   0  0  0  0  0  0
  -21.5633   -3.4544   25.7727 F   0  0  0  0  0  0
  -29.5290  -15.0395   20.1787 N   0  0  0  0  0  0
  -26.2809  -13.0062   20.3481 N   0  0  0  0  0  0
  -25.9540  -11.6989   20.5675 N   0  0  0  0  0  0
  -22.0338  -12.8050   22.0492 N   0  0  0  0  0  0
  -25.3551  -15.2216   20.4359 N   0  0  0  0  0  0
  -31.1889  -16.3597   20.1454 O   0  0  0  0  0  0
  -21.6674   -6.8917   21.4240 O   0  0  0  0  0  0
  -22.3273  -14.5367   20.6757 O   0  0  0  0  0  0
  -24.7471  -31.7224   23.0906 C   0  0  0  0  0  0
  -25.9736  -32.4082   23.7695 C   0  0  1  0  0  0
  -27.2654  -26.0500   20.2878 C   0  0  0  0  0  0
  -25.6040  -33.7921   24.1529 N   0  0  0  0  0  0
  -23.6006  -30.2952   21.4619 C   0  0  2  0  0  0
  -25.0627  -28.4856   20.1517 C   0  0  0  0  0  0
  -22.8057  -29.3937   22.4491 C   0  0  0  0  0  0
  -18.0399  -28.1494   22.8439 C   0  0  0  0  0  0
  -24.1480  -36.6971   23.2672 C   0  0  0  0  0  0
  -26.2028  -30.2391   21.4581 C   0  0  0  0  0  0
  -26.2617  -28.7264   20.8295 C   0  0  0  0  0  0
  -27.3174  -27.5643   20.8395 C   0  0  0  0  0  0
  -26.0257  -26.1840   19.5477 C   0  0  0  0  0  0
  -25.0207  -27.2427   19.4847 C   0  0  0  0  0  0
  -23.8923  -29.5225   20.1327 C   0  0  0  0  0  0
  -25.4145  -36.2627   24.0238 C   0  0  1  0  0  0
  -20.6075  -28.3878   23.0996 C   0  0  2  0  0  0
  -20.6869  -26.9504   22.5366 C   0  0  0  0  0  0
  -19.5816  -26.6351   21.5254 C   0  0  0  0  0  0
  -18.2015  -26.7979   22.1689 C   0  0  0  0  0  0
  -19.1691  -28.9025   23.2671 C   0  0  0  0  0  0
  -18.9595  -30.1612   23.8710 C   0  0  0  0  0  0
  -17.6584  -30.6671   24.0522 C   0  0  0  0  0  0
  -25.9169  -34.9062   23.4753 C   0  0  0  0  0  0
  -16.5458  -29.9140   23.6392 C   0  0  0  0  0  0
  -16.7380  -28.6567   23.0395 C   0  0  0  0  0  0
  -26.4696  -31.6406   25.0586 C   0  0  0  0  0  0
  -25.3568  -31.3945   26.1072 C   0  0  0  0  0  0
  -27.0725  -30.2683   24.6953 C   0  0  0  0  0  0
  -27.6024  -32.4398   25.7444 C   0  0  0  0  0  0
  -27.5504  -37.1645   24.8469 C   0  0  0  0  0  0
  -21.4639  -29.2987   22.3242 N   0  0  0  0  0  0
  -26.4189  -37.3481   23.9421 N   0  0  0  0  0  0
  -24.8818  -30.8023   22.0532 N   0  0  0  0  0  0
  -23.4205  -28.7605   23.3091 O   0  0  0  0  0  0
  -28.1891  -24.5616   20.2510 O   0  0  0  0  0  0
  -26.5869  -34.8802   22.4411 O   0  0  0  0  0  0
  -23.6366  -32.0593   23.5467 O   0  0  0  0  0  0
  -20.5361  -24.1477   26.6935 C   0  0  0  0  0  0
  -21.7386  -23.9542   27.6107 C   0  0  0  0  0  0
  -21.0015  -24.1395   25.2383 C   0  0  0  0  0  0
  -22.5026  -22.6684   27.2628 C   0  0  0  0  0  0
  -21.6856  -22.8063   24.8604 C   0  0  2  0  0  0
  -22.9470  -22.5482   25.7693 C   0  0  2  0  0  0
  -21.9160  -22.8165   23.3370 C   0  0  0  0  0  0
  -24.6050  -20.8071   26.7430 C   0  0  0  0  0  0
  -22.8341  -20.0339   25.2039 C   0  0  0  0  0  0
  -29.2034  -22.7155   21.7280 C   0  0  0  0  0  0
  -24.7969  -21.4864   24.3173 C   0  0  0  0  0  0
  -29.1299  -20.2973   20.0855 C   0  0  0  0  0  0
  -26.9163  -20.8131   22.9959 C   0  0  0  0  0  0
  -26.8280  -22.2671   20.9102 C   0  0  0  0  0  0
  -25.7267  -20.3332   23.8531 C   0  0  2  0  0  0
  -23.7817  -21.2228   25.4889 C   0  0  0  0  0  0
  -28.3092  -22.4711   20.5017 C   0  0  2  0  0  0
  -29.2077  -18.1974   20.2999 N   0  0  0  0  0  0
  -26.5186  -20.9740   21.5780 N   0  3  0  0  0  0
  -24.9829  -19.3891   23.0993 O   0  0  0  0  0  0
  -31.2236  -14.1769   19.0652 H   0  0  0  0  0  0
  -30.7124  -13.1339   20.3179 H   0  0  0  0  0  0
  -30.2141  -12.1512   18.0546 H   0  0  0  0  0  0
  -29.3875  -13.6088   17.5713 H   0  0  0  0  0  0
  -28.4318  -11.4778   19.4830 H   0  0  0  0  0  0
  -27.5971  -12.1062   18.0765 H   0  0  0  0  0  0
  -27.3281  -14.2225   19.1181 H   0  0  0  0  0  0
  -28.9666  -13.4074   21.5602 H   0  0  0  0  0  0
  -27.9182  -14.7753   21.5185 H   0  0  0  0  0  0
  -25.2852   -9.5704   22.4744 H   0  0  0  0  0  0
  -24.0048   -7.4680   22.7473 H   0  0  0  0  0  0
  -21.0931   -8.8822   19.8943 H   0  0  0  0  0  0
  -22.3809  -10.9693   19.6130 H   0  0  0  0  0  0
  -21.2021   -7.6155   23.9706 H   0  0  0  0  0  0
  -21.1495   -6.0529   25.9067 H   0  0  0  0  0  0
  -22.0591   -2.7618   23.2816 H   0  0  0  0  0  0
  -22.4011  -11.9741   22.4895 H   0  0  0  0  0  0
  -21.0923  -13.0989   22.2680 H   0  0  0  0  0  0
  -24.5770  -15.8629   20.5439 H   0  0  0  0  0  0
  -26.1989  -15.6695   20.1045 H   0  0  0  0  0  0
  -26.7874  -32.4439   23.0445 H   0  0  0  0  0  0
  -25.0088  -33.8793   24.9628 H   0  0  0  0  0  0
  -22.9675  -31.1478   21.2096 H   0  0  0  0  0  0
  -23.3746  -35.9288   23.3231 H   0  0  0  0  0  0
  -24.3555  -36.8769   22.2108 H   0  0  0  0  0  0
  -23.7269  -37.6109   23.6870 H   0  0  0  0  0  0
  -26.4681  -30.9076   20.6393 H   0  0  0  0  0  0
  -27.0316  -30.3359   22.1437 H   0  0  0  0  0  0
  -28.2169  -27.7957   21.3892 H   0  0  0  0  0  0
  -25.7619  -25.3016   18.9833 H   0  0  0  0  0  0
  -24.1396  -27.0318   18.8932 H   0  0  0  0  0  0
  -24.1296  -30.2477   19.3532 H   0  0  0  0  0  0
  -22.9845  -29.0245   19.7874 H   0  0  0  0  0  0
  -25.1400  -36.1241   25.0722 H   0  0  0  0  0  0
  -21.0151  -28.3553   24.1120 H   0  0  0  0  0  0
  -20.5706  -26.2587   23.3688 H   0  0  0  0  0  0
  -21.6723  -26.7350   22.1202 H   0  0  0  0  0  0
  -19.6959  -25.6193   21.1450 H   0  0  0  0  0  0
  -19.6765  -27.3049   20.6701 H   0  0  0  0  0  0
  -17.4269  -26.6621   21.4136 H   0  0  0  0  0  0
  -18.0455  -26.0225   22.9210 H   0  0  0  0  0  0
  -19.8081  -30.7493   24.1941 H   0  0  0  0  0  0
  -17.5151  -31.6350   24.5138 H   0  0  0  0  0  0
  -15.5462  -30.3022   23.7801 H   0  0  0  0  0  0
  -15.8768  -28.0856   22.7189 H   0  0  0  0  0  0
  -24.5780  -30.7268   25.7375 H   0  0  0  0  0  0
  -24.8745  -32.3245   26.4063 H   0  0  0  0  0  0
  -25.7579  -30.9382   27.0130 H   0  0  0  0  0  0
  -26.3534  -29.6103   24.2074 H   0  0  0  0  0  0
  -27.4039  -29.7391   25.5906 H   0  0  0  0  0  0
  -27.9563  -30.3700   24.0660 H   0  0  0  0  0  0
  -27.2479  -33.3850   26.1571 H   0  0  0  0  0  0
  -28.4076  -32.6717   25.0449 H   0  0  0  0  0  0
  -28.0414  -31.8809   26.5723 H   0  0  0  0  0  0
  -28.2470  -37.9983   24.7476 H   0  0  0  0  0  0
  -28.1038  -36.2499   24.6308 H   0  0  0  0  0  0
  -27.2227  -37.1290   25.8874 H   0  0  0  0  0  0
  -21.0058  -29.8531   21.6140 H   0  0  0  0  0  0
  -25.9930  -38.2476   24.1462 H   0  0  0  0  0  0
  -20.0321  -25.0861   26.9279 H   0  0  0  0  0  0
  -19.8071  -23.3520   26.8532 H   0  0  0  0  0  0
  -21.4053  -23.9156   28.6494 H   0  0  0  0  0  0
  -22.4054  -24.8141   27.5335 H   0  0  0  0  0  0
  -21.6886  -24.9706   25.0709 H   0  0  0  0  0  0
  -20.1355  -24.3173   24.6000 H   0  0  0  0  0  0
  -21.8897  -21.8079   27.5335 H   0  0  0  0  0  0
  -23.3651  -22.6585   27.9280 H   0  0  0  0  0  0
  -20.9613  -22.0165   25.0586 H   0  0  0  0  0  0
  -23.6255  -23.3854   25.5991 H   0  0  0  0  0  0
  -22.6782  -23.5396   23.0449 H   0  0  0  0  0  0
  -20.9967  -23.0801   22.8104 H   0  0  0  0  0  0
  -22.1941  -21.8388   22.9501 H   0  0  0  0  0  0
  -23.9614  -20.5464   27.5836 H   0  0  0  0  0  0
  -25.2803  -21.6009   27.0671 H   0  0  0  0  0  0
  -25.2046  -19.9119   26.5904 H   0  0  0  0  0  0
  -22.0087  -20.0140   25.9163 H   0  0  0  0  0  0
  -23.3450  -19.0754   25.3018 H   0  0  0  0  0  0
  -22.3980  -20.0668   24.2071 H   0  0  0  0  0  0
  -29.4217  -21.7942   22.2657 H   0  0  0  0  0  0
  -28.7682  -23.4259   22.4291 H   0  0  0  0  0  0
  -30.1632  -23.1221   21.4103 H   0  0  0  0  0  0
  -24.2945  -21.8719   23.4363 H   0  0  0  0  0  0
  -25.4361  -22.3119   24.6327 H   0  0  0  0  0  0
  -30.1996  -20.4993   20.1556 H   0  0  0  0  0  0
  -28.9496  -20.2913   19.0097 H   0  0  0  0  0  0
  -27.7065  -20.0624   23.0309 H   0  0  0  0  0  0
  -27.3437  -21.7196   23.4243 H   0  0  0  0  0  0
  -26.2189  -22.3263   20.0089 H   0  0  0  0  0  0
  -26.4945  -23.0854   21.5493 H   0  0  0  0  0  0
  -26.1646  -19.8333   24.7146 H   0  0  0  0  0  0
  -28.2361  -17.9401   20.4159 H   0  0  0  0  0  0
  -25.5201  -20.8239   21.6029 H   0  0  0  0  0  0
  -26.8865  -20.2011   21.0505 H   0  0  0  0  0  0
  -24.2859  -19.0661   23.6627 H   0  0  0  0  0  0
  1 25  1  0  0  0
  1 30  2  0  0  0
  1 88  1  0  0  0
  2  3  1  0  0  0
  2 25  1  0  0  0
  2 91  1  0  0  0
  2 92  1  0  0  0
  3  4  1  0  0  0
  3 93  1  0  0  0
  3 94  1  0  0  0
  4  5  1  0  0  0
  4 95  1  0  0  0
  4 96  1  0  0  0
  5  6  1  0  0  0
  5 26  1  0  0  0
  5 97  1  0  0  0
  6 25  1  0  0  0
  6 98  1  0  0  0
  6 99  1  0  0  0
  7  8  2  0  0  0
  7 26  1  0  0  0
  7 29  1  0  0  0
  8  9  1  0  0  0
  8 22  1  0  0  0
  9 10  1  0  0  0
  9 27  2  0  0  0
 10 11  2  0  0  0
 10 15  1  0  0  0
 11 12  1  0  0  0
 11100  1  0  0  0
 12 13  2  0  0  0
 12101  1  0  0  0
 13 14  1  0  0  0
 13 31  1  0  0  0
 14 15  2  0  0  0
 14102  1  0  0  0
 15103  1  0  0  0
 16 17  2  0  0  0
 16 21  1  0  0  0
 16 31  1  0  0  0
 17 18  1  0  0  0
 17104  1  0  0  0
 18 19  2  0  0  0
 18105  1  0  0  0
 19 20  1  0  0  0
 19 24  1  0  0  0
 20 21  2  0  0  0
 20106  1  0  0  0
 21 23  1  0  0  0
 22 28  1  0  0  0
 22 32  2  0  0  0
 26 27  1  0  0  0
 28107  1  0  0  0
 28108  1  0  0  0
 29109  1  0  0  0
 29110  1  0  0  0
 33 34  1  0  0  0
 33 66  1  0  0  0
 33 70  2  0  0  0
 34 36  1  0  0  0
 34 59  1  0  0  0
 34111  1  0  0  0
 35 44  2  0  0  0
 35 45  1  0  0  0
 35 68  1  0  0  0
 36 56  1  0  0  0
 36112  1  0  0  0
 37 39  1  0  0  0
 37 47  1  0  0  0
 37 66  1  0  0  0
 37113  1  0  0  0
 38 43  2  0  0  0
 38 46  1  0  0  0
 38 47  1  0  0  0
 39 64  1  0  0  0
 39 67  2  0  0  0
 40 52  1  0  0  0
 40 53  2  0  0  0
 40 58  1  0  0  0
 41114  1  0  0  0
 41115  1  0  0  0
 41116  1  0  0  0
 41 48  1  0  0  0
 42 43  1  0  0  0
 42 66  1  0  0  0
 42117  1  0  0  0
 42118  1  0  0  0
 43 44  1  0  0  0
 44119  1  0  0  0
 45 46  2  0  0  0
 45120  1  0  0  0
 46121  1  0  0  0
 47122  1  0  0  0
 47123  1  0  0  0
 48 56  1  0  0  0
 48 65  1  0  0  0
 48124  1  0  0  0
 49 50  1  0  0  0
 49 53  1  0  0  0
 49 64  1  0  0  0
 49125  1  0  0  0
 50 51  1  0  0  0
 50126  1  0  0  0
 50127  1  0  0  0
 51 52  1  0  0  0
 51128  1  0  0  0
 51129  1  0  0  0
 52130  1  0  0  0
 52131  1  0  0  0
 53 54  1  0  0  0
 54 55  2  0  0  0
 54132  1  0  0  0
 55 57  1  0  0  0
 55133  1  0  0  0
 56 69  2  0  0  0
 57 58  2  0  0  0
 57134  1  0  0  0
 58135  1  0  0  0
 59 60  1  0  0  0
 59 61  1  0  0  0
 59 62  1  0  0  0
 60136  1  0  0  0
 60137  1  0  0  0
 60138  1  0  0  0
 61139  1  0  0  0
 61140  1  0  0  0
 61141  1  0  0  0
 62142  1  0  0  0
 62143  1  0  0  0
 62144  1  0  0  0
 63 65  1  0  0  0
 63145  1  0  0  0
 63146  1  0  0  0
 63147  1  0  0  0
 64148  1  0  0  0
 65149  1  0  0  0
 68 87  1  0  0  0
 71 72  1  0  0  0
 71 73  1  0  0  0
 71150  1  0  0  0
 71151  1  0  0  0
 72 74  1  0  0  0
 72152  1  0  0  0
 72153  1  0  0  0
 73 75  1  0  0  0
 73154  1  0  0  0
 73155  1  0  0  0
 74156  1  0  0  0
 74157  1  0  0  0
 74 76  1  0  0  0
 75 76  1  0  0  0
 75 77  1  0  0  0
 75158  1  0  0  0
 76 86  1  0  0  0
 76159  1  0  0  0
 77160  1  0  0  0
 77161  1  0  0  0
 77162  1  0  0  0
 78163  1  0  0  0
 78164  1  0  0  0
 78165  1  0  0  0
 78 86  1  0  0  0
 79 86  1  0  0  0
 79166  1  0  0  0
 79167  1  0  0  0
 79168  1  0  0  0
 80169  1  0  0  0
 80170  1  0  0  0
 80171  1  0  0  0
 80 87  1  0  0  0
 81 85  1  0  0  0
 81 86  1  0  0  0
 81172  1  0  0  0
 81173  1  0  0  0
 82 87  1  0  0  0
 82 88  1  0  0  0
 82174  1  0  0  0
 82175  1  0  0  0
 83 85  1  0  0  0
 83 89  1  0  0  0
 83176  1  0  0  0
 83177  1  0  0  0
 84 87  1  0  0  0
 84 89  1  0  0  0
 84178  1  0  0  0
 84179  1  0  0  0
 85 90  1  0  0  0
 85180  1  0  0  0
 88181  1  0  0  0
 89182  1  0  0  0
 89183  1  0  0  0
 90184  1  0  0  0
M  CHG  1  89   1
M  ISO  4   1 100  68 101  87 101  88 100
M  END
> <chiral flag>
0

> <version>
0

> <s_m_source_file>
/data/baiqing/PycharmProjects/Reinvent-master-3.2/result/LINK_invent/BTK/process_docking_weight1_custom_sum_contain_oxygen_bond_distance_aromatic_linkinvent_7_9_3/rearranged_h_0103.sdf

> <i_m_source_file_index>
63

> <r_mmod_Potential_Energy-OPLS-2005>
6878.2021484375

> <r_mmod_Stretch_Energy-OPLS-2005>
3180.91845703125

> <r_mmod_Bend_Energy-OPLS-2005>
1201.67639160156

> <r_mmod_Torsional_Energy-OPLS-2005>
351.798004150391

> <r_mmod_Improper_Torsional_Energy-OPLS-2005>
4.8342490196228

> <r_mmod_Van_der_Waal_Energy-OPLS-2005>
134.561920166016

> <r_mmod_Electrostatic_Energy-OPLS-2005>
-368.684967041016

> <r_mmod_Solvation_Energy-OPLS-2005>
-466.632934570312

> <b_mmod_Minimization_Converged-OPLS-2005>
0

> <r_mmod_RMS_Derivative-OPLS-2005>
3.60630631446838

$$$$
63
                    3D
 Structure written by MMmdl.
161168  0  0  1  0            999 V2000
  -30.4251  -15.2622   20.4157 C   0  0  0  0  0  0
  -30.4519  -12.8301   19.4871 C   0  0  0  0  0  0
  -29.5314  -12.5631   18.2657 C   0  0  0  0  0  0
  -28.0770  -12.2824   18.6913 C   0  0  0  0  0  0
  -27.6108  -13.2405   19.8104 C   0  0  2  0  0  0
  -28.6605  -13.3664   20.9374 C   0  0  0  0  0  0
  -25.2265  -13.8059   20.5553 C   0  0  0  0  0  0
  -24.1667  -13.0313   20.9247 C   0  0  0  0  0  0
  -24.6346  -11.6823   20.8798 C   0  0  0  0  0  0
  -23.9056  -10.4220   21.0461 C   0  0  0  0  0  0
  -24.3617   -9.4138   21.9224 C   0  0  0  0  0  0
  -23.6298   -8.2173   22.0748 C   0  0  0  0  0  0
  -22.4277   -8.0240   21.3539 C   0  0  0  0  0  0
  -21.9922   -9.0205   20.4636 C   0  0  0  0  0  0
  -22.7247  -10.2081   20.3082 C   0  0  0  0  0  0
  -21.6823   -6.0715   22.5290 C   0  0  0  0  0  0
  -21.3992   -6.5614   23.8225 C   0  0  0  0  0  0
  -21.3663   -5.6775   24.9191 C   0  0  0  0  0  0
  -21.6061   -4.3034   24.7234 C   0  0  0  0  0  0
  -21.8815   -3.8117   23.4350 C   0  0  0  0  0  0
  -21.9173   -4.6941   22.3408 C   0  0  0  0  0  0
  -22.7687  -13.5096   21.1941 C   0  0  0  0  0  0
  -22.1656   -4.2134   21.0982 F   0  0  0  0  0  0
  -21.5658   -3.4514   25.7742 F   0  0  0  0  0  0
  -29.8682  -13.9493   20.3176 N   0  0  0  0  0  0
  -26.2773  -12.9355   20.3129 N   0  0  0  0  0  0
  -25.9280  -11.6493   20.5719 N   0  0  0  0  0  0
  -22.0322  -12.8147   22.0544 N   0  0  0  0  0  0
  -25.3527  -15.1761   20.3657 N   0  0  0  0  0  0
  -31.6502  -15.2634   20.2069 O   0  0  0  0  0  0
  -21.6627   -6.8852   21.4246 O   0  0  0  0  0  0
  -22.3382  -14.5417   20.6779 O   0  0  0  0  0  0
  -24.6542  -31.8322   23.1821 C   0  0  0  0  0  0
  -25.9274  -32.4612   23.8246 C   0  0  1  0  0  0
  -27.2040  -27.0034   20.1635 C   0  0  0  0  0  0
  -25.5972  -33.8432   24.2131 N   0  0  0  0  0  0
  -23.4649  -30.4537   21.5262 C   0  0  2  0  0  0
  -24.9139  -28.8605   20.1108 C   0  0  0  0  0  0
  -22.7622  -29.4499   22.4773 C   0  0  0  0  0  0
  -18.0323  -28.1402   22.8454 C   0  0  0  0  0  0
  -24.1499  -36.7201   23.2648 C   0  0  0  0  0  0
  -26.0333  -30.6614   21.4086 C   0  0  0  0  0  0
  -26.0988  -29.2644   20.7407 C   0  0  0  0  0  0
  -27.2422  -28.3579   20.7421 C   0  0  0  0  0  0
  -25.9923  -26.7379   19.4884 C   0  0  0  0  0  0
  -24.8826  -27.6157   19.4665 C   0  0  0  0  0  0
  -23.7023  -29.7847   20.1470 C   0  0  0  0  0  0
  -25.4143  -36.2985   24.0303 C   0  0  1  0  0  0
  -20.5938  -28.3747   23.1173 C   0  0  2  0  0  0
  -20.6793  -26.9430   22.5395 C   0  0  0  0  0  0
  -19.5778  -26.6367   21.5197 C   0  0  0  0  0  0
  -18.1958  -26.7927   22.1599 C   0  0  0  0  0  0
  -19.1577  -28.8887   23.2800 C   0  0  0  0  0  0
  -18.9492  -30.1476   23.8850 C   0  0  0  0  0  0
  -17.6483  -30.6581   24.0551 C   0  0  0  0  0  0
  -25.9100  -34.9357   23.5034 C   0  0  0  0  0  0
  -16.5377  -29.9078   23.6341 C   0  0  0  0  0  0
  -16.7299  -28.6495   23.0359 C   0  0  0  0  0  0
  -26.4543  -31.6539   25.0756 C   0  0  0  0  0  0
  -25.3661  -31.3785   26.1398 C   0  0  0  0  0  0
  -27.0441  -30.2891   24.6528 C   0  0  0  0  0  0
  -27.6053  -32.4333   25.7544 C   0  0  0  0  0  0
  -27.5583  -37.1766   24.8456 C   0  0  0  0  0  0
  -21.4291  -29.3056   22.3524 N   0  0  0  0  0  0
  -26.4290  -37.3715   23.9397 N   0  0  0  0  0  0
  -24.7379  -31.0084   22.0907 N   0  0  0  0  0  0
  -23.4204  -28.8046   23.2967 O   0  0  0  0  0  0
  -28.2248  -25.9383   20.1933 O   0  0  0  0  0  0
  -26.5711  -34.8875   22.4636 O   0  0  0  0  0  0
  -23.5631  -32.1264   23.6960 O   0  0  0  0  0  0
  -31.0191  -20.4553   20.0679 C   0  0  0  0  0  0
  -28.3010  -16.5072   21.0202 C   0  0  0  0  0  0
  -30.3629  -18.7218   17.7210 C   0  0  0  0  0  0
  -27.9856  -18.9030   18.2415 C   0  0  0  0  0  0
  -28.9229  -22.8964   20.0258 C   0  0  0  0  0  0
  -28.7187  -21.1676   20.4280 C   0  0  0  0  0  0
  -30.0469  -18.1480   20.7160 C   0  0  0  0  0  0
  -27.9399  -24.3435   20.2973 C   0  0  0  0  0  0
  -29.6558  -19.7272   19.9333 C   0  0  2  0  0  0
  -29.6688  -16.5522   20.5185 N   0  0  0  0  0  0
  -29.3346  -19.4728   18.4863 N   0  3  0  0  0  0
  -31.4431  -13.0936   19.1176 H   0  0  0  0  0  0
  -30.5997  -11.9242   20.0754 H   0  0  0  0  0  0
  -29.9145  -11.7239   17.6831 H   0  0  0  0  0  0
  -29.5618  -13.4317   17.6049 H   0  0  0  0  0  0
  -28.0240  -11.2540   19.0464 H   0  0  0  0  0  0
  -27.4101  -12.3423   17.8288 H   0  0  0  0  0  0
  -27.5284  -14.1936   19.2942 H   0  0  0  0  0  0
  -28.8709  -12.3895   21.3747 H   0  0  0  0  0  0
  -28.2877  -13.9714   21.7593 H   0  0  0  0  0  0
  -25.2736   -9.5612   22.4836 H   0  0  0  0  0  0
  -23.9975   -7.4544   22.7461 H   0  0  0  0  0  0
  -21.0847   -8.8725   19.8944 H   0  0  0  0  0  0
  -22.3692  -10.9639   19.6213 H   0  0  0  0  0  0
  -21.1973   -7.6119   23.9730 H   0  0  0  0  0  0
  -21.1512   -6.0505   25.9108 H   0  0  0  0  0  0
  -22.0594   -2.7582   23.2853 H   0  0  0  0  0  0
  -22.3877  -11.9855   22.5061 H   0  0  0  0  0  0
  -21.0933  -13.1195   22.2682 H   0  0  0  0  0  0
  -24.5325  -15.7717   20.4086 H   0  0  0  0  0  0
  -26.1312  -15.6081   19.8895 H   0  0  0  0  0  0
  -26.7344  -32.5160   23.0963 H   0  0  0  0  0  0
  -25.0042  -33.9524   25.0226 H   0  0  0  0  0  0
  -22.7738  -31.2847   21.3660 H   0  0  0  0  0  0
  -23.3792  -35.9497   23.3263 H   0  0  0  0  0  0
  -24.3593  -36.8898   22.2076 H   0  0  0  0  0  0
  -23.7214  -37.6357   23.6737 H   0  0  0  0  0  0
  -26.2306  -31.4200   20.6502 H   0  0  0  0  0  0
  -26.8834  -30.6911   22.0788 H   0  0  0  0  0  0
  -28.1421  -28.6694   21.2546 H   0  0  0  0  0  0
  -25.8693  -25.7998   18.9715 H   0  0  0  0  0  0
  -23.9835  -27.3108   18.9468 H   0  0  0  0  0  0
  -23.8589  -30.5623   19.3966 H   0  0  0  0  0  0
  -22.8111  -29.2445   19.8234 H   0  0  0  0  0  0
  -25.1351  -36.1800   25.0795 H   0  0  0  0  0  0
  -21.0030  -28.3370   24.1288 H   0  0  0  0  0  0
  -20.5652  -26.2379   23.3646 H   0  0  0  0  0  0
  -21.6667  -26.7397   22.1226 H   0  0  0  0  0  0
  -19.6944  -25.6262   21.1278 H   0  0  0  0  0  0
  -19.6721  -27.3134   20.6698 H   0  0  0  0  0  0
  -17.4228  -26.6659   21.4010 H   0  0  0  0  0  0
  -18.0353  -26.0079   22.9005 H   0  0  0  0  0  0
  -19.7973  -30.7301   24.2196 H   0  0  0  0  0  0
  -17.5046  -31.6264   24.5159 H   0  0  0  0  0  0
  -15.5378  -30.2970   23.7691 H   0  0  0  0  0  0
  -15.8696  -28.0804   22.7105 H   0  0  0  0  0  0
  -24.5873  -30.7102   25.7704 H   0  0  0  0  0  0
  -24.8800  -32.2970   26.4694 H   0  0  0  0  0  0
  -25.7866  -30.9041   27.0268 H   0  0  0  0  0  0
  -26.3118  -29.6538   24.1525 H   0  0  0  0  0  0
  -27.3916  -29.7306   25.5234 H   0  0  0  0  0  0
  -27.9093  -30.4044   23.9992 H   0  0  0  0  0  0
  -27.2648  -33.3676   26.2019 H   0  0  0  0  0  0
  -28.3915  -32.6809   25.0399 H   0  0  0  0  0  0
  -28.0659  -31.8518   26.5541 H   0  0  0  0  0  0
  -28.2565  -38.0097   24.7542 H   0  0  0  0  0  0
  -28.1115  -36.2626   24.6242 H   0  0  0  0  0  0
  -27.2296  -37.1354   25.8854 H   0  0  0  0  0  0
  -20.9522  -29.8763   21.6685 H   0  0  0  0  0  0
  -26.0144  -38.2773   24.1406 H   0  0  0  0  0  0
  -31.1784  -20.7330   21.1123 H   0  0  0  0  0  0
  -31.0639  -21.3798   19.4922 H   0  0  0  0  0  0
  -31.8883  -19.8708   19.7705 H   0  0  0  0  0  0
  -27.8142  -17.4822   21.0970 H   0  0  0  0  0  0
  -28.2687  -16.0754   22.0196 H   0  0  0  0  0  0
  -27.6991  -15.9421   20.3325 H   0  0  0  0  0  0
  -31.3310  -19.2158   17.7467 H   0  0  0  0  0  0
  -30.0853  -18.6575   16.6676 H   0  0  0  0  0  0
  -30.4802  -17.6997   18.0832 H   0  0  0  0  0  0
  -27.7765  -18.8889   17.1696 H   0  0  0  0  0  0
  -27.1895  -19.4874   18.6979 H   0  0  0  0  0  0
  -27.9058  -17.8775   18.6008 H   0  0  0  0  0  0
  -29.0891  -22.9134   18.9473 H   0  0  0  0  0  0
  -29.8940  -23.1640   20.4409 H   0  0  0  0  0  0
  -27.6756  -20.9600   20.1986 H   0  0  0  0  0  0
  -28.7210  -21.1493   21.5181 H   0  0  0  0  0  0
  -29.9777  -18.3317   21.7915 H   0  0  0  0  0  0
  -31.1203  -18.0381   20.5692 H   0  0  0  0  0  0
  -27.5623  -24.2395   21.3143 H   0  0  0  0  0  0
  -27.0571  -24.1707   19.6845 H   0  0  0  0  0  0
  -29.3049  -20.3818   18.0479 H   0  0  0  0  0  0
  1 25  1  0  0  0
  1 30  2  0  0  0
  1 80  1  0  0  0
  2  3  1  0  0  0
  2 25  1  0  0  0
  2 82  1  0  0  0
  2 83  1  0  0  0
  3  4  1  0  0  0
  3 84  1  0  0  0
  3 85  1  0  0  0
  4  5  1  0  0  0
  4 86  1  0  0  0
  4 87  1  0  0  0
  5  6  1  0  0  0
  5 26  1  0  0  0
  5 88  1  0  0  0
  6 25  1  0  0  0
  6 89  1  0  0  0
  6 90  1  0  0  0
  7  8  2  0  0  0
  7 26  1  0  0  0
  7 29  1  0  0  0
  8  9  1  0  0  0
  8 22  1  0  0  0
  9 10  1  0  0  0
  9 27  2  0  0  0
 10 11  2  0  0  0
 10 15  1  0  0  0
 11 12  1  0  0  0
 11 91  1  0  0  0
 12 13  2  0  0  0
 12 92  1  0  0  0
 13 14  1  0  0  0
 13 31  1  0  0  0
 14 15  2  0  0  0
 14 93  1  0  0  0
 15 94  1  0  0  0
 16 17  2  0  0  0
 16 21  1  0  0  0
 16 31  1  0  0  0
 17 18  1  0  0  0
 17 95  1  0  0  0
 18 19  2  0  0  0
 18 96  1  0  0  0
 19 20  1  0  0  0
 19 24  1  0  0  0
 20 21  2  0  0  0
 20 97  1  0  0  0
 21 23  1  0  0  0
 22 28  1  0  0  0
 22 32  2  0  0  0
 26 27  1  0  0  0
 28 98  1  0  0  0
 28 99  1  0  0  0
 29100  1  0  0  0
 29101  1  0  0  0
 33 34  1  0  0  0
 33 66  1  0  0  0
 33 70  2  0  0  0
 34 36  1  0  0  0
 34 59  1  0  0  0
 34102  1  0  0  0
 35 44  2  0  0  0
 35 45  1  0  0  0
 35 68  1  0  0  0
 36 56  1  0  0  0
 36103  1  0  0  0
 37 39  1  0  0  0
 37 47  1  0  0  0
 37 66  1  0  0  0
 37104  1  0  0  0
 38 43  2  0  0  0
 38 46  1  0  0  0
 38 47  1  0  0  0
 39 64  1  0  0  0
 39 67  2  0  0  0
 40 52  1  0  0  0
 40 53  2  0  0  0
 40 58  1  0  0  0
 41105  1  0  0  0
 41106  1  0  0  0
 41107  1  0  0  0
 41 48  1  0  0  0
 42 43  1  0  0  0
 42 66  1  0  0  0
 42108  1  0  0  0
 42109  1  0  0  0
 43 44  1  0  0  0
 44110  1  0  0  0
 45 46  2  0  0  0
 45111  1  0  0  0
 46112  1  0  0  0
 47113  1  0  0  0
 47114  1  0  0  0
 48 56  1  0  0  0
 48 65  1  0  0  0
 48115  1  0  0  0
 49 50  1  0  0  0
 49 53  1  0  0  0
 49 64  1  0  0  0
 49116  1  0  0  0
 50 51  1  0  0  0
 50117  1  0  0  0
 50118  1  0  0  0
 51 52  1  0  0  0
 51119  1  0  0  0
 51120  1  0  0  0
 52121  1  0  0  0
 52122  1  0  0  0
 53 54  1  0  0  0
 54 55  2  0  0  0
 54123  1  0  0  0
 55 57  1  0  0  0
 55124  1  0  0  0
 56 69  2  0  0  0
 57 58  2  0  0  0
 57125  1  0  0  0
 58126  1  0  0  0
 59 60  1  0  0  0
 59 61  1  0  0  0
 59 62  1  0  0  0
 60127  1  0  0  0
 60128  1  0  0  0
 60129  1  0  0  0
 61130  1  0  0  0
 61131  1  0  0  0
 61132  1  0  0  0
 62133  1  0  0  0
 62134  1  0  0  0
 62135  1  0  0  0
 63 65  1  0  0  0
 63136  1  0  0  0
 63137  1  0  0  0
 63138  1  0  0  0
 64139  1  0  0  0
 65140  1  0  0  0
 68 78  1  0  0  0
 71141  1  0  0  0
 71142  1  0  0  0
 71143  1  0  0  0
 71 79  1  0  0  0
 72 80  1  0  0  0
 72144  1  0  0  0
 72145  1  0  0  0
 72146  1  0  0  0
 73147  1  0  0  0
 73148  1  0  0  0
 73149  1  0  0  0
 73 81  1  0  0  0
 74 81  1  0  0  0
 74150  1  0  0  0
 74151  1  0  0  0
 74152  1  0  0  0
 75 76  1  0  0  0
 75 78  1  0  0  0
 75153  1  0  0  0
 75154  1  0  0  0
 76 79  1  0  0  0
 76155  1  0  0  0
 76156  1  0  0  0
 77 79  1  0  0  0
 77 80  1  0  0  0
 77157  1  0  0  0
 77158  1  0  0  0
 78159  1  0  0  0
 78160  1  0  0  0
 79 81  1  0  0  0
 81161  1  0  0  0
M  CHG  1  81   1
M  ISO  4   1 100  68 101  78 101  80 100
M  END
> <chiral flag>
0

> <version>
0

> <s_m_source_file>
/data/baiqing/PycharmProjects/Reinvent-master-3.2/result/LINK_invent/BTK/process_docking_weight1_custom_sum_contain_oxygen_bond_distance_aromatic_linkinvent_7_9_3/rearranged_h_0103.sdf

> <i_m_source_file_index>
64

> <r_mmod_Potential_Energy-OPLS-2005>
1301.77270507812

> <r_mmod_Stretch_Energy-OPLS-2005>
577.02294921875

> <r_mmod_Bend_Energy-OPLS-2005>
489.422027587891

> <r_mmod_Torsional_Energy-OPLS-2005>
335.216217041016

> <r_mmod_Improper_Torsional_Energy-OPLS-2005>
7.25415706634521

> <r_mmod_Van_der_Waal_Energy-OPLS-2005>
134.623306274414

> <r_mmod_Electrostatic_Energy-OPLS-2005>
-214.444366455078

> <r_mmod_Solvation_Energy-OPLS-2005>
-430.215179443359

> <b_mmod_Minimization_Converged-OPLS-2005>
0

> <r_mmod_RMS_Derivative-OPLS-2005>
4.50148677825928

$$$$
64
                    3D
 Structure written by MMmdl.
169177  0  0  1  0            999 V2000
  -30.6170  -14.7260   20.4745 C   0  0  0  0  0  0
  -30.4259  -12.4464   19.4807 C   0  0  0  0  0  0
  -29.5111  -12.5068   18.2387 C   0  0  0  0  0  0
  -28.0343  -12.3341   18.6458 C   0  0  0  0  0  0
  -27.6391  -13.2305   19.8497 C   0  0  2  0  0  0
  -28.6787  -13.1625   20.9891 C   0  0  0  0  0  0
  -25.2471  -13.8180   20.5556 C   0  0  0  0  0  0
  -24.1792  -13.0459   20.9206 C   0  0  0  0  0  0
  -24.6383  -11.6930   20.8794 C   0  0  0  0  0  0
  -23.9058  -10.4305   21.0448 C   0  0  0  0  0  0
  -24.3610   -9.4208   21.9203 C   0  0  0  0  0  0
  -23.6291   -8.2240   22.0759 C   0  0  0  0  0  0
  -22.4269   -8.0286   21.3553 C   0  0  0  0  0  0
  -21.9914   -9.0265   20.4654 C   0  0  0  0  0  0
  -22.7243  -10.2145   20.3083 C   0  0  0  0  0  0
  -21.6860   -6.0731   22.5282 C   0  0  0  0  0  0
  -21.4015   -6.5629   23.8215 C   0  0  0  0  0  0
  -21.3665   -5.6781   24.9172 C   0  0  0  0  0  0
  -21.6050   -4.3048   24.7230 C   0  0  0  0  0  0
  -21.8819   -3.8141   23.4347 C   0  0  0  0  0  0
  -21.9194   -4.6960   22.3401 C   0  0  0  0  0  0
  -22.7819  -13.5260   21.1879 C   0  0  0  0  0  0
  -22.1661   -4.2140   21.0984 F   0  0  0  0  0  0
  -21.5633   -3.4532   25.7742 F   0  0  0  0  0  0
  -29.9801  -13.5092   20.4104 N   0  0  0  0  0  0
  -26.2908  -12.9387   20.3246 N   0  0  0  0  0  0
  -25.9312  -11.6539   20.5781 N   0  0  0  0  0  0
  -22.0460  -12.8259   22.0441 N   0  0  0  0  0  0
  -25.4115  -15.1856   20.3678 N   0  0  0  0  0  0
  -31.8058  -14.8063   20.1538 O   0  0  0  0  0  0
  -21.6645   -6.8875   21.4244 O   0  0  0  0  0  0
  -22.3498  -14.5559   20.6712 O   0  0  0  0  0  0
  -24.6283  -31.8556   23.1998 C   0  0  0  0  0  0
  -25.9129  -32.4754   23.8328 C   0  0  1  0  0  0
  -27.2207  -27.2911   20.1329 C   0  0  0  0  0  0
  -25.5928  -33.8554   24.2259 N   0  0  0  0  0  0
  -23.4233  -30.4779   21.5427 C   0  0  2  0  0  0
  -24.8712  -28.9230   20.1165 C   0  0  0  0  0  0
  -22.7482  -29.4602   22.4930 C   0  0  0  0  0  0
  -18.0304  -28.1368   22.8479 C   0  0  0  0  0  0
  -24.1492  -36.7289   23.2641 C   0  0  0  0  0  0
  -25.9660  -30.7797   21.3739 C   0  0  0  0  0  0
  -26.0419  -29.4027   20.7196 C   0  0  0  0  0  0
  -27.2239  -28.5995   20.7138 C   0  0  0  0  0  0
  -26.0323  -26.8643   19.5094 C   0  0  0  0  0  0
  -24.8689  -27.6592   19.5031 C   0  0  0  0  0  0
  -23.6409  -29.8087   20.1596 C   0  0  0  0  0  0
  -25.4111  -36.3069   24.0332 C   0  0  1  0  0  0
  -20.5890  -28.3687   23.1263 C   0  0  2  0  0  0
  -20.6784  -26.9401   22.5411 C   0  0  0  0  0  0
  -19.5753  -26.6314   21.5244 C   0  0  0  0  0  0
  -18.1949  -26.7884   22.1691 C   0  0  0  0  0  0
  -19.1545  -28.8856   23.2855 C   0  0  0  0  0  0
  -18.9472  -30.1464   23.8859 C   0  0  0  0  0  0
  -17.6472  -30.6573   24.0553 C   0  0  0  0  0  0
  -25.9050  -34.9439   23.5093 C   0  0  0  0  0  0
  -16.5364  -29.9066   23.6318 C   0  0  0  0  0  0
  -16.7295  -28.6488   23.0337 C   0  0  0  0  0  0
  -26.4505  -31.6577   25.0712 C   0  0  0  0  0  0
  -25.3737  -31.3723   26.1436 C   0  0  0  0  0  0
  -27.0348  -30.2988   24.6194 C   0  0  0  0  0  0
  -27.6042  -32.4325   25.7489 C   0  0  0  0  0  0
  -27.5578  -37.1799   24.8466 C   0  0  0  0  0  0
  -21.4197  -29.3034   22.3663 N   0  0  0  0  0  0
  -26.4288  -37.3765   23.9416 N   0  0  0  0  0  0
  -24.6909  -31.0556   22.0952 N   0  0  0  0  0  0
  -23.4189  -28.8146   23.3028 O   0  0  0  0  0  0
  -28.3155  -26.4107   20.1274 O   0  0  0  0  0  0
  -26.5615  -34.8912   22.4654 O   0  0  0  0  0  0
  -23.5451  -32.1361   23.7337 O   0  0  0  0  0  0
  -29.9602  -19.9077   20.1184 C   0  0  0  0  0  0
  -28.3016  -20.3481   21.4795 C   0  0  0  0  0  0
  -29.1817  -21.0064   20.6636 C   0  0  0  0  0  0
  -29.6298  -18.6648   20.6642 C   0  0  0  0  0  0
  -25.7510  -16.1353   23.8273 C   0  0  0  0  0  0
  -24.1246  -18.0590   23.6034 C   0  0  0  0  0  0
  -29.1871  -25.2999   22.0623 C   0  0  0  0  0  0
  -29.4078  -22.5789   20.5451 C   0  0  0  0  0  0
  -30.4233  -17.2958   20.5213 C   0  0  0  0  0  0
  -28.2407  -23.6530   20.2301 C   0  0  0  0  0  0
  -26.3341  -18.1660   22.3655 C   0  0  0  0  0  0
  -27.8756  -18.0668   22.4412 C   0  0  0  0  0  0
  -25.6072  -17.6522   23.6273 C   0  0  0  0  0  0
  -28.1998  -25.1389   20.8990 C   0  0  2  0  0  0
  -28.5601  -18.9659   21.5165 N   0  0  0  0  0  0
  -29.8761  -15.8817   20.6823 N   0  0  0  0  0  0
  -31.4695  -12.5643   19.1848 H   0  0  0  0  0  0
  -30.3619  -11.4698   19.9628 H   0  0  0  0  0  0
  -29.7962  -11.7360   17.5211 H   0  0  0  0  0  0
  -29.6439  -13.4630   17.7300 H   0  0  0  0  0  0
  -27.8852  -11.2843   18.9005 H   0  0  0  0  0  0
  -27.3830  -12.5358   17.7946 H   0  0  0  0  0  0
  -27.6362  -14.2526   19.4722 H   0  0  0  0  0  0
  -28.7073  -12.1649   21.4312 H   0  0  0  0  0  0
  -28.4131  -13.8495   21.7933 H   0  0  0  0  0  0
  -25.2755   -9.5680   22.4776 H   0  0  0  0  0  0
  -24.0005   -7.4624   22.7467 H   0  0  0  0  0  0
  -21.0844   -8.8789   19.8949 H   0  0  0  0  0  0
  -22.3711  -10.9683   19.6193 H   0  0  0  0  0  0
  -21.2007   -7.6137   23.9721 H   0  0  0  0  0  0
  -21.1493   -6.0504   25.9075 H   0  0  0  0  0  0
  -22.0597   -2.7605   23.2849 H   0  0  0  0  0  0
  -22.4045  -11.9934   22.4856 H   0  0  0  0  0  0
  -21.1082  -13.1302   22.2648 H   0  0  0  0  0  0
  -24.6378  -15.8328   20.4632 H   0  0  0  0  0  0
  -26.2439  -15.6153   19.9890 H   0  0  0  0  0  0
  -26.7197  -32.5424   23.1080 H   0  0  0  0  0  0
  -25.0105  -33.9689   25.0425 H   0  0  0  0  0  0
  -22.7185  -31.2996   21.3981 H   0  0  0  0  0  0
  -23.3756  -35.9625   23.3299 H   0  0  0  0  0  0
  -24.3588  -36.8907   22.2059 H   0  0  0  0  0  0
  -23.7248  -37.6488   23.6661 H   0  0  0  0  0  0
  -26.1001  -31.5433   20.6056 H   0  0  0  0  0  0
  -26.8438  -30.8295   22.0062 H   0  0  0  0  0  0
  -28.1270  -28.9614   21.1841 H   0  0  0  0  0  0
  -26.0020  -25.8911   19.0392 H   0  0  0  0  0  0
  -23.9719  -27.2851   19.0301 H   0  0  0  0  0  0
  -23.7680  -30.5835   19.4024 H   0  0  0  0  0  0
  -22.7594  -29.2425   19.8525 H   0  0  0  0  0  0
  -25.1301  -36.1913   25.0830 H   0  0  0  0  0  0
  -20.9971  -28.3270   24.1389 H   0  0  0  0  0  0
  -20.5712  -26.2308   23.3629 H   0  0  0  0  0  0
  -21.6651  -26.7416   22.1202 H   0  0  0  0  0  0
  -19.6912  -25.6194   21.1345 H   0  0  0  0  0  0
  -19.6673  -27.3079   20.6741 H   0  0  0  0  0  0
  -17.4163  -26.6574   21.4166 H   0  0  0  0  0  0
  -18.0399  -26.0076   22.9156 H   0  0  0  0  0  0
  -19.7952  -30.7293   24.2207 H   0  0  0  0  0  0
  -17.5017  -31.6237   24.5188 H   0  0  0  0  0  0
  -15.5364  -30.2952   23.7660 H   0  0  0  0  0  0
  -15.8697  -28.0805   22.7054 H   0  0  0  0  0  0
  -24.5914  -30.7065   25.7775 H   0  0  0  0  0  0
  -24.8934  -32.2890   26.4858 H   0  0  0  0  0  0
  -25.8065  -30.8906   27.0213 H   0  0  0  0  0  0
  -26.2927  -29.6723   24.1223 H   0  0  0  0  0  0
  -27.4032  -29.7259   25.4719 H   0  0  0  0  0  0
  -27.8808  -30.4260   23.9432 H   0  0  0  0  0  0
  -27.2630  -33.3629   26.2044 H   0  0  0  0  0  0
  -28.3855  -32.6874   25.0316 H   0  0  0  0  0  0
  -28.0700  -31.8464   26.5423 H   0  0  0  0  0  0
  -28.2587  -38.0104   24.7500 H   0  0  0  0  0  0
  -28.1076  -36.2623   24.6299 H   0  0  0  0  0  0
  -27.2297  -37.1460   25.8872 H   0  0  0  0  0  0
  -20.9400  -29.8737   21.6845 H   0  0  0  0  0  0
  -26.0168  -38.2846   24.1400 H   0  0  0  0  0  0
  -30.7964  -20.0356   19.4439 H   0  0  0  0  0  0
  -27.5490  -20.7734   22.1303 H   0  0  0  0  0  0
  -25.2943  -15.8201   24.7654 H   0  0  0  0  0  0
  -26.7962  -15.8277   23.8586 H   0  0  0  0  0  0
  -25.2638  -15.5785   23.0280 H   0  0  0  0  0  0
  -23.6102  -17.7484   24.5131 H   0  0  0  0  0  0
  -23.6018  -17.6121   22.7570 H   0  0  0  0  0  0
  -24.0114  -19.1412   23.5275 H   0  0  0  0  0  0
  -29.0579  -24.5167   22.8098 H   0  0  0  0  0  0
  -29.0382  -26.2533   22.5701 H   0  0  0  0  0  0
  -30.2182  -25.2699   21.7084 H   0  0  0  0  0  0
  -30.2139  -22.7417   19.8287 H   0  0  0  0  0  0
  -29.8510  -22.8317   21.5063 H   0  0  0  0  0  0
  -31.2659  -17.3575   21.2118 H   0  0  0  0  0  0
  -30.8904  -17.3131   19.5357 H   0  0  0  0  0  0
  -27.3182  -23.1714   20.5562 H   0  0  0  0  0  0
  -28.1150  -23.7411   19.1510 H   0  0  0  0  0  0
  -25.9756  -17.6509   21.4750 H   0  0  0  0  0  0
  -26.0370  -19.2043   22.2290 H   0  0  0  0  0  0
  -28.1921  -17.0409   22.2753 H   0  0  0  0  0  0
  -28.2130  -18.3287   23.4443 H   0  0  0  0  0  0
  -26.0574  -18.1431   24.4921 H   0  0  0  0  0  0
  -27.2172  -25.1782   21.3743 H   0  0  0  0  0  0
  -28.8936  -15.7789   20.8759 H   0  0  0  0  0  0
  1 25  1  0  0  0
  1 30  2  0  0  0
  1 86  1  0  0  0
  2  3  1  0  0  0
  2 25  1  0  0  0
  2 87  1  0  0  0
  2 88  1  0  0  0
  3  4  1  0  0  0
  3 89  1  0  0  0
  3 90  1  0  0  0
  4  5  1  0  0  0
  4 91  1  0  0  0
  4 92  1  0  0  0
  5  6  1  0  0  0
  5 26  1  0  0  0
  5 93  1  0  0  0
  6 25  1  0  0  0
  6 94  1  0  0  0
  6 95  1  0  0  0
  7  8  2  0  0  0
  7 26  1  0  0  0
  7 29  1  0  0  0
  8  9  1  0  0  0
  8 22  1  0  0  0
  9 10  1  0  0  0
  9 27  2  0  0  0
 10 11  2  0  0  0
 10 15  1  0  0  0
 11 12  1  0  0  0
 11 96  1  0  0  0
 12 13  2  0  0  0
 12 97  1  0  0  0
 13 14  1  0  0  0
 13 31  1  0  0  0
 14 15  2  0  0  0
 14 98  1  0  0  0
 15 99  1  0  0  0
 16 17  2  0  0  0
 16 21  1  0  0  0
 16 31  1  0  0  0
 17 18  1  0  0  0
 17100  1  0  0  0
 18 19  2  0  0  0
 18101  1  0  0  0
 19 20  1  0  0  0
 19 24  1  0  0  0
 20 21  2  0  0  0
 20102  1  0  0  0
 21 23  1  0  0  0
 22 28  1  0  0  0
 22 32  2  0  0  0
 26 27  1  0  0  0
 28103  1  0  0  0
 28104  1  0  0  0
 29105  1  0  0  0
 29106  1  0  0  0
 33 34  1  0  0  0
 33 66  1  0  0  0
 33 70  2  0  0  0
 34 36  1  0  0  0
 34 59  1  0  0  0
 34107  1  0  0  0
 35 44  2  0  0  0
 35 45  1  0  0  0
 35 68  1  0  0  0
 36 56  1  0  0  0
 36108  1  0  0  0
 37 39  1  0  0  0
 37 47  1  0  0  0
 37 66  1  0  0  0
 37109  1  0  0  0
 38 43  2  0  0  0
 38 46  1  0  0  0
 38 47  1  0  0  0
 39 64  1  0  0  0
 39 67  2  0  0  0
 40 52  1  0  0  0
 40 53  2  0  0  0
 40 58  1  0  0  0
 41110  1  0  0  0
 41111  1  0  0  0
 41112  1  0  0  0
 41 48  1  0  0  0
 42 43  1  0  0  0
 42 66  1  0  0  0
 42113  1  0  0  0
 42114  1  0  0  0
 43 44  1  0  0  0
 44115  1  0  0  0
 45 46  2  0  0  0
 45116  1  0  0  0
 46117  1  0  0  0
 47118  1  0  0  0
 47119  1  0  0  0
 48 56  1  0  0  0
 48 65  1  0  0  0
 48120  1  0  0  0
 49 50  1  0  0  0
 49 53  1  0  0  0
 49 64  1  0  0  0
 49121  1  0  0  0
 50 51  1  0  0  0
 50122  1  0  0  0
 50123  1  0  0  0
 51 52  1  0  0  0
 51124  1  0  0  0
 51125  1  0  0  0
 52126  1  0  0  0
 52127  1  0  0  0
 53 54  1  0  0  0
 54 55  2  0  0  0
 54128  1  0  0  0
 55 57  1  0  0  0
 55129  1  0  0  0
 56 69  2  0  0  0
 57 58  2  0  0  0
 57130  1  0  0  0
 58131  1  0  0  0
 59 60  1  0  0  0
 59 61  1  0  0  0
 59 62  1  0  0  0
 60132  1  0  0  0
 60133  1  0  0  0
 60134  1  0  0  0
 61135  1  0  0  0
 61136  1  0  0  0
 61137  1  0  0  0
 62138  1  0  0  0
 62139  1  0  0  0
 62140  1  0  0  0
 63 65  1  0  0  0
 63141  1  0  0  0
 63142  1  0  0  0
 63143  1  0  0  0
 64144  1  0  0  0
 65145  1  0  0  0
 68 84  1  0  0  0
 71 73  1  0  0  0
 71 74  2  0  0  0
 71146  1  0  0  0
 72 73  2  0  0  0
 72 85  1  0  0  0
 72147  1  0  0  0
 73 78  1  0  0  0
 74 79  1  0  0  0
 74 85  1  0  0  0
 75148  1  0  0  0
 75149  1  0  0  0
 75150  1  0  0  0
 75 83  1  0  0  0
 76 83  1  0  0  0
 76151  1  0  0  0
 76152  1  0  0  0
 76153  1  0  0  0
 77154  1  0  0  0
 77155  1  0  0  0
 77156  1  0  0  0
 77 84  1  0  0  0
 78 80  1  0  0  0
 78157  1  0  0  0
 78158  1  0  0  0
 79 86  1  0  0  0
 79159  1  0  0  0
 79160  1  0  0  0
 80 84  1  0  0  0
 80161  1  0  0  0
 80162  1  0  0  0
 81 82  1  0  0  0
 81 83  1  0  0  0
 81163  1  0  0  0
 81164  1  0  0  0
 82 85  1  0  0  0
 82165  1  0  0  0
 82166  1  0  0  0
 83167  1  0  0  0
 84168  1  0  0  0
 86169  1  0  0  0
M  ISO  4   1 100  68 101  84 101  86 100
M  END
> <chiral flag>
0

> <version>
0

> <s_m_source_file>
/data/baiqing/PycharmProjects/Reinvent-master-3.2/result/LINK_invent/BTK/process_docking_weight1_custom_sum_contain_oxygen_bond_distance_aromatic_linkinvent_7_9_3/rearranged_h_0103.sdf

> <i_m_source_file_index>
65

> <r_mmod_Potential_Energy-OPLS-2005>
141.206939697266

> <r_mmod_Stretch_Energy-OPLS-2005>
110.756736755371

> <r_mmod_Bend_Energy-OPLS-2005>
197.146896362305

> <r_mmod_Torsional_Energy-OPLS-2005>
268.010162353516

> <r_mmod_Improper_Torsional_Energy-OPLS-2005>
7.66069984436035

> <r_mmod_Van_der_Waal_Energy-OPLS-2005>
107.669952392578

> <r_mmod_Electrostatic_Energy-OPLS-2005>
-426.638610839844

> <r_mmod_Solvation_Energy-OPLS-2005>
-196.918243408203

> <b_mmod_Minimization_Converged-OPLS-2005>
0

> <r_mmod_RMS_Derivative-OPLS-2005>
1.90676391124725

$$$$
65
                    3D
 Structure written by MMmdl.
169177  0  0  1  0            999 V2000
  -30.6283  -14.5854   20.5922 C   0  0  0  0  0  0
  -30.4451  -12.3944   19.4211 C   0  0  0  0  0  0
  -29.4906  -12.5118   18.2086 C   0  0  0  0  0  0
  -28.0175  -12.3369   18.6349 C   0  0  0  0  0  0
  -27.6535  -13.2026   19.8691 C   0  0  2  0  0  0
  -28.7016  -13.0028   20.9854 C   0  0  0  0  0  0
  -25.2565  -13.8081   20.5755 C   0  0  0  0  0  0
  -24.1815  -13.0386   20.9217 C   0  0  0  0  0  0
  -24.6367  -11.6857   20.8759 C   0  0  0  0  0  0
  -23.9037  -10.4270   21.0404 C   0  0  0  0  0  0
  -24.3596   -9.4177   21.9191 C   0  0  0  0  0  0
  -23.6268   -8.2212   22.0746 C   0  0  0  0  0  0
  -22.4249   -8.0270   21.3541 C   0  0  0  0  0  0
  -21.9886   -9.0236   20.4646 C   0  0  0  0  0  0
  -22.7202  -10.2124   20.3058 C   0  0  0  0  0  0
  -21.6840   -6.0720   22.5277 C   0  0  0  0  0  0
  -21.3993   -6.5629   23.8197 C   0  0  0  0  0  0
  -21.3631   -5.6773   24.9172 C   0  0  0  0  0  0
  -21.6043   -4.3050   24.7220 C   0  0  0  0  0  0
  -21.8822   -3.8140   23.4335 C   0  0  0  0  0  0
  -21.9193   -4.6949   22.3403 C   0  0  0  0  0  0
  -22.7838  -13.5203   21.1842 C   0  0  0  0  0  0
  -22.1677   -4.2129   21.0977 F   0  0  0  0  0  0
  -21.5627   -3.4539   25.7738 F   0  0  0  0  0  0
  -30.0152  -13.3746   20.4344 N   0  0  0  0  0  0
  -26.2987  -12.9265   20.3360 N   0  0  0  0  0  0
  -25.9305  -11.6428   20.5815 N   0  0  0  0  0  0
  -22.0482  -12.8235   22.0410 N   0  0  0  0  0  0
  -25.4347  -15.1773   20.4296 N   0  0  0  0  0  0
  -31.7763  -14.7996   20.1891 O   0  0  0  0  0  0
  -21.6630   -6.8854   21.4236 O   0  0  0  0  0  0
  -22.3555  -14.5520   20.6679 O   0  0  0  0  0  0
  -24.6244  -31.8624   23.2040 C   0  0  0  0  0  0
  -25.9106  -32.4782   23.8355 C   0  0  1  0  0  0
  -27.2253  -27.3557   20.0911 C   0  0  0  0  0  0
  -25.5927  -33.8583   24.2284 N   0  0  0  0  0  0
  -23.4132  -30.4895   21.5487 C   0  0  2  0  0  0
  -24.8513  -28.9442   20.1215 C   0  0  0  0  0  0
  -22.7452  -29.4648   22.4965 C   0  0  0  0  0  0
  -18.0275  -28.1391   22.8479 C   0  0  0  0  0  0
  -24.1502  -36.7304   23.2634 C   0  0  0  0  0  0
  -25.9510  -30.8091   21.3627 C   0  0  0  0  0  0
  -26.0237  -29.4385   20.7050 C   0  0  0  0  0  0
  -27.2112  -28.6598   20.6714 C   0  0  0  0  0  0
  -26.0047  -26.8728   19.5718 C   0  0  0  0  0  0
  -24.8371  -27.6593   19.5590 C   0  0  0  0  0  0
  -23.6216  -29.8247   20.1664 C   0  0  0  0  0  0
  -25.4125  -36.3081   24.0330 C   0  0  1  0  0  0
  -20.5878  -28.3696   23.1288 C   0  0  2  0  0  0
  -20.6766  -26.9421   22.5407 C   0  0  0  0  0  0
  -19.5739  -26.6404   21.5212 C   0  0  0  0  0  0
  -18.1922  -26.7940   22.1636 C   0  0  0  0  0  0
  -19.1524  -28.8871   23.2889 C   0  0  0  0  0  0
  -18.9444  -30.1467   23.8906 C   0  0  0  0  0  0
  -17.6456  -30.6593   24.0579 C   0  0  0  0  0  0
  -25.9056  -34.9450   23.5114 C   0  0  0  0  0  0
  -16.5340  -29.9105   23.6336 C   0  0  0  0  0  0
  -16.7260  -28.6516   23.0348 C   0  0  0  0  0  0
  -26.4496  -31.6573   25.0717 C   0  0  0  0  0  0
  -25.3742  -31.3724   26.1467 C   0  0  0  0  0  0
  -27.0320  -30.2987   24.6142 C   0  0  0  0  0  0
  -27.6072  -32.4297   25.7503 C   0  0  0  0  0  0
  -27.5584  -37.1803   24.8460 C   0  0  0  0  0  0
  -21.4175  -29.3071   22.3710 N   0  0  0  0  0  0
  -26.4291  -37.3779   23.9415 N   0  0  0  0  0  0
  -24.6821  -31.0683   22.0961 N   0  0  0  0  0  0
  -23.4173  -28.8202   23.3064 O   0  0  0  0  0  0
  -28.4102  -26.6112   20.0779 O   0  0  0  0  0  0
  -26.5627  -34.8902   22.4676 O   0  0  0  0  0  0
  -23.5426  -32.1411   23.7401 O   0  0  0  0  0  0
  -29.5209  -20.5729   20.6986 C   0  0  0  0  0  0
  -27.6515  -20.5123   19.4991 C   0  0  0  0  0  0
  -29.4127  -19.2731   20.2135 C   0  0  0  0  0  0
  -28.2116  -19.2620   19.4365 C   0  0  0  0  0  0
  -27.6654  -16.9936   16.3210 C   0  0  0  0  0  0
  -26.1342  -17.9847   18.8309 C   0  0  0  0  0  0
  -27.9762  -25.2167   17.9497 C   0  0  0  0  0  0
  -30.3691  -18.0528   20.3591 C   0  0  0  0  0  0
  -28.0724  -18.2001   17.1763 C   0  0  0  0  0  0
  -28.8779  -23.9821   20.1643 C   0  0  0  0  0  0
  -28.0122  -22.7386   20.6374 C   0  0  0  0  0  0
  -30.0451  -16.9949   21.4774 C   0  0  0  0  0  0
  -27.6571  -18.0873   18.6570 C   0  0  1  0  0  0
  -28.6243  -25.3404   19.3550 C   0  0  2  0  0  0
  -28.4291  -21.3480   20.2767 N   0  0  0  0  0  0
  -29.8335  -15.5641   21.1004 N   0  0  0  0  0  0
  -31.4765  -12.5552   19.1064 H   0  0  0  0  0  0
  -30.4158  -11.3899   19.8443 H   0  0  0  0  0  0
  -29.7473  -11.7632   17.4592 H   0  0  0  0  0  0
  -29.6126  -13.4853   17.7291 H   0  0  0  0  0  0
  -27.8666  -11.2837   18.8730 H   0  0  0  0  0  0
  -27.3460  -12.5550   17.8006 H   0  0  0  0  0  0
  -27.6827  -14.2437   19.5416 H   0  0  0  0  0  0
  -28.7229  -11.9556   21.2945 H   0  0  0  0  0  0
  -28.4425  -13.5647   21.8832 H   0  0  0  0  0  0
  -25.2749   -9.5662   22.4757 H   0  0  0  0  0  0
  -23.9968   -7.4614   22.7486 H   0  0  0  0  0  0
  -21.0793   -8.8760   19.8978 H   0  0  0  0  0  0
  -22.3649  -10.9672   19.6165 H   0  0  0  0  0  0
  -21.1991   -7.6131   23.9699 H   0  0  0  0  0  0
  -21.1440   -6.0510   25.9062 H   0  0  0  0  0  0
  -22.0636   -2.7602   23.2849 H   0  0  0  0  0  0
  -22.4104  -11.9871   22.4768 H   0  0  0  0  0  0
  -21.1130  -13.1302   22.2697 H   0  0  0  0  0  0
  -24.6676  -15.8304   20.5403 H   0  0  0  0  0  0
  -26.2847  -15.6175   20.1053 H   0  0  0  0  0  0
  -26.7187  -32.5465   23.1124 H   0  0  0  0  0  0
  -25.0035  -33.9726   25.0400 H   0  0  0  0  0  0
  -22.7048  -31.3096   21.4104 H   0  0  0  0  0  0
  -23.3746  -35.9645   23.3294 H   0  0  0  0  0  0
  -24.3586  -36.8927   22.2039 H   0  0  0  0  0  0
  -23.7270  -37.6516   23.6662 H   0  0  0  0  0  0
  -26.0721  -31.5755   20.5960 H   0  0  0  0  0  0
  -26.8375  -30.8564   21.9843 H   0  0  0  0  0  0
  -28.1223  -29.0506   21.1024 H   0  0  0  0  0  0
  -25.9033  -25.8660   19.2102 H   0  0  0  0  0  0
  -23.9219  -27.2494   19.1515 H   0  0  0  0  0  0
  -23.7461  -30.6026   19.4137 H   0  0  0  0  0  0
  -22.7394  -29.2592   19.8619 H   0  0  0  0  0  0
  -25.1291  -36.1928   25.0818 H   0  0  0  0  0  0
  -20.9966  -28.3279   24.1419 H   0  0  0  0  0  0
  -20.5682  -26.2307   23.3604 H   0  0  0  0  0  0
  -21.6632  -26.7468   22.1195 H   0  0  0  0  0  0
  -19.6906  -25.6327   21.1233 H   0  0  0  0  0  0
  -19.6682  -27.3234   20.6756 H   0  0  0  0  0  0
  -17.4191  -26.6682   21.4051 H   0  0  0  0  0  0
  -18.0330  -26.0083   22.9032 H   0  0  0  0  0  0
  -19.7927  -30.7279   24.2289 H   0  0  0  0  0  0
  -17.5006  -31.6277   24.5188 H   0  0  0  0  0  0
  -15.5349  -30.3009   23.7656 H   0  0  0  0  0  0
  -15.8660  -28.0855   22.7051 H   0  0  0  0  0  0
  -24.5903  -30.7080   25.7830 H   0  0  0  0  0  0
  -24.8956  -32.2893   26.4902 H   0  0  0  0  0  0
  -25.8077  -30.8908   27.0241 H   0  0  0  0  0  0
  -26.2877  -29.6770   24.1152 H   0  0  0  0  0  0
  -27.4003  -29.7221   25.4641 H   0  0  0  0  0  0
  -27.8757  -30.4280   23.9361 H   0  0  0  0  0  0
  -27.2669  -33.3574   26.2118 H   0  0  0  0  0  0
  -28.3862  -32.6885   25.0317 H   0  0  0  0  0  0
  -28.0761  -31.8389   26.5381 H   0  0  0  0  0  0
  -28.2596  -38.0099   24.7485 H   0  0  0  0  0  0
  -28.1081  -36.2628   24.6310 H   0  0  0  0  0  0
  -27.2295  -37.1480   25.8857 H   0  0  0  0  0  0
  -20.9343  -29.8776   21.6904 H   0  0  0  0  0  0
  -26.0169  -38.2858   24.1405 H   0  0  0  0  0  0
  -30.2823  -21.0236   21.3223 H   0  0  0  0  0  0
  -26.7330  -20.8772   19.0602 H   0  0  0  0  0  0
  -26.5836  -16.9357   16.2074 H   0  0  0  0  0  0
  -28.0097  -16.0578   16.7599 H   0  0  0  0  0  0
  -28.0910  -17.0688   15.3209 H   0  0  0  0  0  0
  -25.8632  -17.9968   19.8884 H   0  0  0  0  0  0
  -25.7420  -17.0626   18.4041 H   0  0  0  0  0  0
  -25.6150  -18.8128   18.3457 H   0  0  0  0  0  0
  -28.6201  -24.6555   17.2732 H   0  0  0  0  0  0
  -27.8203  -26.1933   17.4893 H   0  0  0  0  0  0
  -27.0285  -24.6815   17.9642 H   0  0  0  0  0  0
  -31.3726  -18.4481   20.5412 H   0  0  0  0  0  0
  -30.4357  -17.5549   19.3918 H   0  0  0  0  0  0
  -27.6605  -19.1116   16.7372 H   0  0  0  0  0  0
  -29.1581  -18.3056   17.1196 H   0  0  0  0  0  0
  -28.0870  -24.4712   20.7307 H   0  0  0  0  0  0
  -28.8785  -23.4765   19.2006 H   0  0  0  0  0  0
  -26.9796  -22.8578   20.2945 H   0  0  0  0  0  0
  -27.9460  -22.7467   21.7273 H   0  0  0  0  0  0
  -29.1242  -17.3040   21.9750 H   0  0  0  0  0  0
  -30.8007  -17.0494   22.2638 H   0  0  0  0  0  0
  -28.0958  -17.1802   19.0746 H   0  0  0  0  0  0
  -29.6510  -25.5564   19.0561 H   0  0  0  0  0  0
  -28.9227  -15.2173   21.3580 H   0  0  0  0  0  0
  1 25  1  0  0  0
  1 30  2  0  0  0
  1 86  1  0  0  0
  2  3  1  0  0  0
  2 25  1  0  0  0
  2 87  1  0  0  0
  2 88  1  0  0  0
  3  4  1  0  0  0
  3 89  1  0  0  0
  3 90  1  0  0  0
  4  5  1  0  0  0
  4 91  1  0  0  0
  4 92  1  0  0  0
  5  6  1  0  0  0
  5 26  1  0  0  0
  5 93  1  0  0  0
  6 25  1  0  0  0
  6 94  1  0  0  0
  6 95  1  0  0  0
  7  8  2  0  0  0
  7 26  1  0  0  0
  7 29  1  0  0  0
  8  9  1  0  0  0
  8 22  1  0  0  0
  9 10  1  0  0  0
  9 27  2  0  0  0
 10 11  2  0  0  0
 10 15  1  0  0  0
 11 12  1  0  0  0
 11 96  1  0  0  0
 12 13  2  0  0  0
 12 97  1  0  0  0
 13 14  1  0  0  0
 13 31  1  0  0  0
 14 15  2  0  0  0
 14 98  1  0  0  0
 15 99  1  0  0  0
 16 17  2  0  0  0
 16 21  1  0  0  0
 16 31  1  0  0  0
 17 18  1  0  0  0
 17100  1  0  0  0
 18 19  2  0  0  0
 18101  1  0  0  0
 19 20  1  0  0  0
 19 24  1  0  0  0
 20 21  2  0  0  0
 20102  1  0  0  0
 21 23  1  0  0  0
 22 28  1  0  0  0
 22 32  2  0  0  0
 26 27  1  0  0  0
 28103  1  0  0  0
 28104  1  0  0  0
 29105  1  0  0  0
 29106  1  0  0  0
 33 34  1  0  0  0
 33 66  1  0  0  0
 33 70  2  0  0  0
 34 36  1  0  0  0
 34 59  1  0  0  0
 34107  1  0  0  0
 35 44  2  0  0  0
 35 45  1  0  0  0
 35 68  1  0  0  0
 36 56  1  0  0  0
 36108  1  0  0  0
 37 39  1  0  0  0
 37 47  1  0  0  0
 37 66  1  0  0  0
 37109  1  0  0  0
 38 43  2  0  0  0
 38 46  1  0  0  0
 38 47  1  0  0  0
 39 64  1  0  0  0
 39 67  2  0  0  0
 40 52  1  0  0  0
 40 53  2  0  0  0
 40 58  1  0  0  0
 41110  1  0  0  0
 41111  1  0  0  0
 41112  1  0  0  0
 41 48  1  0  0  0
 42 43  1  0  0  0
 42 66  1  0  0  0
 42113  1  0  0  0
 42114  1  0  0  0
 43 44  1  0  0  0
 44115  1  0  0  0
 45 46  2  0  0  0
 45116  1  0  0  0
 46117  1  0  0  0
 47118  1  0  0  0
 47119  1  0  0  0
 48 56  1  0  0  0
 48 65  1  0  0  0
 48120  1  0  0  0
 49 50  1  0  0  0
 49 53  1  0  0  0
 49 64  1  0  0  0
 49121  1  0  0  0
 50 51  1  0  0  0
 50122  1  0  0  0
 50123  1  0  0  0
 51 52  1  0  0  0
 51124  1  0  0  0
 51125  1  0  0  0
 52126  1  0  0  0
 52127  1  0  0  0
 53 54  1  0  0  0
 54 55  2  0  0  0
 54128  1  0  0  0
 55 57  1  0  0  0
 55129  1  0  0  0
 56 69  2  0  0  0
 57 58  2  0  0  0
 57130  1  0  0  0
 58131  1  0  0  0
 59 60  1  0  0  0
 59 61  1  0  0  0
 59 62  1  0  0  0
 60132  1  0  0  0
 60133  1  0  0  0
 60134  1  0  0  0
 61135  1  0  0  0
 61136  1  0  0  0
 61137  1  0  0  0
 62138  1  0  0  0
 62139  1  0  0  0
 62140  1  0  0  0
 63 65  1  0  0  0
 63141  1  0  0  0
 63142  1  0  0  0
 63143  1  0  0  0
 64144  1  0  0  0
 65145  1  0  0  0
 68 84  1  0  0  0
 71 73  2  0  0  0
 71 85  1  0  0  0
 71146  1  0  0  0
 72 74  2  0  0  0
 72 85  1  0  0  0
 72147  1  0  0  0
 73 74  1  0  0  0
 73 78  1  0  0  0
 74 83  1  0  0  0
 75 79  1  0  0  0
 75148  1  0  0  0
 75149  1  0  0  0
 75150  1  0  0  0
 76151  1  0  0  0
 76152  1  0  0  0
 76153  1  0  0  0
 76 83  1  0  0  0
 77154  1  0  0  0
 77155  1  0  0  0
 77156  1  0  0  0
 77 84  1  0  0  0
 78 82  1  0  0  0
 78157  1  0  0  0
 78158  1  0  0  0
 79 83  1  0  0  0
 79159  1  0  0  0
 79160  1  0  0  0
 80 81  1  0  0  0
 80 84  1  0  0  0
 80161  1  0  0  0
 80162  1  0  0  0
 81 85  1  0  0  0
 81163  1  0  0  0
 81164  1  0  0  0
 82 86  1  0  0  0
 82165  1  0  0  0
 82166  1  0  0  0
 83167  1  0  0  0
 84168  1  0  0  0
 86169  1  0  0  0
M  ISO  4   1 100  68 101  84 101  86 100
M  END
> <chiral flag>
0

> <version>
0

> <s_m_source_file>
/data/baiqing/PycharmProjects/Reinvent-master-3.2/result/LINK_invent/BTK/process_docking_weight1_custom_sum_contain_oxygen_bond_distance_aromatic_linkinvent_7_9_3/rearranged_h_0103.sdf

> <i_m_source_file_index>
66

> <r_mmod_Potential_Energy-OPLS-2005>
269.535766601562

> <r_mmod_Stretch_Energy-OPLS-2005>
67.8942337036133

> <r_mmod_Bend_Energy-OPLS-2005>
418.131805419922

> <r_mmod_Torsional_Energy-OPLS-2005>
240.895416259766

> <r_mmod_Improper_Torsional_Energy-OPLS-2005>
3.73836946487427

> <r_mmod_Van_der_Waal_Energy-OPLS-2005>
128.726745605469

> <r_mmod_Electrostatic_Energy-OPLS-2005>
-421.854370117188

> <r_mmod_Solvation_Energy-OPLS-2005>
-200.572906494141

> <b_mmod_Minimization_Converged-OPLS-2005>
0

> <r_mmod_RMS_Derivative-OPLS-2005>
5.02463483810425

$$$$
66
                    3D
 Structure written by MMmdl.
167175  0  0  1  0            999 V2000
  -30.7630  -14.3724   20.6813 C   0  0  0  0  0  0
  -30.4181  -12.2955   19.3932 C   0  0  0  0  0  0
  -29.4829  -12.5220   18.1908 C   0  0  0  0  0  0
  -28.0075  -12.3776   18.6090 C   0  0  0  0  0  0
  -27.6645  -13.2021   19.8771 C   0  0  2  0  0  0
  -28.7029  -12.9473   20.9910 C   0  0  0  0  0  0
  -25.2603  -13.8156   20.5679 C   0  0  0  0  0  0
  -24.1847  -13.0440   20.9175 C   0  0  0  0  0  0
  -24.6390  -11.6904   20.8732 C   0  0  0  0  0  0
  -23.9056  -10.4296   21.0406 C   0  0  0  0  0  0
  -24.3610   -9.4211   21.9183 C   0  0  0  0  0  0
  -23.6289   -8.2245   22.0751 C   0  0  0  0  0  0
  -22.4270   -8.0284   21.3543 C   0  0  0  0  0  0
  -21.9906   -9.0256   20.4644 C   0  0  0  0  0  0
  -22.7231  -10.2137   20.3056 C   0  0  0  0  0  0
  -21.6855   -6.0738   22.5278 C   0  0  0  0  0  0
  -21.4012   -6.5640   23.8211 C   0  0  0  0  0  0
  -21.3659   -5.6792   24.9173 C   0  0  0  0  0  0
  -21.6043   -4.3056   24.7223 C   0  0  0  0  0  0
  -21.8821   -3.8148   23.4345 C   0  0  0  0  0  0
  -21.9191   -4.6965   22.3401 C   0  0  0  0  0  0
  -22.7870  -13.5246   21.1839 C   0  0  0  0  0  0
  -22.1662   -4.2152   21.0979 F   0  0  0  0  0  0
  -21.5629   -3.4538   25.7735 F   0  0  0  0  0  0
  -30.0441  -13.2433   20.4526 N   0  0  0  0  0  0
  -26.3034  -12.9317   20.3369 N   0  0  0  0  0  0
  -25.9313  -11.6481   20.5757 N   0  0  0  0  0  0
  -22.0505  -12.8242   22.0392 N   0  0  0  0  0  0
  -25.4353  -15.1868   20.4073 N   0  0  0  0  0  0
  -31.7948  -14.6589   20.0669 O   0  0  0  0  0  0
  -21.6637   -6.8878   21.4239 O   0  0  0  0  0  0
  -22.3563  -14.5557   20.6690 O   0  0  0  0  0  0
  -24.6104  -31.8698   23.2123 C   0  0  0  0  0  0
  -25.9011  -32.4833   23.8406 C   0  0  1  0  0  0
  -27.2387  -27.4676   20.0925 C   0  0  0  0  0  0
  -25.5885  -33.8630   24.2339 N   0  0  0  0  0  0
  -23.3975  -30.4916   21.5515 C   0  0  2  0  0  0
  -24.8462  -28.9555   20.1197 C   0  0  0  0  0  0
  -22.7388  -29.4669   22.5016 C   0  0  0  0  0  0
  -18.0272  -28.1375   22.8482 C   0  0  0  0  0  0
  -24.1489  -36.7322   23.2639 C   0  0  0  0  0  0
  -25.9223  -30.8426   21.3627 C   0  0  0  0  0  0
  -26.0019  -29.4764   20.7168 C   0  0  0  0  0  0
  -27.2019  -28.7360   20.7085 C   0  0  0  0  0  0
  -26.0738  -26.9489   19.4946 C   0  0  0  0  0  0
  -24.8737  -27.6862   19.5121 C   0  0  0  0  0  0
  -23.6060  -29.8194   20.1675 C   0  0  0  0  0  0
  -25.4106  -36.3120   24.0344 C   0  0  1  0  0  0
  -20.5856  -28.3650   23.1325 C   0  0  2  0  0  0
  -20.6764  -26.9390   22.5418 C   0  0  0  0  0  0
  -19.5748  -26.6381   21.5209 C   0  0  0  0  0  0
  -18.1920  -26.7923   22.1612 C   0  0  0  0  0  0
  -19.1519  -28.8827   23.2897 C   0  0  0  0  0  0
  -18.9455  -30.1433   23.8902 C   0  0  0  0  0  0
  -17.6461  -30.6579   24.0555 C   0  0  0  0  0  0
  -25.9029  -34.9487   23.5136 C   0  0  0  0  0  0
  -16.5347  -29.9081   23.6326 C   0  0  0  0  0  0
  -16.7264  -28.6504   23.0337 C   0  0  0  0  0  0
  -26.4461  -31.6610   25.0725 C   0  0  0  0  0  0
  -25.3738  -31.3718   26.1486 C   0  0  0  0  0  0
  -27.0301  -30.3060   24.6086 C   0  0  0  0  0  0
  -27.6038  -32.4331   25.7487 C   0  0  0  0  0  0
  -27.5579  -37.1809   24.8462 C   0  0  0  0  0  0
  -21.4125  -29.3016   22.3739 N   0  0  0  0  0  0
  -26.4298  -37.3798   23.9409 N   0  0  0  0  0  0
  -24.6612  -31.0825   22.1006 N   0  0  0  0  0  0
  -23.4173  -28.8231   23.3064 O   0  0  0  0  0  0
  -28.4032  -26.7509   20.0235 O   0  0  0  0  0  0
  -26.5588  -34.8931   22.4697 O   0  0  0  0  0  0
  -23.5302  -32.1436   23.7534 O   0  0  0  0  0  0
  -29.2607  -22.4483   20.1007 C   0  0  0  0  0  0
  -29.3927  -23.8483   20.1678 C   0  0  0  0  0  0
  -28.3447  -21.8069   20.9571 C   0  0  0  0  0  0
  -28.6116  -24.5647   21.0946 C   0  0  0  0  0  0
  -27.6050  -22.6067   21.8591 C   0  0  0  0  0  0
  -28.2184  -20.3475   20.9309 C   0  0  0  0  0  0
  -25.2036  -22.4225   22.6475 C   0  0  0  0  0  0
  -27.1233  -22.2410   24.3185 C   0  0  0  0  0  0
  -28.7605  -26.0752   21.2260 C   0  0  0  0  0  0
  -30.7691  -17.6349   21.5416 C   0  0  0  0  0  0
  -31.0009  -16.2900   22.2620 C   0  0  0  0  0  0
  -29.3140  -18.1412   21.5571 C   0  0  0  0  0  0
  -26.6573  -21.9816   22.8773 C   0  0  0  0  0  0
  -27.7303  -23.9557   21.9182 N   0  0  0  0  0  0
  -27.0951  -19.7664   20.4804 N   0  0  0  0  0  0
  -30.2993  -15.1517   21.6670 N   0  0  0  0  0  0
  -29.2523  -19.6014   21.3653 N   0  3  0  0  0  0
  -31.4605  -12.4020   19.0861 H   0  0  0  0  0  0
  -30.3237  -11.2737   19.7642 H   0  0  0  0  0  0
  -29.7163  -11.8138   17.3944 H   0  0  0  0  0  0
  -29.6518  -13.5171   17.7757 H   0  0  0  0  0  0
  -27.8141  -11.3199   18.7909 H   0  0  0  0  0  0
  -27.3540  -12.6678   17.7856 H   0  0  0  0  0  0
  -27.7221  -14.2555   19.6020 H   0  0  0  0  0  0
  -28.6691  -11.9030   21.3052 H   0  0  0  0  0  0
  -28.4480  -13.5210   21.8819 H   0  0  0  0  0  0
  -25.2758   -9.5687   22.4754 H   0  0  0  0  0  0
  -24.0002   -7.4636   22.7469 H   0  0  0  0  0  0
  -21.0839   -8.8775   19.8951 H   0  0  0  0  0  0
  -22.3693  -10.9674   19.6164 H   0  0  0  0  0  0
  -21.2005   -7.6147   23.9715 H   0  0  0  0  0  0
  -21.1478   -6.0520   25.9074 H   0  0  0  0  0  0
  -22.0602   -2.7611   23.2843 H   0  0  0  0  0  0
  -22.4108  -11.9894   22.4776 H   0  0  0  0  0  0
  -21.1121  -13.1270   22.2589 H   0  0  0  0  0  0
  -24.6695  -15.8447   20.5026 H   0  0  0  0  0  0
  -26.2870  -15.6113   20.0638 H   0  0  0  0  0  0
  -26.7074  -32.5566   23.1170 H   0  0  0  0  0  0
  -25.0064  -33.9804   25.0498 H   0  0  0  0  0  0
  -22.6835  -31.3058   21.4086 H   0  0  0  0  0  0
  -23.3752  -35.9656   23.3326 H   0  0  0  0  0  0
  -24.3577  -36.8916   22.2048 H   0  0  0  0  0  0
  -23.7250  -37.6536   23.6636 H   0  0  0  0  0  0
  -26.0296  -31.6074   20.5926 H   0  0  0  0  0  0
  -26.8120  -30.8993   21.9778 H   0  0  0  0  0  0
  -28.0983  -29.1389   21.1584 H   0  0  0  0  0  0
  -26.1018  -25.9792   19.0167 H   0  0  0  0  0  0
  -23.9846  -27.2769   19.0535 H   0  0  0  0  0  0
  -23.7098  -30.5912   19.4039 H   0  0  0  0  0  0
  -22.7325  -29.2344   19.8747 H   0  0  0  0  0  0
  -25.1279  -36.1993   25.0834 H   0  0  0  0  0  0
  -20.9919  -28.3212   24.1459 H   0  0  0  0  0  0
  -20.5667  -26.2252   23.3599 H   0  0  0  0  0  0
  -21.6636  -26.7444   22.1202 H   0  0  0  0  0  0
  -19.6912  -25.6297   21.1223 H   0  0  0  0  0  0
  -19.6704  -27.3202   20.6747 H   0  0  0  0  0  0
  -17.4192  -26.6671   21.4009 H   0  0  0  0  0  0
  -18.0313  -26.0073   22.9010 H   0  0  0  0  0  0
  -19.7941  -30.7233   24.2279 H   0  0  0  0  0  0
  -17.5029  -31.6265   24.5150 H   0  0  0  0  0  0
  -15.5346  -30.2977   23.7667 H   0  0  0  0  0  0
  -15.8665  -28.0824   22.7041 H   0  0  0  0  0  0
  -24.5888  -30.7088   25.7829 H   0  0  0  0  0  0
  -24.8956  -32.2880   26.4956 H   0  0  0  0  0  0
  -25.8094  -30.8866   27.0227 H   0  0  0  0  0  0
  -26.2844  -29.6820   24.1143 H   0  0  0  0  0  0
  -27.4094  -29.7296   25.4535 H   0  0  0  0  0  0
  -27.8665  -30.4407   23.9225 H   0  0  0  0  0  0
  -27.2650  -33.3612   26.2105 H   0  0  0  0  0  0
  -28.3825  -32.6927   25.0303 H   0  0  0  0  0  0
  -28.0732  -31.8437   26.5372 H   0  0  0  0  0  0
  -28.2598  -38.0101   24.7496 H   0  0  0  0  0  0
  -28.1072  -36.2633   24.6302 H   0  0  0  0  0  0
  -27.2294  -37.1473   25.8863 H   0  0  0  0  0  0
  -20.9283  -29.8742   21.6965 H   0  0  0  0  0  0
  -26.0201  -38.2882   24.1396 H   0  0  0  0  0  0
  -29.8538  -21.8720   19.4048 H   0  0  0  0  0  0
  -30.0889  -24.3673   19.5236 H   0  0  0  0  0  0
  -24.8844  -22.1986   21.6298 H   0  0  0  0  0  0
  -25.0868  -23.4958   22.8023 H   0  0  0  0  0  0
  -24.5244  -21.9120   23.3298 H   0  0  0  0  0  0
  -28.1449  -21.8906   24.4714 H   0  0  0  0  0  0
  -26.4855  -21.7261   25.0363 H   0  0  0  0  0  0
  -27.0965  -23.3044   24.5575 H   0  0  0  0  0  0
  -29.8049  -26.2982   21.4441 H   0  0  0  0  0  0
  -28.1919  -26.4352   22.0874 H   0  0  0  0  0  0
  -31.1108  -17.5561   20.5086 H   0  0  0  0  0  0
  -31.4171  -18.3786   22.0076 H   0  0  0  0  0  0
  -30.6887  -16.3762   23.3036 H   0  0  0  0  0  0
  -32.0715  -16.0780   22.2944 H   0  0  0  0  0  0
  -28.8436  -17.9127   22.5136 H   0  0  0  0  0  0
  -28.7342  -17.6273   20.7905 H   0  0  0  0  0  0
  -26.6861  -20.9008   22.7463 H   0  0  0  0  0  0
  -26.3653  -20.3205   20.0556 H   0  0  0  0  0  0
  -26.9618  -18.7678   20.4680 H   0  0  0  0  0  0
  -29.4613  -14.8295   22.1291 H   0  0  0  0  0  0
  -30.0491  -20.1103   21.7239 H   0  0  0  0  0  0
  1 25  1  0  0  0
  1 30  2  0  0  0
  1 86  1  0  0  0
  2  3  1  0  0  0
  2 25  1  0  0  0
  2 88  1  0  0  0
  2 89  1  0  0  0
  3  4  1  0  0  0
  3 90  1  0  0  0
  3 91  1  0  0  0
  4  5  1  0  0  0
  4 92  1  0  0  0
  4 93  1  0  0  0
  5  6  1  0  0  0
  5 26  1  0  0  0
  5 94  1  0  0  0
  6 25  1  0  0  0
  6 95  1  0  0  0
  6 96  1  0  0  0
  7  8  2  0  0  0
  7 26  1  0  0  0
  7 29  1  0  0  0
  8  9  1  0  0  0
  8 22  1  0  0  0
  9 10  1  0  0  0
  9 27  2  0  0  0
 10 11  2  0  0  0
 10 15  1  0  0  0
 11 12  1  0  0  0
 11 97  1  0  0  0
 12 13  2  0  0  0
 12 98  1  0  0  0
 13 14  1  0  0  0
 13 31  1  0  0  0
 14 15  2  0  0  0
 14 99  1  0  0  0
 15100  1  0  0  0
 16 17  2  0  0  0
 16 21  1  0  0  0
 16 31  1  0  0  0
 17 18  1  0  0  0
 17101  1  0  0  0
 18 19  2  0  0  0
 18102  1  0  0  0
 19 20  1  0  0  0
 19 24  1  0  0  0
 20 21  2  0  0  0
 20103  1  0  0  0
 21 23  1  0  0  0
 22 28  1  0  0  0
 22 32  2  0  0  0
 26 27  1  0  0  0
 28104  1  0  0  0
 28105  1  0  0  0
 29106  1  0  0  0
 29107  1  0  0  0
 33 34  1  0  0  0
 33 66  1  0  0  0
 33 70  2  0  0  0
 34 36  1  0  0  0
 34 59  1  0  0  0
 34108  1  0  0  0
 35 44  2  0  0  0
 35 45  1  0  0  0
 35 68  1  0  0  0
 36 56  1  0  0  0
 36109  1  0  0  0
 37 39  1  0  0  0
 37 47  1  0  0  0
 37 66  1  0  0  0
 37110  1  0  0  0
 38 43  2  0  0  0
 38 46  1  0  0  0
 38 47  1  0  0  0
 39 64  1  0  0  0
 39 67  2  0  0  0
 40 52  1  0  0  0
 40 53  2  0  0  0
 40 58  1  0  0  0
 41111  1  0  0  0
 41112  1  0  0  0
 41113  1  0  0  0
 41 48  1  0  0  0
 42 43  1  0  0  0
 42 66  1  0  0  0
 42114  1  0  0  0
 42115  1  0  0  0
 43 44  1  0  0  0
 44116  1  0  0  0
 45 46  2  0  0  0
 45117  1  0  0  0
 46118  1  0  0  0
 47119  1  0  0  0
 47120  1  0  0  0
 48 56  1  0  0  0
 48 65  1  0  0  0
 48121  1  0  0  0
 49 50  1  0  0  0
 49 53  1  0  0  0
 49 64  1  0  0  0
 49122  1  0  0  0
 50 51  1  0  0  0
 50123  1  0  0  0
 50124  1  0  0  0
 51 52  1  0  0  0
 51125  1  0  0  0
 51126  1  0  0  0
 52127  1  0  0  0
 52128  1  0  0  0
 53 54  1  0  0  0
 54 55  2  0  0  0
 54129  1  0  0  0
 55 57  1  0  0  0
 55130  1  0  0  0
 56 69  2  0  0  0
 57 58  2  0  0  0
 57131  1  0  0  0
 58132  1  0  0  0
 59 60  1  0  0  0
 59 61  1  0  0  0
 59 62  1  0  0  0
 60133  1  0  0  0
 60134  1  0  0  0
 60135  1  0  0  0
 61136  1  0  0  0
 61137  1  0  0  0
 61138  1  0  0  0
 62139  1  0  0  0
 62140  1  0  0  0
 62141  1  0  0  0
 63 65  1  0  0  0
 63142  1  0  0  0
 63143  1  0  0  0
 63144  1  0  0  0
 64145  1  0  0  0
 65146  1  0  0  0
 68 79  1  0  0  0
 71 72  2  0  0  0
 71 73  1  0  0  0
 71147  1  0  0  0
 72 74  1  0  0  0
 72148  1  0  0  0
 73 75  2  0  0  0
 73 76  1  0  0  0
 74 79  1  0  0  0
 74 84  2  0  0  0
 75 83  1  0  0  0
 75 84  1  0  0  0
 76 85  1  0  0  0
 76 87  2  0  0  0
 77149  1  0  0  0
 77150  1  0  0  0
 77151  1  0  0  0
 77 83  1  0  0  0
 78 83  1  0  0  0
 78152  1  0  0  0
 78153  1  0  0  0
 78154  1  0  0  0
 79155  1  0  0  0
 79156  1  0  0  0
 80 81  1  0  0  0
 80 82  1  0  0  0
 80157  1  0  0  0
 80158  1  0  0  0
 81 86  1  0  0  0
 81159  1  0  0  0
 81160  1  0  0  0
 82 87  1  0  0  0
 82161  1  0  0  0
 82162  1  0  0  0
 83163  1  0  0  0
 85164  1  0  0  0
 85165  1  0  0  0
 86166  1  0  0  0
 87167  1  0  0  0
M  CHG  1  87   1
M  ISO  4   1 100  68 101  79 101  86 100
M  END
> <chiral flag>
0

> <version>
0

> <s_m_source_file>
/data/baiqing/PycharmProjects/Reinvent-master-3.2/result/LINK_invent/BTK/process_docking_weight1_custom_sum_contain_oxygen_bond_distance_aromatic_linkinvent_7_9_3/rearranged_h_0103.sdf

> <i_m_source_file_index>
67

> <r_mmod_Potential_Energy-OPLS-2005>
-255.144470214844

> <r_mmod_Stretch_Energy-OPLS-2005>
31.8689785003662

> <r_mmod_Bend_Energy-OPLS-2005>
91.7782821655273

> <r_mmod_Torsional_Energy-OPLS-2005>
234.023544311523

> <r_mmod_Improper_Torsional_Energy-OPLS-2005>
2.56337857246399

> <r_mmod_Van_der_Waal_Energy-OPLS-2005>
146.049087524414

> <r_mmod_Electrostatic_Energy-OPLS-2005>
-304.388885498047

> <r_mmod_Solvation_Energy-OPLS-2005>
-463.353698730469

> <b_mmod_Minimization_Converged-OPLS-2005>
0

> <r_mmod_RMS_Derivative-OPLS-2005>
1.21333277225494

$$$$
67
                    3D
 Structure written by MMmdl.
153161  0  0  1  0            999 V2000
  -30.6114  -14.7013   20.4884 C   0  0  0  0  0  0
  -30.4340  -12.4336   19.4638 C   0  0  0  0  0  0
  -29.5071  -12.5047   18.2311 C   0  0  0  0  0  0
  -28.0313  -12.3338   18.6439 C   0  0  0  0  0  0
  -27.6431  -13.2241   19.8547 C   0  0  2  0  0  0
  -28.6869  -13.1271   20.9874 C   0  0  0  0  0  0
  -25.2506  -13.8198   20.5693 C   0  0  0  0  0  0
  -24.1793  -13.0446   20.9204 C   0  0  0  0  0  0
  -24.6378  -11.6918   20.8752 C   0  0  0  0  0  0
  -23.9056  -10.4289   21.0413 C   0  0  0  0  0  0
  -24.3600   -9.4201   21.9189 C   0  0  0  0  0  0
  -23.6276   -8.2238   22.0761 C   0  0  0  0  0  0
  -22.4263   -8.0271   21.3546 C   0  0  0  0  0  0
  -21.9898   -9.0250   20.4660 C   0  0  0  0  0  0
  -22.7228  -10.2127   20.3069 C   0  0  0  0  0  0
  -21.6849   -6.0728   22.5278 C   0  0  0  0  0  0
  -21.4015   -6.5634   23.8213 C   0  0  0  0  0  0
  -21.3661   -5.6785   24.9177 C   0  0  0  0  0  0
  -21.6042   -4.3048   24.7224 C   0  0  0  0  0  0
  -21.8821   -3.8142   23.4349 C   0  0  0  0  0  0
  -21.9190   -4.6956   22.3402 C   0  0  0  0  0  0
  -22.7817  -13.5234   21.1867 C   0  0  0  0  0  0
  -22.1656   -4.2141   21.0980 F   0  0  0  0  0  0
  -21.5624   -3.4530   25.7738 F   0  0  0  0  0  0
  -29.9903  -13.4790   20.4098 N   0  0  0  0  0  0
  -26.2928  -12.9393   20.3291 N   0  0  0  0  0  0
  -25.9303  -11.6540   20.5760 N   0  0  0  0  0  0
  -22.0456  -12.8231   22.0428 N   0  0  0  0  0  0
  -25.4193  -15.1926   20.4099 N   0  0  0  0  0  0
  -31.7969  -14.8198   20.1650 O   0  0  0  0  0  0
  -21.6629   -6.8868   21.4240 O   0  0  0  0  0  0
  -22.3511  -14.5526   20.6698 O   0  0  0  0  0  0
  -24.6265  -31.8578   23.1981 C   0  0  0  0  0  0
  -25.9105  -32.4770   23.8330 C   0  0  1  0  0  0
  -27.2247  -27.2978   20.1377 C   0  0  0  0  0  0
  -25.5914  -33.8568   24.2266 N   0  0  0  0  0  0
  -23.4227  -30.4761   21.5417 C   0  0  2  0  0  0
  -24.8703  -28.9198   20.1171 C   0  0  0  0  0  0
  -22.7488  -29.4599   22.4934 C   0  0  0  0  0  0
  -18.0291  -28.1393   22.8474 C   0  0  0  0  0  0
  -24.1487  -36.7300   23.2639 C   0  0  0  0  0  0
  -25.9620  -30.7817   21.3706 C   0  0  0  0  0  0
  -26.0379  -29.4037   20.7216 C   0  0  0  0  0  0
  -27.2214  -28.6055   20.7168 C   0  0  0  0  0  0
  -26.0383  -26.8611   19.5167 C   0  0  0  0  0  0
  -24.8735  -27.6555   19.5030 C   0  0  0  0  0  0
  -23.6397  -29.8040   20.1594 C   0  0  0  0  0  0
  -25.4113  -36.3085   24.0332 C   0  0  1  0  0  0
  -20.5888  -28.3683   23.1288 C   0  0  2  0  0  0
  -20.6780  -26.9407   22.5407 C   0  0  0  0  0  0
  -19.5750  -26.6372   21.5216 C   0  0  0  0  0  0
  -18.1932  -26.7934   22.1621 C   0  0  0  0  0  0
  -19.1540  -28.8855   23.2875 C   0  0  0  0  0  0
  -18.9455  -30.1453   23.8893 C   0  0  0  0  0  0
  -17.6455  -30.6585   24.0572 C   0  0  0  0  0  0
  -25.9050  -34.9449   23.5104 C   0  0  0  0  0  0
  -16.5349  -29.9085   23.6326 C   0  0  0  0  0  0
  -16.7279  -28.6513   23.0328 C   0  0  0  0  0  0
  -26.4491  -31.6582   25.0705 C   0  0  0  0  0  0
  -25.3728  -31.3709   26.1436 C   0  0  0  0  0  0
  -27.0326  -30.3003   24.6153 C   0  0  0  0  0  0
  -27.6057  -32.4308   25.7481 C   0  0  0  0  0  0
  -27.5584  -37.1807   24.8466 C   0  0  0  0  0  0
  -21.4198  -29.3036   22.3695 N   0  0  0  0  0  0
  -26.4294  -37.3783   23.9416 N   0  0  0  0  0  0
  -24.6892  -31.0570   22.0938 N   0  0  0  0  0  0
  -23.4211  -28.8164   23.3033 O   0  0  0  0  0  0
  -28.3415  -26.4510   20.1255 O   0  0  0  0  0  0
  -26.5626  -34.8915   22.4675 O   0  0  0  0  0  0
  -23.5423  -32.1367   23.7302 O   0  0  0  0  0  0
  -27.6631  -19.3109   18.8161 C   0  0  0  0  0  0
  -27.8167  -20.6363   19.2818 C   0  0  0  0  0  0
  -28.4215  -18.2423   19.3458 C   0  0  0  0  0  0
  -29.5167  -19.8352   20.8176 C   0  0  0  0  0  0
  -28.7462  -20.9474   20.2963 C   0  0  0  0  0  0
  -29.3730  -18.4657   20.3623 C   0  0  0  0  0  0
  -28.8213  -22.4232   20.8757 C   0  0  0  0  0  0
  -30.2523  -17.2634   20.9064 C   0  0  0  0  0  0
  -28.4948  -23.7382   19.9963 C   0  0  0  0  0  0
  -28.2457  -25.1191   20.7827 C   0  0  0  0  0  0
  -29.8323  -15.8095   20.7511 N   0  0  0  0  0  0
  -31.4738  -12.5668   19.1593 H   0  0  0  0  0  0
  -30.3817  -11.4508   19.9349 H   0  0  0  0  0  0
  -29.7857  -11.7381   17.5069 H   0  0  0  0  0  0
  -29.6357  -13.4647   17.7299 H   0  0  0  0  0  0
  -27.8836  -11.2836   18.8977 H   0  0  0  0  0  0
  -27.3741  -12.5378   17.7975 H   0  0  0  0  0  0
  -27.6478  -14.2512   19.4900 H   0  0  0  0  0  0
  -28.7166  -12.1184   21.4036 H   0  0  0  0  0  0
  -28.4267  -13.7890   21.8144 H   0  0  0  0  0  0
  -25.2747   -9.5664   22.4762 H   0  0  0  0  0  0
  -23.9983   -7.4630   22.7481 H   0  0  0  0  0  0
  -21.0831   -8.8779   19.8965 H   0  0  0  0  0  0
  -22.3701  -10.9664   19.6173 H   0  0  0  0  0  0
  -21.2020   -7.6143   23.9713 H   0  0  0  0  0  0
  -21.1476   -6.0518   25.9075 H   0  0  0  0  0  0
  -22.0600   -2.7603   23.2854 H   0  0  0  0  0  0
  -22.4057  -11.9891   22.4822 H   0  0  0  0  0  0
  -21.1083  -13.1277   22.2638 H   0  0  0  0  0  0
  -24.6495  -15.8440   20.5229 H   0  0  0  0  0  0
  -26.2607  -15.6350   20.0650 H   0  0  0  0  0  0
  -26.7178  -32.5438   23.1083 H   0  0  0  0  0  0
  -25.0059  -33.9724   25.0406 H   0  0  0  0  0  0
  -22.7148  -31.2938   21.3948 H   0  0  0  0  0  0
  -23.3753  -35.9630   23.3293 H   0  0  0  0  0  0
  -24.3569  -36.8926   22.2054 H   0  0  0  0  0  0
  -23.7234  -37.6499   23.6659 H   0  0  0  0  0  0
  -26.0871  -31.5376   20.5943 H   0  0  0  0  0  0
  -26.8456  -30.8393   21.9950 H   0  0  0  0  0  0
  -28.1216  -28.9730   21.1882 H   0  0  0  0  0  0
  -26.0125  -25.8892   19.0434 H   0  0  0  0  0  0
  -23.9804  -27.2801   19.0233 H   0  0  0  0  0  0
  -23.7639  -30.5763   19.3998 H   0  0  0  0  0  0
  -22.7599  -29.2332   19.8575 H   0  0  0  0  0  0
  -25.1287  -36.1947   25.0827 H   0  0  0  0  0  0
  -20.9962  -28.3247   24.1417 H   0  0  0  0  0  0
  -20.5700  -26.2295   23.3609 H   0  0  0  0  0  0
  -21.6637  -26.7435   22.1177 H   0  0  0  0  0  0
  -19.6896  -25.6282   21.1253 H   0  0  0  0  0  0
  -19.6693  -27.3177   20.6738 H   0  0  0  0  0  0
  -17.4206  -26.6677   21.4018 H   0  0  0  0  0  0
  -18.0306  -26.0082   22.9013 H   0  0  0  0  0  0
  -19.7932  -30.7267   24.2258 H   0  0  0  0  0  0
  -17.5006  -31.6251   24.5201 H   0  0  0  0  0  0
  -15.5344  -30.2980   23.7658 H   0  0  0  0  0  0
  -15.8677  -28.0848   22.7013 H   0  0  0  0  0  0
  -24.5920  -30.7041   25.7769 H   0  0  0  0  0  0
  -24.8902  -32.2861   26.4872 H   0  0  0  0  0  0
  -25.8060  -30.8889   27.0209 H   0  0  0  0  0  0
  -26.2884  -29.6769   24.1183 H   0  0  0  0  0  0
  -27.4029  -29.7247   25.4651 H   0  0  0  0  0  0
  -27.8750  -30.4291   23.9351 H   0  0  0  0  0  0
  -27.2684  -33.3613   26.2060 H   0  0  0  0  0  0
  -28.3869  -32.6864   25.0311 H   0  0  0  0  0  0
  -28.0719  -31.8424   26.5397 H   0  0  0  0  0  0
  -28.2602  -38.0106   24.7513 H   0  0  0  0  0  0
  -28.1078  -36.2636   24.6283 H   0  0  0  0  0  0
  -27.2297  -37.1441   25.8867 H   0  0  0  0  0  0
  -20.9389  -29.8752   21.6892 H   0  0  0  0  0  0
  -26.0175  -38.2862   24.1410 H   0  0  0  0  0  0
  -26.9390  -19.1083   18.0382 H   0  0  0  0  0  0
  -27.1922  -21.4109   18.8595 H   0  0  0  0  0  0
  -28.2707  -17.2463   18.9535 H   0  0  0  0  0  0
  -30.2334  -20.0374   21.6017 H   0  0  0  0  0  0
  -29.8157  -22.5519   21.3065 H   0  0  0  0  0  0
  -28.1425  -22.4321   21.7300 H   0  0  0  0  0  0
  -30.3923  -17.4320   21.9746 H   0  0  0  0  0  0
  -31.2442  -17.3841   20.4683 H   0  0  0  0  0  0
  -27.6076  -23.5588   19.3909 H   0  0  0  0  0  0
  -29.3092  -23.8798   19.2862 H   0  0  0  0  0  0
  -28.9908  -25.1583   21.5778 H   0  0  0  0  0  0
  -27.2945  -25.0439   21.3119 H   0  0  0  0  0  0
  -28.8627  -15.6161   20.9508 H   0  0  0  0  0  0
  1 25  1  0  0  0
  1 30  2  0  0  0
  1 81  1  0  0  0
  2  3  1  0  0  0
  2 25  1  0  0  0
  2 82  1  0  0  0
  2 83  1  0  0  0
  3  4  1  0  0  0
  3 84  1  0  0  0
  3 85  1  0  0  0
  4  5  1  0  0  0
  4 86  1  0  0  0
  4 87  1  0  0  0
  5  6  1  0  0  0
  5 26  1  0  0  0
  5 88  1  0  0  0
  6 25  1  0  0  0
  6 89  1  0  0  0
  6 90  1  0  0  0
  7  8  2  0  0  0
  7 26  1  0  0  0
  7 29  1  0  0  0
  8  9  1  0  0  0
  8 22  1  0  0  0
  9 10  1  0  0  0
  9 27  2  0  0  0
 10 11  2  0  0  0
 10 15  1  0  0  0
 11 12  1  0  0  0
 11 91  1  0  0  0
 12 13  2  0  0  0
 12 92  1  0  0  0
 13 14  1  0  0  0
 13 31  1  0  0  0
 14 15  2  0  0  0
 14 93  1  0  0  0
 15 94  1  0  0  0
 16 17  2  0  0  0
 16 21  1  0  0  0
 16 31  1  0  0  0
 17 18  1  0  0  0
 17 95  1  0  0  0
 18 19  2  0  0  0
 18 96  1  0  0  0
 19 20  1  0  0  0
 19 24  1  0  0  0
 20 21  2  0  0  0
 20 97  1  0  0  0
 21 23  1  0  0  0
 22 28  1  0  0  0
 22 32  2  0  0  0
 26 27  1  0  0  0
 28 98  1  0  0  0
 28 99  1  0  0  0
 29100  1  0  0  0
 29101  1  0  0  0
 33 34  1  0  0  0
 33 66  1  0  0  0
 33 70  2  0  0  0
 34 36  1  0  0  0
 34 59  1  0  0  0
 34102  1  0  0  0
 35 44  2  0  0  0
 35 45  1  0  0  0
 35 68  1  0  0  0
 36 56  1  0  0  0
 36103  1  0  0  0
 37 39  1  0  0  0
 37 47  1  0  0  0
 37 66  1  0  0  0
 37104  1  0  0  0
 38 43  2  0  0  0
 38 46  1  0  0  0
 38 47  1  0  0  0
 39 64  1  0  0  0
 39 67  2  0  0  0
 40 52  1  0  0  0
 40 53  2  0  0  0
 40 58  1  0  0  0
 41105  1  0  0  0
 41106  1  0  0  0
 41107  1  0  0  0
 41 48  1  0  0  0
 42 43  1  0  0  0
 42 66  1  0  0  0
 42108  1  0  0  0
 42109  1  0  0  0
 43 44  1  0  0  0
 44110  1  0  0  0
 45 46  2  0  0  0
 45111  1  0  0  0
 46112  1  0  0  0
 47113  1  0  0  0
 47114  1  0  0  0
 48 56  1  0  0  0
 48 65  1  0  0  0
 48115  1  0  0  0
 49 50  1  0  0  0
 49 53  1  0  0  0
 49 64  1  0  0  0
 49116  1  0  0  0
 50 51  1  0  0  0
 50117  1  0  0  0
 50118  1  0  0  0
 51 52  1  0  0  0
 51119  1  0  0  0
 51120  1  0  0  0
 52121  1  0  0  0
 52122  1  0  0  0
 53 54  1  0  0  0
 54 55  2  0  0  0
 54123  1  0  0  0
 55 57  1  0  0  0
 55124  1  0  0  0
 56 69  2  0  0  0
 57 58  2  0  0  0
 57125  1  0  0  0
 58126  1  0  0  0
 59 60  1  0  0  0
 59 61  1  0  0  0
 59 62  1  0  0  0
 60127  1  0  0  0
 60128  1  0  0  0
 60129  1  0  0  0
 61130  1  0  0  0
 61131  1  0  0  0
 61132  1  0  0  0
 62133  1  0  0  0
 62134  1  0  0  0
 62135  1  0  0  0
 63 65  1  0  0  0
 63136  1  0  0  0
 63137  1  0  0  0
 63138  1  0  0  0
 64139  1  0  0  0
 65140  1  0  0  0
 68 80  1  0  0  0
 71 72  2  0  0  0
 71 73  1  0  0  0
 71141  1  0  0  0
 72 75  1  0  0  0
 72142  1  0  0  0
 73 76  2  0  0  0
 73143  1  0  0  0
 74 75  2  0  0  0
 74 76  1  0  0  0
 74144  1  0  0  0
 75 77  1  0  0  0
 76 78  1  0  0  0
 77 79  1  0  0  0
 77145  1  0  0  0
 77146  1  0  0  0
 78 81  1  0  0  0
 78147  1  0  0  0
 78148  1  0  0  0
 79 80  1  0  0  0
 79149  1  0  0  0
 79150  1  0  0  0
 80151  1  0  0  0
 80152  1  0  0  0
 81153  1  0  0  0
M  ISO  4   1 100  68 101  80 101  81 100
M  END
> <chiral flag>
0

> <version>
0

> <s_m_source_file>
/data/baiqing/PycharmProjects/Reinvent-master-3.2/result/LINK_invent/BTK/process_docking_weight1_custom_sum_contain_oxygen_bond_distance_aromatic_linkinvent_7_9_3/rearranged_h_0103.sdf

> <i_m_source_file_index>
68

> <r_mmod_Potential_Energy-OPLS-2005>
50.7320442199707

> <r_mmod_Stretch_Energy-OPLS-2005>
99.2776184082031

> <r_mmod_Bend_Energy-OPLS-2005>
144.775466918945

> <r_mmod_Torsional_Energy-OPLS-2005>
219.784072875977

> <r_mmod_Improper_Torsional_Energy-OPLS-2005>
4.34739255905151

> <r_mmod_Van_der_Waal_Energy-OPLS-2005>
130.860778808594

> <r_mmod_Electrostatic_Energy-OPLS-2005>
-406.482299804688

> <r_mmod_Solvation_Energy-OPLS-2005>
-205.816619873047

> <b_mmod_Minimization_Converged-OPLS-2005>
0

> <r_mmod_RMS_Derivative-OPLS-2005>
1.59575128555298

$$$$
68
                    3D
 Structure written by MMmdl.
166174  0  0  1  0            999 V2000
  -30.5232  -15.0109   20.4206 C   0  0  0  0  0  0
  -30.4373  -12.6229   19.5311 C   0  0  0  0  0  0
  -29.5314  -12.5559   18.2771 C   0  0  0  0  0  0
  -28.0639  -12.3255   18.6858 C   0  0  0  0  0  0
  -27.6283  -13.2587   19.8457 C   0  0  2  0  0  0
  -28.6650  -13.3046   20.9907 C   0  0  0  0  0  0
  -25.2417  -13.8259   20.5721 C   0  0  0  0  0  0
  -24.1752  -13.0456   20.9260 C   0  0  0  0  0  0
  -24.6396  -11.6954   20.8768 C   0  0  0  0  0  0
  -23.9090  -10.4309   21.0439 C   0  0  0  0  0  0
  -24.3641   -9.4227   21.9217 C   0  0  0  0  0  0
  -23.6309   -8.2261   22.0786 C   0  0  0  0  0  0
  -22.4277   -8.0308   21.3585 C   0  0  0  0  0  0
  -21.9935   -9.0287   20.4672 C   0  0  0  0  0  0
  -22.7266  -10.2161   20.3082 C   0  0  0  0  0  0
  -21.6871   -6.0733   22.5282 C   0  0  0  0  0  0
  -21.4022   -6.5620   23.8212 C   0  0  0  0  0  0
  -21.3670   -5.6773   24.9182 C   0  0  0  0  0  0
  -21.6056   -4.3037   24.7217 C   0  0  0  0  0  0
  -21.8828   -3.8133   23.4337 C   0  0  0  0  0  0
  -21.9209   -4.6964   22.3392 C   0  0  0  0  0  0
  -22.7756  -13.5240   21.1883 C   0  0  0  0  0  0
  -22.1683   -4.2155   21.0976 F   0  0  0  0  0  0
  -21.5630   -3.4505   25.7721 F   0  0  0  0  0  0
  -29.9405  -13.7342   20.4048 N   0  0  0  0  0  0
  -26.2863  -12.9503   20.3266 N   0  0  0  0  0  0
  -25.9332  -11.6614   20.5763 N   0  0  0  0  0  0
  -22.0384  -12.8253   22.0447 N   0  0  0  0  0  0
  -25.4027  -15.1985   20.4101 N   0  0  0  0  0  0
  -31.7091  -15.0629   20.0752 O   0  0  0  0  0  0
  -21.6657   -6.8899   21.4252 O   0  0  0  0  0  0
  -22.3446  -14.5531   20.6708 O   0  0  0  0  0  0
  -24.6471  -31.8424   23.1839 C   0  0  0  0  0  0
  -25.9222  -32.4689   23.8256 C   0  0  1  0  0  0
  -27.2152  -27.0879   20.1625 C   0  0  0  0  0  0
  -25.5956  -33.8507   24.2159 N   0  0  0  0  0  0
  -23.4554  -30.4578   21.5326 C   0  0  2  0  0  0
  -24.9035  -28.8733   20.1160 C   0  0  0  0  0  0
  -22.7600  -29.4544   22.4862 C   0  0  0  0  0  0
  -18.0314  -28.1428   22.8484 C   0  0  0  0  0  0
  -24.1499  -36.7229   23.2633 C   0  0  0  0  0  0
  -26.0161  -30.6963   21.3964 C   0  0  0  0  0  0
  -26.0840  -29.3036   20.7360 C   0  0  0  0  0  0
  -27.2424  -28.4302   20.7334 C   0  0  0  0  0  0
  -26.0121  -26.7709   19.4974 C   0  0  0  0  0  0
  -24.8846  -27.6228   19.4794 C   0  0  0  0  0  0
  -23.6852  -29.7848   20.1547 C   0  0  0  0  0  0
  -25.4140  -36.3036   24.0304 C   0  0  1  0  0  0
  -20.5927  -28.3773   23.1230 C   0  0  2  0  0  0
  -20.6809  -26.9465   22.5422 C   0  0  0  0  0  0
  -19.5768  -26.6409   21.5245 C   0  0  0  0  0  0
  -18.1951  -26.7963   22.1645 C   0  0  0  0  0  0
  -19.1572  -28.8915   23.2853 C   0  0  0  0  0  0
  -18.9474  -30.1500   23.8886 C   0  0  0  0  0  0
  -17.6470  -30.6617   24.0574 C   0  0  0  0  0  0
  -25.9096  -34.9410   23.5046 C   0  0  0  0  0  0
  -16.5360  -29.9108   23.6350 C   0  0  0  0  0  0
  -16.7299  -28.6534   23.0362 C   0  0  0  0  0  0
  -26.4514  -31.6568   25.0712 C   0  0  0  0  0  0
  -25.3661  -31.3791   26.1381 C   0  0  0  0  0  0
  -27.0355  -30.2936   24.6333 C   0  0  0  0  0  0
  -27.6064  -32.4325   25.7470 C   0  0  0  0  0  0
  -27.5591  -37.1766   24.8461 C   0  0  0  0  0  0
  -21.4290  -29.3057   22.3577 N   0  0  0  0  0  0
  -26.4308  -37.3745   23.9400 N   0  0  0  0  0  0
  -24.7263  -31.0215   22.0916 N   0  0  0  0  0  0
  -23.4208  -28.8142   23.3082 O   0  0  0  0  0  0
  -28.2665  -26.0873   20.1806 O   0  0  0  0  0  0
  -26.5699  -34.8921   22.4636 O   0  0  0  0  0  0
  -23.5571  -32.1352   23.6999 O   0  0  0  0  0  0
  -28.9986  -20.3793   19.8074 C   0  0  0  0  0  0
  -29.5606  -19.2565   20.4920 C   0  0  0  0  0  0
  -30.0078  -19.9238   21.6907 C   0  0  0  0  0  0
  -29.7334  -21.3048   21.6577 C   0  0  0  0  0  0
  -29.9395  -18.3987   23.7323 C   0  0  0  0  0  0
  -32.3848  -22.6024   21.2949 C   0  0  0  0  0  0
  -29.6058  -22.1781   24.0504 C   0  0  0  0  0  0
  -30.8059  -19.2069   22.7639 C   0  0  0  0  0  0
  -29.8948  -17.6787   19.9694 C   0  0  0  0  0  0
  -31.6776  -22.6631   22.6611 C   0  0  0  0  0  0
  -28.8729  -23.1786   19.8692 C   0  0  0  0  0  0
  -28.0389  -24.5489   20.4892 C   0  0  0  0  0  0
  -30.1561  -22.3872   22.6322 C   0  0  1  0  0  0
  -29.1005  -21.6816   20.4572 N   0  0  0  0  0  0
  -29.7647  -16.2172   20.6125 N   0  0  0  0  0  0
  -31.4774  -12.7672   19.2330 H   0  0  0  0  0  0
  -30.4205  -11.6738   20.0676 H   0  0  0  0  0  0
  -29.8626  -11.7604   17.6093 H   0  0  0  0  0  0
  -29.6181  -13.4873   17.7163 H   0  0  0  0  0  0
  -27.9709  -11.2826   18.9944 H   0  0  0  0  0  0
  -27.4024  -12.4487   17.8273 H   0  0  0  0  0  0
  -27.5879  -14.2600   19.4159 H   0  0  0  0  0  0
  -28.7611  -12.3292   21.4714 H   0  0  0  0  0  0
  -28.3497  -13.9989   21.7712 H   0  0  0  0  0  0
  -25.2817   -9.5682   22.4758 H   0  0  0  0  0  0
  -24.0011   -7.4651   22.7497 H   0  0  0  0  0  0
  -21.0873   -8.8821   19.8952 H   0  0  0  0  0  0
  -22.3770  -10.9690   19.6155 H   0  0  0  0  0  0
  -21.1998   -7.6121   23.9738 H   0  0  0  0  0  0
  -21.1492   -6.0487   25.9089 H   0  0  0  0  0  0
  -22.0598   -2.7590   23.2825 H   0  0  0  0  0  0
  -22.3954  -11.9926   22.4869 H   0  0  0  0  0  0
  -21.0992  -13.1275   22.2599 H   0  0  0  0  0  0
  -24.6225  -15.8426   20.4977 H   0  0  0  0  0  0
  -26.2383  -15.6426   20.0490 H   0  0  0  0  0  0
  -26.7289  -32.5255   23.0987 H   0  0  0  0  0  0
  -25.0038  -33.9634   25.0258 H   0  0  0  0  0  0
  -22.7596  -31.2852   21.3734 H   0  0  0  0  0  0
  -23.3791  -35.9532   23.3297 H   0  0  0  0  0  0
  -24.3574  -36.8861   22.2046 H   0  0  0  0  0  0
  -23.7234  -37.6409   23.6679 H   0  0  0  0  0  0
  -26.1887  -31.4498   20.6277 H   0  0  0  0  0  0
  -26.8792  -30.7365   22.0493 H   0  0  0  0  0  0
  -28.1475  -28.7601   21.2233 H   0  0  0  0  0  0
  -25.9261  -25.8226   18.9881 H   0  0  0  0  0  0
  -23.9893  -27.2890   18.9742 H   0  0  0  0  0  0
  -23.8341  -30.5619   19.4034 H   0  0  0  0  0  0
  -22.7961  -29.2368   19.8387 H   0  0  0  0  0  0
  -25.1330  -36.1860   25.0796 H   0  0  0  0  0  0
  -21.0022  -28.3397   24.1351 H   0  0  0  0  0  0
  -20.5748  -26.2388   23.3665 H   0  0  0  0  0  0
  -21.6674  -26.7502   22.1179 H   0  0  0  0  0  0
  -19.6945  -25.6321   21.1284 H   0  0  0  0  0  0
  -19.6702  -27.3226   20.6782 H   0  0  0  0  0  0
  -17.4225  -26.6728   21.4042 H   0  0  0  0  0  0
  -18.0326  -26.0121   22.9046 H   0  0  0  0  0  0
  -19.7938  -30.7333   24.2261 H   0  0  0  0  0  0
  -17.5008  -31.6294   24.5178 H   0  0  0  0  0  0
  -15.5353  -30.2998   23.7685 H   0  0  0  0  0  0
  -15.8702  -28.0851   22.7074 H   0  0  0  0  0  0
  -24.5882  -30.7095   25.7689 H   0  0  0  0  0  0
  -24.8793  -32.2983   26.4641 H   0  0  0  0  0  0
  -25.7903  -30.9073   27.0253 H   0  0  0  0  0  0
  -26.2969  -29.6668   24.1319 H   0  0  0  0  0  0
  -27.3894  -29.7238   25.4929 H   0  0  0  0  0  0
  -27.8934  -30.4107   23.9714 H   0  0  0  0  0  0
  -27.2696  -33.3679   26.1950 H   0  0  0  0  0  0
  -28.3917  -32.6787   25.0310 H   0  0  0  0  0  0
  -28.0694  -31.8500   26.5441 H   0  0  0  0  0  0
  -28.2596  -38.0071   24.7524 H   0  0  0  0  0  0
  -28.1111  -36.2605   24.6291 H   0  0  0  0  0  0
  -27.2308  -37.1403   25.8863 H   0  0  0  0  0  0
  -20.9542  -29.8671   21.6644 H   0  0  0  0  0  0
  -26.0178  -38.2814   24.1405 H   0  0  0  0  0  0
  -28.5880  -20.3753   18.8065 H   0  0  0  0  0  0
  -30.5643  -17.9016   24.4767 H   0  0  0  0  0  0
  -29.3712  -17.6295   23.2109 H   0  0  0  0  0  0
  -29.2347  -19.0394   24.2620 H   0  0  0  0  0  0
  -33.4626  -22.7247   21.4057 H   0  0  0  0  0  0
  -32.0328  -23.3896   20.6305 H   0  0  0  0  0  0
  -32.2227  -21.6455   20.7986 H   0  0  0  0  0  0
  -28.5180  -22.1080   24.0477 H   0  0  0  0  0  0
  -29.8739  -23.0121   24.7007 H   0  0  0  0  0  0
  -29.9942  -21.2739   24.5140 H   0  0  0  0  0  0
  -31.4132  -19.9103   23.3271 H   0  0  0  0  0  0
  -31.5204  -18.5397   22.2773 H   0  0  0  0  0  0
  -29.3293  -17.5904   19.0412 H   0  0  0  0  0  0
  -30.9316  -17.7364   19.6371 H   0  0  0  0  0  0
  -31.8568  -23.6377   23.1183 H   0  0  0  0  0  0
  -32.1645  -21.9475   23.3202 H   0  0  0  0  0  0
  -29.8851  -23.5428   19.6960 H   0  0  0  0  0  0
  -28.4856  -23.0343   18.8598 H   0  0  0  0  0  0
  -28.1147  -24.5052   21.5717 H   0  0  0  0  0  0
  -26.9811  -24.3461   20.3201 H   0  0  0  0  0  0
  -29.7234  -23.3264   22.3096 H   0  0  0  0  0  0
  -28.8499  -16.0414   20.9997 H   0  0  0  0  0  0
  1 25  1  0  0  0
  1 30  2  0  0  0
  1 85  1  0  0  0
  2  3  1  0  0  0
  2 25  1  0  0  0
  2 86  1  0  0  0
  2 87  1  0  0  0
  3  4  1  0  0  0
  3 88  1  0  0  0
  3 89  1  0  0  0
  4  5  1  0  0  0
  4 90  1  0  0  0
  4 91  1  0  0  0
  5  6  1  0  0  0
  5 26  1  0  0  0
  5 92  1  0  0  0
  6 25  1  0  0  0
  6 93  1  0  0  0
  6 94  1  0  0  0
  7  8  2  0  0  0
  7 26  1  0  0  0
  7 29  1  0  0  0
  8  9  1  0  0  0
  8 22  1  0  0  0
  9 10  1  0  0  0
  9 27  2  0  0  0
 10 11  2  0  0  0
 10 15  1  0  0  0
 11 12  1  0  0  0
 11 95  1  0  0  0
 12 13  2  0  0  0
 12 96  1  0  0  0
 13 14  1  0  0  0
 13 31  1  0  0  0
 14 15  2  0  0  0
 14 97  1  0  0  0
 15 98  1  0  0  0
 16 17  2  0  0  0
 16 21  1  0  0  0
 16 31  1  0  0  0
 17 18  1  0  0  0
 17 99  1  0  0  0
 18 19  2  0  0  0
 18100  1  0  0  0
 19 20  1  0  0  0
 19 24  1  0  0  0
 20 21  2  0  0  0
 20101  1  0  0  0
 21 23  1  0  0  0
 22 28  1  0  0  0
 22 32  2  0  0  0
 26 27  1  0  0  0
 28102  1  0  0  0
 28103  1  0  0  0
 29104  1  0  0  0
 29105  1  0  0  0
 33 34  1  0  0  0
 33 66  1  0  0  0
 33 70  2  0  0  0
 34 36  1  0  0  0
 34 59  1  0  0  0
 34106  1  0  0  0
 35 44  2  0  0  0
 35 45  1  0  0  0
 35 68  1  0  0  0
 36 56  1  0  0  0
 36107  1  0  0  0
 37 39  1  0  0  0
 37 47  1  0  0  0
 37 66  1  0  0  0
 37108  1  0  0  0
 38 43  2  0  0  0
 38 46  1  0  0  0
 38 47  1  0  0  0
 39 64  1  0  0  0
 39 67  2  0  0  0
 40 52  1  0  0  0
 40 53  2  0  0  0
 40 58  1  0  0  0
 41109  1  0  0  0
 41110  1  0  0  0
 41111  1  0  0  0
 41 48  1  0  0  0
 42 43  1  0  0  0
 42 66  1  0  0  0
 42112  1  0  0  0
 42113  1  0  0  0
 43 44  1  0  0  0
 44114  1  0  0  0
 45 46  2  0  0  0
 45115  1  0  0  0
 46116  1  0  0  0
 47117  1  0  0  0
 47118  1  0  0  0
 48 56  1  0  0  0
 48 65  1  0  0  0
 48119  1  0  0  0
 49 50  1  0  0  0
 49 53  1  0  0  0
 49 64  1  0  0  0
 49120  1  0  0  0
 50 51  1  0  0  0
 50121  1  0  0  0
 50122  1  0  0  0
 51 52  1  0  0  0
 51123  1  0  0  0
 51124  1  0  0  0
 52125  1  0  0  0
 52126  1  0  0  0
 53 54  1  0  0  0
 54 55  2  0  0  0
 54127  1  0  0  0
 55 57  1  0  0  0
 55128  1  0  0  0
 56 69  2  0  0  0
 57 58  2  0  0  0
 57129  1  0  0  0
 58130  1  0  0  0
 59 60  1  0  0  0
 59 61  1  0  0  0
 59 62  1  0  0  0
 60131  1  0  0  0
 60132  1  0  0  0
 60133  1  0  0  0
 61134  1  0  0  0
 61135  1  0  0  0
 61136  1  0  0  0
 62137  1  0  0  0
 62138  1  0  0  0
 62139  1  0  0  0
 63 65  1  0  0  0
 63140  1  0  0  0
 63141  1  0  0  0
 63142  1  0  0  0
 64143  1  0  0  0
 65144  1  0  0  0
 68 82  1  0  0  0
 71 72  2  0  0  0
 71 84  1  0  0  0
 71145  1  0  0  0
 72 73  1  0  0  0
 72 79  1  0  0  0
 73 74  2  0  0  0
 73 78  1  0  0  0
 74 83  1  0  0  0
 74 84  1  0  0  0
 75 78  1  0  0  0
 75146  1  0  0  0
 75147  1  0  0  0
 75148  1  0  0  0
 76 80  1  0  0  0
 76149  1  0  0  0
 76150  1  0  0  0
 76151  1  0  0  0
 77152  1  0  0  0
 77153  1  0  0  0
 77154  1  0  0  0
 77 83  1  0  0  0
 78155  1  0  0  0
 78156  1  0  0  0
 79 85  1  0  0  0
 79157  1  0  0  0
 79158  1  0  0  0
 80 83  1  0  0  0
 80159  1  0  0  0
 80160  1  0  0  0
 81 82  1  0  0  0
 81 84  1  0  0  0
 81161  1  0  0  0
 81162  1  0  0  0
 82163  1  0  0  0
 82164  1  0  0  0
 83165  1  0  0  0
 85166  1  0  0  0
M  ISO  4   1 100  68 101  82 101  85 100
M  END
> <chiral flag>
0

> <version>
0

> <s_m_source_file>
/data/baiqing/PycharmProjects/Reinvent-master-3.2/result/LINK_invent/BTK/process_docking_weight1_custom_sum_contain_oxygen_bond_distance_aromatic_linkinvent_7_9_3/rearranged_h_0103.sdf

> <i_m_source_file_index>
69

> <r_mmod_Potential_Energy-OPLS-2005>
619.431823730469

> <r_mmod_Stretch_Energy-OPLS-2005>
324.01904296875

> <r_mmod_Bend_Energy-OPLS-2005>
326.356079101562

> <r_mmod_Torsional_Energy-OPLS-2005>
258.597534179688

> <r_mmod_Improper_Torsional_Energy-OPLS-2005>
10.8156213760376

> <r_mmod_Van_der_Waal_Energy-OPLS-2005>
104.589981079102

> <r_mmod_Electrostatic_Energy-OPLS-2005>
-429.005462646484

> <r_mmod_Solvation_Energy-OPLS-2005>
-208.491455078125

> <b_mmod_Minimization_Converged-OPLS-2005>
0

> <r_mmod_RMS_Derivative-OPLS-2005>
3.59295868873596

$$$$
69
                    3D
 Structure written by MMmdl.
174182  0  0  1  0            999 V2000
  -30.7325  -14.4790   20.5236 C   0  0  0  0  0  0
  -30.4055  -12.2965   19.4416 C   0  0  0  0  0  0
  -29.4915  -12.4835   18.2149 C   0  0  0  0  0  0
  -28.0130  -12.3548   18.6261 C   0  0  0  0  0  0
  -27.6550  -13.2162   19.8676 C   0  0  2  0  0  0
  -28.6989  -13.0507   20.9970 C   0  0  0  0  0  0
  -25.2563  -13.8188   20.5685 C   0  0  0  0  0  0
  -24.1829  -13.0450   20.9185 C   0  0  0  0  0  0
  -24.6402  -11.6920   20.8748 C   0  0  0  0  0  0
  -23.9078  -10.4297   21.0414 C   0  0  0  0  0  0
  -24.3626   -9.4209   21.9189 C   0  0  0  0  0  0
  -23.6297   -8.2246   22.0760 C   0  0  0  0  0  0
  -22.4281   -8.0286   21.3546 C   0  0  0  0  0  0
  -21.9921   -9.0260   20.4642 C   0  0  0  0  0  0
  -22.7256  -10.2135   20.3052 C   0  0  0  0  0  0
  -21.6853   -6.0743   22.5283 C   0  0  0  0  0  0
  -21.4008   -6.5645   23.8214 C   0  0  0  0  0  0
  -21.3660   -5.6802   24.9178 C   0  0  0  0  0  0
  -21.6045   -4.3067   24.7225 C   0  0  0  0  0  0
  -21.8817   -3.8160   23.4344 C   0  0  0  0  0  0
  -21.9188   -4.6974   22.3399 C   0  0  0  0  0  0
  -22.7850  -13.5230   21.1845 C   0  0  0  0  0  0
  -22.1657   -4.2159   21.0978 F   0  0  0  0  0  0
  -21.5630   -3.4547   25.7738 F   0  0  0  0  0  0
  -30.0268  -13.3203   20.4300 N   0  0  0  0  0  0
  -26.3004  -12.9366   20.3360 N   0  0  0  0  0  0
  -25.9331  -11.6523   20.5799 N   0  0  0  0  0  0
  -22.0492  -12.8196   22.0394 N   0  0  0  0  0  0
  -25.4289  -15.1898   20.4095 N   0  0  0  0  0  0
  -31.8979  -14.5614   20.1320 O   0  0  0  0  0  0
  -21.6639   -6.8885   21.4246 O   0  0  0  0  0  0
  -22.3524  -14.5548   20.6729 O   0  0  0  0  0  0
  -24.6161  -31.8680   23.2109 C   0  0  0  0  0  0
  -25.9057  -32.4821   23.8391 C   0  0  1  0  0  0
  -27.2213  -27.4169   20.1034 C   0  0  0  0  0  0
  -25.5906  -33.8624   24.2317 N   0  0  0  0  0  0
  -23.4039  -30.4917   21.5524 C   0  0  2  0  0  0
  -24.8485  -28.9610   20.1139 C   0  0  0  0  0  0
  -22.7412  -29.4651   22.5000 C   0  0  0  0  0  0
  -18.0265  -28.1371   22.8491 C   0  0  0  0  0  0
  -24.1488  -36.7308   23.2629 C   0  0  0  0  0  0
  -25.9355  -30.8269   21.3701 C   0  0  0  0  0  0
  -26.0105  -29.4629   20.7132 C   0  0  0  0  0  0
  -27.2022  -28.7000   20.7008 C   0  0  0  0  0  0
  -26.0458  -26.9429   19.4807 C   0  0  0  0  0  0
  -24.8628  -27.7029   19.4906 C   0  0  0  0  0  0
  -23.6118  -29.8276   20.1655 C   0  0  0  0  0  0
  -25.4114  -36.3115   24.0325 C   0  0  1  0  0  0
  -20.5857  -28.3654   23.1321 C   0  0  2  0  0  0
  -20.6770  -26.9392   22.5418 C   0  0  0  0  0  0
  -19.5748  -26.6374   21.5217 C   0  0  0  0  0  0
  -18.1918  -26.7919   22.1614 C   0  0  0  0  0  0
  -19.1515  -28.8830   23.2904 C   0  0  0  0  0  0
  -18.9450  -30.1437   23.8916 C   0  0  0  0  0  0
  -17.6454  -30.6584   24.0562 C   0  0  0  0  0  0
  -25.9046  -34.9479   23.5121 C   0  0  0  0  0  0
  -16.5341  -29.9091   23.6324 C   0  0  0  0  0  0
  -16.7251  -28.6501   23.0347 C   0  0  0  0  0  0
  -26.4470  -31.6606   25.0728 C   0  0  0  0  0  0
  -25.3719  -31.3695   26.1458 C   0  0  0  0  0  0
  -27.0302  -30.3049   24.6102 C   0  0  0  0  0  0
  -27.6023  -32.4327   25.7518 C   0  0  0  0  0  0
  -27.5593  -37.1802   24.8440 C   0  0  0  0  0  0
  -21.4136  -29.3031   22.3741 N   0  0  0  0  0  0
  -26.4289  -37.3814   23.9412 N   0  0  0  0  0  0
  -24.6702  -31.0759   22.1029 N   0  0  0  0  0  0
  -23.4185  -28.8183   23.3037 O   0  0  0  0  0  0
  -28.3747  -26.6586   20.1069 O   0  0  0  0  0  0
  -26.5612  -34.8924   22.4685 O   0  0  0  0  0  0
  -23.5350  -32.1445   23.7492 O   0  0  0  0  0  0
  -30.0745  -21.0973   22.1605 C   0  0  0  0  0  0
  -28.2939  -20.7236   20.5625 C   0  0  0  0  0  0
  -30.1648  -22.4446   21.7473 C   0  0  0  0  0  0
  -28.3747  -22.0773   20.1600 C   0  0  0  0  0  0
  -29.1599  -20.2125   21.5522 C   0  0  0  0  0  0
  -29.3322  -22.9621   20.7197 C   0  0  0  0  0  0
  -29.8172  -16.4941   18.0573 C   0  0  0  0  0  0
  -30.7017  -18.7520   18.6802 C   0  0  0  0  0  0
  -30.9487  -17.3014   23.0310 C   0  0  0  0  0  0
  -29.6374  -24.3660   18.6422 C   0  0  0  0  0  0
  -30.7352  -25.1174   20.7449 C   0  0  0  0  0  0
  -29.1160  -18.7321   21.9589 C   0  0  0  0  0  0
  -28.2369  -25.2813   20.5290 C   0  0  0  0  0  0
  -29.9105  -17.5325   19.1903 C   0  0  0  0  0  0
  -30.4550  -17.9622   21.7296 C   0  0  2  0  0  0
  -30.5138  -16.9722   20.5175 C   0  0  1  0  0  0
  -29.4807  -24.4149   20.1777 C   0  0  0  0  0  0
  -30.0377  -15.5977   20.8279 N   0  0  0  0  0  0
  -31.4536  -12.3557   19.1452 H   0  0  0  0  0  0
  -30.2739  -11.2993   19.8653 H   0  0  0  0  0  0
  -29.7317  -11.7440   17.4498 H   0  0  0  0  0  0
  -29.6681  -13.4593   17.7620 H   0  0  0  0  0  0
  -27.8237  -11.3021   18.8390 H   0  0  0  0  0  0
  -27.3638  -12.6149   17.7887 H   0  0  0  0  0  0
  -27.6837  -14.2553   19.5433 H   0  0  0  0  0  0
  -28.6697  -12.0371   21.3993 H   0  0  0  0  0  0
  -28.4756  -13.7118   21.8359 H   0  0  0  0  0  0
  -25.2773   -9.5673   22.4764 H   0  0  0  0  0  0
  -24.0005   -7.4630   22.7479 H   0  0  0  0  0  0
  -21.0859   -8.8775   19.8935 H   0  0  0  0  0  0
  -22.3736  -10.9670   19.6152 H   0  0  0  0  0  0
  -21.1994   -7.6149   23.9721 H   0  0  0  0  0  0
  -21.1483   -6.0533   25.9080 H   0  0  0  0  0  0
  -22.0593   -2.7624   23.2847 H   0  0  0  0  0  0
  -22.4128  -11.9834   22.4729 H   0  0  0  0  0  0
  -21.1112  -13.1194   22.2625 H   0  0  0  0  0  0
  -24.6630  -15.8461   20.5133 H   0  0  0  0  0  0
  -26.2833  -15.6274   20.0886 H   0  0  0  0  0  0
  -26.7125  -32.5517   23.1145 H   0  0  0  0  0  0
  -25.0044  -33.9793   25.0453 H   0  0  0  0  0  0
  -22.6928  -31.3089   21.4132 H   0  0  0  0  0  0
  -23.3780  -35.9608   23.3253 H   0  0  0  0  0  0
  -24.3580  -36.8975   22.2050 H   0  0  0  0  0  0
  -23.7201  -37.6478   23.6680 H   0  0  0  0  0  0
  -26.0523  -31.5952   20.6052 H   0  0  0  0  0  0
  -26.8227  -30.8740   21.9907 H   0  0  0  0  0  0
  -28.1002  -29.0822   21.1658 H   0  0  0  0  0  0
  -26.0302  -25.9924   18.9683 H   0  0  0  0  0  0
  -23.9738  -27.3184   19.0107 H   0  0  0  0  0  0
  -23.7172  -30.6053   19.4079 H   0  0  0  0  0  0
  -22.7369  -29.2462   19.8688 H   0  0  0  0  0  0
  -25.1292  -36.1969   25.0818 H   0  0  0  0  0  0
  -20.9917  -28.3215   24.1452 H   0  0  0  0  0  0
  -20.5687  -26.2259   23.3604 H   0  0  0  0  0  0
  -21.6641  -26.7444   22.1195 H   0  0  0  0  0  0
  -19.6916  -25.6290   21.1234 H   0  0  0  0  0  0
  -19.6702  -27.3197   20.6760 H   0  0  0  0  0  0
  -17.4194  -26.6681   21.4008 H   0  0  0  0  0  0
  -18.0303  -26.0043   22.8986 H   0  0  0  0  0  0
  -19.7929  -30.7253   24.2295 H   0  0  0  0  0  0
  -17.5007  -31.6271   24.5147 H   0  0  0  0  0  0
  -15.5348  -30.3005   23.7650 H   0  0  0  0  0  0
  -15.8644  -28.0835   22.7056 H   0  0  0  0  0  0
  -24.5884  -30.7067   25.7760 H   0  0  0  0  0  0
  -24.8923  -32.2849   26.4939 H   0  0  0  0  0  0
  -25.8057  -30.8814   27.0197 H   0  0  0  0  0  0
  -26.2856  -29.6843   24.1100 H   0  0  0  0  0  0
  -27.4009  -29.7249   25.4563 H   0  0  0  0  0  0
  -27.8719  -30.4364   23.9296 H   0  0  0  0  0  0
  -27.2610  -33.3607   26.2117 H   0  0  0  0  0  0
  -28.3852  -32.6926   25.0381 H   0  0  0  0  0  0
  -28.0673  -31.8437   26.5434 H   0  0  0  0  0  0
  -28.2541  -38.0169   24.7598 H   0  0  0  0  0  0
  -28.1169  -36.2707   24.6145 H   0  0  0  0  0  0
  -27.2309  -37.1287   25.8835 H   0  0  0  0  0  0
  -20.9299  -29.8778   21.6984 H   0  0  0  0  0  0
  -26.0172  -38.2876   24.1481 H   0  0  0  0  0  0
  -30.7363  -20.7363   22.9374 H   0  0  0  0  0  0
  -27.5722  -20.0731   20.0884 H   0  0  0  0  0  0
  -30.9113  -23.0583   22.2289 H   0  0  0  0  0  0
  -27.7028  -22.4219   19.3876 H   0  0  0  0  0  0
  -29.4758  -16.9537   17.1289 H   0  0  0  0  0  0
  -29.1033  -15.7077   18.2948 H   0  0  0  0  0  0
  -30.7831  -16.0291   17.8591 H   0  0  0  0  0  0
  -30.2383  -19.1761   17.7891 H   0  0  0  0  0  0
  -31.7260  -18.4814   18.4222 H   0  0  0  0  0  0
  -30.7518  -19.5541   19.4144 H   0  0  0  0  0  0
  -31.0836  -18.0434   23.8181 H   0  0  0  0  0  0
  -31.9125  -16.8132   22.8838 H   0  0  0  0  0  0
  -30.2464  -16.5534   23.3994 H   0  0  0  0  0  0
  -30.4908  -23.7515   18.3499 H   0  0  0  0  0  0
  -29.7925  -25.3620   18.2267 H   0  0  0  0  0  0
  -28.7560  -23.9584   18.1469 H   0  0  0  0  0  0
  -31.6411  -24.5521   20.5245 H   0  0  0  0  0  0
  -30.6694  -25.2559   21.8242 H   0  0  0  0  0  0
  -30.8712  -26.1084   20.3093 H   0  0  0  0  0  0
  -28.2839  -18.2224   21.4733 H   0  0  0  0  0  0
  -28.8612  -18.7156   23.0193 H   0  0  0  0  0  0
  -28.0824  -25.2740   21.6088 H   0  0  0  0  0  0
  -27.3609  -24.7981   20.1011 H   0  0  0  0  0  0
  -28.8890  -17.8608   19.3767 H   0  0  0  0  0  0
  -31.2138  -18.7182   21.5187 H   0  0  0  0  0  0
  -31.5847  -16.9004   20.3191 H   0  0  0  0  0  0
  -29.0787  -15.4863   21.1165 H   0  0  0  0  0  0
  1 25  1  0  0  0
  1 30  2  0  0  0
  1 88  1  0  0  0
  2  3  1  0  0  0
  2 25  1  0  0  0
  2 89  1  0  0  0
  2 90  1  0  0  0
  3  4  1  0  0  0
  3 91  1  0  0  0
  3 92  1  0  0  0
  4  5  1  0  0  0
  4 93  1  0  0  0
  4 94  1  0  0  0
  5  6  1  0  0  0
  5 26  1  0  0  0
  5 95  1  0  0  0
  6 25  1  0  0  0
  6 96  1  0  0  0
  6 97  1  0  0  0
  7  8  2  0  0  0
  7 26  1  0  0  0
  7 29  1  0  0  0
  8  9  1  0  0  0
  8 22  1  0  0  0
  9 10  1  0  0  0
  9 27  2  0  0  0
 10 11  2  0  0  0
 10 15  1  0  0  0
 11 12  1  0  0  0
 11 98  1  0  0  0
 12 13  2  0  0  0
 12 99  1  0  0  0
 13 14  1  0  0  0
 13 31  1  0  0  0
 14 15  2  0  0  0
 14100  1  0  0  0
 15101  1  0  0  0
 16 17  2  0  0  0
 16 21  1  0  0  0
 16 31  1  0  0  0
 17 18  1  0  0  0
 17102  1  0  0  0
 18 19  2  0  0  0
 18103  1  0  0  0
 19 20  1  0  0  0
 19 24  1  0  0  0
 20 21  2  0  0  0
 20104  1  0  0  0
 21 23  1  0  0  0
 22 28  1  0  0  0
 22 32  2  0  0  0
 26 27  1  0  0  0
 28105  1  0  0  0
 28106  1  0  0  0
 29107  1  0  0  0
 29108  1  0  0  0
 33 34  1  0  0  0
 33 66  1  0  0  0
 33 70  2  0  0  0
 34 36  1  0  0  0
 34 59  1  0  0  0
 34109  1  0  0  0
 35 44  2  0  0  0
 35 45  1  0  0  0
 35 68  1  0  0  0
 36 56  1  0  0  0
 36110  1  0  0  0
 37 39  1  0  0  0
 37 47  1  0  0  0
 37 66  1  0  0  0
 37111  1  0  0  0
 38 43  2  0  0  0
 38 46  1  0  0  0
 38 47  1  0  0  0
 39 64  1  0  0  0
 39 67  2  0  0  0
 40 52  1  0  0  0
 40 53  2  0  0  0
 40 58  1  0  0  0
 41112  1  0  0  0
 41113  1  0  0  0
 41114  1  0  0  0
 41 48  1  0  0  0
 42 43  1  0  0  0
 42 66  1  0  0  0
 42115  1  0  0  0
 42116  1  0  0  0
 43 44  1  0  0  0
 44117  1  0  0  0
 45 46  2  0  0  0
 45118  1  0  0  0
 46119  1  0  0  0
 47120  1  0  0  0
 47121  1  0  0  0
 48 56  1  0  0  0
 48 65  1  0  0  0
 48122  1  0  0  0
 49 50  1  0  0  0
 49 53  1  0  0  0
 49 64  1  0  0  0
 49123  1  0  0  0
 50 51  1  0  0  0
 50124  1  0  0  0
 50125  1  0  0  0
 51 52  1  0  0  0
 51126  1  0  0  0
 51127  1  0  0  0
 52128  1  0  0  0
 52129  1  0  0  0
 53 54  1  0  0  0
 54 55  2  0  0  0
 54130  1  0  0  0
 55 57  1  0  0  0
 55131  1  0  0  0
 56 69  2  0  0  0
 57 58  2  0  0  0
 57132  1  0  0  0
 58133  1  0  0  0
 59 60  1  0  0  0
 59 61  1  0  0  0
 59 62  1  0  0  0
 60134  1  0  0  0
 60135  1  0  0  0
 60136  1  0  0  0
 61137  1  0  0  0
 61138  1  0  0  0
 61139  1  0  0  0
 62140  1  0  0  0
 62141  1  0  0  0
 62142  1  0  0  0
 63 65  1  0  0  0
 63143  1  0  0  0
 63144  1  0  0  0
 63145  1  0  0  0
 64146  1  0  0  0
 65147  1  0  0  0
 68 83  1  0  0  0
 71 73  2  0  0  0
 71 75  1  0  0  0
 71148  1  0  0  0
 72 74  1  0  0  0
 72 75  2  0  0  0
 72149  1  0  0  0
 73 76  1  0  0  0
 73150  1  0  0  0
 74 76  2  0  0  0
 74151  1  0  0  0
 75 82  1  0  0  0
 76 87  1  0  0  0
 77152  1  0  0  0
 77153  1  0  0  0
 77154  1  0  0  0
 77 84  1  0  0  0
 78 84  1  0  0  0
 78155  1  0  0  0
 78156  1  0  0  0
 78157  1  0  0  0
 79158  1  0  0  0
 79159  1  0  0  0
 79160  1  0  0  0
 79 85  1  0  0  0
 80161  1  0  0  0
 80162  1  0  0  0
 80163  1  0  0  0
 80 87  1  0  0  0
 81 87  1  0  0  0
 81164  1  0  0  0
 81165  1  0  0  0
 81166  1  0  0  0
 82 85  1  0  0  0
 82167  1  0  0  0
 82168  1  0  0  0
 83 87  1  0  0  0
 83169  1  0  0  0
 83170  1  0  0  0
 84 86  1  0  0  0
 84171  1  0  0  0
 85 86  1  0  0  0
 85172  1  0  0  0
 86 88  1  0  0  0
 86173  1  0  0  0
 88174  1  0  0  0
M  ISO  4   1 100  68 101  83 101  88 100
M  END
> <chiral flag>
0

> <version>
0

> <s_m_source_file>
/data/baiqing/PycharmProjects/Reinvent-master-3.2/result/LINK_invent/BTK/process_docking_weight1_custom_sum_contain_oxygen_bond_distance_aromatic_linkinvent_7_9_3/rearranged_h_0103.sdf

> <i_m_source_file_index>
70

> <r_mmod_Potential_Energy-OPLS-2005>
-20.5799503326416

> <r_mmod_Stretch_Energy-OPLS-2005>
46.2706489562988

> <r_mmod_Bend_Energy-OPLS-2005>
111.509552001953

> <r_mmod_Torsional_Energy-OPLS-2005>
251.208068847656

> <r_mmod_Improper_Torsional_Energy-OPLS-2005>
5.97811079025269

> <r_mmod_Van_der_Waal_Energy-OPLS-2005>
158.40576171875

> <r_mmod_Electrostatic_Energy-OPLS-2005>
-429.105712890625

> <r_mmod_Solvation_Energy-OPLS-2005>
-184.289016723633

> <b_mmod_Minimization_Converged-OPLS-2005>
0

> <r_mmod_RMS_Derivative-OPLS-2005>
1.9284553527832

$$$$
70
                    3D
 Structure written by MMmdl.
170177  0  0  1  0            999 V2000
  -30.4823  -14.9340   20.4604 C   0  0  0  0  0  0
  -30.4460  -12.5808   19.5233 C   0  0  0  0  0  0
  -29.5330  -12.5258   18.2720 C   0  0  0  0  0  0
  -28.0561  -12.3291   18.6653 C   0  0  0  0  0  0
  -27.6315  -13.2378   19.8497 C   0  0  2  0  0  0
  -28.6608  -13.2063   20.9986 C   0  0  0  0  0  0
  -25.2423  -13.8218   20.5688 C   0  0  0  0  0  0
  -24.1717  -13.0430   20.9214 C   0  0  0  0  0  0
  -24.6310  -11.6927   20.8691 C   0  0  0  0  0  0
  -23.9004  -10.4293   21.0407 C   0  0  0  0  0  0
  -24.3602   -9.4215   21.9192 C   0  0  0  0  0  0
  -23.6275   -8.2239   22.0759 C   0  0  0  0  0  0
  -22.4260   -8.0273   21.3531 C   0  0  0  0  0  0
  -21.9878   -9.0250   20.4672 C   0  0  0  0  0  0
  -22.7174  -10.2131   20.3065 C   0  0  0  0  0  0
  -21.6862   -6.0733   22.5273 C   0  0  0  0  0  0
  -21.4020   -6.5640   23.8202 C   0  0  0  0  0  0
  -21.3650   -5.6796   24.9175 C   0  0  0  0  0  0
  -21.6036   -4.3054   24.7235 C   0  0  0  0  0  0
  -21.8815   -3.8141   23.4364 C   0  0  0  0  0  0
  -21.9176   -4.6957   22.3414 C   0  0  0  0  0  0
  -22.7749  -13.5233   21.1896 C   0  0  0  0  0  0
  -22.1649   -4.2140   21.0990 F   0  0  0  0  0  0
  -21.5626   -3.4539   25.7761 F   0  0  0  0  0  0
  -29.9496  -13.6458   20.4439 N   0  0  0  0  0  0
  -26.2833  -12.9410   20.3211 N   0  0  0  0  0  0
  -25.9226  -11.6546   20.5666 N   0  0  0  0  0  0
  -22.0361  -12.8214   22.0471 N   0  0  0  0  0  0
  -25.4104  -15.1960   20.4182 N   0  0  0  0  0  0
  -31.6318  -15.0775   20.0317 O   0  0  0  0  0  0
  -21.6608   -6.8878   21.4241 O   0  0  0  0  0  0
  -22.3421  -14.5519   20.6765 O   0  0  0  0  0  0
  -24.6437  -31.8455   23.1939 C   0  0  0  0  0  0
  -25.9209  -32.4728   23.8329 C   0  0  1  0  0  0
  -27.2126  -27.1267   20.2125 C   0  0  0  0  0  0
  -25.5968  -33.8530   24.2246 N   0  0  0  0  0  0
  -23.4486  -30.4638   21.5383 C   0  0  2  0  0  0
  -24.9013  -28.8946   20.1193 C   0  0  0  0  0  0
  -22.7582  -29.4516   22.4887 C   0  0  0  0  0  0
  -18.0302  -28.1415   22.8478 C   0  0  0  0  0  0
  -24.1475  -36.7207   23.2640 C   0  0  0  0  0  0
  -26.0036  -30.7307   21.3865 C   0  0  0  0  0  0
  -26.0800  -29.3367   20.7389 C   0  0  0  0  0  0
  -27.2421  -28.4742   20.7570 C   0  0  0  0  0  0
  -26.0174  -26.7939   19.5372 C   0  0  0  0  0  0
  -24.8878  -27.6390   19.4937 C   0  0  0  0  0  0
  -23.6773  -29.7966   20.1578 C   0  0  0  0  0  0
  -25.4127  -36.3037   24.0329 C   0  0  1  0  0  0
  -20.5914  -28.3718   23.1281 C   0  0  2  0  0  0
  -20.6815  -26.9446   22.5400 C   0  0  0  0  0  0
  -19.5792  -26.6415   21.5208 C   0  0  0  0  0  0
  -18.1964  -26.7950   22.1615 C   0  0  0  0  0  0
  -19.1553  -28.8891   23.2856 C   0  0  0  0  0  0
  -18.9468  -30.1487   23.8887 C   0  0  0  0  0  0
  -17.6462  -30.6604   24.0563 C   0  0  0  0  0  0
  -25.9080  -34.9413   23.5088 C   0  0  0  0  0  0
  -16.5365  -29.9102   23.6342 C   0  0  0  0  0  0
  -16.7282  -28.6516   23.0367 C   0  0  0  0  0  0
  -26.4548  -31.6607   25.0771 C   0  0  0  0  0  0
  -25.3733  -31.3801   26.1461 C   0  0  0  0  0  0
  -27.0400  -30.3010   24.6323 C   0  0  0  0  0  0
  -27.6105  -32.4350   25.7543 C   0  0  0  0  0  0
  -27.5574  -37.1774   24.8481 C   0  0  0  0  0  0
  -21.4277  -29.3021   22.3628 N   0  0  0  0  0  0
  -26.4279  -37.3761   23.9419 N   0  0  0  0  0  0
  -24.7181  -31.0338   22.0941 N   0  0  0  0  0  0
  -23.4225  -28.8054   23.3023 O   0  0  0  0  0  0
  -28.2560  -26.1195   20.2496 O   0  0  0  0  0  0
  -26.5650  -34.8886   22.4659 O   0  0  0  0  0  0
  -23.5552  -32.1293   23.7167 O   0  0  0  0  0  0
  -31.8842  -20.5321   20.0290 C   0  0  0  0  0  0
  -31.0006  -19.7351   23.1431 C   0  0  0  0  0  0
  -29.1897  -25.0601   22.1838 C   0  0  0  0  0  0
  -26.7836  -24.6282   21.6301 C   0  0  0  0  0  0
  -28.2536  -21.7264   22.4695 C   0  0  0  0  0  0
  -31.2196  -19.1470   20.0960 C   0  0  0  0  0  0
  -30.0682  -18.7820   22.3687 C   0  0  0  0  0  0
  -29.3444  -17.4978   20.2695 C   0  0  0  0  0  0
  -28.9215  -20.4054   20.4519 C   0  0  0  0  0  0
  -28.5998  -23.2079   20.3703 C   0  0  0  0  0  0
  -29.8552  -19.0119   20.8369 C   0  0  0  0  0  0
  -28.2043  -24.7472   21.0346 C   0  0  0  0  0  0
  -29.6631  -16.0378   20.8085 N   0  0  0  0  0  0
  -28.9611  -21.8423   21.1599 N   0  3  1  0  0  0
  -31.4792  -12.7514   19.2163 H   0  0  0  0  0  0
  -30.4537  -11.6192   20.0384 H   0  0  0  0  0  0
  -29.8508  -11.7178   17.6145 H   0  0  0  0  0  0
  -29.6438  -13.4409   17.6916 H   0  0  0  0  0  0
  -27.9173  -11.2817   18.9335 H   0  0  0  0  0  0
  -27.4095  -12.4939   17.8037 H   0  0  0  0  0  0
  -27.6122  -14.2540   19.4602 H   0  0  0  0  0  0
  -28.7354  -12.1987   21.4081 H   0  0  0  0  0  0
  -28.3507  -13.8436   21.8265 H   0  0  0  0  0  0
  -25.2780   -9.5686   22.4713 H   0  0  0  0  0  0
  -24.0005   -7.4631   22.7449 H   0  0  0  0  0  0
  -21.0808   -8.8766   19.8976 H   0  0  0  0  0  0
  -22.3651  -10.9674   19.6148 H   0  0  0  0  0  0
  -21.2014   -7.6145   23.9720 H   0  0  0  0  0  0
  -21.1473   -6.0520   25.9080 H   0  0  0  0  0  0
  -22.0591   -2.7595   23.2862 H   0  0  0  0  0  0
  -22.4042  -11.9922   22.4898 H   0  0  0  0  0  0
  -21.0966  -13.1211   22.2652 H   0  0  0  0  0  0
  -24.6484  -15.8517   20.5668 H   0  0  0  0  0  0
  -26.2513  -15.6341   20.0633 H   0  0  0  0  0  0
  -26.7285  -32.5346   23.1065 H   0  0  0  0  0  0
  -25.0153  -33.9659   25.0420 H   0  0  0  0  0  0
  -22.7475  -31.2872   21.3899 H   0  0  0  0  0  0
  -23.3783  -35.9490   23.3309 H   0  0  0  0  0  0
  -24.3548  -36.8814   22.2046 H   0  0  0  0  0  0
  -23.7165  -37.6386   23.6664 H   0  0  0  0  0  0
  -26.1486  -31.4888   20.6143 H   0  0  0  0  0  0
  -26.8779  -30.7906   22.0254 H   0  0  0  0  0  0
  -28.1459  -28.8191   21.2420 H   0  0  0  0  0  0
  -25.9319  -25.8214   19.0757 H   0  0  0  0  0  0
  -23.9931  -27.2976   18.9921 H   0  0  0  0  0  0
  -23.8149  -30.5731   19.4041 H   0  0  0  0  0  0
  -22.7926  -29.2410   19.8439 H   0  0  0  0  0  0
  -25.1309  -36.1882   25.0827 H   0  0  0  0  0  0
  -21.0014  -28.3301   24.1407 H   0  0  0  0  0  0
  -20.5796  -26.2312   23.3583 H   0  0  0  0  0  0
  -21.6675  -26.7524   22.1156 H   0  0  0  0  0  0
  -19.6984  -25.6332   21.1231 H   0  0  0  0  0  0
  -19.6746  -27.3231   20.6741 H   0  0  0  0  0  0
  -17.4248  -26.6689   21.4000 H   0  0  0  0  0  0
  -18.0371  -26.0094   22.9018 H   0  0  0  0  0  0
  -19.7938  -30.7296   24.2281 H   0  0  0  0  0  0
  -17.5019  -31.6293   24.5139 H   0  0  0  0  0  0
  -15.5366  -30.3010   23.7679 H   0  0  0  0  0  0
  -15.8675  -28.0832   22.7135 H   0  0  0  0  0  0
  -24.5926  -30.7129   25.7791 H   0  0  0  0  0  0
  -24.8896  -32.2975   26.4819 H   0  0  0  0  0  0
  -25.8002  -30.9033   27.0286 H   0  0  0  0  0  0
  -26.3014  -29.6752   24.1298 H   0  0  0  0  0  0
  -27.3987  -29.7296   25.4893 H   0  0  0  0  0  0
  -27.8925  -30.4260   23.9644 H   0  0  0  0  0  0
  -27.2771  -33.3707   26.2016 H   0  0  0  0  0  0
  -28.3981  -32.6800   25.0419 H   0  0  0  0  0  0
  -28.0696  -31.8540   26.5535 H   0  0  0  0  0  0
  -28.2616  -38.0052   24.7545 H   0  0  0  0  0  0
  -28.1047  -36.2589   24.6314 H   0  0  0  0  0  0
  -27.2273  -37.1419   25.8876 H   0  0  0  0  0  0
  -20.9514  -29.8659   21.6734 H   0  0  0  0  0  0
  -26.0150  -38.2820   24.1474 H   0  0  0  0  0  0
  -31.3772  -21.1852   19.3156 H   0  0  0  0  0  0
  -31.9255  -21.0323   20.9896 H   0  0  0  0  0  0
  -32.9072  -20.4371   19.6737 H   0  0  0  0  0  0
  -30.7735  -20.7853   22.9785 H   0  0  0  0  0  0
  -32.0484  -19.5731   22.8829 H   0  0  0  0  0  0
  -30.9219  -19.5707   24.2181 H   0  0  0  0  0  0
  -28.8393  -24.6866   23.1455 H   0  0  0  0  0  0
  -29.3224  -26.1334   22.3294 H   0  0  0  0  0  0
  -30.1734  -24.6239   21.9965 H   0  0  0  0  0  0
  -26.7067  -23.8794   22.4100 H   0  0  0  0  0  0
  -26.0638  -24.3521   20.8614 H   0  0  0  0  0  0
  -26.4466  -25.5573   22.0914 H   0  0  0  0  0  0
  -28.5113  -22.5113   23.1783 H   0  0  0  0  0  0
  -28.4931  -20.7988   22.9839 H   0  0  0  0  0  0
  -27.1692  -21.7052   22.3330 H   0  0  0  0  0  0
  -31.9228  -18.4282   20.5118 H   0  0  0  0  0  0
  -31.0794  -18.8510   19.0541 H   0  0  0  0  0  0
  -30.5037  -17.7939   22.5251 H   0  0  0  0  0  0
  -29.1051  -18.7198   22.8664 H   0  0  0  0  0  0
  -29.4469  -17.4595   19.1838 H   0  0  0  0  0  0
  -28.2619  -17.5294   20.3826 H   0  0  0  0  0  0
  -27.8796  -20.0945   20.4834 H   0  0  0  0  0  0
  -29.0828  -20.5897   19.3903 H   0  0  0  0  0  0
  -29.4540  -23.3784   19.7152 H   0  0  0  0  0  0
  -27.7877  -22.9513   19.6870 H   0  0  0  0  0  0
  -28.8707  -15.7014   21.3369 H   0  0  0  0  0  0
  -29.9353  -21.9612   21.4026 H   0  0  0  0  0  0
  1 25  1  0  0  0
  1 30  2  0  0  0
  1 83  1  0  0  0
  2  3  1  0  0  0
  2 25  1  0  0  0
  2 85  1  0  0  0
  2 86  1  0  0  0
  3  4  1  0  0  0
  3 87  1  0  0  0
  3 88  1  0  0  0
  4  5  1  0  0  0
  4 89  1  0  0  0
  4 90  1  0  0  0
  5  6  1  0  0  0
  5 26  1  0  0  0
  5 91  1  0  0  0
  6 25  1  0  0  0
  6 92  1  0  0  0
  6 93  1  0  0  0
  7  8  2  0  0  0
  7 26  1  0  0  0
  7 29  1  0  0  0
  8  9  1  0  0  0
  8 22  1  0  0  0
  9 10  1  0  0  0
  9 27  2  0  0  0
 10 11  2  0  0  0
 10 15  1  0  0  0
 11 12  1  0  0  0
 11 94  1  0  0  0
 12 13  2  0  0  0
 12 95  1  0  0  0
 13 14  1  0  0  0
 13 31  1  0  0  0
 14 15  2  0  0  0
 14 96  1  0  0  0
 15 97  1  0  0  0
 16 17  2  0  0  0
 16 21  1  0  0  0
 16 31  1  0  0  0
 17 18  1  0  0  0
 17 98  1  0  0  0
 18 19  2  0  0  0
 18 99  1  0  0  0
 19 20  1  0  0  0
 19 24  1  0  0  0
 20 21  2  0  0  0
 20100  1  0  0  0
 21 23  1  0  0  0
 22 28  1  0  0  0
 22 32  2  0  0  0
 26 27  1  0  0  0
 28101  1  0  0  0
 28102  1  0  0  0
 29103  1  0  0  0
 29104  1  0  0  0
 33 34  1  0  0  0
 33 66  1  0  0  0
 33 70  2  0  0  0
 34 36  1  0  0  0
 34 59  1  0  0  0
 34105  1  0  0  0
 35 44  2  0  0  0
 35 45  1  0  0  0
 35 68  1  0  0  0
 36 56  1  0  0  0
 36106  1  0  0  0
 37 39  1  0  0  0
 37 47  1  0  0  0
 37 66  1  0  0  0
 37107  1  0  0  0
 38 43  2  0  0  0
 38 46  1  0  0  0
 38 47  1  0  0  0
 39 64  1  0  0  0
 39 67  2  0  0  0
 40 52  1  0  0  0
 40 53  2  0  0  0
 40 58  1  0  0  0
 41108  1  0  0  0
 41109  1  0  0  0
 41110  1  0  0  0
 41 48  1  0  0  0
 42 43  1  0  0  0
 42 66  1  0  0  0
 42111  1  0  0  0
 42112  1  0  0  0
 43 44  1  0  0  0
 44113  1  0  0  0
 45 46  2  0  0  0
 45114  1  0  0  0
 46115  1  0  0  0
 47116  1  0  0  0
 47117  1  0  0  0
 48 56  1  0  0  0
 48 65  1  0  0  0
 48118  1  0  0  0
 49 50  1  0  0  0
 49 53  1  0  0  0
 49 64  1  0  0  0
 49119  1  0  0  0
 50 51  1  0  0  0
 50120  1  0  0  0
 50121  1  0  0  0
 51 52  1  0  0  0
 51122  1  0  0  0
 51123  1  0  0  0
 52124  1  0  0  0
 52125  1  0  0  0
 53 54  1  0  0  0
 54 55  2  0  0  0
 54126  1  0  0  0
 55 57  1  0  0  0
 55127  1  0  0  0
 56 69  2  0  0  0
 57 58  2  0  0  0
 57128  1  0  0  0
 58129  1  0  0  0
 59 60  1  0  0  0
 59 61  1  0  0  0
 59 62  1  0  0  0
 60130  1  0  0  0
 60131  1  0  0  0
 60132  1  0  0  0
 61133  1  0  0  0
 61134  1  0  0  0
 61135  1  0  0  0
 62136  1  0  0  0
 62137  1  0  0  0
 62138  1  0  0  0
 63 65  1  0  0  0
 63139  1  0  0  0
 63140  1  0  0  0
 63141  1  0  0  0
 64142  1  0  0  0
 65143  1  0  0  0
 68 82  1  0  0  0
 71 76  1  0  0  0
 71144  1  0  0  0
 71145  1  0  0  0
 71146  1  0  0  0
 72 77  1  0  0  0
 72147  1  0  0  0
 72148  1  0  0  0
 72149  1  0  0  0
 73150  1  0  0  0
 73151  1  0  0  0
 73152  1  0  0  0
 73 82  1  0  0  0
 74 82  1  0  0  0
 74153  1  0  0  0
 74154  1  0  0  0
 74155  1  0  0  0
 75156  1  0  0  0
 75157  1  0  0  0
 75158  1  0  0  0
 75 84  1  0  0  0
 76159  1  0  0  0
 76160  1  0  0  0
 76 81  1  0  0  0
 77 81  1  0  0  0
 77161  1  0  0  0
 77162  1  0  0  0
 78 81  1  0  0  0
 78 83  1  0  0  0
 78163  1  0  0  0
 78164  1  0  0  0
 79 81  1  0  0  0
 79 84  1  0  0  0
 79165  1  0  0  0
 79166  1  0  0  0
 80 82  1  0  0  0
 80 84  1  0  0  0
 80167  1  0  0  0
 80168  1  0  0  0
 83169  1  0  0  0
 84170  1  0  0  0
M  CHG  1  84   1
M  ISO  4   1 100  68 101  82 101  83 100
M  END
> <chiral flag>
0

> <version>
0

> <s_m_source_file>
/data/baiqing/PycharmProjects/Reinvent-master-3.2/result/LINK_invent/BTK/process_docking_weight1_custom_sum_contain_oxygen_bond_distance_aromatic_linkinvent_7_9_3/rearranged_h_0103.sdf

> <i_m_source_file_index>
71

> <r_mmod_Potential_Energy-OPLS-2005>
629.011108398438

> <r_mmod_Stretch_Energy-OPLS-2005>
324.6337890625

> <r_mmod_Bend_Energy-OPLS-2005>
339.031127929688

> <r_mmod_Torsional_Energy-OPLS-2005>
330.524078369141

> <r_mmod_Improper_Torsional_Energy-OPLS-2005>
5.1323356628418

> <r_mmod_Van_der_Waal_Energy-OPLS-2005>
122.00838470459

> <r_mmod_Electrostatic_Energy-OPLS-2005>
-272.165802001953

> <r_mmod_Solvation_Energy-OPLS-2005>
-416.402069091797

> <b_mmod_Minimization_Converged-OPLS-2005>
0

> <r_mmod_RMS_Derivative-OPLS-2005>
6.81639432907104

$$$$
71
                    3D
 Structure written by MMmdl.
164172  0  0  1  0            999 V2000
  -29.3791  -15.6152   20.7450 C   0  0  0  0  0  0
  -30.2850  -13.2377   19.6674 C   0  0  0  0  0  0
  -29.5221  -12.7002   18.3977 C   0  0  0  0  0  0
  -28.0945  -12.2356   18.7535 C   0  0  0  0  0  0
  -27.4931  -13.2001   19.7986 C   0  0  2  0  0  0
  -28.3840  -13.3245   21.0294 C   0  0  0  0  0  0
  -25.1842  -13.8002   20.5628 C   0  0  0  0  0  0
  -24.1281  -13.0251   20.9275 C   0  0  0  0  0  0
  -24.5871  -11.6726   20.8744 C   0  0  0  0  0  0
  -23.8706  -10.4129   21.0466 C   0  0  0  0  0  0
  -24.3405   -9.4087   21.9207 C   0  0  0  0  0  0
  -23.6171   -8.2080   22.0750 C   0  0  0  0  0  0
  -22.4152   -8.0112   21.3536 C   0  0  0  0  0  0
  -21.9700   -9.0034   20.4639 C   0  0  0  0  0  0
  -22.6932  -10.1946   20.3075 C   0  0  0  0  0  0
  -21.6786   -6.0648   22.5299 C   0  0  0  0  0  0
  -21.3965   -6.5588   23.8223 C   0  0  0  0  0  0
  -21.3635   -5.6753   24.9192 C   0  0  0  0  0  0
  -21.6055   -4.3022   24.7250 C   0  0  0  0  0  0
  -21.8824   -3.8096   23.4377 C   0  0  0  0  0  0
  -21.9185   -4.6897   22.3429 C   0  0  0  0  0  0
  -22.7389  -13.5063   21.1998 C   0  0  0  0  0  0
  -22.1659   -4.2095   21.1001 F   0  0  0  0  0  0
  -21.5639   -3.4515   25.7767 F   0  0  0  0  0  0
  -29.4142  -14.1705   20.5525 N   0  0  0  0  0  0
  -26.1829  -12.8990   20.2590 N   0  0  0  0  0  0
  -25.8621  -11.6221   20.5389 N   0  0  0  0  0  0
  -22.0055  -12.8116   22.0606 N   0  0  0  0  0  0
  -25.3573  -15.1796   20.4340 N   0  0  0  0  0  0
  -30.5628  -15.9410   20.4069 O   0  0  0  0  0  0
  -21.6540   -6.8724   21.4235 O   0  0  0  0  0  0
  -22.3159  -14.5372   20.6794 O   0  0  0  0  0  0
  -24.6365  -31.9206   23.2410 C   0  0  0  0  0  0
  -25.9281  -32.5007   23.8670 C   0  0  1  0  0  0
  -26.1820  -27.2356   20.3426 C   0  0  0  0  0  0
  -25.6132  -33.8798   24.2560 N   0  0  0  0  0  0
  -23.4330  -30.5476   21.6233 C   0  0  2  0  0  0
  -24.8561  -29.3585   19.7921 C   0  0  0  0  0  0
  -23.0730  -29.4243   22.6436 C   0  0  0  0  0  0
  -18.6768  -27.6132   22.4813 C   0  0  0  0  0  0
  -24.1489  -36.7368   23.2604 C   0  0  0  0  0  0
  -25.9658  -30.8326   21.4429 C   0  0  0  0  0  0
  -25.9183  -29.5392   20.6771 C   0  0  0  0  0  0
  -26.7689  -28.4333   20.8638 C   0  0  0  0  0  0
  -25.9037  -27.2872   19.0087 C   0  0  0  0  0  0
  -24.9983  -28.3432   18.7959 C   0  0  0  0  0  0
  -23.5817  -30.1258   20.1092 C   0  0  0  0  0  0
  -25.4108  -36.3219   24.0312 C   0  0  1  0  0  0
  -21.3734  -27.8579   23.5043 C   0  0  2  0  0  0
  -22.3442  -26.2512   22.6666 C   0  0  0  0  0  0
  -20.7376  -25.3019   21.0663 C   0  0  0  0  0  0
  -19.0149  -26.3058   21.3573 C   0  0  0  0  0  0
  -19.7020  -28.2898   23.3320 C   0  0  0  0  0  0
  -19.2727  -29.5477   23.9686 C   0  0  0  0  0  0
  -17.9650  -30.1168   23.9668 C   0  0  0  0  0  0
  -25.9080  -34.9575   23.5190 C   0  0  0  0  0  0
  -16.9566  -29.3912   23.3224 C   0  0  0  0  0  0
  -17.3220  -28.1940   22.6130 C   0  0  0  0  0  0
  -26.4498  -31.6670   25.1006 C   0  0  0  0  0  0
  -25.3672  -31.3819   26.1678 C   0  0  0  0  0  0
  -27.0241  -30.3031   24.6522 C   0  0  0  0  0  0
  -27.6071  -32.4331   25.7772 C   0  0  0  0  0  0
  -27.5598  -37.1834   24.8436 C   0  0  0  0  0  0
  -21.8353  -29.1958   23.0026 N   0  0  0  0  0  0
  -26.4313  -37.3876   23.9382 N   0  0  0  0  0  0
  -24.6911  -31.1633   22.1164 N   0  0  0  0  0  0
  -23.9240  -28.7637   23.2139 O   0  0  0  0  0  0
  -24.8820  -26.9228   20.9016 O   0  0  0  0  0  0
  -26.5589  -34.8932   22.4724 O   0  0  0  0  0  0
  -23.5562  -32.1861   23.7911 O   0  0  0  0  0  0
  -25.6942  -18.5298   21.7123 C   0  0  0  0  0  0
  -27.1453  -18.0407   21.4566 C   0  0  0  0  0  0
  -26.6868  -20.3793   21.9166 C   0  0  0  0  0  0
  -22.3062  -22.4593   20.9854 C   0  0  0  0  0  0
  -27.9849  -21.6782   23.3976 C   0  0  0  0  0  0
  -21.2453  -27.4442   21.1761 C   0  0  0  0  0  0
  -23.9559  -21.2048   22.7213 C   0  0  0  0  0  0
  -20.3846  -25.4928   23.2292 C   0  0  0  0  0  0
  -23.1226  -27.1410   20.4529 C   0  0  0  0  0  0
  -22.7354  -22.8365   22.4175 C   0  0  2  0  0  0
  -25.3511  -20.0404   22.0244 N   0  0  0  0  0  0
  -27.6188  -19.3582   21.5778 N   0  3  0  0  0  0
  -28.0768  -16.5023   21.1803 N   0  0  0  0  0  0
  -21.3363  -23.8027   23.2045 N   0  3  0  0  0  0
  -27.1210  -21.6420   22.2531 O   0  0  0  0  0  0
  -31.1780  -13.7635   19.3200 H   0  0  0  0  0  0
  -30.6607  -12.4127   20.2698 H   0  0  0  0  0  0
  -30.0862  -11.9043   17.9044 H   0  0  0  0  0  0
  -29.4527  -13.5017   17.6628 H   0  0  0  0  0  0
  -28.1569  -11.2376   19.1938 H   0  0  0  0  0  0
  -27.4664  -12.1419   17.8701 H   0  0  0  0  0  0
  -27.3770  -14.1441   19.2579 H   0  0  0  0  0  0
  -28.7510  -12.3612   21.3948 H   0  0  0  0  0  0
  -27.8845  -13.8323   21.8576 H   0  0  0  0  0  0
  -25.2539   -9.5641   22.4778 H   0  0  0  0  0  0
  -23.9923   -7.4466   22.7456 H   0  0  0  0  0  0
  -21.0623   -8.8477   19.8962 H   0  0  0  0  0  0
  -22.3325  -10.9479   19.6219 H   0  0  0  0  0  0
  -21.1916   -7.6092   23.9706 H   0  0  0  0  0  0
  -21.1466   -6.0490   25.9097 H   0  0  0  0  0  0
  -22.0638   -2.7562   23.2886 H   0  0  0  0  0  0
  -22.3627  -11.9775   22.5021 H   0  0  0  0  0  0
  -21.0738  -13.1261   22.2945 H   0  0  0  0  0  0
  -24.4919  -15.7088   20.4123 H   0  0  0  0  0  0
  -26.0925  -15.6227   19.8952 H   0  0  0  0  0  0
  -26.7361  -32.5520   23.1399 H   0  0  0  0  0  0
  -25.0133  -33.9965   25.0597 H   0  0  0  0  0  0
  -22.6259  -31.2833   21.6617 H   0  0  0  0  0  0
  -23.3786  -35.9678   23.3262 H   0  0  0  0  0  0
  -24.3575  -36.8999   22.2028 H   0  0  0  0  0  0
  -23.7181  -37.6538   23.6616 H   0  0  0  0  0  0
  -26.2109  -31.6378   20.7501 H   0  0  0  0  0  0
  -26.8131  -30.7357   22.1074 H   0  0  0  0  0  0
  -27.5004  -28.4199   21.6592 H   0  0  0  0  0  0
  -25.7626  -26.3910   18.4192 H   0  0  0  0  0  0
  -24.2975  -28.2689   17.9752 H   0  0  0  0  0  0
  -23.5985  -31.0404   19.5165 H   0  0  0  0  0  0
  -22.6842  -29.6107   19.7754 H   0  0  0  0  0  0
  -25.1278  -36.2145   25.0804 H   0  0  0  0  0  0
  -21.5955  -27.8503   24.5732 H   0  0  0  0  0  0
  -22.6409  -25.6652   23.5419 H   0  0  0  0  0  0
  -23.4138  -26.3069   22.4940 H   0  0  0  0  0  0
  -20.3863  -24.2814   21.1374 H   0  0  0  0  0  0
  -21.0557  -25.2946   20.0179 H   0  0  0  0  0  0
  -18.7266  -26.7095   20.3851 H   0  0  0  0  0  0
  -18.2245  -25.5678   21.5076 H   0  0  0  0  0  0
  -20.0054  -30.0866   24.5517 H   0  0  0  0  0  0
  -17.7478  -31.0292   24.5072 H   0  0  0  0  0  0
  -15.9398  -29.7521   23.3130 H   0  0  0  0  0  0
  -16.5330  -27.7088   22.0549 H   0  0  0  0  0  0
  -24.5879  -30.7127   25.7997 H   0  0  0  0  0  0
  -24.8810  -32.2982   26.5063 H   0  0  0  0  0  0
  -25.7936  -30.9037   27.0517 H   0  0  0  0  0  0
  -26.2780  -29.6864   24.1507 H   0  0  0  0  0  0
  -27.3745  -29.7228   25.5075 H   0  0  0  0  0  0
  -27.8807  -30.4187   23.9877 H   0  0  0  0  0  0
  -27.2717  -33.3642   26.2379 H   0  0  0  0  0  0
  -28.3883  -32.6884   25.0589 H   0  0  0  0  0  0
  -28.0739  -31.8432   26.5686 H   0  0  0  0  0  0
  -28.2619  -38.0148   24.7579 H   0  0  0  0  0  0
  -28.1109  -36.2684   24.6186 H   0  0  0  0  0  0
  -27.2294  -37.1373   25.8833 H   0  0  0  0  0  0
  -21.1124  -29.7871   22.6180 H   0  0  0  0  0  0
  -26.0246  -38.2961   24.1421 H   0  0  0  0  0  0
  -24.8352  -17.8695   21.7169 H   0  0  0  0  0  0
  -22.8624  -23.0252   20.2421 H   0  0  0  0  0  0
  -21.2460  -22.5433   20.7895 H   0  0  0  0  0  0
  -22.5006  -21.4060   20.7834 H   0  0  0  0  0  0
  -28.0793  -20.7199   23.9126 H   0  0  0  0  0  0
  -27.6192  -22.3890   24.1395 H   0  0  0  0  0  0
  -28.9825  -22.0236   23.1210 H   0  0  0  0  0  0
  -20.8552  -28.4539   21.1352 H   0  0  0  0  0  0
  -20.7685  -27.3857   20.1883 H   0  0  0  0  0  0
  -23.2676  -20.4697   23.1269 H   0  0  0  0  0  0
  -24.4575  -21.5540   23.6211 H   0  0  0  0  0  0
  -19.3325  -25.2017   23.3350 H   0  0  0  0  0  0
  -20.5041  -25.8144   24.2688 H   0  0  0  0  0  0
  -22.9632  -27.4853   19.4428 H   0  0  0  0  0  0
  -23.0491  -26.0846   20.1858 H   0  0  0  0  0  0
  -23.4781  -23.6317   22.3447 H   0  0  0  0  0  0
  -28.6014  -19.5536   21.4741 H   0  0  0  0  0  0
  -27.4243  -15.7834   21.4721 H   0  0  0  0  0  0
  -20.5717  -23.2388   22.8708 H   0  0  0  0  0  0
  -21.3707  -23.5436   24.1784 H   0  0  0  0  0  0
  1 25  1  0  0  0
  1 30  2  0  0  0
  1 83  1  0  0  0
  2  3  1  0  0  0
  2 25  1  0  0  0
  2 86  1  0  0  0
  2 87  1  0  0  0
  3  4  1  0  0  0
  3 88  1  0  0  0
  3 89  1  0  0  0
  4  5  1  0  0  0
  4 90  1  0  0  0
  4 91  1  0  0  0
  5  6  1  0  0  0
  5 26  1  0  0  0
  5 92  1  0  0  0
  6 25  1  0  0  0
  6 93  1  0  0  0
  6 94  1  0  0  0
  7  8  2  0  0  0
  7 26  1  0  0  0
  7 29  1  0  0  0
  8  9  1  0  0  0
  8 22  1  0  0  0
  9 10  1  0  0  0
  9 27  2  0  0  0
 10 11  2  0  0  0
 10 15  1  0  0  0
 11 12  1  0  0  0
 11 95  1  0  0  0
 12 13  2  0  0  0
 12 96  1  0  0  0
 13 14  1  0  0  0
 13 31  1  0  0  0
 14 15  2  0  0  0
 14 97  1  0  0  0
 15 98  1  0  0  0
 16 17  2  0  0  0
 16 21  1  0  0  0
 16 31  1  0  0  0
 17 18  1  0  0  0
 17 99  1  0  0  0
 18 19  2  0  0  0
 18100  1  0  0  0
 19 20  1  0  0  0
 19 24  1  0  0  0
 20 21  2  0  0  0
 20101  1  0  0  0
 21 23  1  0  0  0
 22 28  1  0  0  0
 22 32  2  0  0  0
 26 27  1  0  0  0
 28102  1  0  0  0
 28103  1  0  0  0
 29104  1  0  0  0
 29105  1  0  0  0
 33 34  1  0  0  0
 33 66  1  0  0  0
 33 70  2  0  0  0
 34 36  1  0  0  0
 34 59  1  0  0  0
 34106  1  0  0  0
 35 44  2  0  0  0
 35 45  1  0  0  0
 35 68  1  0  0  0
 36 56  1  0  0  0
 36107  1  0  0  0
 37 39  1  0  0  0
 37 47  1  0  0  0
 37 66  1  0  0  0
 37108  1  0  0  0
 38 43  2  0  0  0
 38 46  1  0  0  0
 38 47  1  0  0  0
 39 64  1  0  0  0
 39 67  2  0  0  0
 40 52  1  0  0  0
 40 53  2  0  0  0
 40 58  1  0  0  0
 41109  1  0  0  0
 41110  1  0  0  0
 41111  1  0  0  0
 41 48  1  0  0  0
 42 43  1  0  0  0
 42 66  1  0  0  0
 42112  1  0  0  0
 42113  1  0  0  0
 43 44  1  0  0  0
 44114  1  0  0  0
 45 46  2  0  0  0
 45115  1  0  0  0
 46116  1  0  0  0
 47117  1  0  0  0
 47118  1  0  0  0
 48 56  1  0  0  0
 48 65  1  0  0  0
 48119  1  0  0  0
 49 50  1  0  0  0
 49 53  1  0  0  0
 49 64  1  0  0  0
 49120  1  0  0  0
 50 51  1  0  0  0
 50121  1  0  0  0
 50122  1  0  0  0
 51 52  1  0  0  0
 51123  1  0  0  0
 51124  1  0  0  0
 52125  1  0  0  0
 52126  1  0  0  0
 53 54  1  0  0  0
 54 55  2  0  0  0
 54127  1  0  0  0
 55 57  1  0  0  0
 55128  1  0  0  0
 56 69  2  0  0  0
 57 58  2  0  0  0
 57129  1  0  0  0
 58130  1  0  0  0
 59 60  1  0  0  0
 59 61  1  0  0  0
 59 62  1  0  0  0
 60131  1  0  0  0
 60132  1  0  0  0
 60133  1  0  0  0
 61134  1  0  0  0
 61135  1  0  0  0
 61136  1  0  0  0
 62137  1  0  0  0
 62138  1  0  0  0
 62139  1  0  0  0
 63 65  1  0  0  0
 63140  1  0  0  0
 63141  1  0  0  0
 63142  1  0  0  0
 64143  1  0  0  0
 65144  1  0  0  0
 68 79  1  0  0  0
 71 72  2  0  0  0
 71 81  1  0  0  0
 71145  1  0  0  0
 72 82  1  0  0  0
 72 83  1  0  0  0
 73 81  1  0  0  0
 73 82  2  0  0  0
 73 85  1  0  0  0
 74146  1  0  0  0
 74147  1  0  0  0
 74148  1  0  0  0
 74 80  1  0  0  0
 75 85  1  0  0  0
 75149  1  0  0  0
 75150  1  0  0  0
 75151  1  0  0  0
 76 78  1  0  0  0
 76 79  1  0  0  0
 76152  1  0  0  0
 76153  1  0  0  0
 77 80  1  0  0  0
 77 81  1  0  0  0
 77154  1  0  0  0
 77155  1  0  0  0
 78 84  1  0  0  0
 78156  1  0  0  0
 78157  1  0  0  0
 79158  1  0  0  0
 79159  1  0  0  0
 80 84  1  0  0  0
 80160  1  0  0  0
 82161  1  0  0  0
 83162  1  0  0  0
 84163  1  0  0  0
 84164  1  0  0  0
M  CHG  2  82   1  84   1
M  ISO  4   1 100  68 101  79 101  83 100
M  END
> <chiral flag>
0

> <version>
0

> <s_m_source_file>
/data/baiqing/PycharmProjects/Reinvent-master-3.2/result/LINK_invent/BTK/process_docking_weight1_custom_sum_contain_oxygen_bond_distance_aromatic_linkinvent_7_9_3/rearranged_h_0103.sdf

> <i_m_source_file_index>
72

> <r_mmod_Potential_Energy-OPLS-2005>
13569.421875

> <r_mmod_Stretch_Energy-OPLS-2005>
6487.62255859375

> <r_mmod_Bend_Energy-OPLS-2005>
1417.89306640625

> <r_mmod_Torsional_Energy-OPLS-2005>
580.6787109375

> <r_mmod_Improper_Torsional_Energy-OPLS-2005>
43.4600410461426

> <r_mmod_Van_der_Waal_Energy-OPLS-2005>
1924.34838867188

> <r_mmod_Electrostatic_Energy-OPLS-2005>
-39.1290092468262

> <r_mmod_Solvation_Energy-OPLS-2005>
-865.003356933594

> <b_mmod_Minimization_Converged-OPLS-2005>
0

> <r_mmod_RMS_Derivative-OPLS-2005>
15.5587921142578

$$$$
72
                    3D
 Structure written by MMmdl.
158166  0  0  1  0            999 V2000
  -30.5880  -14.8630   20.4270 C   0  0  0  0  0  0
  -30.4298  -12.5306   19.4928 C   0  0  0  0  0  0
  -29.5141  -12.5148   18.2490 C   0  0  0  0  0  0
  -28.0441  -12.3212   18.6647 C   0  0  0  0  0  0
  -27.6317  -13.2448   19.8418 C   0  0  2  0  0  0
  -28.6746  -13.2485   20.9796 C   0  0  0  0  0  0
  -25.2465  -13.8217   20.5706 C   0  0  0  0  0  0
  -24.1777  -13.0443   20.9223 C   0  0  0  0  0  0
  -24.6389  -11.6927   20.8756 C   0  0  0  0  0  0
  -23.9076  -10.4296   21.0408 C   0  0  0  0  0  0
  -24.3626   -9.4209   21.9184 C   0  0  0  0  0  0
  -23.6298   -8.2245   22.0754 C   0  0  0  0  0  0
  -22.4280   -8.0284   21.3544 C   0  0  0  0  0  0
  -21.9919   -9.0257   20.4646 C   0  0  0  0  0  0
  -22.7249  -10.2135   20.3056 C   0  0  0  0  0  0
  -21.6855   -6.0737   22.5278 C   0  0  0  0  0  0
  -21.4016   -6.5641   23.8212 C   0  0  0  0  0  0
  -21.3660   -5.6792   24.9173 C   0  0  0  0  0  0
  -21.6044   -4.3055   24.7224 C   0  0  0  0  0  0
  -21.8820   -3.8148   23.4344 C   0  0  0  0  0  0
  -21.9193   -4.6964   22.3400 C   0  0  0  0  0  0
  -22.7798  -13.5214   21.1879 C   0  0  0  0  0  0
  -22.1661   -4.2150   21.0978 F   0  0  0  0  0  0
  -21.5629   -3.4539   25.7735 F   0  0  0  0  0  0
  -29.9594  -13.6272   20.3820 N   0  0  0  0  0  0
  -26.2891  -12.9446   20.3258 N   0  0  0  0  0  0
  -25.9322  -11.6578   20.5752 N   0  0  0  0  0  0
  -22.0451  -12.8196   22.0432 N   0  0  0  0  0  0
  -25.4132  -15.1946   20.4128 N   0  0  0  0  0  0
  -31.7903  -14.9055   20.1495 O   0  0  0  0  0  0
  -21.6644   -6.8881   21.4240 O   0  0  0  0  0  0
  -22.3479  -14.5517   20.6724 O   0  0  0  0  0  0
  -24.6389  -31.8477   23.1911 C   0  0  0  0  0  0
  -25.9180  -32.4715   23.8289 C   0  0  1  0  0  0
  -27.2165  -27.1811   20.1441 C   0  0  0  0  0  0
  -25.5944  -33.8519   24.2208 N   0  0  0  0  0  0
  -23.4396  -30.4682   21.5359 C   0  0  2  0  0  0
  -24.8878  -28.9017   20.1090 C   0  0  0  0  0  0
  -22.7540  -29.4566   22.4876 C   0  0  0  0  0  0
  -18.0299  -28.1395   22.8481 C   0  0  0  0  0  0
  -24.1489  -36.7263   23.2642 C   0  0  0  0  0  0
  -25.9920  -30.7360   21.3824 C   0  0  0  0  0  0
  -26.0632  -29.3516   20.7236 C   0  0  0  0  0  0
  -27.2293  -28.5063   20.7248 C   0  0  0  0  0  0
  -26.0166  -26.8195   19.4935 C   0  0  0  0  0  0
  -24.8750  -27.6478   19.4796 C   0  0  0  0  0  0
  -23.6626  -29.7984   20.1540 C   0  0  0  0  0  0
  -25.4119  -36.3045   24.0320 C   0  0  1  0  0  0
  -20.5908  -28.3713   23.1250 C   0  0  2  0  0  0
  -20.6786  -26.9422   22.5408 C   0  0  0  0  0  0
  -19.5763  -26.6382   21.5214 C   0  0  0  0  0  0
  -18.1941  -26.7936   22.1621 C   0  0  0  0  0  0
  -19.1554  -28.8872   23.2860 C   0  0  0  0  0  0
  -18.9475  -30.1471   23.8881 C   0  0  0  0  0  0
  -17.6473  -30.6594   24.0562 C   0  0  0  0  0  0
  -25.9067  -34.9419   23.5071 C   0  0  0  0  0  0
  -16.5363  -29.9089   23.6335 C   0  0  0  0  0  0
  -16.7284  -28.6506   23.0358 C   0  0  0  0  0  0
  -26.4515  -31.6571   25.0715 C   0  0  0  0  0  0
  -25.3710  -31.3752   26.1418 C   0  0  0  0  0  0
  -27.0377  -30.2975   24.6266 C   0  0  0  0  0  0
  -27.6052  -32.4332   25.7499 C   0  0  0  0  0  0
  -27.5574  -37.1790   24.8467 C   0  0  0  0  0  0
  -21.4236  -29.3045   22.3625 N   0  0  0  0  0  0
  -26.4285  -37.3755   23.9410 N   0  0  0  0  0  0
  -24.7098  -31.0376   22.0920 N   0  0  0  0  0  0
  -23.4205  -28.8116   23.3010 O   0  0  0  0  0  0
  -28.2859  -26.2318   20.2173 O   0  0  0  0  0  0
  -26.5653  -34.8912   22.4650 O   0  0  0  0  0  0
  -23.5519  -32.1331   23.7161 O   0  0  0  0  0  0
  -28.9624  -19.6009   21.4007 C   0  0  0  0  0  0
  -29.9846  -19.9612   19.3225 C   0  0  0  0  0  0
  -29.6920  -18.9905   20.3348 C   0  0  0  0  0  0
  -28.6460  -21.0224   21.4382 C   0  0  0  0  0  0
  -29.0594  -21.9243   20.3927 C   0  0  0  0  0  0
  -28.8759  -21.6734   23.8705 C   0  0  0  0  0  0
  -26.6517  -20.7942   23.0114 C   0  0  0  0  0  0
  -30.4067  -17.5094   20.3231 C   0  0  0  0  0  0
  -29.1427  -23.5628   20.5155 C   0  0  0  0  0  0
  -28.0443  -24.7155   20.0603 C   0  0  0  0  0  0
  -27.9275  -21.5806   22.6668 C   0  0  0  0  0  0
  -29.6975  -21.3170   19.3451 N   0  0  0  0  0  0
  -29.8588  -16.0667   20.5529 N   0  0  0  0  0  0
  -31.4685  -12.6614   19.1862 H   0  0  0  0  0  0
  -30.3934  -11.5721   20.0132 H   0  0  0  0  0  0
  -29.8172  -11.7215   17.5643 H   0  0  0  0  0  0
  -29.6219  -13.4520   17.7007 H   0  0  0  0  0  0
  -27.9222  -11.2773   18.9560 H   0  0  0  0  0  0
  -27.3840  -12.4766   17.8104 H   0  0  0  0  0  0
  -27.6045  -14.2531   19.4277 H   0  0  0  0  0  0
  -28.7396  -12.2703   21.4580 H   0  0  0  0  0  0
  -28.3912  -13.9572   21.7594 H   0  0  0  0  0  0
  -25.2769   -9.5685   22.4762 H   0  0  0  0  0  0
  -24.0006   -7.4637   22.7474 H   0  0  0  0  0  0
  -21.0851   -8.8779   19.8951 H   0  0  0  0  0  0
  -22.3708  -10.9676   19.6168 H   0  0  0  0  0  0
  -21.2010   -7.6150   23.9715 H   0  0  0  0  0  0
  -21.1480   -6.0523   25.9076 H   0  0  0  0  0  0
  -22.0599   -2.7610   23.2843 H   0  0  0  0  0  0
  -22.4078  -11.9859   22.4816 H   0  0  0  0  0  0
  -21.1068  -13.1212   22.2647 H   0  0  0  0  0  0
  -24.6434  -15.8453   20.5249 H   0  0  0  0  0  0
  -26.2549  -15.6359   20.0657 H   0  0  0  0  0  0
  -26.7243  -32.5334   23.1020 H   0  0  0  0  0  0
  -25.0076  -33.9645   25.0345 H   0  0  0  0  0  0
  -22.7402  -31.2930   21.3841 H   0  0  0  0  0  0
  -23.3757  -35.9588   23.3296 H   0  0  0  0  0  0
  -24.3573  -36.8900   22.2058 H   0  0  0  0  0  0
  -23.7240  -37.6456   23.6681 H   0  0  0  0  0  0
  -26.1427  -31.4927   20.6113 H   0  0  0  0  0  0
  -26.8647  -30.7847   22.0221 H   0  0  0  0  0  0
  -28.1256  -28.8444   21.2257 H   0  0  0  0  0  0
  -25.9305  -25.8597   19.0068 H   0  0  0  0  0  0
  -23.9765  -27.2994   18.9888 H   0  0  0  0  0  0
  -23.7944  -30.5732   19.3979 H   0  0  0  0  0  0
  -22.7786  -29.2371   19.8456 H   0  0  0  0  0  0
  -25.1307  -36.1875   25.0813 H   0  0  0  0  0  0
  -20.9999  -28.3301   24.1371 H   0  0  0  0  0  0
  -20.5681  -26.2325   23.3621 H   0  0  0  0  0  0
  -21.6655  -26.7437   22.1207 H   0  0  0  0  0  0
  -19.6925  -25.6288   21.1255 H   0  0  0  0  0  0
  -19.6705  -27.3185   20.6737 H   0  0  0  0  0  0
  -17.4212  -26.6682   21.4021 H   0  0  0  0  0  0
  -18.0339  -26.0083   22.9020 H   0  0  0  0  0  0
  -19.7952  -30.7292   24.2240 H   0  0  0  0  0  0
  -17.5029  -31.6273   24.5169 H   0  0  0  0  0  0
  -15.5364  -30.2991   23.7671 H   0  0  0  0  0  0
  -15.8681  -28.0823   22.7085 H   0  0  0  0  0  0
  -24.5905  -30.7077   25.7748 H   0  0  0  0  0  0
  -24.8880  -32.2931   26.4778 H   0  0  0  0  0  0
  -25.8004  -30.8981   27.0237 H   0  0  0  0  0  0
  -26.2987  -29.6706   24.1263 H   0  0  0  0  0  0
  -27.3999  -29.7260   25.4822 H   0  0  0  0  0  0
  -27.8888  -30.4224   23.9568 H   0  0  0  0  0  0
  -27.2649  -33.3653   26.2022 H   0  0  0  0  0  0
  -28.3894  -32.6857   25.0350 H   0  0  0  0  0  0
  -28.0683  -31.8493   26.5464 H   0  0  0  0  0  0
  -28.2591  -38.0087   24.7513 H   0  0  0  0  0  0
  -28.1072  -36.2619   24.6294 H   0  0  0  0  0  0
  -27.2294  -37.1440   25.8871 H   0  0  0  0  0  0
  -20.9434  -29.8755   21.6812 H   0  0  0  0  0  0
  -26.0153  -38.2825   24.1413 H   0  0  0  0  0  0
  -28.7107  -18.9842   22.2509 H   0  0  0  0  0  0
  -30.5656  -19.6530   18.4657 H   0  0  0  0  0  0
  -29.7428  -22.2949   23.6431 H   0  0  0  0  0  0
  -29.2421  -20.6917   24.1723 H   0  0  0  0  0  0
  -28.3751  -22.1174   24.7316 H   0  0  0  0  0  0
  -25.9707  -20.7568   22.1604 H   0  0  0  0  0  0
  -26.1149  -21.2686   23.8337 H   0  0  0  0  0  0
  -26.8632  -19.7695   23.3163 H   0  0  0  0  0  0
  -31.2259  -17.6060   21.0370 H   0  0  0  0  0  0
  -30.9113  -17.4527   19.3572 H   0  0  0  0  0  0
  -30.0630  -23.8278   19.9953 H   0  0  0  0  0  0
  -29.3801  -23.7674   21.5586 H   0  0  0  0  0  0
  -27.1206  -24.4845   20.5918 H   0  0  0  0  0  0
  -27.8274  -24.5431   19.0059 H   0  0  0  0  0  0
  -27.5921  -22.5924   22.4377 H   0  0  0  0  0  0
  -28.8709  -15.9741   20.7342 H   0  0  0  0  0  0
  1 25  1  0  0  0
  1 30  2  0  0  0
  1 83  1  0  0  0
  2  3  1  0  0  0
  2 25  1  0  0  0
  2 84  1  0  0  0
  2 85  1  0  0  0
  3  4  1  0  0  0
  3 86  1  0  0  0
  3 87  1  0  0  0
  4  5  1  0  0  0
  4 88  1  0  0  0
  4 89  1  0  0  0
  5  6  1  0  0  0
  5 26  1  0  0  0
  5 90  1  0  0  0
  6 25  1  0  0  0
  6 91  1  0  0  0
  6 92  1  0  0  0
  7  8  2  0  0  0
  7 26  1  0  0  0
  7 29  1  0  0  0
  8  9  1  0  0  0
  8 22  1  0  0  0
  9 10  1  0  0  0
  9 27  2  0  0  0
 10 11  2  0  0  0
 10 15  1  0  0  0
 11 12  1  0  0  0
 11 93  1  0  0  0
 12 13  2  0  0  0
 12 94  1  0  0  0
 13 14  1  0  0  0
 13 31  1  0  0  0
 14 15  2  0  0  0
 14 95  1  0  0  0
 15 96  1  0  0  0
 16 17  2  0  0  0
 16 21  1  0  0  0
 16 31  1  0  0  0
 17 18  1  0  0  0
 17 97  1  0  0  0
 18 19  2  0  0  0
 18 98  1  0  0  0
 19 20  1  0  0  0
 19 24  1  0  0  0
 20 21  2  0  0  0
 20 99  1  0  0  0
 21 23  1  0  0  0
 22 28  1  0  0  0
 22 32  2  0  0  0
 26 27  1  0  0  0
 28100  1  0  0  0
 28101  1  0  0  0
 29102  1  0  0  0
 29103  1  0  0  0
 33 34  1  0  0  0
 33 66  1  0  0  0
 33 70  2  0  0  0
 34 36  1  0  0  0
 34 59  1  0  0  0
 34104  1  0  0  0
 35 44  2  0  0  0
 35 45  1  0  0  0
 35 68  1  0  0  0
 36 56  1  0  0  0
 36105  1  0  0  0
 37 39  1  0  0  0
 37 47  1  0  0  0
 37 66  1  0  0  0
 37106  1  0  0  0
 38 43  2  0  0  0
 38 46  1  0  0  0
 38 47  1  0  0  0
 39 64  1  0  0  0
 39 67  2  0  0  0
 40 52  1  0  0  0
 40 53  2  0  0  0
 40 58  1  0  0  0
 41107  1  0  0  0
 41108  1  0  0  0
 41109  1  0  0  0
 41 48  1  0  0  0
 42 43  1  0  0  0
 42 66  1  0  0  0
 42110  1  0  0  0
 42111  1  0  0  0
 43 44  1  0  0  0
 44112  1  0  0  0
 45 46  2  0  0  0
 45113  1  0  0  0
 46114  1  0  0  0
 47115  1  0  0  0
 47116  1  0  0  0
 48 56  1  0  0  0
 48 65  1  0  0  0
 48117  1  0  0  0
 49 50  1  0  0  0
 49 53  1  0  0  0
 49 64  1  0  0  0
 49118  1  0  0  0
 50 51  1  0  0  0
 50119  1  0  0  0
 50120  1  0  0  0
 51 52  1  0  0  0
 51121  1  0  0  0
 51122  1  0  0  0
 52123  1  0  0  0
 52124  1  0  0  0
 53 54  1  0  0  0
 54 55  2  0  0  0
 54125  1  0  0  0
 55 57  1  0  0  0
 55126  1  0  0  0
 56 69  2  0  0  0
 57 58  2  0  0  0
 57127  1  0  0  0
 58128  1  0  0  0
 59 60  1  0  0  0
 59 61  1  0  0  0
 59 62  1  0  0  0
 60129  1  0  0  0
 60130  1  0  0  0
 60131  1  0  0  0
 61132  1  0  0  0
 61133  1  0  0  0
 61134  1  0  0  0
 62135  1  0  0  0
 62136  1  0  0  0
 62137  1  0  0  0
 63 65  1  0  0  0
 63138  1  0  0  0
 63139  1  0  0  0
 63140  1  0  0  0
 64141  1  0  0  0
 65142  1  0  0  0
 68 80  1  0  0  0
 71 73  2  0  0  0
 71 74  1  0  0  0
 71143  1  0  0  0
 72 73  1  0  0  0
 72 82  2  0  0  0
 72144  1  0  0  0
 73 78  1  0  0  0
 74 75  2  0  0  0
 74 81  1  0  0  0
 75 79  1  0  0  0
 75 82  1  0  0  0
 76145  1  0  0  0
 76146  1  0  0  0
 76147  1  0  0  0
 76 81  1  0  0  0
 77 81  1  0  0  0
 77148  1  0  0  0
 77149  1  0  0  0
 77150  1  0  0  0
 78 83  1  0  0  0
 78151  1  0  0  0
 78152  1  0  0  0
 79 80  1  0  0  0
 79153  1  0  0  0
 79154  1  0  0  0
 80155  1  0  0  0
 80156  1  0  0  0
 81157  1  0  0  0
 83158  1  0  0  0
M  ISO  4   1 100  68 101  80 101  83 100
M  END
> <chiral flag>
0

> <version>
0

> <s_m_source_file>
/data/baiqing/PycharmProjects/Reinvent-master-3.2/result/LINK_invent/BTK/process_docking_weight1_custom_sum_contain_oxygen_bond_distance_aromatic_linkinvent_7_9_3/rearranged_h_0103.sdf

> <i_m_source_file_index>
73

> <r_mmod_Potential_Energy-OPLS-2005>
243.229110717773

> <r_mmod_Stretch_Energy-OPLS-2005>
193.575973510742

> <r_mmod_Bend_Energy-OPLS-2005>
242.8193359375

> <r_mmod_Torsional_Energy-OPLS-2005>
213.889144897461

> <r_mmod_Improper_Torsional_Energy-OPLS-2005>
8.94568252563477

> <r_mmod_Van_der_Waal_Energy-OPLS-2005>
136.269226074219

> <r_mmod_Electrostatic_Energy-OPLS-2005>
-474.06884765625

> <r_mmod_Solvation_Energy-OPLS-2005>
-223.194351196289

> <b_mmod_Minimization_Converged-OPLS-2005>
0

> <r_mmod_RMS_Derivative-OPLS-2005>
0.474618673324585

$$$$
73
                    3D
 Structure written by MMmdl.
143150  0  0  1  0            999 V2000
  -30.1595  -16.0078   20.3078 C   0  0  0  0  0  0
  -30.3940  -13.3746   19.5173 C   0  0  0  0  0  0
  -29.5601  -12.7499   18.3502 C   0  0  0  0  0  0
  -28.1678  -12.3104   18.8210 C   0  0  0  0  0  0
  -27.5839  -13.3436   19.8037 C   0  0  2  0  0  0
  -28.5800  -13.8372   20.8884 C   0  0  0  0  0  0
  -25.2277  -13.8329   20.5855 C   0  0  0  0  0  0
  -24.1700  -13.0432   20.9315 C   0  0  0  0  0  0
  -24.6452  -11.6959   20.8763 C   0  0  0  0  0  0
  -23.9157  -10.4294   21.0383 C   0  0  0  0  0  0
  -24.3677   -9.4206   21.9172 C   0  0  0  0  0  0
  -23.6327   -8.2252   22.0752 C   0  0  0  0  0  0
  -22.4306   -8.0294   21.3544 C   0  0  0  0  0  0
  -21.9961   -9.0272   20.4641 C   0  0  0  0  0  0
  -22.7316  -10.2138   20.3041 C   0  0  0  0  0  0
  -21.6863   -6.0747   22.5278 C   0  0  0  0  0  0
  -21.4022   -6.5646   23.8213 C   0  0  0  0  0  0
  -21.3662   -5.6796   24.9174 C   0  0  0  0  0  0
  -21.6043   -4.3059   24.7222 C   0  0  0  0  0  0
  -21.8818   -3.8153   23.4342 C   0  0  0  0  0  0
  -21.9195   -4.6972   22.3400 C   0  0  0  0  0  0
  -22.7702  -13.5134   21.1935 C   0  0  0  0  0  0
  -22.1662   -4.2157   21.0977 F   0  0  0  0  0  0
  -21.5627   -3.4540   25.7734 F   0  0  0  0  0  0
  -29.6764  -14.5833   20.1903 N   0  0  0  0  0  0
  -26.2771  -12.9730   20.3294 N   0  0  0  0  0  0
  -25.9414  -11.6759   20.5684 N   0  0  0  0  0  0
  -22.0374  -12.8103   22.0484 N   0  0  0  0  0  0
  -25.3817  -15.2078   20.4303 N   0  0  0  0  0  0
  -31.4071  -15.8753   20.2838 O   0  0  0  0  0  0
  -21.6655   -6.8898   21.4244 O   0  0  0  0  0  0
  -22.3366  -14.5428   20.6768 O   0  0  0  0  0  0
  -24.7087  -31.7703   23.1300 C   0  0  0  0  0  0
  -25.9545  -32.4322   23.7943 C   0  0  1  0  0  0
  -27.2364  -26.4390   20.2497 C   0  0  0  0  0  0
  -25.6015  -33.8161   24.1804 N   0  0  0  0  0  0
  -23.5466  -30.3606   21.4913 C   0  0  2  0  0  0
  -25.0045  -28.6425   20.1353 C   0  0  0  0  0  0
  -22.7877  -29.4163   22.4653 C   0  0  0  0  0  0
  -18.0355  -28.1436   22.8443 C   0  0  0  0  0  0
  -24.1496  -36.7088   23.2660 C   0  0  0  0  0  0
  -26.1381  -30.4173   21.4331 C   0  0  0  0  0  0
  -26.2005  -28.9507   20.7935 C   0  0  0  0  0  0
  -27.2915  -27.8889   20.8029 C   0  0  0  0  0  0
  -26.0001  -26.4054   19.5348 C   0  0  0  0  0  0
  -24.9584  -27.3976   19.4806 C   0  0  0  0  0  0
  -23.8152  -29.6318   20.1400 C   0  0  0  0  0  0
  -25.4156  -36.2810   24.0263 C   0  0  1  0  0  0
  -20.6003  -28.3808   23.1096 C   0  0  2  0  0  0
  -20.6810  -26.9444   22.5407 C   0  0  0  0  0  0
  -19.5789  -26.6365   21.5220 C   0  0  0  0  0  0
  -18.1971  -26.7958   22.1617 C   0  0  0  0  0  0
  -19.1628  -28.8952   23.2742 C   0  0  0  0  0  0
  -18.9529  -30.1529   23.8798 C   0  0  0  0  0  0
  -17.6517  -30.6612   24.0545 C   0  0  0  0  0  0
  -25.9154  -34.9207   23.4890 C   0  0  0  0  0  0
  -16.5404  -29.9089   23.6358 C   0  0  0  0  0  0
  -16.7334  -28.6513   23.0373 C   0  0  0  0  0  0
  -26.4636  -31.6465   25.0673 C   0  0  0  0  0  0
  -25.3631  -31.3860   26.1239 C   0  0  0  0  0  0
  -27.0607  -30.2775   24.6759 C   0  0  0  0  0  0
  -27.6037  -32.4386   25.7504 C   0  0  0  0  0  0
  -27.5555  -37.1700   24.8466 C   0  0  0  0  0  0
  -21.4502  -29.3007   22.3391 N   0  0  0  0  0  0
  -26.4259  -37.3599   23.9408 N   0  0  0  0  0  0
  -24.8246  -30.8890   22.0700 N   0  0  0  0  0  0
  -23.4198  -28.7805   23.3117 O   0  0  0  0  0  0
  -28.1984  -25.1242   20.2208 O   0  0  0  0  0  0
  -26.5829  -34.8836   22.4532 O   0  0  0  0  0  0
  -23.6052  -32.0901   23.6087 O   0  0  0  0  0  0
  -29.7499  -21.5385   18.8335 C   0  0  0  0  0  0
  -29.3522  -19.3570   20.6037 C   0  0  0  0  0  0
  -28.2246  -23.2484   20.5237 C   0  0  0  0  0  0
  -28.7682  -21.2821   19.9812 C   0  0  1  0  0  0
  -29.4058  -17.4732   20.2728 N   0  0  0  0  0  0
  -31.3447  -13.7072   19.0991 H   0  0  0  0  0  0
  -30.6677  -12.6134   20.2501 H   0  0  0  0  0  0
  -30.0924  -11.9081   17.9052 H   0  0  0  0  0  0
  -29.4508  -13.4943   17.5600 H   0  0  0  0  0  0
  -28.2678  -11.3489   19.3261 H   0  0  0  0  0  0
  -27.5011  -12.1502   17.9727 H   0  0  0  0  0  0
  -27.3924  -14.2104   19.1690 H   0  0  0  0  0  0
  -28.9371  -13.0212   21.5186 H   0  0  0  0  0  0
  -28.0781  -14.5348   21.5604 H   0  0  0  0  0  0
  -25.2815   -9.5675   22.4762 H   0  0  0  0  0  0
  -24.0022   -7.4645   22.7482 H   0  0  0  0  0  0
  -21.0890   -8.8806   19.8948 H   0  0  0  0  0  0
  -22.3776  -10.9681   19.6153 H   0  0  0  0  0  0
  -21.2017   -7.6155   23.9719 H   0  0  0  0  0  0
  -21.1483   -6.0525   25.9077 H   0  0  0  0  0  0
  -22.0593   -2.7614   23.2841 H   0  0  0  0  0  0
  -22.4031  -11.9789   22.4887 H   0  0  0  0  0  0
  -21.0973  -13.1083   22.2676 H   0  0  0  0  0  0
  -24.6090  -15.8546   20.5462 H   0  0  0  0  0  0
  -26.2275  -15.6543   20.1020 H   0  0  0  0  0  0
  -26.7653  -32.4733   23.0671 H   0  0  0  0  0  0
  -25.0035  -33.9155   24.9873 H   0  0  0  0  0  0
  -22.8873  -31.2044   21.2779 H   0  0  0  0  0  0
  -23.3784  -35.9388   23.3250 H   0  0  0  0  0  0
  -24.3554  -36.8838   22.2088 H   0  0  0  0  0  0
  -23.7232  -37.6228   23.6806 H   0  0  0  0  0  0
  -26.3659  -31.1218   20.6322 H   0  0  0  0  0  0
  -26.9803  -30.4976   22.1074 H   0  0  0  0  0  0
  -28.1971  -28.1519   21.3311 H   0  0  0  0  0  0
  -25.7930  -25.4854   19.0064 H   0  0  0  0  0  0
  -24.0645  -27.1473   18.9258 H   0  0  0  0  0  0
  -24.0157  -30.3791   19.3715 H   0  0  0  0  0  0
  -22.9142  -29.1130   19.8083 H   0  0  0  0  0  0
  -25.1378  -36.1535   25.0751 H   0  0  0  0  0  0
  -21.0074  -28.3450   24.1228 H   0  0  0  0  0  0
  -20.5655  -26.2438   23.3691 H   0  0  0  0  0  0
  -21.6669  -26.7350   22.1237 H   0  0  0  0  0  0
  -19.6941  -25.6250   21.1313 H   0  0  0  0  0  0
  -19.6739  -27.3122   20.6708 H   0  0  0  0  0  0
  -17.4242  -26.6702   21.4018 H   0  0  0  0  0  0
  -18.0350  -26.0124   22.9034 H   0  0  0  0  0  0
  -19.8005  -30.7368   24.2124 H   0  0  0  0  0  0
  -17.5067  -31.6282   24.5167 H   0  0  0  0  0  0
  -15.5401  -30.2960   23.7741 H   0  0  0  0  0  0
  -15.8734  -28.0799   22.7146 H   0  0  0  0  0  0
  -24.5839  -30.7198   25.7519 H   0  0  0  0  0  0
  -24.8804  -32.3110   26.4403 H   0  0  0  0  0  0
  -25.7738  -30.9176   27.0192 H   0  0  0  0  0  0
  -26.3371  -29.6310   24.1786 H   0  0  0  0  0  0
  -27.3966  -29.7327   25.5592 H   0  0  0  0  0  0
  -27.9375  -30.3843   24.0373 H   0  0  0  0  0  0
  -27.2549  -33.3792   26.1781 H   0  0  0  0  0  0
  -28.3996  -32.6781   25.0440 H   0  0  0  0  0  0
  -28.0540  -31.8721   26.5665 H   0  0  0  0  0  0
  -28.2524  -38.0038   24.7516 H   0  0  0  0  0  0
  -28.1097  -36.2557   24.6292 H   0  0  0  0  0  0
  -27.2268  -37.1327   25.8867 H   0  0  0  0  0  0
  -20.9869  -29.8620   21.6380 H   0  0  0  0  0  0
  -26.0063  -38.2634   24.1430 H   0  0  0  0  0  0
  -30.7270  -21.8328   19.2172 H   0  0  0  0  0  0
  -29.3942  -22.3364   18.1806 H   0  0  0  0  0  0
  -29.8850  -20.6463   18.2213 H   0  0  0  0  0  0
  -30.3903  -19.5262   20.8911 H   0  0  0  0  0  0
  -28.8376  -19.3180   21.5641 H   0  0  0  0  0  0
  -28.7189  -23.2891   21.4943 H   0  0  0  0  0  0
  -27.1784  -23.1028   20.7930 H   0  0  0  0  0  0
  -27.8342  -21.0080   19.4895 H   0  0  0  0  0  0
  -28.4457  -17.2186   20.0831 H   0  0  0  0  0  0
  1 25  1  0  0  0
  1 30  2  0  0  0
  1 75  1  0  0  0
  2  3  1  0  0  0
  2 25  1  0  0  0
  2 76  1  0  0  0
  2 77  1  0  0  0
  3  4  1  0  0  0
  3 78  1  0  0  0
  3 79  1  0  0  0
  4  5  1  0  0  0
  4 80  1  0  0  0
  4 81  1  0  0  0
  5  6  1  0  0  0
  5 26  1  0  0  0
  5 82  1  0  0  0
  6 25  1  0  0  0
  6 83  1  0  0  0
  6 84  1  0  0  0
  7  8  2  0  0  0
  7 26  1  0  0  0
  7 29  1  0  0  0
  8  9  1  0  0  0
  8 22  1  0  0  0
  9 10  1  0  0  0
  9 27  2  0  0  0
 10 11  2  0  0  0
 10 15  1  0  0  0
 11 12  1  0  0  0
 11 85  1  0  0  0
 12 13  2  0  0  0
 12 86  1  0  0  0
 13 14  1  0  0  0
 13 31  1  0  0  0
 14 15  2  0  0  0
 14 87  1  0  0  0
 15 88  1  0  0  0
 16 17  2  0  0  0
 16 21  1  0  0  0
 16 31  1  0  0  0
 17 18  1  0  0  0
 17 89  1  0  0  0
 18 19  2  0  0  0
 18 90  1  0  0  0
 19 20  1  0  0  0
 19 24  1  0  0  0
 20 21  2  0  0  0
 20 91  1  0  0  0
 21 23  1  0  0  0
 22 28  1  0  0  0
 22 32  2  0  0  0
 26 27  1  0  0  0
 28 92  1  0  0  0
 28 93  1  0  0  0
 29 94  1  0  0  0
 29 95  1  0  0  0
 33 34  1  0  0  0
 33 66  1  0  0  0
 33 70  2  0  0  0
 34 36  1  0  0  0
 34 59  1  0  0  0
 34 96  1  0  0  0
 35 44  2  0  0  0
 35 45  1  0  0  0
 35 68  1  0  0  0
 36 56  1  0  0  0
 36 97  1  0  0  0
 37 39  1  0  0  0
 37 47  1  0  0  0
 37 66  1  0  0  0
 37 98  1  0  0  0
 38 43  2  0  0  0
 38 46  1  0  0  0
 38 47  1  0  0  0
 39 64  1  0  0  0
 39 67  2  0  0  0
 40 52  1  0  0  0
 40 53  2  0  0  0
 40 58  1  0  0  0
 41 99  1  0  0  0
 41100  1  0  0  0
 41101  1  0  0  0
 41 48  1  0  0  0
 42 43  1  0  0  0
 42 66  1  0  0  0
 42102  1  0  0  0
 42103  1  0  0  0
 43 44  1  0  0  0
 44104  1  0  0  0
 45 46  2  0  0  0
 45105  1  0  0  0
 46106  1  0  0  0
 47107  1  0  0  0
 47108  1  0  0  0
 48 56  1  0  0  0
 48 65  1  0  0  0
 48109  1  0  0  0
 49 50  1  0  0  0
 49 53  1  0  0  0
 49 64  1  0  0  0
 49110  1  0  0  0
 50 51  1  0  0  0
 50111  1  0  0  0
 50112  1  0  0  0
 51 52  1  0  0  0
 51113  1  0  0  0
 51114  1  0  0  0
 52115  1  0  0  0
 52116  1  0  0  0
 53 54  1  0  0  0
 54 55  2  0  0  0
 54117  1  0  0  0
 55 57  1  0  0  0
 55118  1  0  0  0
 56 69  2  0  0  0
 57 58  2  0  0  0
 57119  1  0  0  0
 58120  1  0  0  0
 59 60  1  0  0  0
 59 61  1  0  0  0
 59 62  1  0  0  0
 60121  1  0  0  0
 60122  1  0  0  0
 60123  1  0  0  0
 61124  1  0  0  0
 61125  1  0  0  0
 61126  1  0  0  0
 62127  1  0  0  0
 62128  1  0  0  0
 62129  1  0  0  0
 63 65  1  0  0  0
 63130  1  0  0  0
 63131  1  0  0  0
 63132  1  0  0  0
 64133  1  0  0  0
 65134  1  0  0  0
 68 73  1  0  0  0
 71135  1  0  0  0
 71136  1  0  0  0
 71137  1  0  0  0
 71 74  1  0  0  0
 72 74  1  0  0  0
 72 75  1  0  0  0
 72138  1  0  0  0
 72139  1  0  0  0
 73 74  1  0  0  0
 73140  1  0  0  0
 73141  1  0  0  0
 74142  1  0  0  0
 75143  1  0  0  0
M  ISO  4   1 100  68 101  73 101  75 100
M  END
> <chiral flag>
0

> <version>
0

> <s_m_source_file>
/data/baiqing/PycharmProjects/Reinvent-master-3.2/result/LINK_invent/BTK/process_docking_weight1_custom_sum_contain_oxygen_bond_distance_aromatic_linkinvent_7_9_3/rearranged_h_0103.sdf

> <i_m_source_file_index>
74

> <r_mmod_Potential_Energy-OPLS-2005>
4172.19580078125

> <r_mmod_Stretch_Energy-OPLS-2005>
1930.658203125

> <r_mmod_Bend_Energy-OPLS-2005>
901.940307617188

> <r_mmod_Torsional_Energy-OPLS-2005>
257.332458496094

> <r_mmod_Improper_Torsional_Energy-OPLS-2005>
5.03359031677246

> <r_mmod_Van_der_Waal_Energy-OPLS-2005>
112.043655395508

> <r_mmod_Electrostatic_Energy-OPLS-2005>
-353.434631347656

> <r_mmod_Solvation_Energy-OPLS-2005>
-220.922927856445

> <b_mmod_Minimization_Converged-OPLS-2005>
0

> <r_mmod_RMS_Derivative-OPLS-2005>
0.272040635347366

$$$$
74
                    3D
 Structure written by MMmdl.
177185  0  0  1  0            999 V2000
  -30.7331  -14.4974   20.5794 C   0  0  0  0  0  0
  -30.4100  -12.3239   19.4468 C   0  0  0  0  0  0
  -29.4911  -12.4983   18.2219 C   0  0  0  0  0  0
  -28.0153  -12.3519   18.6355 C   0  0  0  0  0  0
  -27.6536  -13.2120   19.8748 C   0  0  2  0  0  0
  -28.6951  -13.0466   21.0068 C   0  0  0  0  0  0
  -25.2489  -13.8166   20.5587 C   0  0  0  0  0  0
  -24.1784  -13.0421   20.9161 C   0  0  0  0  0  0
  -24.6368  -11.6903   20.8759 C   0  0  0  0  0  0
  -23.9069  -10.4280   21.0433 C   0  0  0  0  0  0
  -24.3633   -9.4209   21.9207 C   0  0  0  0  0  0
  -23.6316   -8.2237   22.0761 C   0  0  0  0  0  0
  -22.4297   -8.0280   21.3548 C   0  0  0  0  0  0
  -21.9934   -9.0246   20.4646 C   0  0  0  0  0  0
  -22.7244  -10.2125   20.3071 C   0  0  0  0  0  0
  -21.6845   -6.0757   22.5284 C   0  0  0  0  0  0
  -21.4014   -6.5658   23.8224 C   0  0  0  0  0  0
  -21.3646   -5.6791   24.9176 C   0  0  0  0  0  0
  -21.6052   -4.3063   24.7221 C   0  0  0  0  0  0
  -21.8833   -3.8160   23.4331 C   0  0  0  0  0  0
  -21.9182   -4.6987   22.3395 C   0  0  0  0  0  0
  -22.7803  -13.5205   21.1830 C   0  0  0  0  0  0
  -22.1639   -4.2181   21.0967 F   0  0  0  0  0  0
  -21.5640   -3.4541   25.7731 F   0  0  0  0  0  0
  -30.0275  -13.3350   20.4499 N   0  0  0  0  0  0
  -26.2960  -12.9364   20.3355 N   0  0  0  0  0  0
  -25.9320  -11.6529   20.5854 N   0  0  0  0  0  0
  -22.0470  -12.8178   22.0396 N   0  0  0  0  0  0
  -25.4050  -15.1875   20.3826 N   0  0  0  0  0  0
  -31.8368  -14.6471   20.0439 O   0  0  0  0  0  0
  -21.6647   -6.8894   21.4238 O   0  0  0  0  0  0
  -22.3497  -14.5517   20.6692 O   0  0  0  0  0  0
  -24.6157  -31.8659   23.2057 C   0  0  0  0  0  0
  -25.9052  -32.4807   23.8359 C   0  0  1  0  0  0
  -27.2445  -27.4159   20.0850 C   0  0  0  0  0  0
  -25.5911  -33.8609   24.2299 N   0  0  0  0  0  0
  -23.4063  -30.4850   21.5480 C   0  0  2  0  0  0
  -24.8504  -28.9474   20.1145 C   0  0  0  0  0  0
  -22.7420  -29.4632   22.4995 C   0  0  0  0  0  0
  -18.0278  -28.1394   22.8470 C   0  0  0  0  0  0
  -24.1502  -36.7302   23.2638 C   0  0  0  0  0  0
  -25.9338  -30.8250   21.3599 C   0  0  0  0  0  0
  -26.0109  -29.4575   20.7061 C   0  0  0  0  0  0
  -27.2051  -28.6979   20.6884 C   0  0  0  0  0  0
  -26.0533  -26.9192   19.5030 C   0  0  0  0  0  0
  -24.8662  -27.6768   19.5140 C   0  0  0  0  0  0
  -23.6142  -29.8162   20.1639 C   0  0  0  0  0  0
  -25.4114  -36.3096   24.0327 C   0  0  1  0  0  0
  -20.5853  -28.3666   23.1320 C   0  0  2  0  0  0
  -20.6777  -26.9404   22.5428 C   0  0  0  0  0  0
  -19.5769  -26.6387   21.5214 C   0  0  0  0  0  0
  -18.1939  -26.7938   22.1606 C   0  0  0  0  0  0
  -19.1523  -28.8846   23.2892 C   0  0  0  0  0  0
  -18.9453  -30.1449   23.8902 C   0  0  0  0  0  0
  -17.6458  -30.6595   24.0551 C   0  0  0  0  0  0
  -25.9040  -34.9466   23.5105 C   0  0  0  0  0  0
  -16.5344  -29.9092   23.6329 C   0  0  0  0  0  0
  -16.7264  -28.6517   23.0329 C   0  0  0  0  0  0
  -26.4475  -31.6590   25.0695 C   0  0  0  0  0  0
  -25.3740  -31.3682   26.1443 C   0  0  0  0  0  0
  -27.0298  -30.3038   24.6068 C   0  0  0  0  0  0
  -27.6065  -32.4286   25.7459 C   0  0  0  0  0  0
  -27.5575  -37.1803   24.8459 C   0  0  0  0  0  0
  -21.4140  -29.3020   22.3723 N   0  0  0  0  0  0
  -26.4293  -37.3783   23.9399 N   0  0  0  0  0  0
  -24.6702  -31.0739   22.0968 N   0  0  0  0  0  0
  -23.4174  -28.8176   23.3055 O   0  0  0  0  0  0
  -28.4450  -26.7196   20.1017 O   0  0  0  0  0  0
  -26.5595  -34.8911   22.4662 O   0  0  0  0  0  0
  -23.5336  -32.1426   23.7438 O   0  0  0  0  0  0
  -28.4956  -20.5798   22.2003 C   0  0  0  0  0  0
  -29.9153  -19.3615   20.6712 C   0  0  0  0  0  0
  -29.4601  -20.6005   21.1840 C   0  0  0  0  0  0
  -27.9240  -19.3730   22.6552 C   0  0  0  0  0  0
  -29.3824  -18.1146   21.1118 C   0  0  0  0  0  0
  -28.3165  -18.1348   22.0648 C   0  0  0  0  0  0
  -27.5660  -16.8597   22.4428 C   0  0  0  0  0  0
  -25.5629  -20.0591   23.2500 C   0  0  0  0  0  0
  -27.4023  -20.2529   24.9904 C   0  0  0  0  0  0
  -29.1238  -16.6147   19.1239 C   0  0  0  0  0  0
  -27.3229  -24.1065   21.2590 C   0  0  0  0  0  0
  -30.6473  -15.7477   22.5633 C   0  0  0  0  0  0
  -30.0424  -21.9493   20.7253 C   0  0  0  0  0  0
  -29.1067  -22.8784   19.8843 C   0  0  0  0  0  0
  -28.5993  -25.4159   19.4961 C   0  0  0  0  0  0
  -26.8791  -19.4642   23.7751 C   0  0  0  0  0  0
  -29.9341  -16.8297   20.4219 C   0  0  2  0  0  0
  -28.6672  -24.2438   20.5255 C   0  0  1  0  0  0
  -30.1304  -15.5530   21.1992 N   0  0  0  0  0  0
  -31.4575  -12.3942   19.1477 H   0  0  0  0  0  0
  -30.2948  -11.3234   19.8658 H   0  0  0  0  0  0
  -29.7385  -11.7576   17.4617 H   0  0  0  0  0  0
  -29.6560  -13.4751   17.7642 H   0  0  0  0  0  0
  -27.8322  -11.2968   18.8491 H   0  0  0  0  0  0
  -27.3626  -12.6079   17.8005 H   0  0  0  0  0  0
  -27.6814  -14.2491   19.5501 H   0  0  0  0  0  0
  -28.6749  -12.0297   21.4018 H   0  0  0  0  0  0
  -28.4487  -13.6946   21.8483 H   0  0  0  0  0  0
  -25.2780   -9.5723   22.4772 H   0  0  0  0  0  0
  -24.0044   -7.4621   22.7456 H   0  0  0  0  0  0
  -21.0890   -8.8761   19.8925 H   0  0  0  0  0  0
  -22.3703  -10.9681   19.6192 H   0  0  0  0  0  0
  -21.2018   -7.6163   23.9756 H   0  0  0  0  0  0
  -21.1441   -6.0506   25.9080 H   0  0  0  0  0  0
  -22.0627   -2.7631   23.2803 H   0  0  0  0  0  0
  -22.4125  -11.9867   22.4797 H   0  0  0  0  0  0
  -21.1110  -13.1209   22.2654 H   0  0  0  0  0  0
  -24.6296  -15.8299   20.4972 H   0  0  0  0  0  0
  -26.2445  -15.6400   20.0483 H   0  0  0  0  0  0
  -26.7121  -32.5519   23.1116 H   0  0  0  0  0  0
  -25.0093  -33.9791   25.0462 H   0  0  0  0  0  0
  -22.6947  -31.3011   21.4072 H   0  0  0  0  0  0
  -23.3763  -35.9644   23.3310 H   0  0  0  0  0  0
  -24.3609  -36.8911   22.2056 H   0  0  0  0  0  0
  -23.7259  -37.6507   23.6646 H   0  0  0  0  0  0
  -26.0472  -31.5906   20.5913 H   0  0  0  0  0  0
  -26.8213  -30.8794   21.9793 H   0  0  0  0  0  0
  -28.1015  -29.0940   21.1455 H   0  0  0  0  0  0
  -26.0013  -25.9442   19.0476 H   0  0  0  0  0  0
  -23.9707  -27.2716   19.0636 H   0  0  0  0  0  0
  -23.7271  -30.5919   19.4055 H   0  0  0  0  0  0
  -22.7369  -29.2388   19.8673 H   0  0  0  0  0  0
  -25.1305  -36.1944   25.0818 H   0  0  0  0  0  0
  -20.9925  -28.3243   24.1449 H   0  0  0  0  0  0
  -20.5706  -26.2263   23.3615 H   0  0  0  0  0  0
  -21.6650  -26.7494   22.1208 H   0  0  0  0  0  0
  -19.6942  -25.6303   21.1245 H   0  0  0  0  0  0
  -19.6725  -27.3193   20.6744 H   0  0  0  0  0  0
  -17.4217  -26.6666   21.4005 H   0  0  0  0  0  0
  -18.0339  -26.0107   22.9024 H   0  0  0  0  0  0
  -19.7929  -30.7253   24.2285 H   0  0  0  0  0  0
  -17.5015  -31.6280   24.5146 H   0  0  0  0  0  0
  -15.5341  -30.2979   23.7678 H   0  0  0  0  0  0
  -15.8664  -28.0840   22.7024 H   0  0  0  0  0  0
  -24.5947  -30.6996   25.7764 H   0  0  0  0  0  0
  -24.8895  -32.2831   26.4875 H   0  0  0  0  0  0
  -25.8109  -30.8867   27.0208 H   0  0  0  0  0  0
  -26.2836  -29.6804   24.1133 H   0  0  0  0  0  0
  -27.4082  -29.7269   25.4515 H   0  0  0  0  0  0
  -27.8662  -30.4371   23.9205 H   0  0  0  0  0  0
  -27.2731  -33.3592   26.2068 H   0  0  0  0  0  0
  -28.3877  -32.6825   25.0279 H   0  0  0  0  0  0
  -28.0739  -31.8378   26.5357 H   0  0  0  0  0  0
  -28.2588  -38.0106   24.7509 H   0  0  0  0  0  0
  -28.1081  -36.2630   24.6290 H   0  0  0  0  0  0
  -27.2295  -37.1452   25.8867 H   0  0  0  0  0  0
  -20.9303  -29.8726   21.6927 H   0  0  0  0  0  0
  -26.0176  -38.2856   24.1419 H   0  0  0  0  0  0
  -28.1872  -21.5133   22.6413 H   0  0  0  0  0  0
  -30.6844  -19.3635   19.9121 H   0  0  0  0  0  0
  -27.8712  -16.5074   23.4291 H   0  0  0  0  0  0
  -27.7186  -16.0534   21.7325 H   0  0  0  0  0  0
  -26.4884  -17.0274   22.4570 H   0  0  0  0  0  0
  -25.1712  -19.4678   22.4218 H   0  0  0  0  0  0
  -25.6955  -21.0798   22.8899 H   0  0  0  0  0  0
  -24.8022  -20.0791   24.0301 H   0  0  0  0  0  0
  -28.3279  -19.8201   25.3717 H   0  0  0  0  0  0
  -26.6760  -20.2371   25.8032 H   0  0  0  0  0  0
  -27.6001  -21.2985   24.7567 H   0  0  0  0  0  0
  -29.4868  -15.7854   18.5177 H   0  0  0  0  0  0
  -29.1778  -17.5007   18.4923 H   0  0  0  0  0  0
  -28.0683  -16.4524   19.3354 H   0  0  0  0  0  0
  -27.3672  -23.3711   22.0572 H   0  0  0  0  0  0
  -26.5283  -23.8077   20.5749 H   0  0  0  0  0  0
  -27.0244  -25.0509   21.7137 H   0  0  0  0  0  0
  -30.4339  -14.8743   23.1829 H   0  0  0  0  0  0
  -30.2320  -16.6094   23.0790 H   0  0  0  0  0  0
  -31.7305  -15.8848   22.5508 H   0  0  0  0  0  0
  -30.9384  -21.7370   20.1406 H   0  0  0  0  0  0
  -30.4072  -22.4814   21.6038 H   0  0  0  0  0  0
  -28.2425  -22.3224   19.5164 H   0  0  0  0  0  0
  -29.6691  -23.1137   18.9797 H   0  0  0  0  0  0
  -27.8929  -25.2073   18.6960 H   0  0  0  0  0  0
  -29.5631  -25.4617   18.9870 H   0  0  0  0  0  0
  -26.6549  -18.4709   24.1589 H   0  0  0  0  0  0
  -30.9438  -17.1005   20.1057 H   0  0  0  0  0  0
  -29.4236  -24.5355   21.2568 H   0  0  0  0  0  0
  1 25  1  0  0  0
  1 30  2  0  0  0
  1 89  1  0  0  0
  2  3  1  0  0  0
  2 25  1  0  0  0
  2 90  1  0  0  0
  2 91  1  0  0  0
  3  4  1  0  0  0
  3 92  1  0  0  0
  3 93  1  0  0  0
  4  5  1  0  0  0
  4 94  1  0  0  0
  4 95  1  0  0  0
  5  6  1  0  0  0
  5 26  1  0  0  0
  5 96  1  0  0  0
  6 25  1  0  0  0
  6 97  1  0  0  0
  6 98  1  0  0  0
  7  8  2  0  0  0
  7 26  1  0  0  0
  7 29  1  0  0  0
  8  9  1  0  0  0
  8 22  1  0  0  0
  9 10  1  0  0  0
  9 27  2  0  0  0
 10 11  2  0  0  0
 10 15  1  0  0  0
 11 12  1  0  0  0
 11 99  1  0  0  0
 12 13  2  0  0  0
 12100  1  0  0  0
 13 14  1  0  0  0
 13 31  1  0  0  0
 14 15  2  0  0  0
 14101  1  0  0  0
 15102  1  0  0  0
 16 17  2  0  0  0
 16 21  1  0  0  0
 16 31  1  0  0  0
 17 18  1  0  0  0
 17103  1  0  0  0
 18 19  2  0  0  0
 18104  1  0  0  0
 19 20  1  0  0  0
 19 24  1  0  0  0
 20 21  2  0  0  0
 20105  1  0  0  0
 21 23  1  0  0  0
 22 28  1  0  0  0
 22 32  2  0  0  0
 26 27  1  0  0  0
 28106  1  0  0  0
 28107  1  0  0  0
 29108  1  0  0  0
 29109  1  0  0  0
 33 34  1  0  0  0
 33 66  1  0  0  0
 33 70  2  0  0  0
 34 36  1  0  0  0
 34 59  1  0  0  0
 34110  1  0  0  0
 35 44  2  0  0  0
 35 45  1  0  0  0
 35 68  1  0  0  0
 36 56  1  0  0  0
 36111  1  0  0  0
 37 39  1  0  0  0
 37 47  1  0  0  0
 37 66  1  0  0  0
 37112  1  0  0  0
 38 43  2  0  0  0
 38 46  1  0  0  0
 38 47  1  0  0  0
 39 64  1  0  0  0
 39 67  2  0  0  0
 40 52  1  0  0  0
 40 53  2  0  0  0
 40 58  1  0  0  0
 41113  1  0  0  0
 41114  1  0  0  0
 41115  1  0  0  0
 41 48  1  0  0  0
 42 43  1  0  0  0
 42 66  1  0  0  0
 42116  1  0  0  0
 42117  1  0  0  0
 43 44  1  0  0  0
 44118  1  0  0  0
 45 46  2  0  0  0
 45119  1  0  0  0
 46120  1  0  0  0
 47121  1  0  0  0
 47122  1  0  0  0
 48 56  1  0  0  0
 48 65  1  0  0  0
 48123  1  0  0  0
 49 50  1  0  0  0
 49 53  1  0  0  0
 49 64  1  0  0  0
 49124  1  0  0  0
 50 51  1  0  0  0
 50125  1  0  0  0
 50126  1  0  0  0
 51 52  1  0  0  0
 51127  1  0  0  0
 51128  1  0  0  0
 52129  1  0  0  0
 52130  1  0  0  0
 53 54  1  0  0  0
 54 55  2  0  0  0
 54131  1  0  0  0
 55 57  1  0  0  0
 55132  1  0  0  0
 56 69  2  0  0  0
 57 58  2  0  0  0
 57133  1  0  0  0
 58134  1  0  0  0
 59 60  1  0  0  0
 59 61  1  0  0  0
 59 62  1  0  0  0
 60135  1  0  0  0
 60136  1  0  0  0
 60137  1  0  0  0
 61138  1  0  0  0
 61139  1  0  0  0
 61140  1  0  0  0
 62141  1  0  0  0
 62142  1  0  0  0
 62143  1  0  0  0
 63 65  1  0  0  0
 63144  1  0  0  0
 63145  1  0  0  0
 63146  1  0  0  0
 64147  1  0  0  0
 65148  1  0  0  0
 68 85  1  0  0  0
 71 73  2  0  0  0
 71 74  1  0  0  0
 71149  1  0  0  0
 72 73  1  0  0  0
 72 75  2  0  0  0
 72150  1  0  0  0
 73 83  1  0  0  0
 74 76  2  0  0  0
 74 86  1  0  0  0
 75 76  1  0  0  0
 75 87  1  0  0  0
 76 77  1  0  0  0
 77151  1  0  0  0
 77152  1  0  0  0
 77153  1  0  0  0
 78154  1  0  0  0
 78155  1  0  0  0
 78156  1  0  0  0
 78 86  1  0  0  0
 79 86  1  0  0  0
 79157  1  0  0  0
 79158  1  0  0  0
 79159  1  0  0  0
 80160  1  0  0  0
 80161  1  0  0  0
 80162  1  0  0  0
 80 87  1  0  0  0
 81163  1  0  0  0
 81164  1  0  0  0
 81165  1  0  0  0
 81 88  1  0  0  0
 82 89  1  0  0  0
 82166  1  0  0  0
 82167  1  0  0  0
 82168  1  0  0  0
 83 84  1  0  0  0
 83169  1  0  0  0
 83170  1  0  0  0
 84 88  1  0  0  0
 84171  1  0  0  0
 84172  1  0  0  0
 85 88  1  0  0  0
 85173  1  0  0  0
 85174  1  0  0  0
 86175  1  0  0  0
 87 89  1  0  0  0
 87176  1  0  0  0
 88177  1  0  0  0
M  ISO  4   1 100  68 101  85 101  89 100
M  END
> <chiral flag>
0

> <version>
0

> <s_m_source_file>
/data/baiqing/PycharmProjects/Reinvent-master-3.2/result/LINK_invent/BTK/process_docking_weight1_custom_sum_contain_oxygen_bond_distance_aromatic_linkinvent_7_9_3/rearranged_h_0103.sdf

> <i_m_source_file_index>
75

> <r_mmod_Potential_Energy-OPLS-2005>
148.627136230469

> <r_mmod_Stretch_Energy-OPLS-2005>
56.4764213562012

> <r_mmod_Bend_Energy-OPLS-2005>
144.909469604492

> <r_mmod_Torsional_Energy-OPLS-2005>
281.757354736328

> <r_mmod_Improper_Torsional_Energy-OPLS-2005>
7.4336838722229

> <r_mmod_Van_der_Waal_Energy-OPLS-2005>
151.913040161133

> <r_mmod_Electrostatic_Energy-OPLS-2005>
-338.108520507812

> <r_mmod_Solvation_Energy-OPLS-2005>
-172.00846862793

> <b_mmod_Minimization_Converged-OPLS-2005>
0

> <r_mmod_RMS_Derivative-OPLS-2005>
2.81576895713806

$$$$
75
                    3D
 Structure written by MMmdl.
159166  0  0  1  0            999 V2000
  -30.4713  -14.9847   20.4488 C   0  0  0  0  0  0
  -30.4383  -12.5936   19.5526 C   0  0  0  0  0  0
  -29.5459  -12.5141   18.2909 C   0  0  0  0  0  0
  -28.0727  -12.2857   18.6900 C   0  0  0  0  0  0
  -27.6198  -13.2368   19.8299 C   0  0  2  0  0  0
  -28.6406  -13.2787   20.9856 C   0  0  0  0  0  0
  -25.2422  -13.8193   20.5659 C   0  0  0  0  0  0
  -24.1738  -13.0455   20.9181 C   0  0  0  0  0  0
  -24.6328  -11.6896   20.8684 C   0  0  0  0  0  0
  -23.9039  -10.4261   21.0382 C   0  0  0  0  0  0
  -24.3580   -9.4185   21.9181 C   0  0  0  0  0  0
  -23.6270   -8.2219   22.0768 C   0  0  0  0  0  0
  -22.4246   -8.0265   21.3551 C   0  0  0  0  0  0
  -21.9866   -9.0207   20.4659 C   0  0  0  0  0  0
  -22.7201  -10.2082   20.3058 C   0  0  0  0  0  0
  -21.6863   -6.0773   22.5292 C   0  0  0  0  0  0
  -21.3996   -6.5666   23.8234 C   0  0  0  0  0  0
  -21.3655   -5.6793   24.9186 C   0  0  0  0  0  0
  -21.6005   -4.3053   24.7194 C   0  0  0  0  0  0
  -21.8809   -3.8154   23.4327 C   0  0  0  0  0  0
  -21.9207   -4.6989   22.3409 C   0  0  0  0  0  0
  -22.7755  -13.5205   21.1842 C   0  0  0  0  0  0
  -22.1670   -4.2183   21.0970 F   0  0  0  0  0  0
  -21.5591   -3.4544   25.7725 F   0  0  0  0  0  0
  -29.9173  -13.7030   20.4063 N   0  0  0  0  0  0
  -26.2796  -12.9395   20.3122 N   0  0  0  0  0  0
  -25.9230  -11.6515   20.5643 N   0  0  0  0  0  0
  -22.0374  -12.8249   22.0416 N   0  0  0  0  0  0
  -25.4142  -15.1927   20.4123 N   0  0  0  0  0  0
  -31.6776  -15.0718   20.1930 O   0  0  0  0  0  0
  -21.6583   -6.8910   21.4277 O   0  0  0  0  0  0
  -22.3460  -14.5538   20.6726 O   0  0  0  0  0  0
  -24.6402  -31.8479   23.1889 C   0  0  0  0  0  0
  -25.9210  -32.4694   23.8260 C   0  0  1  0  0  0
  -27.1997  -27.1360   20.1794 C   0  0  0  0  0  0
  -25.6027  -33.8524   24.2212 N   0  0  0  0  0  0
  -23.4381  -30.4643   21.5376 C   0  0  2  0  0  0
  -24.8867  -28.8849   20.1200 C   0  0  0  0  0  0
  -22.7545  -29.4547   22.4913 C   0  0  0  0  0  0
  -18.0308  -28.1383   22.8499 C   0  0  0  0  0  0
  -24.1493  -36.7218   23.2626 C   0  0  0  0  0  0
  -25.9931  -30.7264   21.3820 C   0  0  0  0  0  0
  -26.0641  -29.3299   20.7390 C   0  0  0  0  0  0
  -27.2233  -28.4681   20.7565 C   0  0  0  0  0  0
  -26.0076  -26.7921   19.5154 C   0  0  0  0  0  0
  -24.8711  -27.6296   19.4912 C   0  0  0  0  0  0
  -23.6640  -29.7888   20.1592 C   0  0  0  0  0  0
  -25.4120  -36.3034   24.0324 C   0  0  1  0  0  0
  -20.5897  -28.3691   23.1267 C   0  0  2  0  0  0
  -20.6771  -26.9398   22.5433 C   0  0  0  0  0  0
  -19.5761  -26.6391   21.5222 C   0  0  0  0  0  0
  -18.1946  -26.7928   22.1634 C   0  0  0  0  0  0
  -19.1561  -28.8865   23.2876 C   0  0  0  0  0  0
  -18.9478  -30.1468   23.8879 C   0  0  0  0  0  0
  -17.6472  -30.6576   24.0555 C   0  0  0  0  0  0
  -25.9102  -34.9412   23.5074 C   0  0  0  0  0  0
  -16.5363  -29.9070   23.6335 C   0  0  0  0  0  0
  -16.7296  -28.6496   23.0350 C   0  0  0  0  0  0
  -26.4570  -31.6497   25.0629 C   0  0  0  0  0  0
  -25.3797  -31.3663   26.1336 C   0  0  0  0  0  0
  -27.0405  -30.2908   24.6127 C   0  0  0  0  0  0
  -27.6140  -32.4170   25.7414 C   0  0  0  0  0  0
  -27.5590  -37.1755   24.8484 C   0  0  0  0  0  0
  -21.4235  -29.3028   22.3662 N   0  0  0  0  0  0
  -26.4285  -37.3734   23.9443 N   0  0  0  0  0  0
  -24.7098  -31.0331   22.0927 N   0  0  0  0  0  0
  -23.4214  -28.8089   23.3036 O   0  0  0  0  0  0
  -28.2541  -26.1610   20.1486 O   0  0  0  0  0  0
  -26.5648  -34.8915   22.4628 O   0  0  0  0  0  0
  -23.5536  -32.1397   23.7110 O   0  0  0  0  0  0
  -26.5489  -23.0495   19.9439 C   0  0  0  0  0  0
  -30.3698  -22.4079   20.2567 C   0  0  0  0  0  0
  -28.4603  -19.0109   18.8905 C   0  0  0  0  0  0
  -27.5341  -18.6643   21.1854 C   0  0  0  0  0  0
  -29.9276  -17.7213   20.6555 C   0  0  0  0  0  0
  -28.2247  -24.8220   20.9357 C   0  0  0  0  0  0
  -27.9242  -23.1684   20.6237 C   0  0  2  0  0  0
  -28.9345  -21.8812   20.1614 C   0  0  2  0  0  0
  -28.8137  -18.9965   20.3885 C   0  0  0  0  0  0
  -29.6483  -16.1494   20.5973 N   0  0  0  0  0  0
  -29.0595  -20.4765   20.8434 O   0  0  0  0  0  0
  -31.4857  -12.7392   19.2816 H   0  0  0  0  0  0
  -30.4036  -11.6482   20.0974 H   0  0  0  0  0  0
  -29.8859  -11.7126   17.6315 H   0  0  0  0  0  0
  -29.6469  -13.4419   17.7254 H   0  0  0  0  0  0
  -27.9860  -11.2504   19.0273 H   0  0  0  0  0  0
  -27.4240  -12.3784   17.8188 H   0  0  0  0  0  0
  -27.5793  -14.2275   19.3774 H   0  0  0  0  0  0
  -28.7232  -12.2979   21.4588 H   0  0  0  0  0  0
  -28.3153  -13.9813   21.7556 H   0  0  0  0  0  0
  -25.2719   -9.5625   22.4792 H   0  0  0  0  0  0
  -23.9971   -7.4572   22.7451 H   0  0  0  0  0  0
  -21.0844   -8.8680   19.8948 H   0  0  0  0  0  0
  -22.3622  -10.9610   19.6178 H   0  0  0  0  0  0
  -21.1984   -7.6154   23.9756 H   0  0  0  0  0  0
  -21.1509   -6.0510   25.9100 H   0  0  0  0  0  0
  -22.0606   -2.7632   23.2763 H   0  0  0  0  0  0
  -22.3945  -11.9915   22.4872 H   0  0  0  0  0  0
  -21.1004  -13.1313   22.2666 H   0  0  0  0  0  0
  -24.6472  -15.8517   20.5086 H   0  0  0  0  0  0
  -26.2732  -15.6249   20.1109 H   0  0  0  0  0  0
  -26.7226  -32.5313   23.0949 H   0  0  0  0  0  0
  -25.0164  -33.9633   25.0352 H   0  0  0  0  0  0
  -22.7362  -31.2873   21.3841 H   0  0  0  0  0  0
  -23.3791  -35.9513   23.3288 H   0  0  0  0  0  0
  -24.3584  -36.8856   22.2044 H   0  0  0  0  0  0
  -23.7235  -37.6414   23.6647 H   0  0  0  0  0  0
  -26.1308  -31.4719   20.5976 H   0  0  0  0  0  0
  -26.8712  -30.7925   22.0138 H   0  0  0  0  0  0
  -28.1135  -28.8013   21.2707 H   0  0  0  0  0  0
  -25.9528  -25.8369   19.0141 H   0  0  0  0  0  0
  -23.9776  -27.2929   18.9833 H   0  0  0  0  0  0
  -23.7975  -30.5648   19.4078 H   0  0  0  0  0  0
  -22.7791  -29.2328   19.8415 H   0  0  0  0  0  0
  -25.1291  -36.1830   25.0807 H   0  0  0  0  0  0
  -20.9986  -28.3288   24.1379 H   0  0  0  0  0  0
  -20.5667  -26.2285   23.3645 H   0  0  0  0  0  0
  -21.6630  -26.7420   22.1206 H   0  0  0  0  0  0
  -19.6924  -25.6324   21.1223 H   0  0  0  0  0  0
  -19.6669  -27.3211   20.6769 H   0  0  0  0  0  0
  -17.4194  -26.6690   21.4057 H   0  0  0  0  0  0
  -18.0354  -26.0048   22.9014 H   0  0  0  0  0  0
  -19.7951  -30.7319   24.2197 H   0  0  0  0  0  0
  -17.5010  -31.6237   24.5191 H   0  0  0  0  0  0
  -15.5362  -30.2958   23.7652 H   0  0  0  0  0  0
  -15.8698  -28.0816   22.7028 H   0  0  0  0  0  0
  -24.6017  -30.6947   25.7688 H   0  0  0  0  0  0
  -24.8922  -32.2820   26.4667 H   0  0  0  0  0  0
  -25.8116  -30.8933   27.0165 H   0  0  0  0  0  0
  -26.2982  -29.6633   24.1177 H   0  0  0  0  0  0
  -27.4144  -29.7155   25.4618 H   0  0  0  0  0  0
  -27.8830  -30.4172   23.9324 H   0  0  0  0  0  0
  -27.2805  -33.3480   26.1990 H   0  0  0  0  0  0
  -28.3966  -32.6703   25.0247 H   0  0  0  0  0  0
  -28.0773  -31.8269   26.5338 H   0  0  0  0  0  0
  -28.2583  -38.0069   24.7535 H   0  0  0  0  0  0
  -28.1125  -36.2626   24.6274 H   0  0  0  0  0  0
  -27.2328  -37.1307   25.8888 H   0  0  0  0  0  0
  -20.9441  -29.8717   21.6825 H   0  0  0  0  0  0
  -26.0175  -38.2807   24.1472 H   0  0  0  0  0  0
  -25.7849  -23.5819   20.5146 H   0  0  0  0  0  0
  -26.2208  -22.0107   19.8669 H   0  0  0  0  0  0
  -26.5704  -23.4734   18.9387 H   0  0  0  0  0  0
  -30.4746  -23.3983   19.8017 H   0  0  0  0  0  0
  -31.0759  -21.7431   19.7583 H   0  0  0  0  0  0
  -30.6641  -22.4962   21.3036 H   0  0  0  0  0  0
  -28.2524  -18.0101   18.5095 H   0  0  0  0  0  0
  -29.2989  -19.3951   18.3112 H   0  0  0  0  0  0
  -27.5832  -19.6251   18.6718 H   0  0  0  0  0  0
  -26.7558  -19.4121   21.0251 H   0  0  0  0  0  0
  -27.7209  -18.6464   22.2618 H   0  0  0  0  0  0
  -27.1028  -17.7054   20.8966 H   0  0  0  0  0  0
  -30.7621  -17.8905   19.9744 H   0  0  0  0  0  0
  -30.3422  -17.8909   21.6498 H   0  0  0  0  0  0
  -27.4734  -25.0435   21.6992 H   0  0  0  0  0  0
  -29.1625  -24.8503   21.4946 H   0  0  0  0  0  0
  -27.7367  -22.8457   21.6476 H   0  0  0  0  0  0
  -28.7503  -21.7090   19.1009 H   0  0  0  0  0  0
  -28.6750  -15.9249   20.7305 H   0  0  0  0  0  0
  1 25  1  0  0  0
  1 30  2  0  0  0
  1 80  1  0  0  0
  2  3  1  0  0  0
  2 25  1  0  0  0
  2 82  1  0  0  0
  2 83  1  0  0  0
  3  4  1  0  0  0
  3 84  1  0  0  0
  3 85  1  0  0  0
  4  5  1  0  0  0
  4 86  1  0  0  0
  4 87  1  0  0  0
  5  6  1  0  0  0
  5 26  1  0  0  0
  5 88  1  0  0  0
  6 25  1  0  0  0
  6 89  1  0  0  0
  6 90  1  0  0  0
  7  8  2  0  0  0
  7 26  1  0  0  0
  7 29  1  0  0  0
  8  9  1  0  0  0
  8 22  1  0  0  0
  9 10  1  0  0  0
  9 27  2  0  0  0
 10 11  2  0  0  0
 10 15  1  0  0  0
 11 12  1  0  0  0
 11 91  1  0  0  0
 12 13  2  0  0  0
 12 92  1  0  0  0
 13 14  1  0  0  0
 13 31  1  0  0  0
 14 15  2  0  0  0
 14 93  1  0  0  0
 15 94  1  0  0  0
 16 17  2  0  0  0
 16 21  1  0  0  0
 16 31  1  0  0  0
 17 18  1  0  0  0
 17 95  1  0  0  0
 18 19  2  0  0  0
 18 96  1  0  0  0
 19 20  1  0  0  0
 19 24  1  0  0  0
 20 21  2  0  0  0
 20 97  1  0  0  0
 21 23  1  0  0  0
 22 28  1  0  0  0
 22 32  2  0  0  0
 26 27  1  0  0  0
 28 98  1  0  0  0
 28 99  1  0  0  0
 29100  1  0  0  0
 29101  1  0  0  0
 33 34  1  0  0  0
 33 66  1  0  0  0
 33 70  2  0  0  0
 34 36  1  0  0  0
 34 59  1  0  0  0
 34102  1  0  0  0
 35 44  2  0  0  0
 35 45  1  0  0  0
 35 68  1  0  0  0
 36 56  1  0  0  0
 36103  1  0  0  0
 37 39  1  0  0  0
 37 47  1  0  0  0
 37 66  1  0  0  0
 37104  1  0  0  0
 38 43  2  0  0  0
 38 46  1  0  0  0
 38 47  1  0  0  0
 39 64  1  0  0  0
 39 67  2  0  0  0
 40 52  1  0  0  0
 40 53  2  0  0  0
 40 58  1  0  0  0
 41105  1  0  0  0
 41106  1  0  0  0
 41107  1  0  0  0
 41 48  1  0  0  0
 42 43  1  0  0  0
 42 66  1  0  0  0
 42108  1  0  0  0
 42109  1  0  0  0
 43 44  1  0  0  0
 44110  1  0  0  0
 45 46  2  0  0  0
 45111  1  0  0  0
 46112  1  0  0  0
 47113  1  0  0  0
 47114  1  0  0  0
 48 56  1  0  0  0
 48 65  1  0  0  0
 48115  1  0  0  0
 49 50  1  0  0  0
 49 53  1  0  0  0
 49 64  1  0  0  0
 49116  1  0  0  0
 50 51  1  0  0  0
 50117  1  0  0  0
 50118  1  0  0  0
 51 52  1  0  0  0
 51119  1  0  0  0
 51120  1  0  0  0
 52121  1  0  0  0
 52122  1  0  0  0
 53 54  1  0  0  0
 54 55  2  0  0  0
 54123  1  0  0  0
 55 57  1  0  0  0
 55124  1  0  0  0
 56 69  2  0  0  0
 57 58  2  0  0  0
 57125  1  0  0  0
 58126  1  0  0  0
 59 60  1  0  0  0
 59 61  1  0  0  0
 59 62  1  0  0  0
 60127  1  0  0  0
 60128  1  0  0  0
 60129  1  0  0  0
 61130  1  0  0  0
 61131  1  0  0  0
 61132  1  0  0  0
 62133  1  0  0  0
 62134  1  0  0  0
 62135  1  0  0  0
 63 65  1  0  0  0
 63136  1  0  0  0
 63137  1  0  0  0
 63138  1  0  0  0
 64139  1  0  0  0
 65140  1  0  0  0
 68 76  1  0  0  0
 71141  1  0  0  0
 71142  1  0  0  0
 71143  1  0  0  0
 71 77  1  0  0  0
 72144  1  0  0  0
 72145  1  0  0  0
 72146  1  0  0  0
 72 78  1  0  0  0
 73147  1  0  0  0
 73148  1  0  0  0
 73149  1  0  0  0
 73 79  1  0  0  0
 74 79  1  0  0  0
 74150  1  0  0  0
 74151  1  0  0  0
 74152  1  0  0  0
 75 79  1  0  0  0
 75 80  1  0  0  0
 75153  1  0  0  0
 75154  1  0  0  0
 76 77  1  0  0  0
 76155  1  0  0  0
 76156  1  0  0  0
 77 78  1  0  0  0
 77157  1  0  0  0
 78 81  1  0  0  0
 78158  1  0  0  0
 79 81  1  0  0  0
 80159  1  0  0  0
M  ISO  4   1 100  68 101  76 101  80 100
M  END
> <chiral flag>
0

> <version>
0

> <s_m_source_file>
/data/baiqing/PycharmProjects/Reinvent-master-3.2/result/LINK_invent/BTK/process_docking_weight1_custom_sum_contain_oxygen_bond_distance_aromatic_linkinvent_7_9_3/rearranged_h_0103.sdf

> <i_m_source_file_index>
76

> <r_mmod_Potential_Energy-OPLS-2005>
609.201477050781

> <r_mmod_Stretch_Energy-OPLS-2005>
312.977783203125

> <r_mmod_Bend_Energy-OPLS-2005>
383.618072509766

> <r_mmod_Torsional_Energy-OPLS-2005>
271.263000488281

> <r_mmod_Improper_Torsional_Energy-OPLS-2005>
3.86318850517273

> <r_mmod_Van_der_Waal_Energy-OPLS-2005>
99.9754180908203

> <r_mmod_Electrostatic_Energy-OPLS-2005>
-469.198608398438

> <r_mmod_Solvation_Energy-OPLS-2005>
-201.48176574707

> <b_mmod_Minimization_Converged-OPLS-2005>
0

> <r_mmod_RMS_Derivative-OPLS-2005>
7.64651536941528

$$$$
76
                    3D
 Structure written by MMmdl.
172180  0  0  1  0            999 V2000
  -30.6218  -14.7271   20.4770 C   0  0  0  0  0  0
  -30.4288  -12.4483   19.4792 C   0  0  0  0  0  0
  -29.5074  -12.4983   18.2412 C   0  0  0  0  0  0
  -28.0353  -12.3217   18.6588 C   0  0  0  0  0  0
  -27.6406  -13.2292   19.8537 C   0  0  2  0  0  0
  -28.6819  -13.1679   20.9914 C   0  0  0  0  0  0
  -25.2512  -13.8200   20.5713 C   0  0  0  0  0  0
  -24.1798  -13.0450   20.9223 C   0  0  0  0  0  0
  -24.6381  -11.6930   20.8767 C   0  0  0  0  0  0
  -23.9059  -10.4306   21.0423 C   0  0  0  0  0  0
  -24.3612   -9.4216   21.9198 C   0  0  0  0  0  0
  -23.6289   -8.2250   22.0762 C   0  0  0  0  0  0
  -22.4278   -8.0283   21.3546 C   0  0  0  0  0  0
  -21.9908   -9.0257   20.4650 C   0  0  0  0  0  0
  -22.7232  -10.2141   20.3064 C   0  0  0  0  0  0
  -21.6853   -6.0739   22.5279 C   0  0  0  0  0  0
  -21.4009   -6.5643   23.8211 C   0  0  0  0  0  0
  -21.3658   -5.6797   24.9172 C   0  0  0  0  0  0
  -21.6043   -4.3060   24.7224 C   0  0  0  0  0  0
  -21.8817   -3.8149   23.4348 C   0  0  0  0  0  0
  -21.9191   -4.6965   22.3401 C   0  0  0  0  0  0
  -22.7820  -13.5239   21.1875 C   0  0  0  0  0  0
  -22.1662   -4.2149   21.0978 F   0  0  0  0  0  0
  -21.5632   -3.4543   25.7739 F   0  0  0  0  0  0
  -29.9825  -13.5118   20.4084 N   0  0  0  0  0  0
  -26.2928  -12.9398   20.3298 N   0  0  0  0  0  0
  -25.9311  -11.6548   20.5773 N   0  0  0  0  0  0
  -22.0458  -12.8228   22.0421 N   0  0  0  0  0  0
  -25.4219  -15.1917   20.4118 N   0  0  0  0  0  0
  -31.8085  -14.8122   20.1500 O   0  0  0  0  0  0
  -21.6641   -6.8880   21.4242 O   0  0  0  0  0  0
  -22.3513  -14.5549   20.6725 O   0  0  0  0  0  0
  -24.6309  -31.8552   23.2014 C   0  0  0  0  0  0
  -25.9145  -32.4745   23.8331 C   0  0  1  0  0  0
  -27.2117  -27.2601   20.1171 C   0  0  0  0  0  0
  -25.5951  -33.8550   24.2258 N   0  0  0  0  0  0
  -23.4251  -30.4798   21.5456 C   0  0  2  0  0  0
  -24.8693  -28.9323   20.1067 C   0  0  0  0  0  0
  -22.7489  -29.4583   22.4909 C   0  0  0  0  0  0
  -18.0299  -28.1348   22.8454 C   0  0  0  0  0  0
  -24.1489  -36.7282   23.2631 C   0  0  0  0  0  0
  -25.9707  -30.7642   21.3825 C   0  0  0  0  0  0
  -26.0390  -29.3875   20.7248 C   0  0  0  0  0  0
  -27.2092  -28.5608   20.7264 C   0  0  0  0  0  0
  -26.0234  -26.8911   19.4428 C   0  0  0  0  0  0
  -24.8669  -27.6926   19.4562 C   0  0  0  0  0  0
  -23.6409  -29.8198   20.1592 C   0  0  0  0  0  0
  -25.4113  -36.3056   24.0316 C   0  0  1  0  0  0
  -20.5903  -28.3657   23.1249 C   0  0  2  0  0  0
  -20.6781  -26.9374   22.5387 C   0  0  0  0  0  0
  -19.5769  -26.6366   21.5168 C   0  0  0  0  0  0
  -18.1947  -26.7882   22.1590 C   0  0  0  0  0  0
  -19.1555  -28.8820   23.2844 C   0  0  0  0  0  0
  -18.9476  -30.1425   23.8866 C   0  0  0  0  0  0
  -17.6474  -30.6547   24.0547 C   0  0  0  0  0  0
  -25.9064  -34.9427   23.5088 C   0  0  0  0  0  0
  -16.5368  -29.9040   23.6323 C   0  0  0  0  0  0
  -16.7289  -28.6463   23.0334 C   0  0  0  0  0  0
  -26.4525  -31.6565   25.0717 C   0  0  0  0  0  0
  -25.3745  -31.3693   26.1431 C   0  0  0  0  0  0
  -27.0371  -30.2988   24.6191 C   0  0  0  0  0  0
  -27.6070  -32.4315   25.7483 C   0  0  0  0  0  0
  -27.5576  -37.1791   24.8461 C   0  0  0  0  0  0
  -21.4205  -29.3015   22.3646 N   0  0  0  0  0  0
  -26.4285  -37.3761   23.9415 N   0  0  0  0  0  0
  -24.6946  -31.0513   22.0995 N   0  0  0  0  0  0
  -23.4182  -28.8092   23.2984 O   0  0  0  0  0  0
  -28.3112  -26.3704   20.2153 O   0  0  0  0  0  0
  -26.5630  -34.8894   22.4655 O   0  0  0  0  0  0
  -23.5466  -32.1377   23.7333 O   0  0  0  0  0  0
  -29.8736  -19.8665   20.0907 C   0  0  0  0  0  0
  -29.5541  -18.6450   20.6877 C   0  0  0  0  0  0
  -28.3542  -18.9510   21.4199 C   0  0  0  0  0  0
  -28.0231  -20.2858   21.2256 C   0  0  0  0  0  0
  -26.8479  -21.0631   21.7446 C   0  0  0  0  0  0
  -26.7569  -17.7575   26.0952 C   0  0  0  0  0  0
  -25.0684  -18.1902   24.2746 C   0  0  0  0  0  0
  -30.2691  -23.9960   21.0671 C   0  0  0  0  0  0
  -27.5370  -17.9920   22.2596 C   0  0  0  0  0  0
  -30.4120  -17.2997   20.5870 C   0  0  0  0  0  0
  -27.5772  -18.3215   23.7655 C   0  0  0  0  0  0
  -28.8553  -22.2821   19.7470 C   0  0  0  0  0  0
  -28.2315  -24.9389   19.7569 C   0  0  0  0  0  0
  -26.4693  -17.6331   24.5913 C   0  0  0  0  0  0
  -28.8539  -23.6811   20.5625 C   0  0  2  0  0  0
  -28.9501  -20.8945   20.3863 N   0  0  0  0  0  0
  -29.8818  -15.8769   20.7040 N   0  0  0  0  0  0
  -31.4701  -12.5683   19.1758 H   0  0  0  0  0  0
  -30.3737  -11.4737   19.9659 H   0  0  0  0  0  0
  -29.7898  -11.7213   17.5287 H   0  0  0  0  0  0
  -29.6322  -13.4509   17.7236 H   0  0  0  0  0  0
  -27.9015  -11.2754   18.9354 H   0  0  0  0  0  0
  -27.3736  -12.4976   17.8101 H   0  0  0  0  0  0
  -27.6358  -14.2486   19.4675 H   0  0  0  0  0  0
  -28.7150  -12.1742   21.4394 H   0  0  0  0  0  0
  -28.4188  -13.8578   21.7952 H   0  0  0  0  0  0
  -25.2750   -9.5702   22.4784 H   0  0  0  0  0  0
  -23.9998   -7.4644   22.7495 H   0  0  0  0  0  0
  -21.0835   -8.8767   19.8962 H   0  0  0  0  0  0
  -22.3677  -10.9681   19.6183 H   0  0  0  0  0  0
  -21.1999   -7.6150   23.9711 H   0  0  0  0  0  0
  -21.1484   -6.0528   25.9071 H   0  0  0  0  0  0
  -22.0599   -2.7612   23.2845 H   0  0  0  0  0  0
  -22.4066  -11.9869   22.4778 H   0  0  0  0  0  0
  -21.1086  -13.1270   22.2647 H   0  0  0  0  0  0
  -24.6514  -15.8431   20.5144 H   0  0  0  0  0  0
  -26.2598  -15.6261   20.0484 H   0  0  0  0  0  0
  -26.7187  -32.5400   23.1042 H   0  0  0  0  0  0
  -25.0110  -33.9695   25.0412 H   0  0  0  0  0  0
  -22.7206  -31.3023   21.4028 H   0  0  0  0  0  0
  -23.3747  -35.9615   23.3277 H   0  0  0  0  0  0
  -24.3583  -36.8946   22.2054 H   0  0  0  0  0  0
  -23.7256  -37.6483   23.6678 H   0  0  0  0  0  0
  -26.1083  -31.5214   20.6093 H   0  0  0  0  0  0
  -26.8497  -30.8139   22.0121 H   0  0  0  0  0  0
  -28.1004  -28.9012   21.2336 H   0  0  0  0  0  0
  -25.9323  -25.9715   18.8890 H   0  0  0  0  0  0
  -23.9771  -27.3482   18.9480 H   0  0  0  0  0  0
  -23.7589  -30.5994   19.4039 H   0  0  0  0  0  0
  -22.7592  -29.2532   19.8563 H   0  0  0  0  0  0
  -25.1287  -36.1892   25.0805 H   0  0  0  0  0  0
  -21.0005  -28.3238   24.1366 H   0  0  0  0  0  0
  -20.5649  -26.2268   23.3595 H   0  0  0  0  0  0
  -21.6651  -26.7360   22.1210 H   0  0  0  0  0  0
  -19.6933  -25.6274   21.1216 H   0  0  0  0  0  0
  -19.6719  -27.3158   20.6678 H   0  0  0  0  0  0
  -17.4214  -26.6616   21.3999 H   0  0  0  0  0  0
  -18.0363  -26.0002   22.8976 H   0  0  0  0  0  0
  -19.7955  -30.7248   24.2217 H   0  0  0  0  0  0
  -17.5024  -31.6229   24.5145 H   0  0  0  0  0  0
  -15.5367  -30.2930   23.7655 H   0  0  0  0  0  0
  -15.8687  -28.0793   22.7031 H   0  0  0  0  0  0
  -24.5957  -30.6986   25.7768 H   0  0  0  0  0  0
  -24.8875  -32.2840   26.4820 H   0  0  0  0  0  0
  -25.8062  -30.8928   27.0241 H   0  0  0  0  0  0
  -26.2935  -29.6730   24.1240 H   0  0  0  0  0  0
  -27.4080  -29.7254   25.4699 H   0  0  0  0  0  0
  -27.8796  -30.4264   23.9386 H   0  0  0  0  0  0
  -27.2694  -33.3664   26.1966 H   0  0  0  0  0  0
  -28.3924  -32.6815   25.0330 H   0  0  0  0  0  0
  -28.0674  -31.8506   26.5495 H   0  0  0  0  0  0
  -28.2567  -38.0109   24.7548 H   0  0  0  0  0  0
  -28.1112  -36.2659   24.6242 H   0  0  0  0  0  0
  -27.2316  -37.1379   25.8865 H   0  0  0  0  0  0
  -20.9371  -29.8780   21.6903 H   0  0  0  0  0  0
  -26.0160  -38.2825   24.1446 H   0  0  0  0  0  0
  -30.6977  -20.0979   19.4280 H   0  0  0  0  0  0
  -26.0735  -20.4107   22.1483 H   0  0  0  0  0  0
  -26.3819  -21.6591   20.9602 H   0  0  0  0  0  0
  -27.1525  -21.7365   22.5458 H   0  0  0  0  0  0
  -25.9933  -17.2530   26.6891 H   0  0  0  0  0  0
  -26.7828  -18.8016   26.4082 H   0  0  0  0  0  0
  -27.7160  -17.3085   26.3558 H   0  0  0  0  0  0
  -24.3074  -17.7353   24.9109 H   0  0  0  0  0  0
  -24.7743  -17.9925   23.2441 H   0  0  0  0  0  0
  -25.0264  -19.2686   24.4314 H   0  0  0  0  0  0
  -30.6657  -23.1690   21.6572 H   0  0  0  0  0  0
  -30.2675  -24.8810   21.7032 H   0  0  0  0  0  0
  -30.9553  -24.1818   20.2398 H   0  0  0  0  0  0
  -27.8677  -16.9679   22.1007 H   0  0  0  0  0  0
  -26.5167  -18.0314   21.8805 H   0  0  0  0  0  0
  -31.1902  -17.3913   21.3460 H   0  0  0  0  0  0
  -30.9437  -17.3560   19.6359 H   0  0  0  0  0  0
  -27.5010  -19.3988   23.9183 H   0  0  0  0  0  0
  -28.5588  -18.0409   24.1494 H   0  0  0  0  0  0
  -29.6430  -22.3428   18.9951 H   0  0  0  0  0  0
  -27.9339  -22.2624   19.1635 H   0  0  0  0  0  0
  -27.2000  -24.6278   19.6248 H   0  0  0  0  0  0
  -28.6647  -24.9356   18.7570 H   0  0  0  0  0  0
  -26.4730  -16.5697   24.3484 H   0  0  0  0  0  0
  -28.2275  -23.5494   21.4435 H   0  0  0  0  0  0
  -28.8997  -15.7653   20.8990 H   0  0  0  0  0  0
  1 25  1  0  0  0
  1 30  2  0  0  0
  1 87  1  0  0  0
  2  3  1  0  0  0
  2 25  1  0  0  0
  2 88  1  0  0  0
  2 89  1  0  0  0
  3  4  1  0  0  0
  3 90  1  0  0  0
  3 91  1  0  0  0
  4  5  1  0  0  0
  4 92  1  0  0  0
  4 93  1  0  0  0
  5  6  1  0  0  0
  5 26  1  0  0  0
  5 94  1  0  0  0
  6 25  1  0  0  0
  6 95  1  0  0  0
  6 96  1  0  0  0
  7  8  2  0  0  0
  7 26  1  0  0  0
  7 29  1  0  0  0
  8  9  1  0  0  0
  8 22  1  0  0  0
  9 10  1  0  0  0
  9 27  2  0  0  0
 10 11  2  0  0  0
 10 15  1  0  0  0
 11 12  1  0  0  0
 11 97  1  0  0  0
 12 13  2  0  0  0
 12 98  1  0  0  0
 13 14  1  0  0  0
 13 31  1  0  0  0
 14 15  2  0  0  0
 14 99  1  0  0  0
 15100  1  0  0  0
 16 17  2  0  0  0
 16 21  1  0  0  0
 16 31  1  0  0  0
 17 18  1  0  0  0
 17101  1  0  0  0
 18 19  2  0  0  0
 18102  1  0  0  0
 19 20  1  0  0  0
 19 24  1  0  0  0
 20 21  2  0  0  0
 20103  1  0  0  0
 21 23  1  0  0  0
 22 28  1  0  0  0
 22 32  2  0  0  0
 26 27  1  0  0  0
 28104  1  0  0  0
 28105  1  0  0  0
 29106  1  0  0  0
 29107  1  0  0  0
 33 34  1  0  0  0
 33 66  1  0  0  0
 33 70  2  0  0  0
 34 36  1  0  0  0
 34 59  1  0  0  0
 34108  1  0  0  0
 35 44  2  0  0  0
 35 45  1  0  0  0
 35 68  1  0  0  0
 36 56  1  0  0  0
 36109  1  0  0  0
 37 39  1  0  0  0
 37 47  1  0  0  0
 37 66  1  0  0  0
 37110  1  0  0  0
 38 43  2  0  0  0
 38 46  1  0  0  0
 38 47  1  0  0  0
 39 64  1  0  0  0
 39 67  2  0  0  0
 40 52  1  0  0  0
 40 53  2  0  0  0
 40 58  1  0  0  0
 41111  1  0  0  0
 41112  1  0  0  0
 41113  1  0  0  0
 41 48  1  0  0  0
 42 43  1  0  0  0
 42 66  1  0  0  0
 42114  1  0  0  0
 42115  1  0  0  0
 43 44  1  0  0  0
 44116  1  0  0  0
 45 46  2  0  0  0
 45117  1  0  0  0
 46118  1  0  0  0
 47119  1  0  0  0
 47120  1  0  0  0
 48 56  1  0  0  0
 48 65  1  0  0  0
 48121  1  0  0  0
 49 50  1  0  0  0
 49 53  1  0  0  0
 49 64  1  0  0  0
 49122  1  0  0  0
 50 51  1  0  0  0
 50123  1  0  0  0
 50124  1  0  0  0
 51 52  1  0  0  0
 51125  1  0  0  0
 51126  1  0  0  0
 52127  1  0  0  0
 52128  1  0  0  0
 53 54  1  0  0  0
 54 55  2  0  0  0
 54129  1  0  0  0
 55 57  1  0  0  0
 55130  1  0  0  0
 56 69  2  0  0  0
 57 58  2  0  0  0
 57131  1  0  0  0
 58132  1  0  0  0
 59 60  1  0  0  0
 59 61  1  0  0  0
 59 62  1  0  0  0
 60133  1  0  0  0
 60134  1  0  0  0
 60135  1  0  0  0
 61136  1  0  0  0
 61137  1  0  0  0
 61138  1  0  0  0
 62139  1  0  0  0
 62140  1  0  0  0
 62141  1  0  0  0
 63 65  1  0  0  0
 63142  1  0  0  0
 63143  1  0  0  0
 63144  1  0  0  0
 64145  1  0  0  0
 65146  1  0  0  0
 68 83  1  0  0  0
 71 72  2  0  0  0
 71 86  1  0  0  0
 71147  1  0  0  0
 72 73  1  0  0  0
 72 80  1  0  0  0
 73 74  2  0  0  0
 73 79  1  0  0  0
 74 75  1  0  0  0
 74 86  1  0  0  0
 75148  1  0  0  0
 75149  1  0  0  0
 75150  1  0  0  0
 76151  1  0  0  0
 76152  1  0  0  0
 76153  1  0  0  0
 76 84  1  0  0  0
 77 84  1  0  0  0
 77154  1  0  0  0
 77155  1  0  0  0
 77156  1  0  0  0
 78157  1  0  0  0
 78158  1  0  0  0
 78159  1  0  0  0
 78 85  1  0  0  0
 79 81  1  0  0  0
 79160  1  0  0  0
 79161  1  0  0  0
 80 87  1  0  0  0
 80162  1  0  0  0
 80163  1  0  0  0
 81 84  1  0  0  0
 81164  1  0  0  0
 81165  1  0  0  0
 82 85  1  0  0  0
 82 86  1  0  0  0
 82166  1  0  0  0
 82167  1  0  0  0
 83 85  1  0  0  0
 83168  1  0  0  0
 83169  1  0  0  0
 84170  1  0  0  0
 85171  1  0  0  0
 87172  1  0  0  0
M  ISO  4   1 100  68 101  83 101  87 100
M  END
> <chiral flag>
0

> <version>
0

> <s_m_source_file>
/data/baiqing/PycharmProjects/Reinvent-master-3.2/result/LINK_invent/BTK/process_docking_weight1_custom_sum_contain_oxygen_bond_distance_aromatic_linkinvent_7_9_3/rearranged_h_0103.sdf

> <i_m_source_file_index>
77

> <r_mmod_Potential_Energy-OPLS-2005>
97.3754653930664

> <r_mmod_Stretch_Energy-OPLS-2005>
113.754859924316

> <r_mmod_Bend_Energy-OPLS-2005>
190.14030456543

> <r_mmod_Torsional_Energy-OPLS-2005>
224.359909057617

> <r_mmod_Improper_Torsional_Energy-OPLS-2005>
6.16644239425659

> <r_mmod_Van_der_Waal_Energy-OPLS-2005>
110.888458251953

> <r_mmod_Electrostatic_Energy-OPLS-2005>
-429.972290039062

> <r_mmod_Solvation_Energy-OPLS-2005>
-201.592163085938

> <b_mmod_Minimization_Converged-OPLS-2005>
0

> <r_mmod_RMS_Derivative-OPLS-2005>
2.35679864883423

$$$$
77
                    3D
 Structure written by MMmdl.
158166  0  0  1  0            999 V2000
  -30.6314  -14.6717   20.4613 C   0  0  0  0  0  0
  -30.4276  -12.4060   19.4664 C   0  0  0  0  0  0
  -29.5105  -12.5015   18.2291 C   0  0  0  0  0  0
  -28.0308  -12.3468   18.6344 C   0  0  0  0  0  0
  -27.6460  -13.2281   19.8538 C   0  0  2  0  0  0
  -28.6898  -13.1271   20.9880 C   0  0  0  0  0  0
  -25.2541  -13.8201   20.5689 C   0  0  0  0  0  0
  -24.1840  -13.0451   20.9221 C   0  0  0  0  0  0
  -24.6409  -11.6920   20.8754 C   0  0  0  0  0  0
  -23.9076  -10.4299   21.0410 C   0  0  0  0  0  0
  -24.3626   -9.4220   21.9187 C   0  0  0  0  0  0
  -23.6306   -8.2252   22.0754 C   0  0  0  0  0  0
  -22.4279   -8.0291   21.3544 C   0  0  0  0  0  0
  -21.9922   -9.0270   20.4638 C   0  0  0  0  0  0
  -22.7247  -10.2149   20.3050 C   0  0  0  0  0  0
  -21.6854   -6.0740   22.5289 C   0  0  0  0  0  0
  -21.4017   -6.5645   23.8223 C   0  0  0  0  0  0
  -21.3664   -5.6791   24.9182 C   0  0  0  0  0  0
  -21.6042   -4.3055   24.7219 C   0  0  0  0  0  0
  -21.8822   -3.8148   23.4339 C   0  0  0  0  0  0
  -21.9195   -4.6973   22.3399 C   0  0  0  0  0  0
  -22.7855  -13.5250   21.1872 C   0  0  0  0  0  0
  -22.1664   -4.2173   21.0970 F   0  0  0  0  0  0
  -21.5622   -3.4533   25.7725 F   0  0  0  0  0  0
  -29.9988  -13.4567   20.4114 N   0  0  0  0  0  0
  -26.2962  -12.9397   20.3278 N   0  0  0  0  0  0
  -25.9334  -11.6536   20.5735 N   0  0  0  0  0  0
  -22.0471  -12.8249   22.0410 N   0  0  0  0  0  0
  -25.4240  -15.1924   20.4082 N   0  0  0  0  0  0
  -31.8152  -14.7789   20.1325 O   0  0  0  0  0  0
  -21.6636   -6.8886   21.4248 O   0  0  0  0  0  0
  -22.3552  -14.5542   20.6694 O   0  0  0  0  0  0
  -24.6286  -31.8579   23.2029 C   0  0  0  0  0  0
  -25.9128  -32.4765   23.8350 C   0  0  1  0  0  0
  -27.2157  -27.2953   20.1111 C   0  0  0  0  0  0
  -25.5959  -33.8570   24.2288 N   0  0  0  0  0  0
  -23.4230  -30.4824   21.5455 C   0  0  2  0  0  0
  -24.8703  -28.9448   20.1016 C   0  0  0  0  0  0
  -22.7503  -29.4610   22.4932 C   0  0  0  0  0  0
  -18.0315  -28.1342   22.8506 C   0  0  0  0  0  0
  -24.1499  -36.7289   23.2628 C   0  0  0  0  0  0
  -25.9666  -30.7790   21.3812 C   0  0  0  0  0  0
  -26.0388  -29.4057   20.7222 C   0  0  0  0  0  0
  -27.2134  -28.5916   20.7215 C   0  0  0  0  0  0
  -26.0328  -26.9134   19.4346 C   0  0  0  0  0  0
  -24.8737  -27.7086   19.4433 C   0  0  0  0  0  0
  -23.6383  -29.8254   20.1577 C   0  0  0  0  0  0
  -25.4120  -36.3081   24.0325 C   0  0  1  0  0  0
  -20.5921  -28.3675   23.1296 C   0  0  2  0  0  0
  -20.6830  -26.9431   22.5336 C   0  0  0  0  0  0
  -19.5757  -26.6410   21.5180 C   0  0  0  0  0  0
  -18.1980  -26.7861   22.1701 C   0  0  0  0  0  0
  -19.1562  -28.8829   23.2882 C   0  0  0  0  0  0
  -18.9464  -30.1438   23.8879 C   0  0  0  0  0  0
  -17.6448  -30.6539   24.0556 C   0  0  0  0  0  0
  -25.9052  -34.9448   23.5101 C   0  0  0  0  0  0
  -16.5350  -29.9014   23.6331 C   0  0  0  0  0  0
  -16.7292  -28.6439   23.0348 C   0  0  0  0  0  0
  -26.4519  -31.6567   25.0715 C   0  0  0  0  0  0
  -25.3756  -31.3701   26.1442 C   0  0  0  0  0  0
  -27.0347  -30.2982   24.6176 C   0  0  0  0  0  0
  -27.6088  -32.4284   25.7488 C   0  0  0  0  0  0
  -27.5588  -37.1804   24.8459 C   0  0  0  0  0  0
  -21.4213  -29.3075   22.3733 N   0  0  0  0  0  0
  -26.4295  -37.3783   23.9411 N   0  0  0  0  0  0
  -24.6916  -31.0568   22.1001 N   0  0  0  0  0  0
  -23.4226  -28.8106   23.2966 O   0  0  0  0  0  0
  -28.3065  -26.4033   20.1897 O   0  0  0  0  0  0
  -26.5598  -34.8910   22.4654 O   0  0  0  0  0  0
  -23.5446  -32.1395   23.7343 O   0  0  0  0  0  0
  -29.5805  -19.7872   20.1218 C   0  0  0  0  0  0
  -27.8208  -20.7399   21.4505 C   0  0  0  0  0  0
  -28.8055  -20.9532   20.4738 C   0  0  0  0  0  0
  -29.3783  -18.5004   20.7530 C   0  0  0  0  0  0
  -28.3976  -18.4911   21.7768 C   0  0  0  0  0  0
  -28.1246  -17.2796   22.6477 C   0  0  0  0  0  0
  -28.9017  -23.7124   21.9910 C   0  0  0  0  0  0
  -28.8687  -22.3485   19.7252 C   0  0  0  0  0  0
  -30.2555  -17.2297   20.3615 C   0  0  0  0  0  0
  -28.0594  -24.9596   19.8992 C   0  0  0  0  0  0
  -29.0010  -23.7870   20.4580 C   0  0  1  0  0  0
  -27.6390  -19.5665   22.0895 N   0  0  0  0  0  0
  -29.8542  -15.7936   20.6483 N   0  0  0  0  0  0
  -31.4734  -12.5119   19.1746 H   0  0  0  0  0  0
  -30.3464  -11.4236   19.9319 H   0  0  0  0  0  0
  -29.7818  -11.7379   17.4986 H   0  0  0  0  0  0
  -29.6613  -13.4629   17.7360 H   0  0  0  0  0  0
  -27.8576  -11.2955   18.8685 H   0  0  0  0  0  0
  -27.3854  -12.5782   17.7861 H   0  0  0  0  0  0
  -27.6501  -14.2569   19.4945 H   0  0  0  0  0  0
  -28.7041  -12.1205   21.4078 H   0  0  0  0  0  0
  -28.4400  -13.7997   21.8105 H   0  0  0  0  0  0
  -25.2762   -9.5711   22.4777 H   0  0  0  0  0  0
  -24.0021   -7.4636   22.7472 H   0  0  0  0  0  0
  -21.0857   -8.8773   19.8944 H   0  0  0  0  0  0
  -22.3693  -10.9691   19.6162 H   0  0  0  0  0  0
  -21.2009   -7.6151   23.9743 H   0  0  0  0  0  0
  -21.1488   -6.0505   25.9089 H   0  0  0  0  0  0
  -22.0598   -2.7618   23.2820 H   0  0  0  0  0  0
  -22.4059  -11.9907   22.4815 H   0  0  0  0  0  0
  -21.1090  -13.1302   22.2583 H   0  0  0  0  0  0
  -24.6466  -15.8350   20.5038 H   0  0  0  0  0  0
  -26.2406  -15.6214   19.9939 H   0  0  0  0  0  0
  -26.7185  -32.5425   23.1074 H   0  0  0  0  0  0
  -25.0173  -33.9726   25.0482 H   0  0  0  0  0  0
  -22.7168  -31.3031   21.4048 H   0  0  0  0  0  0
  -23.3774  -35.9610   23.3264 H   0  0  0  0  0  0
  -24.3609  -36.8933   22.2053 H   0  0  0  0  0  0
  -23.7240  -37.6477   23.6661 H   0  0  0  0  0  0
  -26.1025  -31.5410   20.6126 H   0  0  0  0  0  0
  -26.8475  -30.8272   22.0105 H   0  0  0  0  0  0
  -28.1033  -28.9359   21.2302 H   0  0  0  0  0  0
  -25.9673  -25.9849   18.8874 H   0  0  0  0  0  0
  -23.9909  -27.3619   18.9222 H   0  0  0  0  0  0
  -23.7560  -30.6049   19.4039 H   0  0  0  0  0  0
  -22.7590  -29.2538   19.8523 H   0  0  0  0  0  0
  -25.1301  -36.1924   25.0819 H   0  0  0  0  0  0
  -21.0027  -28.3188   24.1408 H   0  0  0  0  0  0
  -20.5833  -26.2257   23.3495 H   0  0  0  0  0  0
  -21.6680  -26.7515   22.1053 H   0  0  0  0  0  0
  -19.6925  -25.6352   21.1145 H   0  0  0  0  0  0
  -19.6609  -27.3278   20.6739 H   0  0  0  0  0  0
  -17.4187  -26.6492   21.4182 H   0  0  0  0  0  0
  -18.0546  -26.0026   22.9165 H   0  0  0  0  0  0
  -19.7932  -30.7280   24.2226 H   0  0  0  0  0  0
  -17.4972  -31.6208   24.5177 H   0  0  0  0  0  0
  -15.5338  -30.2875   23.7665 H   0  0  0  0  0  0
  -15.8703  -28.0725   22.7077 H   0  0  0  0  0  0
  -24.5964  -30.6995   25.7784 H   0  0  0  0  0  0
  -24.8894  -32.2851   26.4828 H   0  0  0  0  0  0
  -25.8096  -30.8924   27.0234 H   0  0  0  0  0  0
  -26.2898  -29.6733   24.1221 H   0  0  0  0  0  0
  -27.4060  -29.7235   25.4674 H   0  0  0  0  0  0
  -27.8779  -30.4253   23.9383 H   0  0  0  0  0  0
  -27.2735  -33.3629   26.1999 H   0  0  0  0  0  0
  -28.3948  -32.6753   25.0335 H   0  0  0  0  0  0
  -28.0691  -31.8422   26.5457 H   0  0  0  0  0  0
  -28.2578  -38.0127   24.7534 H   0  0  0  0  0  0
  -28.1113  -36.2658   24.6245 H   0  0  0  0  0  0
  -27.2308  -37.1401   25.8860 H   0  0  0  0  0  0
  -20.9384  -29.8904   21.7053 H   0  0  0  0  0  0
  -26.0167  -38.2852   24.1423 H   0  0  0  0  0  0
  -30.3235  -19.8725   19.3419 H   0  0  0  0  0  0
  -27.1349  -21.5286   21.7203 H   0  0  0  0  0  0
  -29.0561  -16.8199   22.9771 H   0  0  0  0  0  0
  -27.5259  -16.5422   22.1134 H   0  0  0  0  0  0
  -27.5754  -17.5593   23.5475 H   0  0  0  0  0  0
  -29.5032  -22.8978   22.3964 H   0  0  0  0  0  0
  -27.8722  -23.5821   22.3257 H   0  0  0  0  0  0
  -29.2686  -24.6345   22.4397 H   0  0  0  0  0  0
  -27.9588  -22.3812   19.1248 H   0  0  0  0  0  0
  -29.6671  -22.2829   18.9847 H   0  0  0  0  0  0
  -31.2392  -17.3871   20.8055 H   0  0  0  0  0  0
  -30.4184  -17.2855   19.2839 H   0  0  0  0  0  0
  -27.0611  -24.7001   20.2573 H   0  0  0  0  0  0
  -28.0248  -24.8680   18.8129 H   0  0  0  0  0  0
  -30.0232  -24.1086   20.2567 H   0  0  0  0  0  0
  -28.8828  -15.6219   20.8511 H   0  0  0  0  0  0
  1 25  1  0  0  0
  1 30  2  0  0  0
  1 83  1  0  0  0
  2  3  1  0  0  0
  2 25  1  0  0  0
  2 84  1  0  0  0
  2 85  1  0  0  0
  3  4  1  0  0  0
  3 86  1  0  0  0
  3 87  1  0  0  0
  4  5  1  0  0  0
  4 88  1  0  0  0
  4 89  1  0  0  0
  5  6  1  0  0  0
  5 26  1  0  0  0
  5 90  1  0  0  0
  6 25  1  0  0  0
  6 91  1  0  0  0
  6 92  1  0  0  0
  7  8  2  0  0  0
  7 26  1  0  0  0
  7 29  1  0  0  0
  8  9  1  0  0  0
  8 22  1  0  0  0
  9 10  1  0  0  0
  9 27  2  0  0  0
 10 11  2  0  0  0
 10 15  1  0  0  0
 11 12  1  0  0  0
 11 93  1  0  0  0
 12 13  2  0  0  0
 12 94  1  0  0  0
 13 14  1  0  0  0
 13 31  1  0  0  0
 14 15  2  0  0  0
 14 95  1  0  0  0
 15 96  1  0  0  0
 16 17  2  0  0  0
 16 21  1  0  0  0
 16 31  1  0  0  0
 17 18  1  0  0  0
 17 97  1  0  0  0
 18 19  2  0  0  0
 18 98  1  0  0  0
 19 20  1  0  0  0
 19 24  1  0  0  0
 20 21  2  0  0  0
 20 99  1  0  0  0
 21 23  1  0  0  0
 22 28  1  0  0  0
 22 32  2  0  0  0
 26 27  1  0  0  0
 28100  1  0  0  0
 28101  1  0  0  0
 29102  1  0  0  0
 29103  1  0  0  0
 33 34  1  0  0  0
 33 66  1  0  0  0
 33 70  2  0  0  0
 34 36  1  0  0  0
 34 59  1  0  0  0
 34104  1  0  0  0
 35 44  2  0  0  0
 35 45  1  0  0  0
 35 68  1  0  0  0
 36 56  1  0  0  0
 36105  1  0  0  0
 37 39  1  0  0  0
 37 47  1  0  0  0
 37 66  1  0  0  0
 37106  1  0  0  0
 38 43  2  0  0  0
 38 46  1  0  0  0
 38 47  1  0  0  0
 39 64  1  0  0  0
 39 67  2  0  0  0
 40 52  1  0  0  0
 40 53  2  0  0  0
 40 58  1  0  0  0
 41107  1  0  0  0
 41108  1  0  0  0
 41109  1  0  0  0
 41 48  1  0  0  0
 42 43  1  0  0  0
 42 66  1  0  0  0
 42110  1  0  0  0
 42111  1  0  0  0
 43 44  1  0  0  0
 44112  1  0  0  0
 45 46  2  0  0  0
 45113  1  0  0  0
 46114  1  0  0  0
 47115  1  0  0  0
 47116  1  0  0  0
 48 56  1  0  0  0
 48 65  1  0  0  0
 48117  1  0  0  0
 49 50  1  0  0  0
 49 53  1  0  0  0
 49 64  1  0  0  0
 49118  1  0  0  0
 50 51  1  0  0  0
 50119  1  0  0  0
 50120  1  0  0  0
 51 52  1  0  0  0
 51121  1  0  0  0
 51122  1  0  0  0
 52123  1  0  0  0
 52124  1  0  0  0
 53 54  1  0  0  0
 54 55  2  0  0  0
 54125  1  0  0  0
 55 57  1  0  0  0
 55126  1  0  0  0
 56 69  2  0  0  0
 57 58  2  0  0  0
 57127  1  0  0  0
 58128  1  0  0  0
 59 60  1  0  0  0
 59 61  1  0  0  0
 59 62  1  0  0  0
 60129  1  0  0  0
 60130  1  0  0  0
 60131  1  0  0  0
 61132  1  0  0  0
 61133  1  0  0  0
 61134  1  0  0  0
 62135  1  0  0  0
 62136  1  0  0  0
 62137  1  0  0  0
 63 65  1  0  0  0
 63138  1  0  0  0
 63139  1  0  0  0
 63140  1  0  0  0
 64141  1  0  0  0
 65142  1  0  0  0
 68 80  1  0  0  0
 71 73  2  0  0  0
 71 74  1  0  0  0
 71143  1  0  0  0
 72 73  1  0  0  0
 72 82  2  0  0  0
 72144  1  0  0  0
 73 78  1  0  0  0
 74 75  2  0  0  0
 74 79  1  0  0  0
 75 76  1  0  0  0
 75 82  1  0  0  0
 76145  1  0  0  0
 76146  1  0  0  0
 76147  1  0  0  0
 77148  1  0  0  0
 77149  1  0  0  0
 77150  1  0  0  0
 77 81  1  0  0  0
 78 81  1  0  0  0
 78151  1  0  0  0
 78152  1  0  0  0
 79 83  1  0  0  0
 79153  1  0  0  0
 79154  1  0  0  0
 80 81  1  0  0  0
 80155  1  0  0  0
 80156  1  0  0  0
 81157  1  0  0  0
 83158  1  0  0  0
M  ISO  4   1 100  68 101  80 101  83 100
M  END
> <chiral flag>
0

> <version>
0

> <s_m_source_file>
/data/baiqing/PycharmProjects/Reinvent-master-3.2/result/LINK_invent/BTK/process_docking_weight1_custom_sum_contain_oxygen_bond_distance_aromatic_linkinvent_7_9_3/rearranged_h_0103.sdf

> <i_m_source_file_index>
78

> <r_mmod_Potential_Energy-OPLS-2005>
-33.396167755127

> <r_mmod_Stretch_Energy-OPLS-2005>
100.603393554688

> <r_mmod_Bend_Energy-OPLS-2005>
156.110641479492

> <r_mmod_Torsional_Energy-OPLS-2005>
208.855331420898

> <r_mmod_Improper_Torsional_Energy-OPLS-2005>
6.95095682144165

> <r_mmod_Van_der_Waal_Energy-OPLS-2005>
146.481750488281

> <r_mmod_Electrostatic_Energy-OPLS-2005>
-498.902618408203

> <r_mmod_Solvation_Energy-OPLS-2005>
-218.285858154297

> <b_mmod_Minimization_Converged-OPLS-2005>
0

> <r_mmod_RMS_Derivative-OPLS-2005>
2.56320333480835

$$$$
78
                    3D
 Structure written by MMmdl.
162170  0  0  1  0            999 V2000
  -30.4414  -15.2701   20.2605 C   0  0  0  0  0  0
  -30.4025  -12.7788   19.5293 C   0  0  0  0  0  0
  -29.5285  -12.5829   18.2717 C   0  0  0  0  0  0
  -28.0686  -12.3238   18.6787 C   0  0  0  0  0  0
  -27.6024  -13.2770   19.8098 C   0  0  2  0  0  0
  -28.6349  -13.4611   20.9408 C   0  0  0  0  0  0
  -25.2343  -13.8241   20.5705 C   0  0  0  0  0  0
  -24.1668  -13.0368   20.9261 C   0  0  0  0  0  0
  -24.6375  -11.6956   20.8709 C   0  0  0  0  0  0
  -23.9087  -10.4321   21.0400 C   0  0  0  0  0  0
  -24.3663   -9.4219   21.9144 C   0  0  0  0  0  0
  -23.6309   -8.2236   22.0746 C   0  0  0  0  0  0
  -22.4234   -8.0314   21.3584 C   0  0  0  0  0  0
  -21.9933   -9.0264   20.4629 C   0  0  0  0  0  0
  -22.7293  -10.2134   20.3024 C   0  0  0  0  0  0
  -21.6882   -6.0731   22.5272 C   0  0  0  0  0  0
  -21.4029   -6.5640   23.8206 C   0  0  0  0  0  0
  -21.3654   -5.6792   24.9171 C   0  0  0  0  0  0
  -21.6060   -4.3056   24.7231 C   0  0  0  0  0  0
  -21.8804   -3.8141   23.4351 C   0  0  0  0  0  0
  -21.9194   -4.6954   22.3408 C   0  0  0  0  0  0
  -22.7732  -13.5187   21.1843 C   0  0  0  0  0  0
  -22.1659   -4.2153   21.0988 F   0  0  0  0  0  0
  -21.5618   -3.4537   25.7739 F   0  0  0  0  0  0
  -29.8692  -13.9594   20.3035 N   0  0  0  0  0  0
  -26.2737  -12.9472   20.3153 N   0  0  0  0  0  0
  -25.9295  -11.6595   20.5672 N   0  0  0  0  0  0
  -22.0449  -12.8150   22.0477 N   0  0  0  0  0  0
  -25.3906  -15.1949   20.4229 N   0  0  0  0  0  0
  -31.6432  -15.2413   19.9490 O   0  0  0  0  0  0
  -21.6637   -6.8864   21.4228 O   0  0  0  0  0  0
  -22.3449  -14.5507   20.6768 O   0  0  0  0  0  0
  -24.6624  -31.8227   23.1630 C   0  0  0  0  0  0
  -25.9290  -32.4547   23.8187 C   0  0  1  0  0  0
  -27.2178  -26.9047   20.1690 C   0  0  0  0  0  0
  -25.5947  -33.8390   24.2023 N   0  0  0  0  0  0
  -23.4767  -30.4079   21.5156 C   0  0  2  0  0  0
  -24.9331  -28.8066   20.1181 C   0  0  0  0  0  0
  -22.7617  -29.4220   22.4906 C   0  0  0  0  0  0
  -18.0125  -28.1340   22.8392 C   0  0  0  0  0  0
  -24.1472  -36.7141   23.2667 C   0  0  0  0  0  0
  -26.0499  -30.6160   21.4064 C   0  0  0  0  0  0
  -26.1185  -29.2071   20.7424 C   0  0  0  0  0  0
  -27.2624  -28.2804   20.7232 C   0  0  0  0  0  0
  -25.9879  -26.6438   19.5372 C   0  0  0  0  0  0
  -24.8844  -27.5438   19.4992 C   0  0  0  0  0  0
  -23.7236  -29.7396   20.1405 C   0  0  0  0  0  0
  -25.4138  -36.2953   24.0303 C   0  0  1  0  0  0
  -20.5920  -28.3072   23.1198 C   0  0  2  0  0  0
  -20.5933  -26.8875   22.4927 C   0  0  0  0  0  0
  -19.5030  -26.7355   21.4132 C   0  0  0  0  0  0
  -18.1470  -26.8004   22.1268 C   0  0  0  0  0  0
  -19.1584  -28.8569   23.2791 C   0  0  0  0  0  0
  -18.9651  -30.1009   23.9058 C   0  0  0  0  0  0
  -17.6810  -30.6533   24.0588 C   0  0  0  0  0  0
  -25.9117  -34.9352   23.5005 C   0  0  0  0  0  0
  -16.5450  -29.9364   23.6029 C   0  0  0  0  0  0
  -16.7208  -28.6864   22.9917 C   0  0  0  0  0  0
  -26.4545  -31.6564   25.0828 C   0  0  0  0  0  0
  -25.3591  -31.3803   26.1412 C   0  0  0  0  0  0
  -27.0472  -30.2914   24.6684 C   0  0  0  0  0  0
  -27.6056  -32.4430   25.7498 C   0  0  0  0  0  0
  -27.5567  -37.1749   24.8484 C   0  0  0  0  0  0
  -21.4239  -29.2494   22.3511 N   0  0  0  0  0  0
  -26.4286  -37.3697   23.9383 N   0  0  0  0  0  0
  -24.7463  -30.9810   22.0770 N   0  0  0  0  0  0
  -23.4176  -28.8011   23.3292 O   0  0  0  0  0  0
  -28.2599  -25.8317   20.0994 O   0  0  0  0  0  0
  -26.5826  -34.8917   22.4641 O   0  0  0  0  0  0
  -23.5718  -32.1133   23.6740 O   0  0  0  0  0  0
  -27.8821  -21.3209   21.7963 C   0  0  0  0  0  0
  -28.6348  -21.0439   20.5985 C   0  0  0  0  0  0
  -27.4045  -20.2580   22.5023 C   0  0  0  0  0  0
  -28.9279  -19.5335   20.5662 C   0  0  0  0  0  0
  -23.7130  -20.9145   23.6496 C   0  0  0  0  0  0
  -28.3197  -22.4158   18.3458 C   0  0  0  0  0  0
  -26.6383  -21.0587   24.8006 C   0  0  0  0  0  0
  -29.6055  -18.1211   19.8070 C   0  0  0  0  0  0
  -24.9994  -20.7377   22.8176 C   0  0  0  0  0  0
  -28.1371  -24.2058   20.4064 C   0  0  0  0  0  0
  -28.7663  -22.5993   19.8128 C   0  0  1  0  0  0
  -26.2914  -20.2667   23.5284 C   0  0  1  0  0  0
  -29.7422  -16.5710   20.4537 N   0  0  0  0  0  0
  -28.1696  -18.8169   21.9787 S   0  0  0  0  0  0
  -31.4505  -12.9082   19.2700 H   0  0  0  0  0  0
  -30.3766  -11.8715   20.1360 H   0  0  0  0  0  0
  -29.9051  -11.7561   17.6690 H   0  0  0  0  0  0
  -29.5851  -13.4676   17.6366 H   0  0  0  0  0  0
  -27.9847  -11.2875   18.9948 H   0  0  0  0  0  0
  -27.4110  -12.4204   17.8117 H   0  0  0  0  0  0
  -27.5129  -14.2511   19.3271 H   0  0  0  0  0  0
  -28.7909  -12.5243   21.4775 H   0  0  0  0  0  0
  -28.2734  -14.1773   21.6797 H   0  0  0  0  0  0
  -25.2806   -9.5683   22.4746 H   0  0  0  0  0  0
  -24.0024   -7.4628   22.7496 H   0  0  0  0  0  0
  -21.0846   -8.8764   19.8963 H   0  0  0  0  0  0
  -22.3718  -10.9647   19.6147 H   0  0  0  0  0  0
  -21.2038   -7.6157   23.9719 H   0  0  0  0  0  0
  -21.1484   -6.0528   25.9084 H   0  0  0  0  0  0
  -22.0594   -2.7611   23.2848 H   0  0  0  0  0  0
  -22.4150  -11.9883   22.4840 H   0  0  0  0  0  0
  -21.1075  -13.1121   22.2689 H   0  0  0  0  0  0
  -24.6172  -15.8373   20.5683 H   0  0  0  0  0  0
  -26.2464  -15.6630   20.1441 H   0  0  0  0  0  0
  -26.7442  -32.5117   23.0998 H   0  0  0  0  0  0
  -24.9927  -33.9371   25.0082 H   0  0  0  0  0  0
  -22.7822  -31.2331   21.3613 H   0  0  0  0  0  0
  -23.3803  -35.9403   23.3317 H   0  0  0  0  0  0
  -24.3505  -36.8817   22.2081 H   0  0  0  0  0  0
  -23.7150  -37.6298   23.6725 H   0  0  0  0  0  0
  -26.2856  -31.3728   20.6405 H   0  0  0  0  0  0
  -26.8881  -30.6275   22.0968 H   0  0  0  0  0  0
  -28.1684  -28.6051   21.1930 H   0  0  0  0  0  0
  -25.8741  -25.6786   19.0718 H   0  0  0  0  0  0
  -23.9732  -27.2425   18.9912 H   0  0  0  0  0  0
  -23.9039  -30.5283   19.4032 H   0  0  0  0  0  0
  -22.8316  -29.2098   19.8049 H   0  0  0  0  0  0
  -25.1331  -36.1754   25.0807 H   0  0  0  0  0  0
  -21.0290  -28.2145   24.1297 H   0  0  0  0  0  0
  -20.3518  -26.1399   23.2558 H   0  0  0  0  0  0
  -21.5653  -26.5908   22.1358 H   0  0  0  0  0  0
  -19.5749  -25.8105   20.8377 H   0  0  0  0  0  0
  -19.6036  -27.5497   20.6955 H   0  0  0  0  0  0
  -17.3051  -26.6403   21.4417 H   0  0  0  0  0  0
  -18.0779  -25.9961   22.8610 H   0  0  0  0  0  0
  -19.8015  -30.6387   24.3027 H   0  0  0  0  0  0
  -17.5656  -31.6147   24.5572 H   0  0  0  0  0  0
  -15.5616  -30.3568   23.6936 H   0  0  0  0  0  0
  -15.8589  -28.1686   22.5989 H   0  0  0  0  0  0
  -24.5825  -30.7081   25.7679 H   0  0  0  0  0  0
  -24.8724  -32.3004   26.4674 H   0  0  0  0  0  0
  -25.7789  -30.9098   27.0304 H   0  0  0  0  0  0
  -26.3193  -29.6515   24.1678 H   0  0  0  0  0  0
  -27.3863  -29.7335   25.5418 H   0  0  0  0  0  0
  -27.9171  -30.4015   24.0184 H   0  0  0  0  0  0
  -27.2660  -33.3822   26.1813 H   0  0  0  0  0  0
  -28.3893  -32.6826   25.0304 H   0  0  0  0  0  0
  -28.0672  -31.8786   26.5569 H   0  0  0  0  0  0
  -28.2639  -38.0036   24.7547 H   0  0  0  0  0  0
  -28.1039  -36.2546   24.6291 H   0  0  0  0  0  0
  -27.2277  -37.1374   25.8915 H   0  0  0  0  0  0
  -20.9425  -29.7833   21.6421 H   0  0  0  0  0  0
  -26.0151  -38.2759   24.1430 H   0  0  0  0  0  0
  -27.5691  -22.3212   22.0418 H   0  0  0  0  0  0
  -22.9914  -21.4646   23.0367 H   0  0  0  0  0  0
  -23.8690  -21.5256   24.5483 H   0  0  0  0  0  0
  -23.2573  -19.9639   23.9265 H   0  0  0  0  0  0
  -28.9479  -21.6897   17.8180 H   0  0  0  0  0  0
  -28.3560  -23.3568   17.7934 H   0  0  0  0  0  0
  -27.3093  -21.9911   18.2795 H   0  0  0  0  0  0
  -27.4840  -20.6194   25.3292 H   0  0  0  0  0  0
  -25.8010  -21.0670   25.5024 H   0  0  0  0  0  0
  -26.8937  -22.0972   24.5606 H   0  0  0  0  0  0
  -30.5758  -18.3888   19.3721 H   0  0  0  0  0  0
  -28.9889  -17.9531   18.9204 H   0  0  0  0  0  0
  -25.1819  -21.7106   22.3727 H   0  0  0  0  0  0
  -24.8097  -20.0821   21.9555 H   0  0  0  0  0  0
  -28.6551  -24.2166   21.3590 H   0  0  0  0  0  0
  -27.0990  -24.0603   20.7095 H   0  0  0  0  0  0
  -29.8446  -22.7522   19.7235 H   0  0  0  0  0  0
  -26.1258  -19.2357   23.8788 H   0  0  0  0  0  0
  -29.8948  -16.7312   21.4491 H   0  0  0  0  0  0
  1 25  1  0  0  0
  1 30  2  0  0  0
  1 83  1  0  0  0
  2  3  1  0  0  0
  2 25  1  0  0  0
  2 85  1  0  0  0
  2 86  1  0  0  0
  3  4  1  0  0  0
  3 87  1  0  0  0
  3 88  1  0  0  0
  4  5  1  0  0  0
  4 89  1  0  0  0
  4 90  1  0  0  0
  5  6  1  0  0  0
  5 26  1  0  0  0
  5 91  1  0  0  0
  6 25  1  0  0  0
  6 92  1  0  0  0
  6 93  1  0  0  0
  7  8  2  0  0  0
  7 26  1  0  0  0
  7 29  1  0  0  0
  8  9  1  0  0  0
  8 22  1  0  0  0
  9 10  1  0  0  0
  9 27  2  0  0  0
 10 11  2  0  0  0
 10 15  1  0  0  0
 11 12  1  0  0  0
 11 94  1  0  0  0
 12 13  2  0  0  0
 12 95  1  0  0  0
 13 14  1  0  0  0
 13 31  1  0  0  0
 14 15  2  0  0  0
 14 96  1  0  0  0
 15 97  1  0  0  0
 16 17  2  0  0  0
 16 21  1  0  0  0
 16 31  1  0  0  0
 17 18  1  0  0  0
 17 98  1  0  0  0
 18 19  2  0  0  0
 18 99  1  0  0  0
 19 20  1  0  0  0
 19 24  1  0  0  0
 20 21  2  0  0  0
 20100  1  0  0  0
 21 23  1  0  0  0
 22 28  1  0  0  0
 22 32  2  0  0  0
 26 27  1  0  0  0
 28101  1  0  0  0
 28102  1  0  0  0
 29103  1  0  0  0
 29104  1  0  0  0
 33 34  1  0  0  0
 33 66  1  0  0  0
 33 70  2  0  0  0
 34 36  1  0  0  0
 34 59  1  0  0  0
 34105  1  0  0  0
 35 44  2  0  0  0
 35 45  1  0  0  0
 35 68  1  0  0  0
 36 56  1  0  0  0
 36106  1  0  0  0
 37 39  1  0  0  0
 37 47  1  0  0  0
 37 66  1  0  0  0
 37107  1  0  0  0
 38 43  2  0  0  0
 38 46  1  0  0  0
 38 47  1  0  0  0
 39 64  1  0  0  0
 39 67  2  0  0  0
 40 52  1  0  0  0
 40 53  2  0  0  0
 40 58  1  0  0  0
 41108  1  0  0  0
 41109  1  0  0  0
 41110  1  0  0  0
 41 48  1  0  0  0
 42 43  1  0  0  0
 42 66  1  0  0  0
 42111  1  0  0  0
 42112  1  0  0  0
 43 44  1  0  0  0
 44113  1  0  0  0
 45 46  2  0  0  0
 45114  1  0  0  0
 46115  1  0  0  0
 47116  1  0  0  0
 47117  1  0  0  0
 48 56  1  0  0  0
 48 65  1  0  0  0
 48118  1  0  0  0
 49 50  1  0  0  0
 49 53  1  0  0  0
 49 64  1  0  0  0
 49119  1  0  0  0
 50 51  1  0  0  0
 50120  1  0  0  0
 50121  1  0  0  0
 51 52  1  0  0  0
 51122  1  0  0  0
 51123  1  0  0  0
 52124  1  0  0  0
 52125  1  0  0  0
 53 54  1  0  0  0
 54 55  2  0  0  0
 54126  1  0  0  0
 55 57  1  0  0  0
 55127  1  0  0  0
 56 69  2  0  0  0
 57 58  2  0  0  0
 57128  1  0  0  0
 58129  1  0  0  0
 59 60  1  0  0  0
 59 61  1  0  0  0
 59 62  1  0  0  0
 60130  1  0  0  0
 60131  1  0  0  0
 60132  1  0  0  0
 61133  1  0  0  0
 61134  1  0  0  0
 61135  1  0  0  0
 62136  1  0  0  0
 62137  1  0  0  0
 62138  1  0  0  0
 63 65  1  0  0  0
 63139  1  0  0  0
 63140  1  0  0  0
 63141  1  0  0  0
 64142  1  0  0  0
 65143  1  0  0  0
 68 80  1  0  0  0
 71 72  1  0  0  0
 71 73  2  0  0  0
 71144  1  0  0  0
 72 74  2  0  0  0
 72 81  1  0  0  0
 73 82  1  0  0  0
 73 84  1  0  0  0
 74 78  1  0  0  0
 74 84  1  0  0  0
 75 79  1  0  0  0
 75145  1  0  0  0
 75146  1  0  0  0
 75147  1  0  0  0
 76148  1  0  0  0
 76149  1  0  0  0
 76150  1  0  0  0
 76 81  1  0  0  0
 77151  1  0  0  0
 77152  1  0  0  0
 77153  1  0  0  0
 77 82  1  0  0  0
 78 83  1  0  0  0
 78154  1  0  0  0
 78155  1  0  0  0
 79 82  1  0  0  0
 79156  1  0  0  0
 79157  1  0  0  0
 80 81  1  0  0  0
 80158  1  0  0  0
 80159  1  0  0  0
 81160  1  0  0  0
 82161  1  0  0  0
 83162  1  0  0  0
M  ISO  4   1 100  68 101  80 101  83 100
M  END
> <chiral flag>
0

> <version>
0

> <s_m_source_file>
/data/baiqing/PycharmProjects/Reinvent-master-3.2/result/LINK_invent/BTK/process_docking_weight1_custom_sum_contain_oxygen_bond_distance_aromatic_linkinvent_7_9_3/rearranged_h_0103.sdf

> <i_m_source_file_index>
79

> <r_mmod_Potential_Energy-OPLS-2005>
1493.12829589844

> <r_mmod_Stretch_Energy-OPLS-2005>
658.67138671875

> <r_mmod_Bend_Energy-OPLS-2005>
568.705993652344

> <r_mmod_Torsional_Energy-OPLS-2005>
278.130157470703

> <r_mmod_Improper_Torsional_Energy-OPLS-2005>
7.87477445602417

> <r_mmod_Van_der_Waal_Energy-OPLS-2005>
106.465469360352

> <r_mmod_Electrostatic_Energy-OPLS-2005>
-401.483825683594

> <r_mmod_Solvation_Energy-OPLS-2005>
-196.420593261719

> <b_mmod_Minimization_Converged-OPLS-2005>
0

> <r_mmod_RMS_Derivative-OPLS-2005>
24.8691253662109

$$$$
79
                    3D
 Structure written by MMmdl.
160168  0  0  1  0            999 V2000
  -30.5775  -14.7731   20.4669 C   0  0  0  0  0  0
  -30.4496  -12.4792   19.4597 C   0  0  0  0  0  0
  -29.5132  -12.5034   18.2306 C   0  0  0  0  0  0
  -28.0417  -12.3168   18.6526 C   0  0  0  0  0  0
  -27.6422  -13.2233   19.8465 C   0  0  2  0  0  0
  -28.6900  -13.1555   20.9782 C   0  0  0  0  0  0
  -25.2533  -13.8177   20.5679 C   0  0  0  0  0  0
  -24.1824  -13.0425   20.9220 C   0  0  0  0  0  0
  -24.6410  -11.6908   20.8748 C   0  0  0  0  0  0
  -23.9079  -10.4289   21.0418 C   0  0  0  0  0  0
  -24.3622   -9.4195   21.9205 C   0  0  0  0  0  0
  -23.6293   -8.2235   22.0756 C   0  0  0  0  0  0
  -22.4283   -8.0283   21.3539 C   0  0  0  0  0  0
  -21.9924   -9.0253   20.4652 C   0  0  0  0  0  0
  -22.7248  -10.2135   20.3069 C   0  0  0  0  0  0
  -21.6850   -6.0742   22.5279 C   0  0  0  0  0  0
  -21.4013   -6.5640   23.8209 C   0  0  0  0  0  0
  -21.3659   -5.6794   24.9184 C   0  0  0  0  0  0
  -21.6039   -4.3059   24.7237 C   0  0  0  0  0  0
  -21.8819   -3.8155   23.4346 C   0  0  0  0  0  0
  -21.9192   -4.6969   22.3403 C   0  0  0  0  0  0
  -22.7851  -13.5231   21.1870 C   0  0  0  0  0  0
  -22.1662   -4.2159   21.0977 F   0  0  0  0  0  0
  -21.5630   -3.4540   25.7737 F   0  0  0  0  0  0
  -29.9868  -13.5303   20.3944 N   0  0  0  0  0  0
  -26.2944  -12.9363   20.3258 N   0  0  0  0  0  0
  -25.9334  -11.6520   20.5745 N   0  0  0  0  0  0
  -22.0492  -12.8201   22.0414 N   0  0  0  0  0  0
  -25.4221  -15.1891   20.4077 N   0  0  0  0  0  0
  -31.7677  -14.9221   20.1764 O   0  0  0  0  0  0
  -21.6632   -6.8887   21.4242 O   0  0  0  0  0  0
  -22.3545  -14.5540   20.6721 O   0  0  0  0  0  0
  -24.6340  -31.8528   23.1956 C   0  0  0  0  0  0
  -25.9159  -32.4756   23.8303 C   0  0  1  0  0  0
  -27.2345  -27.2444   20.1211 C   0  0  0  0  0  0
  -25.5955  -33.8555   24.2231 N   0  0  0  0  0  0
  -23.4312  -30.4729   21.5410 C   0  0  2  0  0  0
  -24.8797  -28.9134   20.1129 C   0  0  0  0  0  0
  -22.7503  -29.4571   22.4908 C   0  0  0  0  0  0
  -18.0293  -28.1388   22.8482 C   0  0  0  0  0  0
  -24.1497  -36.7295   23.2640 C   0  0  0  0  0  0
  -25.9757  -30.7614   21.3751 C   0  0  0  0  0  0
  -26.0524  -29.3814   20.7162 C   0  0  0  0  0  0
  -27.2278  -28.5595   20.7069 C   0  0  0  0  0  0
  -26.0265  -26.8405   19.5050 C   0  0  0  0  0  0
  -24.8722  -27.6528   19.4951 C   0  0  0  0  0  0
  -23.6501  -29.8012   20.1597 C   0  0  0  0  0  0
  -25.4123  -36.3056   24.0304 C   0  0  1  0  0  0
  -20.5886  -28.3710   23.1276 C   0  0  2  0  0  0
  -20.6786  -26.9424   22.5417 C   0  0  0  0  0  0
  -19.5766  -26.6369   21.5225 C   0  0  0  0  0  0
  -18.1936  -26.7932   22.1609 C   0  0  0  0  0  0
  -19.1541  -28.8863   23.2870 C   0  0  0  0  0  0
  -18.9456  -30.1457   23.8896 C   0  0  0  0  0  0
  -17.6462  -30.6589   24.0568 C   0  0  0  0  0  0
  -25.9058  -34.9432   23.5054 C   0  0  0  0  0  0
  -16.5351  -29.9087   23.6338 C   0  0  0  0  0  0
  -16.7287  -28.6497   23.0357 C   0  0  0  0  0  0
  -26.4506  -31.6610   25.0714 C   0  0  0  0  0  0
  -25.3707  -31.3775   26.1438 C   0  0  0  0  0  0
  -27.0393  -30.3026   24.6229 C   0  0  0  0  0  0
  -27.6043  -32.4379   25.7511 C   0  0  0  0  0  0
  -27.5578  -37.1794   24.8449 C   0  0  0  0  0  0
  -21.4207  -29.3062   22.3674 N   0  0  0  0  0  0
  -26.4302  -37.3755   23.9378 N   0  0  0  0  0  0
  -24.6997  -31.0449   22.0952 N   0  0  0  0  0  0
  -23.4177  -28.8107   23.3028 O   0  0  0  0  0  0
  -28.3643  -26.3880   20.2008 O   0  0  0  0  0  0
  -26.5617  -34.8910   22.4609 O   0  0  0  0  0  0
  -23.5488  -32.1368   23.7223 O   0  0  0  0  0  0
  -29.2783  -20.6961   18.4744 C   0  0  0  0  0  0
  -29.0039  -22.0258   18.6812 C   0  0  0  0  0  0
  -29.3679  -21.0358   20.6385 C   0  0  0  0  0  0
  -29.5261  -19.9962   19.7019 C   0  0  0  0  0  0
  -27.4585  -23.5037   21.5372 C   0  0  0  0  0  0
  -29.9094  -24.0356   21.5809 C   0  0  0  0  0  0
  -29.8963  -17.3764   20.9110 C   0  0  0  0  0  0
  -28.4435  -24.9627   19.6916 C   0  0  0  0  0  0
  -29.9109  -18.4155   19.6750 C   0  0  2  0  0  0
  -28.7193  -23.6796   20.6738 C   0  0  0  0  0  0
  -29.0280  -22.3028   20.0340 N   0  0  0  0  0  0
  -29.7390  -15.8614   20.6607 N   0  0  0  0  0  0
  -31.2157  -18.2951   19.0151 N   0  3  0  0  0  0
  -31.4825  -12.6406   19.1493 H   0  0  0  0  0  0
  -30.4270  -11.5032   19.9470 H   0  0  0  0  0  0
  -29.7988  -11.7222   17.5249 H   0  0  0  0  0  0
  -29.6244  -13.4496   17.6998 H   0  0  0  0  0  0
  -27.9128  -11.2699   18.9306 H   0  0  0  0  0  0
  -27.3771  -12.4873   17.8052 H   0  0  0  0  0  0
  -27.6342  -14.2412   19.4585 H   0  0  0  0  0  0
  -28.7373  -12.1516   21.4041 H   0  0  0  0  0  0
  -28.4179  -13.8199   21.7998 H   0  0  0  0  0  0
  -25.2778   -9.5662   22.4770 H   0  0  0  0  0  0
  -24.0001   -7.4626   22.7475 H   0  0  0  0  0  0
  -21.0860   -8.8791   19.8953 H   0  0  0  0  0  0
  -22.3732  -10.9681   19.6170 H   0  0  0  0  0  0
  -21.2002   -7.6151   23.9719 H   0  0  0  0  0  0
  -21.1482   -6.0527   25.9078 H   0  0  0  0  0  0
  -22.0598   -2.7620   23.2846 H   0  0  0  0  0  0
  -22.4100  -11.9860   22.4790 H   0  0  0  0  0  0
  -21.1116  -13.1227   22.2631 H   0  0  0  0  0  0
  -24.6477  -15.8358   20.5093 H   0  0  0  0  0  0
  -26.2508  -15.6258   20.0271 H   0  0  0  0  0  0
  -26.7230  -32.5400   23.1057 H   0  0  0  0  0  0
  -25.0146  -33.9691   25.0412 H   0  0  0  0  0  0
  -22.7281  -31.2960   21.3924 H   0  0  0  0  0  0
  -23.3744  -35.9650   23.3294 H   0  0  0  0  0  0
  -24.3575  -36.8925   22.2052 H   0  0  0  0  0  0
  -23.7282  -37.6498   23.6684 H   0  0  0  0  0  0
  -26.1057  -31.5212   20.6041 H   0  0  0  0  0  0
  -26.8537  -30.8204   22.0057 H   0  0  0  0  0  0
  -28.1251  -28.9143   21.1927 H   0  0  0  0  0  0
  -25.9205  -25.8692   19.0497 H   0  0  0  0  0  0
  -23.9679  -27.2847   19.0279 H   0  0  0  0  0  0
  -23.7744  -30.5733   19.4000 H   0  0  0  0  0  0
  -22.7689  -29.2310   19.8603 H   0  0  0  0  0  0
  -25.1321  -36.1890   25.0802 H   0  0  0  0  0  0
  -20.9990  -28.3316   24.1401 H   0  0  0  0  0  0
  -20.5718  -26.2330   23.3630 H   0  0  0  0  0  0
  -21.6657  -26.7504   22.1193 H   0  0  0  0  0  0
  -19.6950  -25.6267   21.1283 H   0  0  0  0  0  0
  -19.6704  -27.3170   20.6737 H   0  0  0  0  0  0
  -17.4224  -26.6702   21.3980 H   0  0  0  0  0  0
  -18.0311  -26.0066   22.8993 H   0  0  0  0  0  0
  -19.7926  -30.7269   24.2267 H   0  0  0  0  0  0
  -17.5021  -31.6287   24.5154 H   0  0  0  0  0  0
  -15.5341  -30.2999   23.7680 H   0  0  0  0  0  0
  -15.8673  -28.0843   22.7077 H   0  0  0  0  0  0
  -24.5873  -30.7156   25.7738 H   0  0  0  0  0  0
  -24.8952  -32.2980   26.4836 H   0  0  0  0  0  0
  -25.8024  -30.8950   27.0227 H   0  0  0  0  0  0
  -26.3011  -29.6740   24.1261 H   0  0  0  0  0  0
  -27.4087  -29.7319   25.4758 H   0  0  0  0  0  0
  -27.8860  -30.4271   23.9480 H   0  0  0  0  0  0
  -27.2611  -33.3670   26.2066 H   0  0  0  0  0  0
  -28.3888  -32.6955   25.0384 H   0  0  0  0  0  0
  -28.0698  -31.8550   26.5458 H   0  0  0  0  0  0
  -28.2582  -38.0099   24.7513 H   0  0  0  0  0  0
  -28.1085  -36.2628   24.6287 H   0  0  0  0  0  0
  -27.2284  -37.1478   25.8847 H   0  0  0  0  0  0
  -20.9404  -29.8810   21.6897 H   0  0  0  0  0  0
  -26.0161  -38.2827   24.1396 H   0  0  0  0  0  0
  -29.3093  -20.2507   17.4898 H   0  0  0  0  0  0
  -28.7823  -22.7997   17.9599 H   0  0  0  0  0  0
  -29.4667  -20.9894   21.7171 H   0  0  0  0  0  0
  -27.2392  -24.4038   22.1124 H   0  0  0  0  0  0
  -27.5698  -22.6822   22.2453 H   0  0  0  0  0  0
  -26.5875  -23.2910   20.9181 H   0  0  0  0  0  0
  -29.7671  -25.0071   22.0557 H   0  0  0  0  0  0
  -30.8395  -24.0824   21.0156 H   0  0  0  0  0  0
  -30.0480  -23.3055   22.3780 H   0  0  0  0  0  0
  -29.0326  -17.6425   21.5207 H   0  0  0  0  0  0
  -30.7595  -17.5456   21.5577 H   0  0  0  0  0  0
  -27.6016  -24.7130   19.0546 H   0  0  0  0  0  0
  -29.2817  -24.9936   18.9964 H   0  0  0  0  0  0
  -29.1867  -18.0012   18.9709 H   0  0  0  0  0  0
  -28.7822  -15.5610   20.7670 H   0  0  0  0  0  0
  -31.9262  -18.7006   19.5974 H   0  0  0  0  0  0
  -31.2019  -18.7815   18.1380 H   0  0  0  0  0  0
  -31.4385  -17.3299   18.8529 H   0  0  0  0  0  0
  1 25  1  0  0  0
  1 30  2  0  0  0
  1 82  1  0  0  0
  2  3  1  0  0  0
  2 25  1  0  0  0
  2 84  1  0  0  0
  2 85  1  0  0  0
  3  4  1  0  0  0
  3 86  1  0  0  0
  3 87  1  0  0  0
  4  5  1  0  0  0
  4 88  1  0  0  0
  4 89  1  0  0  0
  5  6  1  0  0  0
  5 26  1  0  0  0
  5 90  1  0  0  0
  6 25  1  0  0  0
  6 91  1  0  0  0
  6 92  1  0  0  0
  7  8  2  0  0  0
  7 26  1  0  0  0
  7 29  1  0  0  0
  8  9  1  0  0  0
  8 22  1  0  0  0
  9 10  1  0  0  0
  9 27  2  0  0  0
 10 11  2  0  0  0
 10 15  1  0  0  0
 11 12  1  0  0  0
 11 93  1  0  0  0
 12 13  2  0  0  0
 12 94  1  0  0  0
 13 14  1  0  0  0
 13 31  1  0  0  0
 14 15  2  0  0  0
 14 95  1  0  0  0
 15 96  1  0  0  0
 16 17  2  0  0  0
 16 21  1  0  0  0
 16 31  1  0  0  0
 17 18  1  0  0  0
 17 97  1  0  0  0
 18 19  2  0  0  0
 18 98  1  0  0  0
 19 20  1  0  0  0
 19 24  1  0  0  0
 20 21  2  0  0  0
 20 99  1  0  0  0
 21 23  1  0  0  0
 22 28  1  0  0  0
 22 32  2  0  0  0
 26 27  1  0  0  0
 28100  1  0  0  0
 28101  1  0  0  0
 29102  1  0  0  0
 29103  1  0  0  0
 33 34  1  0  0  0
 33 66  1  0  0  0
 33 70  2  0  0  0
 34 36  1  0  0  0
 34 59  1  0  0  0
 34104  1  0  0  0
 35 44  2  0  0  0
 35 45  1  0  0  0
 35 68  1  0  0  0
 36 56  1  0  0  0
 36105  1  0  0  0
 37 39  1  0  0  0
 37 47  1  0  0  0
 37 66  1  0  0  0
 37106  1  0  0  0
 38 43  2  0  0  0
 38 46  1  0  0  0
 38 47  1  0  0  0
 39 64  1  0  0  0
 39 67  2  0  0  0
 40 52  1  0  0  0
 40 53  2  0  0  0
 40 58  1  0  0  0
 41107  1  0  0  0
 41108  1  0  0  0
 41109  1  0  0  0
 41 48  1  0  0  0
 42 43  1  0  0  0
 42 66  1  0  0  0
 42110  1  0  0  0
 42111  1  0  0  0
 43 44  1  0  0  0
 44112  1  0  0  0
 45 46  2  0  0  0
 45113  1  0  0  0
 46114  1  0  0  0
 47115  1  0  0  0
 47116  1  0  0  0
 48 56  1  0  0  0
 48 65  1  0  0  0
 48117  1  0  0  0
 49 50  1  0  0  0
 49 53  1  0  0  0
 49 64  1  0  0  0
 49118  1  0  0  0
 50 51  1  0  0  0
 50119  1  0  0  0
 50120  1  0  0  0
 51 52  1  0  0  0
 51121  1  0  0  0
 51122  1  0  0  0
 52123  1  0  0  0
 52124  1  0  0  0
 53 54  1  0  0  0
 54 55  2  0  0  0
 54125  1  0  0  0
 55 57  1  0  0  0
 55126  1  0  0  0
 56 69  2  0  0  0
 57 58  2  0  0  0
 57127  1  0  0  0
 58128  1  0  0  0
 59 60  1  0  0  0
 59 61  1  0  0  0
 59 62  1  0  0  0
 60129  1  0  0  0
 60130  1  0  0  0
 60131  1  0  0  0
 61132  1  0  0  0
 61133  1  0  0  0
 61134  1  0  0  0
 62135  1  0  0  0
 62136  1  0  0  0
 62137  1  0  0  0
 63 65  1  0  0  0
 63138  1  0  0  0
 63139  1  0  0  0
 63140  1  0  0  0
 64141  1  0  0  0
 65142  1  0  0  0
 68 78  1  0  0  0
 71 72  2  0  0  0
 71 74  1  0  0  0
 71143  1  0  0  0
 72 81  1  0  0  0
 72144  1  0  0  0
 73 74  2  0  0  0
 73 81  1  0  0  0
 73145  1  0  0  0
 74 79  1  0  0  0
 75146  1  0  0  0
 75147  1  0  0  0
 75148  1  0  0  0
 75 80  1  0  0  0
 76 80  1  0  0  0
 76149  1  0  0  0
 76150  1  0  0  0
 76151  1  0  0  0
 77 79  1  0  0  0
 77 82  1  0  0  0
 77152  1  0  0  0
 77153  1  0  0  0
 78 80  1  0  0  0
 78154  1  0  0  0
 78155  1  0  0  0
 79 83  1  0  0  0
 79156  1  0  0  0
 80 81  1  0  0  0
 82157  1  0  0  0
 83158  1  0  0  0
 83159  1  0  0  0
 83160  1  0  0  0
M  CHG  1  83   1
M  ISO  4   1 100  68 101  78 101  82 100
M  END
> <chiral flag>
0

> <version>
0

> <s_m_source_file>
/data/baiqing/PycharmProjects/Reinvent-master-3.2/result/LINK_invent/BTK/process_docking_weight1_custom_sum_contain_oxygen_bond_distance_aromatic_linkinvent_7_9_3/rearranged_h_0103.sdf

> <i_m_source_file_index>
80

> <r_mmod_Potential_Energy-OPLS-2005>
-78.6889724731445

> <r_mmod_Stretch_Energy-OPLS-2005>
145.855010986328

> <r_mmod_Bend_Energy-OPLS-2005>
225.433517456055

> <r_mmod_Torsional_Energy-OPLS-2005>
270.383544921875

> <r_mmod_Improper_Torsional_Energy-OPLS-2005>
5.09939908981323

> <r_mmod_Van_der_Waal_Energy-OPLS-2005>
109.925262451172

> <r_mmod_Electrostatic_Energy-OPLS-2005>
-465.042388916016

> <r_mmod_Solvation_Energy-OPLS-2005>
-465.862091064453

> <b_mmod_Minimization_Converged-OPLS-2005>
0

> <r_mmod_RMS_Derivative-OPLS-2005>
3.72692108154297

$$$$
80
                    3D
 Structure written by MMmdl.
161169  0  0  1  0            999 V2000
  -30.4168  -15.2965   20.3942 C   0  0  0  0  0  0
  -30.4480  -12.8430   19.5201 C   0  0  0  0  0  0
  -29.5409  -12.5890   18.2889 C   0  0  0  0  0  0
  -28.0875  -12.3101   18.7147 C   0  0  0  0  0  0
  -27.6131  -13.2776   19.8291 C   0  0  2  0  0  0
  -28.6500  -13.4539   20.9593 C   0  0  0  0  0  0
  -25.2370  -13.8252   20.5769 C   0  0  0  0  0  0
  -24.1724  -13.0434   20.9275 C   0  0  0  0  0  0
  -24.6387  -11.6932   20.8770 C   0  0  0  0  0  0
  -23.9080  -10.4285   21.0413 C   0  0  0  0  0  0
  -24.3637   -9.4213   21.9193 C   0  0  0  0  0  0
  -23.6308   -8.2248   22.0769 C   0  0  0  0  0  0
  -22.4284   -8.0277   21.3555 C   0  0  0  0  0  0
  -21.9920   -9.0250   20.4665 C   0  0  0  0  0  0
  -22.7245  -10.2128   20.3068 C   0  0  0  0  0  0
  -21.6862   -6.0721   22.5282 C   0  0  0  0  0  0
  -21.4011   -6.5634   23.8211 C   0  0  0  0  0  0
  -21.3652   -5.6795   24.9173 C   0  0  0  0  0  0
  -21.6042   -4.3060   24.7243 C   0  0  0  0  0  0
  -21.8816   -3.8135   23.4366 C   0  0  0  0  0  0
  -21.9194   -4.6949   22.3414 C   0  0  0  0  0  0
  -22.7737  -13.5188   21.1918 C   0  0  0  0  0  0
  -22.1656   -4.2128   21.0991 F   0  0  0  0  0  0
  -21.5635   -3.4553   25.7753 F   0  0  0  0  0  0
  -29.8701  -13.9821   20.3221 N   0  0  0  0  0  0
  -26.2812  -12.9534   20.3250 N   0  0  0  0  0  0
  -25.9331  -11.6639   20.5747 N   0  0  0  0  0  0
  -22.0399  -12.8152   22.0481 N   0  0  0  0  0  0
  -25.3990  -15.1982   20.4197 N   0  0  0  0  0  0
  -31.6482  -15.3077   20.2426 O   0  0  0  0  0  0
  -21.6657   -6.8866   21.4235 O   0  0  0  0  0  0
  -22.3406  -14.5484   20.6765 O   0  0  0  0  0  0
  -24.6587  -31.8219   23.1731 C   0  0  0  0  0  0
  -25.9281  -32.4582   23.8161 C   0  0  1  0  0  0
  -27.2045  -26.9195   20.1878 C   0  0  0  0  0  0
  -25.5958  -33.8407   24.2050 N   0  0  0  0  0  0
  -23.4702  -30.4337   21.5236 C   0  0  2  0  0  0
  -24.9224  -28.8249   20.1074 C   0  0  0  0  0  0
  -22.7634  -29.4419   22.4842 C   0  0  0  0  0  0
  -18.0316  -28.1416   22.8461 C   0  0  0  0  0  0
  -24.1473  -36.7189   23.2653 C   0  0  0  0  0  0
  -26.0386  -30.6271   21.4040 C   0  0  0  0  0  0
  -26.1047  -29.2165   20.7495 C   0  0  0  0  0  0
  -27.2348  -28.2812   20.7718 C   0  0  0  0  0  0
  -25.9988  -26.6872   19.4859 C   0  0  0  0  0  0
  -24.8968  -27.5798   19.4598 C   0  0  0  0  0  0
  -23.7057  -29.7497   20.1483 C   0  0  0  0  0  0
  -25.4115  -36.2950   24.0297 C   0  0  1  0  0  0
  -20.5921  -28.3732   23.1248 C   0  0  2  0  0  0
  -20.6795  -26.9424   22.5460 C   0  0  0  0  0  0
  -19.5775  -26.6370   21.5266 C   0  0  0  0  0  0
  -18.1939  -26.7955   22.1625 C   0  0  0  0  0  0
  -19.1565  -28.8902   23.2827 C   0  0  0  0  0  0
  -18.9494  -30.1511   23.8834 C   0  0  0  0  0  0
  -17.6482  -30.6612   24.0558 C   0  0  0  0  0  0
  -25.9102  -34.9360   23.4987 C   0  0  0  0  0  0
  -16.5376  -29.9080   23.6370 C   0  0  0  0  0  0
  -16.7301  -28.6511   23.0370 C   0  0  0  0  0  0
  -26.4532  -31.6561   25.0718 C   0  0  0  0  0  0
  -25.3644  -31.3841   26.1371 C   0  0  0  0  0  0
  -27.0426  -30.2918   24.6490 C   0  0  0  0  0  0
  -27.6012  -32.4386   25.7499 C   0  0  0  0  0  0
  -27.5551  -37.1722   24.8458 C   0  0  0  0  0  0
  -21.4314  -29.2993   22.3583 N   0  0  0  0  0  0
  -26.4232  -37.3715   23.9444 N   0  0  0  0  0  0
  -24.7438  -30.9882   22.0878 N   0  0  0  0  0  0
  -23.4192  -28.8023   23.3102 O   0  0  0  0  0  0
  -28.1990  -25.8107   20.3153 O   0  0  0  0  0  0
  -26.5741  -34.8894   22.4605 O   0  0  0  0  0  0
  -23.5672  -32.1208   23.6840 O   0  0  0  0  0  0
  -29.8930  -19.0982   18.4725 C   0  0  0  0  0  0
  -30.2049  -19.8916   17.3687 C   0  0  0  0  0  0
  -29.4607  -19.6070   19.7197 C   0  0  0  0  0  0
  -30.0674  -21.2738   17.4697 C   0  0  0  0  0  0
  -29.1512  -21.1787   19.6764 C   0  0  0  0  0  0
  -30.5202  -21.1066   14.0980 C   0  0  0  0  0  0
  -31.4478  -23.3601   17.0638 C   0  0  0  0  0  0
  -29.6143  -18.2103   20.7446 C   0  0  0  0  0  0
  -28.6922  -22.6005   20.5621 C   0  0  0  0  0  0
  -31.3858  -21.6189   15.2543 C   0  0  0  0  0  0
  -28.0794  -24.2018   19.9309 C   0  0  0  0  0  0
  -30.5776  -22.2660   16.4088 C   0  0  1  0  0  0
  -29.4935  -21.8299   18.5431 N   0  0  0  0  0  0
  -29.6022  -16.5449   20.4415 N   0  0  0  0  0  0
  -31.4589  -13.0743   19.1810 H   0  0  0  0  0  0
  -30.5405  -11.9445   20.1315 H   0  0  0  0  0  0
  -29.9303  -11.7583   17.7005 H   0  0  0  0  0  0
  -29.5677  -13.4633   17.6355 H   0  0  0  0  0  0
  -28.0340  -11.2805   19.0718 H   0  0  0  0  0  0
  -27.4207  -12.3653   17.8543 H   0  0  0  0  0  0
  -27.5260  -14.2482   19.3411 H   0  0  0  0  0  0
  -28.8350  -12.5175   21.4877 H   0  0  0  0  0  0
  -28.2857  -14.1633   21.7044 H   0  0  0  0  0  0
  -25.2788   -9.5690   22.4762 H   0  0  0  0  0  0
  -24.0019   -7.4632   22.7484 H   0  0  0  0  0  0
  -21.0848   -8.8750   19.8977 H   0  0  0  0  0  0
  -22.3692  -10.9655   19.6174 H   0  0  0  0  0  0
  -21.2011   -7.6145   23.9709 H   0  0  0  0  0  0
  -21.1467   -6.0531   25.9071 H   0  0  0  0  0  0
  -22.0608   -2.7601   23.2882 H   0  0  0  0  0  0
  -22.4036  -11.9821   22.4862 H   0  0  0  0  0  0
  -21.1014  -13.1149   22.2724 H   0  0  0  0  0  0
  -24.6279  -15.8459   20.5382 H   0  0  0  0  0  0
  -26.2326  -15.6405   20.0569 H   0  0  0  0  0  0
  -26.7340  -32.5096   23.0856 H   0  0  0  0  0  0
  -24.9981  -33.9509   25.0100 H   0  0  0  0  0  0
  -22.7823  -31.2656   21.3557 H   0  0  0  0  0  0
  -23.3779  -35.9477   23.3268 H   0  0  0  0  0  0
  -24.3545  -36.8898   22.2081 H   0  0  0  0  0  0
  -23.7196  -37.6335   23.6764 H   0  0  0  0  0  0
  -26.2187  -31.3727   20.6276 H   0  0  0  0  0  0
  -26.8986  -30.6778   22.0601 H   0  0  0  0  0  0
  -28.1176  -28.5666   21.3254 H   0  0  0  0  0  0
  -25.8591  -25.7400   18.9872 H   0  0  0  0  0  0
  -23.9953  -27.2706   18.9468 H   0  0  0  0  0  0
  -23.8539  -30.5188   19.3908 H   0  0  0  0  0  0
  -22.8130  -29.2051   19.8332 H   0  0  0  0  0  0
  -25.1310  -36.1701   25.0786 H   0  0  0  0  0  0
  -20.9984  -28.3351   24.1386 H   0  0  0  0  0  0
  -20.5733  -26.2336   23.3685 H   0  0  0  0  0  0
  -21.6647  -26.7449   22.1226 H   0  0  0  0  0  0
  -19.6954  -25.6277   21.1302 H   0  0  0  0  0  0
  -19.6745  -27.3179   20.6800 H   0  0  0  0  0  0
  -17.4230  -26.6763   21.3994 H   0  0  0  0  0  0
  -18.0276  -26.0116   22.9019 H   0  0  0  0  0  0
  -19.7982  -30.7357   24.2146 H   0  0  0  0  0  0
  -17.5046  -31.6290   24.5170 H   0  0  0  0  0  0
  -15.5373  -30.2956   23.7775 H   0  0  0  0  0  0
  -15.8701  -28.0829   22.7112 H   0  0  0  0  0  0
  -24.5876  -30.7118   25.7718 H   0  0  0  0  0  0
  -24.8768  -32.3053   26.4579 H   0  0  0  0  0  0
  -25.7854  -30.9183   27.0292 H   0  0  0  0  0  0
  -26.3122  -29.6593   24.1437 H   0  0  0  0  0  0
  -27.3878  -29.7284   25.5175 H   0  0  0  0  0  0
  -27.9081  -30.4095   23.9961 H   0  0  0  0  0  0
  -27.2593  -33.3762   26.1883 H   0  0  0  0  0  0
  -28.3900  -32.6822   25.0379 H   0  0  0  0  0  0
  -28.0587  -31.8648   26.5567 H   0  0  0  0  0  0
  -28.2509  -38.0073   24.7551 H   0  0  0  0  0  0
  -28.1082  -36.2599   24.6171 H   0  0  0  0  0  0
  -27.2296  -37.1238   25.8865 H   0  0  0  0  0  0
  -20.9613  -29.8585   21.6610 H   0  0  0  0  0  0
  -26.0060  -38.2742   24.1535 H   0  0  0  0  0  0
  -30.0958  -18.0447   18.3591 H   0  0  0  0  0  0
  -30.6049  -19.4140   16.4872 H   0  0  0  0  0  0
  -31.1028  -20.4616   13.4382 H   0  0  0  0  0  0
  -30.1577  -21.9418   13.4978 H   0  0  0  0  0  0
  -29.6541  -20.5428   14.4460 H   0  0  0  0  0  0
  -30.8847  -23.9234   17.8083 H   0  0  0  0  0  0
  -31.8035  -24.0809   16.3281 H   0  0  0  0  0  0
  -32.3152  -22.9247   17.5606 H   0  0  0  0  0  0
  -28.8380  -18.3470   21.4983 H   0  0  0  0  0  0
  -30.5436  -18.3770   21.2907 H   0  0  0  0  0  0
  -29.5744  -22.8397   21.1536 H   0  0  0  0  0  0
  -27.9710  -22.2620   21.3064 H   0  0  0  0  0  0
  -32.0602  -22.3561   14.8189 H   0  0  0  0  0  0
  -32.0488  -20.8423   15.6367 H   0  0  0  0  0  0
  -27.0132  -24.0289   19.7931 H   0  0  0  0  0  0
  -28.4494  -24.2339   18.9066 H   0  0  0  0  0  0
  -29.7062  -22.7642   15.9830 H   0  0  0  0  0  0
  -28.6385  -16.2454   20.4352 H   0  0  0  0  0  0
  1 25  1  0  0  0
  1 30  2  0  0  0
  1 84  1  0  0  0
  2  3  1  0  0  0
  2 25  1  0  0  0
  2 85  1  0  0  0
  2 86  1  0  0  0
  3  4  1  0  0  0
  3 87  1  0  0  0
  3 88  1  0  0  0
  4  5  1  0  0  0
  4 89  1  0  0  0
  4 90  1  0  0  0
  5  6  1  0  0  0
  5 26  1  0  0  0
  5 91  1  0  0  0
  6 25  1  0  0  0
  6 92  1  0  0  0
  6 93  1  0  0  0
  7  8  2  0  0  0
  7 26  1  0  0  0
  7 29  1  0  0  0
  8  9  1  0  0  0
  8 22  1  0  0  0
  9 10  1  0  0  0
  9 27  2  0  0  0
 10 11  2  0  0  0
 10 15  1  0  0  0
 11 12  1  0  0  0
 11 94  1  0  0  0
 12 13  2  0  0  0
 12 95  1  0  0  0
 13 14  1  0  0  0
 13 31  1  0  0  0
 14 15  2  0  0  0
 14 96  1  0  0  0
 15 97  1  0  0  0
 16 17  2  0  0  0
 16 21  1  0  0  0
 16 31  1  0  0  0
 17 18  1  0  0  0
 17 98  1  0  0  0
 18 19  2  0  0  0
 18 99  1  0  0  0
 19 20  1  0  0  0
 19 24  1  0  0  0
 20 21  2  0  0  0
 20100  1  0  0  0
 21 23  1  0  0  0
 22 28  1  0  0  0
 22 32  2  0  0  0
 26 27  1  0  0  0
 28101  1  0  0  0
 28102  1  0  0  0
 29103  1  0  0  0
 29104  1  0  0  0
 33 34  1  0  0  0
 33 66  1  0  0  0
 33 70  2  0  0  0
 34 36  1  0  0  0
 34 59  1  0  0  0
 34105  1  0  0  0
 35 44  2  0  0  0
 35 45  1  0  0  0
 35 68  1  0  0  0
 36 56  1  0  0  0
 36106  1  0  0  0
 37 39  1  0  0  0
 37 47  1  0  0  0
 37 66  1  0  0  0
 37107  1  0  0  0
 38 43  2  0  0  0
 38 46  1  0  0  0
 38 47  1  0  0  0
 39 64  1  0  0  0
 39 67  2  0  0  0
 40 52  1  0  0  0
 40 53  2  0  0  0
 40 58  1  0  0  0
 41108  1  0  0  0
 41109  1  0  0  0
 41110  1  0  0  0
 41 48  1  0  0  0
 42 43  1  0  0  0
 42 66  1  0  0  0
 42111  1  0  0  0
 42112  1  0  0  0
 43 44  1  0  0  0
 44113  1  0  0  0
 45 46  2  0  0  0
 45114  1  0  0  0
 46115  1  0  0  0
 47116  1  0  0  0
 47117  1  0  0  0
 48 56  1  0  0  0
 48 65  1  0  0  0
 48118  1  0  0  0
 49 50  1  0  0  0
 49 53  1  0  0  0
 49 64  1  0  0  0
 49119  1  0  0  0
 50 51  1  0  0  0
 50120  1  0  0  0
 50121  1  0  0  0
 51 52  1  0  0  0
 51122  1  0  0  0
 51123  1  0  0  0
 52124  1  0  0  0
 52125  1  0  0  0
 53 54  1  0  0  0
 54 55  2  0  0  0
 54126  1  0  0  0
 55 57  1  0  0  0
 55127  1  0  0  0
 56 69  2  0  0  0
 57 58  2  0  0  0
 57128  1  0  0  0
 58129  1  0  0  0
 59 60  1  0  0  0
 59 61  1  0  0  0
 59 62  1  0  0  0
 60130  1  0  0  0
 60131  1  0  0  0
 60132  1  0  0  0
 61133  1  0  0  0
 61134  1  0  0  0
 61135  1  0  0  0
 62136  1  0  0  0
 62137  1  0  0  0
 62138  1  0  0  0
 63 65  1  0  0  0
 63139  1  0  0  0
 63140  1  0  0  0
 63141  1  0  0  0
 64142  1  0  0  0
 65143  1  0  0  0
 68 81  1  0  0  0
 71 72  2  0  0  0
 71 73  1  0  0  0
 71144  1  0  0  0
 72 74  1  0  0  0
 72145  1  0  0  0
 73 75  2  0  0  0
 73 78  1  0  0  0
 74 82  1  0  0  0
 74 83  2  0  0  0
 75 79  1  0  0  0
 75 83  1  0  0  0
 76 80  1  0  0  0
 76146  1  0  0  0
 76147  1  0  0  0
 76148  1  0  0  0
 77149  1  0  0  0
 77150  1  0  0  0
 77151  1  0  0  0
 77 82  1  0  0  0
 78 84  1  0  0  0
 78152  1  0  0  0
 78153  1  0  0  0
 79 81  1  0  0  0
 79154  1  0  0  0
 79155  1  0  0  0
 80 82  1  0  0  0
 80156  1  0  0  0
 80157  1  0  0  0
 81158  1  0  0  0
 81159  1  0  0  0
 82160  1  0  0  0
 84161  1  0  0  0
M  ISO  4   1 100  68 101  81 101  84 100
M  END
> <chiral flag>
0

> <version>
0

> <s_m_source_file>
/data/baiqing/PycharmProjects/Reinvent-master-3.2/result/LINK_invent/BTK/process_docking_weight1_custom_sum_contain_oxygen_bond_distance_aromatic_linkinvent_7_9_3/rearranged_h_0103.sdf

> <i_m_source_file_index>
81

> <r_mmod_Potential_Energy-OPLS-2005>
1385.19897460938

> <r_mmod_Stretch_Energy-OPLS-2005>
649.717712402344

> <r_mmod_Bend_Energy-OPLS-2005>
585.305847167969

> <r_mmod_Torsional_Energy-OPLS-2005>
230.627960205078

> <r_mmod_Improper_Torsional_Energy-OPLS-2005>
5.67050790786743

> <r_mmod_Van_der_Waal_Energy-OPLS-2005>
134.238677978516

> <r_mmod_Electrostatic_Energy-OPLS-2005>
-485.118957519531

> <r_mmod_Solvation_Energy-OPLS-2005>
-223.180862426758

> <b_mmod_Minimization_Converged-OPLS-2005>
0

> <r_mmod_RMS_Derivative-OPLS-2005>
3.7997715473175

$$$$
81
                    3D
 Structure written by MMmdl.
171179  0  0  1  0            999 V2000
  -30.6006  -14.8127   20.4615 C   0  0  0  0  0  0
  -30.4287  -12.4951   19.4973 C   0  0  0  0  0  0
  -29.5152  -12.5043   18.2518 C   0  0  0  0  0  0
  -28.0437  -12.3154   18.6625 C   0  0  0  0  0  0
  -27.6305  -13.2445   19.8369 C   0  0  2  0  0  0
  -28.6697  -13.2323   20.9801 C   0  0  0  0  0  0
  -25.2441  -13.8247   20.5750 C   0  0  0  0  0  0
  -24.1746  -13.0461   20.9260 C   0  0  0  0  0  0
  -24.6371  -11.6951   20.8756 C   0  0  0  0  0  0
  -23.9081  -10.4318   21.0448 C   0  0  0  0  0  0
  -24.3626   -9.4233   21.9219 C   0  0  0  0  0  0
  -23.6309   -8.2259   22.0783 C   0  0  0  0  0  0
  -22.4277   -8.0313   21.3580 C   0  0  0  0  0  0
  -21.9942   -9.0261   20.4647 C   0  0  0  0  0  0
  -22.7271  -10.2140   20.3083 C   0  0  0  0  0  0
  -21.6835   -6.0777   22.5290 C   0  0  0  0  0  0
  -21.3997   -6.5664   23.8219 C   0  0  0  0  0  0
  -21.3652   -5.6799   24.9175 C   0  0  0  0  0  0
  -21.6049   -4.3078   24.7219 C   0  0  0  0  0  0
  -21.8802   -3.8183   23.4313 C   0  0  0  0  0  0
  -21.9173   -4.7004   22.3387 C   0  0  0  0  0  0
  -22.7779  -13.5237   21.1943 C   0  0  0  0  0  0
  -22.1649   -4.2214   21.0956 F   0  0  0  0  0  0
  -21.5628   -3.4538   25.7716 F   0  0  0  0  0  0
  -29.9718  -13.5816   20.3995 N   0  0  0  0  0  0
  -26.2859  -12.9472   20.3226 N   0  0  0  0  0  0
  -25.9291  -11.6601   20.5702 N   0  0  0  0  0  0
  -22.0379  -12.8176   22.0435 N   0  0  0  0  0  0
  -25.4140  -15.1966   20.4250 N   0  0  0  0  0  0
  -31.7953  -14.8932   20.1646 O   0  0  0  0  0  0
  -21.6641   -6.8908   21.4259 O   0  0  0  0  0  0
  -22.3471  -14.5549   20.6826 O   0  0  0  0  0  0
  -24.6415  -31.8453   23.1948 C   0  0  0  0  0  0
  -25.9171  -32.4704   23.8333 C   0  0  1  0  0  0
  -27.2091  -27.1558   20.1420 C   0  0  0  0  0  0
  -25.5917  -33.8525   24.2206 N   0  0  0  0  0  0
  -23.4451  -30.4682   21.5423 C   0  0  2  0  0  0
  -24.8939  -28.9135   20.1059 C   0  0  0  0  0  0
  -22.7572  -29.4538   22.4895 C   0  0  0  0  0  0
  -18.0310  -28.1397   22.8465 C   0  0  0  0  0  0
  -24.1491  -36.7297   23.2643 C   0  0  0  0  0  0
  -26.0037  -30.7219   21.3952 C   0  0  0  0  0  0
  -26.0734  -29.3397   20.7284 C   0  0  0  0  0  0
  -27.2331  -28.4799   20.7299 C   0  0  0  0  0  0
  -26.0012  -26.8385   19.4658 C   0  0  0  0  0  0
  -24.8714  -27.6744   19.4563 C   0  0  0  0  0  0
  -23.6693  -29.8104   20.1583 C   0  0  0  0  0  0
  -25.4118  -36.3068   24.0315 C   0  0  1  0  0  0
  -20.5917  -28.3710   23.1247 C   0  0  2  0  0  0
  -20.6827  -26.9431   22.5394 C   0  0  0  0  0  0
  -19.5788  -26.6394   21.5207 C   0  0  0  0  0  0
  -18.1960  -26.7936   22.1618 C   0  0  0  0  0  0
  -19.1567  -28.8882   23.2838 C   0  0  0  0  0  0
  -18.9495  -30.1485   23.8838 C   0  0  0  0  0  0
  -17.6492  -30.6594   24.0571 C   0  0  0  0  0  0
  -25.9064  -34.9423   23.5077 C   0  0  0  0  0  0
  -16.5377  -29.9084   23.6354 C   0  0  0  0  0  0
  -16.7302  -28.6526   23.0336 C   0  0  0  0  0  0
  -26.4485  -31.6580   25.0773 C   0  0  0  0  0  0
  -25.3641  -31.3699   26.1442 C   0  0  0  0  0  0
  -27.0365  -30.2993   24.6334 C   0  0  0  0  0  0
  -27.6013  -32.4380   25.7517 C   0  0  0  0  0  0
  -27.5578  -37.1796   24.8461 C   0  0  0  0  0  0
  -21.4277  -29.3027   22.3614 N   0  0  0  0  0  0
  -26.4289  -37.3764   23.9404 N   0  0  0  0  0  0
  -24.7181  -31.0305   22.0984 N   0  0  0  0  0  0
  -23.4228  -28.8033   23.3005 O   0  0  0  0  0  0
  -28.2341  -26.1461   20.2399 O   0  0  0  0  0  0
  -26.5678  -34.8890   22.4677 O   0  0  0  0  0  0
  -23.5533  -32.1351   23.7138 O   0  0  0  0  0  0
  -29.1831  -21.1658   21.4994 C   0  0  0  0  0  0
  -28.6551  -22.3307   19.0664 C   0  0  0  0  0  0
  -28.8876  -22.5856   21.4076 C   0  0  0  0  0  0
  -29.1551  -20.2400   20.4074 C   0  0  0  0  0  0
  -28.5789  -23.2492   20.1687 C   0  0  0  0  0  0
  -28.9232  -20.9062   19.1574 C   0  0  0  0  0  0
  -29.6062  -20.6714   16.6976 C   0  0  0  0  0  0
  -27.3497  -19.8407   17.5197 C   0  0  0  0  0  0
  -28.7891  -23.3309   22.7255 C   0  0  0  0  0  0
  -29.0414  -18.6244   20.6371 C   0  0  0  0  0  0
  -27.8186  -24.6887   19.9594 C   0  0  0  0  0  0
  -30.1651  -23.5137   23.3814 C   0  0  0  0  0  0
  -30.2129  -17.4753   20.5498 C   0  0  0  0  0  0
  -30.0819  -23.7070   24.9071 C   0  0  0  0  0  0
  -28.8213  -20.0707   17.8805 C   0  0  0  0  0  0
  -29.8366  -15.9693   20.6504 N   0  0  0  0  0  0
  -31.4010  -24.0261   25.4754 N   0  3  0  0  0  0
  -31.4736  -12.6128   19.2020 H   0  0  0  0  0  0
  -30.3642  -11.5316   20.0077 H   0  0  0  0  0  0
  -29.8140  -11.7163   17.5596 H   0  0  0  0  0  0
  -29.6305  -13.4457   17.7118 H   0  0  0  0  0  0
  -27.9165  -11.2732   18.9574 H   0  0  0  0  0  0
  -27.3894  -12.4701   17.8058 H   0  0  0  0  0  0
  -27.6068  -14.2545   19.4223 H   0  0  0  0  0  0
  -28.7067  -12.2535   21.4618 H   0  0  0  0  0  0
  -28.3829  -13.9428   21.7585 H   0  0  0  0  0  0
  -25.2743   -9.5696   22.4839 H   0  0  0  0  0  0
  -23.9985   -7.4651   22.7515 H   0  0  0  0  0  0
  -21.0881   -8.8775   19.8946 H   0  0  0  0  0  0
  -22.3738  -10.9673   19.6212 H   0  0  0  0  0  0
  -21.1992   -7.6165   23.9750 H   0  0  0  0  0  0
  -21.1498   -6.0530   25.9073 H   0  0  0  0  0  0
  -22.0585   -2.7654   23.2791 H   0  0  0  0  0  0
  -22.3917  -11.9765   22.4748 H   0  0  0  0  0  0
  -21.1028  -13.1258   22.2672 H   0  0  0  0  0  0
  -24.6578  -15.8535   20.5818 H   0  0  0  0  0  0
  -26.2555  -15.6382   20.0781 H   0  0  0  0  0  0
  -26.7213  -32.5304   23.1042 H   0  0  0  0  0  0
  -25.0009  -33.9665   25.0310 H   0  0  0  0  0  0
  -22.7474  -31.2938   21.3926 H   0  0  0  0  0  0
  -23.3757  -35.9625   23.3298 H   0  0  0  0  0  0
  -24.3566  -36.8960   22.2060 H   0  0  0  0  0  0
  -23.7244  -37.6486   23.6704 H   0  0  0  0  0  0
  -26.1581  -31.4773   20.6241 H   0  0  0  0  0  0
  -26.8754  -30.7679   22.0366 H   0  0  0  0  0  0
  -28.1310  -28.8004   21.2409 H   0  0  0  0  0  0
  -25.8684  -25.8992   18.9541 H   0  0  0  0  0  0
  -23.9725  -27.3500   18.9479 H   0  0  0  0  0  0
  -23.8013  -30.5959   19.4130 H   0  0  0  0  0  0
  -22.7854  -29.2512   19.8467 H   0  0  0  0  0  0
  -25.1270  -36.1927   25.0798 H   0  0  0  0  0  0
  -20.9988  -28.3322   24.1376 H   0  0  0  0  0  0
  -20.5813  -26.2294   23.3599 H   0  0  0  0  0  0
  -21.6680  -26.7502   22.1114 H   0  0  0  0  0  0
  -19.6976  -25.6306   21.1254 H   0  0  0  0  0  0
  -19.6767  -27.3198   20.6737 H   0  0  0  0  0  0
  -17.4247  -26.6702   21.4008 H   0  0  0  0  0  0
  -18.0353  -26.0052   22.8996 H   0  0  0  0  0  0
  -19.7968  -30.7321   24.2196 H   0  0  0  0  0  0
  -17.5033  -31.6263   24.5187 H   0  0  0  0  0  0
  -15.5366  -30.2957   23.7726 H   0  0  0  0  0  0
  -15.8703  -28.0853   22.7018 H   0  0  0  0  0  0
  -24.5902  -30.6973   25.7722 H   0  0  0  0  0  0
  -24.8709  -32.2821   26.4821 H   0  0  0  0  0  0
  -25.7885  -30.8924   27.0284 H   0  0  0  0  0  0
  -26.2987  -29.6699   24.1364 H   0  0  0  0  0  0
  -27.3990  -29.7309   25.4913 H   0  0  0  0  0  0
  -27.8855  -30.4238   23.9613 H   0  0  0  0  0  0
  -27.2642  -33.3754   26.1966 H   0  0  0  0  0  0
  -28.3832  -32.6861   25.0319 H   0  0  0  0  0  0
  -28.0665  -31.8623   26.5544 H   0  0  0  0  0  0
  -28.2555  -38.0137   24.7546 H   0  0  0  0  0  0
  -28.1133  -36.2670   24.6256 H   0  0  0  0  0  0
  -27.2302  -37.1368   25.8866 H   0  0  0  0  0  0
  -20.9502  -29.8777   21.6808 H   0  0  0  0  0  0
  -26.0194  -38.2829   24.1442 H   0  0  0  0  0  0
  -29.3468  -20.7532   22.4845 H   0  0  0  0  0  0
  -28.3777  -22.7149   18.0938 H   0  0  0  0  0  0
  -30.6443  -20.8600   16.9721 H   0  0  0  0  0  0
  -29.1813  -21.6066   16.3327 H   0  0  0  0  0  0
  -29.6146  -19.9785   15.8549 H   0  0  0  0  0  0
  -26.7827  -19.5151   18.3930 H   0  0  0  0  0  0
  -27.2395  -19.0703   16.7558 H   0  0  0  0  0  0
  -26.8928  -20.7566   17.1441 H   0  0  0  0  0  0
  -28.1343  -22.7531   23.3799 H   0  0  0  0  0  0
  -28.3070  -24.3005   22.5972 H   0  0  0  0  0  0
  -28.2488  -18.2878   19.9704 H   0  0  0  0  0  0
  -28.5952  -18.5168   21.6278 H   0  0  0  0  0  0
  -26.8596  -24.5265   20.4566 H   0  0  0  0  0  0
  -27.6064  -24.6876   18.8914 H   0  0  0  0  0  0
  -30.6717  -24.3536   22.9033 H   0  0  0  0  0  0
  -30.7879  -22.6365   23.1933 H   0  0  0  0  0  0
  -30.9314  -17.6663   21.3499 H   0  0  0  0  0  0
  -30.7679  -17.6045   19.6222 H   0  0  0  0  0  0
  -29.7056  -22.7984   25.3809 H   0  0  0  0  0  0
  -29.3769  -24.4961   25.1698 H   0  0  0  0  0  0
  -29.2766  -19.0987   18.0695 H   0  0  0  0  0  0
  -28.8600  -15.7857   20.8249 H   0  0  0  0  0  0
  -32.1005  -23.4021   25.1134 H   0  0  0  0  0  0
  -31.3847  -23.9373   26.4767 H   0  0  0  0  0  0
  -31.6601  -24.9706   25.2457 H   0  0  0  0  0  0
  1 25  1  0  0  0
  1 30  2  0  0  0
  1 86  1  0  0  0
  2  3  1  0  0  0
  2 25  1  0  0  0
  2 88  1  0  0  0
  2 89  1  0  0  0
  3  4  1  0  0  0
  3 90  1  0  0  0
  3 91  1  0  0  0
  4  5  1  0  0  0
  4 92  1  0  0  0
  4 93  1  0  0  0
  5  6  1  0  0  0
  5 26  1  0  0  0
  5 94  1  0  0  0
  6 25  1  0  0  0
  6 95  1  0  0  0
  6 96  1  0  0  0
  7  8  2  0  0  0
  7 26  1  0  0  0
  7 29  1  0  0  0
  8  9  1  0  0  0
  8 22  1  0  0  0
  9 10  1  0  0  0
  9 27  2  0  0  0
 10 11  2  0  0  0
 10 15  1  0  0  0
 11 12  1  0  0  0
 11 97  1  0  0  0
 12 13  2  0  0  0
 12 98  1  0  0  0
 13 14  1  0  0  0
 13 31  1  0  0  0
 14 15  2  0  0  0
 14 99  1  0  0  0
 15100  1  0  0  0
 16 17  2  0  0  0
 16 21  1  0  0  0
 16 31  1  0  0  0
 17 18  1  0  0  0
 17101  1  0  0  0
 18 19  2  0  0  0
 18102  1  0  0  0
 19 20  1  0  0  0
 19 24  1  0  0  0
 20 21  2  0  0  0
 20103  1  0  0  0
 21 23  1  0  0  0
 22 28  1  0  0  0
 22 32  2  0  0  0
 26 27  1  0  0  0
 28104  1  0  0  0
 28105  1  0  0  0
 29106  1  0  0  0
 29107  1  0  0  0
 33 34  1  0  0  0
 33 66  1  0  0  0
 33 70  2  0  0  0
 34 36  1  0  0  0
 34 59  1  0  0  0
 34108  1  0  0  0
 35 44  2  0  0  0
 35 45  1  0  0  0
 35 68  1  0  0  0
 36 56  1  0  0  0
 36109  1  0  0  0
 37 39  1  0  0  0
 37 47  1  0  0  0
 37 66  1  0  0  0
 37110  1  0  0  0
 38 43  2  0  0  0
 38 46  1  0  0  0
 38 47  1  0  0  0
 39 64  1  0  0  0
 39 67  2  0  0  0
 40 52  1  0  0  0
 40 53  2  0  0  0
 40 58  1  0  0  0
 41111  1  0  0  0
 41112  1  0  0  0
 41113  1  0  0  0
 41 48  1  0  0  0
 42 43  1  0  0  0
 42 66  1  0  0  0
 42114  1  0  0  0
 42115  1  0  0  0
 43 44  1  0  0  0
 44116  1  0  0  0
 45 46  2  0  0  0
 45117  1  0  0  0
 46118  1  0  0  0
 47119  1  0  0  0
 47120  1  0  0  0
 48 56  1  0  0  0
 48 65  1  0  0  0
 48121  1  0  0  0
 49 50  1  0  0  0
 49 53  1  0  0  0
 49 64  1  0  0  0
 49122  1  0  0  0
 50 51  1  0  0  0
 50123  1  0  0  0
 50124  1  0  0  0
 51 52  1  0  0  0
 51125  1  0  0  0
 51126  1  0  0  0
 52127  1  0  0  0
 52128  1  0  0  0
 53 54  1  0  0  0
 54 55  2  0  0  0
 54129  1  0  0  0
 55 57  1  0  0  0
 55130  1  0  0  0
 56 69  2  0  0  0
 57 58  2  0  0  0
 57131  1  0  0  0
 58132  1  0  0  0
 59 60  1  0  0  0
 59 61  1  0  0  0
 59 62  1  0  0  0
 60133  1  0  0  0
 60134  1  0  0  0
 60135  1  0  0  0
 61136  1  0  0  0
 61137  1  0  0  0
 61138  1  0  0  0
 62139  1  0  0  0
 62140  1  0  0  0
 62141  1  0  0  0
 63 65  1  0  0  0
 63142  1  0  0  0
 63143  1  0  0  0
 63144  1  0  0  0
 64145  1  0  0  0
 65146  1  0  0  0
 68 81  1  0  0  0
 71 73  2  0  0  0
 71 74  1  0  0  0
 71147  1  0  0  0
 72 75  2  0  0  0
 72 76  1  0  0  0
 72148  1  0  0  0
 73 75  1  0  0  0
 73 79  1  0  0  0
 74 76  2  0  0  0
 74 80  1  0  0  0
 75 81  1  0  0  0
 76 85  1  0  0  0
 77149  1  0  0  0
 77150  1  0  0  0
 77151  1  0  0  0
 77 85  1  0  0  0
 78 85  1  0  0  0
 78152  1  0  0  0
 78153  1  0  0  0
 78154  1  0  0  0
 79 82  1  0  0  0
 79155  1  0  0  0
 79156  1  0  0  0
 80 83  1  0  0  0
 80157  1  0  0  0
 80158  1  0  0  0
 81159  1  0  0  0
 81160  1  0  0  0
 82 84  1  0  0  0
 82161  1  0  0  0
 82162  1  0  0  0
 83 86  1  0  0  0
 83163  1  0  0  0
 83164  1  0  0  0
 84 87  1  0  0  0
 84165  1  0  0  0
 84166  1  0  0  0
 85167  1  0  0  0
 86168  1  0  0  0
 87169  1  0  0  0
 87170  1  0  0  0
 87171  1  0  0  0
M  CHG  1  87   1
M  ISO  4   1 100  68 101  81 101  86 100
M  END
> <chiral flag>
0

> <version>
0

> <s_m_source_file>
/data/baiqing/PycharmProjects/Reinvent-master-3.2/result/LINK_invent/BTK/process_docking_weight1_custom_sum_contain_oxygen_bond_distance_aromatic_linkinvent_7_9_3/rearranged_h_0103.sdf

> <i_m_source_file_index>
82

> <r_mmod_Potential_Energy-OPLS-2005>
120.382026672363

> <r_mmod_Stretch_Energy-OPLS-2005>
184.494049072266

> <r_mmod_Bend_Energy-OPLS-2005>
238.955642700195

> <r_mmod_Torsional_Energy-OPLS-2005>
237.616516113281

> <r_mmod_Improper_Torsional_Energy-OPLS-2005>
11.1156435012817

> <r_mmod_Van_der_Waal_Energy-OPLS-2005>
141.16569519043

> <r_mmod_Electrostatic_Energy-OPLS-2005>
-340.768493652344

> <r_mmod_Solvation_Energy-OPLS-2005>
-500.387268066406

> <b_mmod_Minimization_Converged-OPLS-2005>
0

> <r_mmod_RMS_Derivative-OPLS-2005>
5.37009382247925

$$$$
82
                    3D
 Structure written by MMmdl.
159166  0  0  1  0            999 V2000
  -30.5335  -14.8730   20.4128 C   0  0  0  0  0  0
  -30.4316  -12.5264   19.5056 C   0  0  0  0  0  0
  -29.5186  -12.5311   18.2592 C   0  0  0  0  0  0
  -28.0465  -12.3269   18.6653 C   0  0  0  0  0  0
  -27.6314  -13.2403   19.8492 C   0  0  2  0  0  0
  -28.6715  -13.2186   20.9897 C   0  0  0  0  0  0
  -25.2443  -13.8185   20.5699 C   0  0  0  0  0  0
  -24.1772  -13.0416   20.9233 C   0  0  0  0  0  0
  -24.6357  -11.6897   20.8749 C   0  0  0  0  0  0
  -23.9031  -10.4277   21.0387 C   0  0  0  0  0  0
  -24.3591   -9.4201   21.9171 C   0  0  0  0  0  0
  -23.6285   -8.2237   22.0751 C   0  0  0  0  0  0
  -22.4270   -8.0254   21.3537 C   0  0  0  0  0  0
  -21.9893   -9.0214   20.4635 C   0  0  0  0  0  0
  -22.7201  -10.2098   20.3031 C   0  0  0  0  0  0
  -21.6852   -6.0709   22.5281 C   0  0  0  0  0  0
  -21.3998   -6.5619   23.8205 C   0  0  0  0  0  0
  -21.3681   -5.6785   24.9179 C   0  0  0  0  0  0
  -21.6066   -4.3050   24.7247 C   0  0  0  0  0  0
  -21.8822   -3.8126   23.4368 C   0  0  0  0  0  0
  -21.9190   -4.6942   22.3413 C   0  0  0  0  0  0
  -22.7799  -13.5203   21.1891 C   0  0  0  0  0  0
  -22.1652   -4.2117   21.1000 F   0  0  0  0  0  0
  -21.5652   -3.4538   25.7761 F   0  0  0  0  0  0
  -29.9564  -13.6109   20.4040 N   0  0  0  0  0  0
  -26.2864  -12.9399   20.3277 N   0  0  0  0  0  0
  -25.9289  -11.6525   20.5751 N   0  0  0  0  0  0
  -22.0460  -12.8200   22.0464 N   0  0  0  0  0  0
  -25.4108  -15.1909   20.4058 N   0  0  0  0  0  0
  -31.7275  -14.9670   20.1083 O   0  0  0  0  0  0
  -21.6657   -6.8841   21.4229 O   0  0  0  0  0  0
  -22.3487  -14.5496   20.6718 O   0  0  0  0  0  0
  -24.6395  -31.8429   23.1878 C   0  0  0  0  0  0
  -25.9176  -32.4685   23.8247 C   0  0  1  0  0  0
  -27.2087  -27.1591   20.1442 C   0  0  0  0  0  0
  -25.5919  -33.8482   24.2153 N   0  0  0  0  0  0
  -23.4408  -30.4639   21.5346 C   0  0  2  0  0  0
  -24.8864  -28.8945   20.1115 C   0  0  0  0  0  0
  -22.7558  -29.4533   22.4877 C   0  0  0  0  0  0
  -18.0282  -28.1390   22.8464 C   0  0  0  0  0  0
  -24.1476  -36.7272   23.2652 C   0  0  0  0  0  0
  -25.9942  -30.7316   21.3743 C   0  0  0  0  0  0
  -26.0670  -29.3428   20.7202 C   0  0  0  0  0  0
  -27.2342  -28.4934   20.7111 C   0  0  0  0  0  0
  -26.0073  -26.8094   19.4937 C   0  0  0  0  0  0
  -24.8688  -27.6413   19.4817 C   0  0  0  0  0  0
  -23.6616  -29.7927   20.1550 C   0  0  0  0  0  0
  -25.4098  -36.3011   24.0316 C   0  0  1  0  0  0
  -20.5903  -28.3687   23.1252 C   0  0  2  0  0  0
  -20.6752  -26.9392   22.5405 C   0  0  0  0  0  0
  -19.5731  -26.6349   21.5210 C   0  0  0  0  0  0
  -18.1919  -26.7922   22.1625 C   0  0  0  0  0  0
  -19.1550  -28.8855   23.2847 C   0  0  0  0  0  0
  -18.9486  -30.1470   23.8845 C   0  0  0  0  0  0
  -17.6487  -30.6588   24.0549 C   0  0  0  0  0  0
  -25.9051  -34.9396   23.5045 C   0  0  0  0  0  0
  -16.5363  -29.9084   23.6345 C   0  0  0  0  0  0
  -16.7279  -28.6515   23.0335 C   0  0  0  0  0  0
  -26.4465  -31.6560   25.0699 C   0  0  0  0  0  0
  -25.3648  -31.3806   26.1417 C   0  0  0  0  0  0
  -27.0325  -30.2948   24.6295 C   0  0  0  0  0  0
  -27.5955  -32.4353   25.7515 C   0  0  0  0  0  0
  -27.5555  -37.1785   24.8461 C   0  0  0  0  0  0
  -21.4238  -29.3037   22.3662 N   0  0  0  0  0  0
  -26.4245  -37.3737   23.9428 N   0  0  0  0  0  0
  -24.7127  -31.0326   22.0886 N   0  0  0  0  0  0
  -23.4235  -28.8074   23.3000 O   0  0  0  0  0  0
  -28.2675  -26.1878   20.1625 O   0  0  0  0  0  0
  -26.5655  -34.8903   22.4637 O   0  0  0  0  0  0
  -23.5520  -32.1276   23.7132 O   0  0  0  0  0  0
  -29.2530  -18.9820   22.1125 C   0  0  0  0  0  0
  -27.5681  -18.3962   20.4000 C   0  0  0  0  0  0
  -28.8889  -20.3018   18.4168 C   0  0  0  0  0  0
  -28.7929  -23.3369   19.9333 C   0  0  0  0  0  0
  -28.5569  -21.7781   20.5144 C   0  0  0  0  0  0
  -29.9652  -17.5120   20.1098 C   0  0  0  0  0  0
  -27.9959  -24.6969   20.5002 C   0  0  0  0  0  0
  -29.0371  -18.8263   20.5956 C   0  0  0  0  0  0
  -29.2464  -20.3683   19.9147 C   0  0  1  0  0  0
  -29.7200  -16.0197   20.5343 N   0  0  0  0  0  0
  -30.6387  -20.5998   19.9804 O   0  0  0  0  0  0
  -31.4729  -12.6656   19.2115 H   0  0  0  0  0  0
  -30.3952  -11.5626   20.0149 H   0  0  0  0  0  0
  -29.8290  -11.7576   17.5572 H   0  0  0  0  0  0
  -29.6261  -13.4813   17.7358 H   0  0  0  0  0  0
  -27.9257  -11.2811   18.9474 H   0  0  0  0  0  0
  -27.3889  -12.4895   17.8099 H   0  0  0  0  0  0
  -27.6051  -14.2547   19.4480 H   0  0  0  0  0  0
  -28.7405  -12.2260   21.4397 H   0  0  0  0  0  0
  -28.3897  -13.9034   21.7902 H   0  0  0  0  0  0
  -25.2702   -9.5716   22.4782 H   0  0  0  0  0  0
  -24.0000   -7.4642   22.7476 H   0  0  0  0  0  0
  -21.0823   -8.8682   19.8949 H   0  0  0  0  0  0
  -22.3598  -10.9632   19.6163 H   0  0  0  0  0  0
  -21.1947   -7.6120   23.9697 H   0  0  0  0  0  0
  -21.1519   -6.0521   25.9086 H   0  0  0  0  0  0
  -22.0577   -2.7589   23.2885 H   0  0  0  0  0  0
  -22.4033  -11.9846   22.4855 H   0  0  0  0  0  0
  -21.1084  -13.1241   22.2652 H   0  0  0  0  0  0
  -24.6333  -15.8372   20.4874 H   0  0  0  0  0  0
  -26.2503  -15.6293   20.0521 H   0  0  0  0  0  0
  -26.7257  -32.5284   23.0987 H   0  0  0  0  0  0
  -24.9981  -33.9574   25.0245 H   0  0  0  0  0  0
  -22.7412  -31.2895   21.3829 H   0  0  0  0  0  0
  -23.3711  -35.9633   23.3261 H   0  0  0  0  0  0
  -24.3591  -36.8946   22.2084 H   0  0  0  0  0  0
  -23.7257  -37.6460   23.6726 H   0  0  0  0  0  0
  -26.1345  -31.4856   20.5984 H   0  0  0  0  0  0
  -26.8701  -30.7888   22.0090 H   0  0  0  0  0  0
  -28.1409  -28.8441   21.1838 H   0  0  0  0  0  0
  -25.9311  -25.8559   18.9910 H   0  0  0  0  0  0
  -23.9692  -27.2937   18.9893 H   0  0  0  0  0  0
  -23.7884  -30.5641   19.3936 H   0  0  0  0  0  0
  -22.7759  -29.2289   19.8534 H   0  0  0  0  0  0
  -25.1290  -36.1792   25.0804 H   0  0  0  0  0  0
  -20.9979  -28.3233   24.1378 H   0  0  0  0  0  0
  -20.5594  -26.2309   23.3626 H   0  0  0  0  0  0
  -21.6628  -26.7353   22.1245 H   0  0  0  0  0  0
  -19.6875  -25.6246   21.1276 H   0  0  0  0  0  0
  -19.6667  -27.3129   20.6727 H   0  0  0  0  0  0
  -17.4185  -26.6652   21.4031 H   0  0  0  0  0  0
  -18.0306  -26.0076   22.9039 H   0  0  0  0  0  0
  -19.7977  -30.7298   24.2159 H   0  0  0  0  0  0
  -17.5057  -31.6276   24.5156 H   0  0  0  0  0  0
  -15.5376  -30.2981   23.7706 H   0  0  0  0  0  0
  -15.8675  -28.0849   22.7035 H   0  0  0  0  0  0
  -24.5817  -30.7128   25.7803 H   0  0  0  0  0  0
  -24.8846  -32.3021   26.4726 H   0  0  0  0  0  0
  -25.7935  -30.9087   27.0274 H   0  0  0  0  0  0
  -26.2958  -29.6686   24.1251 H   0  0  0  0  0  0
  -27.3859  -29.7229   25.4888 H   0  0  0  0  0  0
  -27.8881  -30.4155   23.9650 H   0  0  0  0  0  0
  -27.2470  -33.3652   26.2031 H   0  0  0  0  0  0
  -28.3809  -32.6929   25.0396 H   0  0  0  0  0  0
  -28.0576  -31.8536   26.5500 H   0  0  0  0  0  0
  -28.2527  -38.0119   24.7509 H   0  0  0  0  0  0
  -28.1071  -36.2643   24.6232 H   0  0  0  0  0  0
  -27.2305  -37.1384   25.8872 H   0  0  0  0  0  0
  -20.9432  -29.8820   21.6916 H   0  0  0  0  0  0
  -26.0072  -38.2775   24.1462 H   0  0  0  0  0  0
  -29.0671  -18.0572   22.6575 H   0  0  0  0  0  0
  -28.5870  -19.7361   22.5338 H   0  0  0  0  0  0
  -30.2749  -19.2951   22.3284 H   0  0  0  0  0  0
  -27.3459  -17.4736   20.9365 H   0  0  0  0  0  0
  -27.3325  -18.2041   19.3540 H   0  0  0  0  0  0
  -26.8705  -19.1540   20.7602 H   0  0  0  0  0  0
  -27.8159  -20.1621   18.2812 H   0  0  0  0  0  0
  -29.3907  -19.4789   17.9075 H   0  0  0  0  0  0
  -29.1394  -21.2209   17.8875 H   0  0  0  0  0  0
  -28.6108  -23.3106   18.8590 H   0  0  0  0  0  0
  -29.8601  -23.5397   20.0232 H   0  0  0  0  0  0
  -27.4796  -21.6117   20.4998 H   0  0  0  0  0  0
  -28.8075  -21.8248   21.5742 H   0  0  0  0  0  0
  -31.0067  -17.7366   20.3380 H   0  0  0  0  0  0
  -29.9319  -17.4883   19.0204 H   0  0  0  0  0  0
  -28.1118  -24.6615   21.5836 H   0  0  0  0  0  0
  -26.9377  -24.4932   20.3554 H   0  0  0  0  0  0
  -28.7671  -15.8057   20.7836 H   0  0  0  0  0  0
  -30.8349  -21.3853   19.4828 H   0  0  0  0  0  0
  1 25  1  0  0  0
  1 30  2  0  0  0
  1 80  1  0  0  0
  2  3  1  0  0  0
  2 25  1  0  0  0
  2 82  1  0  0  0
  2 83  1  0  0  0
  3  4  1  0  0  0
  3 84  1  0  0  0
  3 85  1  0  0  0
  4  5  1  0  0  0
  4 86  1  0  0  0
  4 87  1  0  0  0
  5  6  1  0  0  0
  5 26  1  0  0  0
  5 88  1  0  0  0
  6 25  1  0  0  0
  6 89  1  0  0  0
  6 90  1  0  0  0
  7  8  2  0  0  0
  7 26  1  0  0  0
  7 29  1  0  0  0
  8  9  1  0  0  0
  8 22  1  0  0  0
  9 10  1  0  0  0
  9 27  2  0  0  0
 10 11  2  0  0  0
 10 15  1  0  0  0
 11 12  1  0  0  0
 11 91  1  0  0  0
 12 13  2  0  0  0
 12 92  1  0  0  0
 13 14  1  0  0  0
 13 31  1  0  0  0
 14 15  2  0  0  0
 14 93  1  0  0  0
 15 94  1  0  0  0
 16 17  2  0  0  0
 16 21  1  0  0  0
 16 31  1  0  0  0
 17 18  1  0  0  0
 17 95  1  0  0  0
 18 19  2  0  0  0
 18 96  1  0  0  0
 19 20  1  0  0  0
 19 24  1  0  0  0
 20 21  2  0  0  0
 20 97  1  0  0  0
 21 23  1  0  0  0
 22 28  1  0  0  0
 22 32  2  0  0  0
 26 27  1  0  0  0
 28 98  1  0  0  0
 28 99  1  0  0  0
 29100  1  0  0  0
 29101  1  0  0  0
 33 34  1  0  0  0
 33 66  1  0  0  0
 33 70  2  0  0  0
 34 36  1  0  0  0
 34 59  1  0  0  0
 34102  1  0  0  0
 35 44  2  0  0  0
 35 45  1  0  0  0
 35 68  1  0  0  0
 36 56  1  0  0  0
 36103  1  0  0  0
 37 39  1  0  0  0
 37 47  1  0  0  0
 37 66  1  0  0  0
 37104  1  0  0  0
 38 43  2  0  0  0
 38 46  1  0  0  0
 38 47  1  0  0  0
 39 64  1  0  0  0
 39 67  2  0  0  0
 40 52  1  0  0  0
 40 53  2  0  0  0
 40 58  1  0  0  0
 41105  1  0  0  0
 41106  1  0  0  0
 41107  1  0  0  0
 41 48  1  0  0  0
 42 43  1  0  0  0
 42 66  1  0  0  0
 42108  1  0  0  0
 42109  1  0  0  0
 43 44  1  0  0  0
 44110  1  0  0  0
 45 46  2  0  0  0
 45111  1  0  0  0
 46112  1  0  0  0
 47113  1  0  0  0
 47114  1  0  0  0
 48 56  1  0  0  0
 48 65  1  0  0  0
 48115  1  0  0  0
 49 50  1  0  0  0
 49 53  1  0  0  0
 49 64  1  0  0  0
 49116  1  0  0  0
 50 51  1  0  0  0
 50117  1  0  0  0
 50118  1  0  0  0
 51 52  1  0  0  0
 51119  1  0  0  0
 51120  1  0  0  0
 52121  1  0  0  0
 52122  1  0  0  0
 53 54  1  0  0  0
 54 55  2  0  0  0
 54123  1  0  0  0
 55 57  1  0  0  0
 55124  1  0  0  0
 56 69  2  0  0  0
 57 58  2  0  0  0
 57125  1  0  0  0
 58126  1  0  0  0
 59 60  1  0  0  0
 59 61  1  0  0  0
 59 62  1  0  0  0
 60127  1  0  0  0
 60128  1  0  0  0
 60129  1  0  0  0
 61130  1  0  0  0
 61131  1  0  0  0
 61132  1  0  0  0
 62133  1  0  0  0
 62134  1  0  0  0
 62135  1  0  0  0
 63 65  1  0  0  0
 63136  1  0  0  0
 63137  1  0  0  0
 63138  1  0  0  0
 64139  1  0  0  0
 65140  1  0  0  0
 68 77  1  0  0  0
 71141  1  0  0  0
 71142  1  0  0  0
 71143  1  0  0  0
 71 78  1  0  0  0
 72 78  1  0  0  0
 72144  1  0  0  0
 72145  1  0  0  0
 72146  1  0  0  0
 73147  1  0  0  0
 73148  1  0  0  0
 73149  1  0  0  0
 73 79  1  0  0  0
 74 75  1  0  0  0
 74 77  1  0  0  0
 74150  1  0  0  0
 74151  1  0  0  0
 75 79  1  0  0  0
 75152  1  0  0  0
 75153  1  0  0  0
 76 78  1  0  0  0
 76 80  1  0  0  0
 76154  1  0  0  0
 76155  1  0  0  0
 77156  1  0  0  0
 77157  1  0  0  0
 78 79  1  0  0  0
 79 81  1  0  0  0
 80158  1  0  0  0
 81159  1  0  0  0
M  ISO  4   1 100  68 101  77 101  80 100
M  END
> <chiral flag>
0

> <version>
0

> <s_m_source_file>
/data/baiqing/PycharmProjects/Reinvent-master-3.2/result/LINK_invent/BTK/process_docking_weight1_custom_sum_contain_oxygen_bond_distance_aromatic_linkinvent_7_9_3/rearranged_h_0103.sdf

> <i_m_source_file_index>
83

> <r_mmod_Potential_Energy-OPLS-2005>
340.033569335938

> <r_mmod_Stretch_Energy-OPLS-2005>
249.804382324219

> <r_mmod_Bend_Energy-OPLS-2005>
240.439346313477

> <r_mmod_Torsional_Energy-OPLS-2005>
255.210647583008

> <r_mmod_Improper_Torsional_Energy-OPLS-2005>
5.71266889572144

> <r_mmod_Van_der_Waal_Energy-OPLS-2005>
112.371383666992

> <r_mmod_Electrostatic_Energy-OPLS-2005>
-467.100860595703

> <r_mmod_Solvation_Energy-OPLS-2005>
-212.026412963867

> <b_mmod_Minimization_Converged-OPLS-2005>
0

> <r_mmod_RMS_Derivative-OPLS-2005>
3.64173030853271

$$$$
83
                    3D
 Structure written by MMmdl.
160168  0  0  1  0            999 V2000
  -30.5286  -15.0236   20.4059 C   0  0  0  0  0  0
  -30.4420  -12.6401   19.5076 C   0  0  0  0  0  0
  -29.5281  -12.5416   18.2638 C   0  0  0  0  0  0
  -28.0642  -12.3129   18.6831 C   0  0  0  0  0  0
  -27.6272  -13.2564   19.8343 C   0  0  2  0  0  0
  -28.6683  -13.3235   20.9716 C   0  0  0  0  0  0
  -25.2452  -13.8234   20.5710 C   0  0  0  0  0  0
  -24.1781  -13.0444   20.9228 C   0  0  0  0  0  0
  -24.6405  -11.6930   20.8752 C   0  0  0  0  0  0
  -23.9094  -10.4299   21.0398 C   0  0  0  0  0  0
  -24.3640   -9.4215   21.9174 C   0  0  0  0  0  0
  -23.6312   -8.2251   22.0749 C   0  0  0  0  0  0
  -22.4293   -8.0283   21.3538 C   0  0  0  0  0  0
  -21.9929   -9.0259   20.4643 C   0  0  0  0  0  0
  -22.7263  -10.2140   20.3048 C   0  0  0  0  0  0
  -21.6859   -6.0740   22.5275 C   0  0  0  0  0  0
  -21.4018   -6.5643   23.8209 C   0  0  0  0  0  0
  -21.3664   -5.6793   24.9173 C   0  0  0  0  0  0
  -21.6044   -4.3053   24.7219 C   0  0  0  0  0  0
  -21.8823   -3.8149   23.4338 C   0  0  0  0  0  0
  -21.9198   -4.6968   22.3396 C   0  0  0  0  0  0
  -22.7794  -13.5210   21.1879 C   0  0  0  0  0  0
  -22.1662   -4.2156   21.0974 F   0  0  0  0  0  0
  -21.5635   -3.4534   25.7731 F   0  0  0  0  0  0
  -29.9353  -13.7550   20.3666 N   0  0  0  0  0  0
  -26.2881  -12.9478   20.3223 N   0  0  0  0  0  0
  -25.9342  -11.6599   20.5724 N   0  0  0  0  0  0
  -22.0442  -12.8197   22.0434 N   0  0  0  0  0  0
  -25.4107  -15.1965   20.4136 N   0  0  0  0  0  0
  -31.7362  -15.0663   20.1485 O   0  0  0  0  0  0
  -21.6650   -6.8886   21.4235 O   0  0  0  0  0  0
  -22.3475  -14.5508   20.6716 O   0  0  0  0  0  0
  -24.6495  -31.8396   23.1861 C   0  0  0  0  0  0
  -25.9239  -32.4675   23.8269 C   0  0  1  0  0  0
  -27.2140  -27.0741   20.1496 C   0  0  0  0  0  0
  -25.5959  -33.8484   24.2171 N   0  0  0  0  0  0
  -23.4565  -30.4591   21.5334 C   0  0  2  0  0  0
  -24.9079  -28.8841   20.1096 C   0  0  0  0  0  0
  -22.7602  -29.4523   22.4842 C   0  0  0  0  0  0
  -18.0310  -28.1403   22.8484 C   0  0  0  0  0  0
  -24.1492  -36.7245   23.2643 C   0  0  0  0  0  0
  -26.0199  -30.6927   21.3974 C   0  0  0  0  0  0
  -26.0900  -29.3002   20.7351 C   0  0  0  0  0  0
  -27.2427  -28.4129   20.7380 C   0  0  0  0  0  0
  -26.0011  -26.7870   19.4777 C   0  0  0  0  0  0
  -24.8806  -27.6424   19.4650 C   0  0  0  0  0  0
  -23.6877  -29.7925   20.1530 C   0  0  0  0  0  0
  -25.4125  -36.3013   24.0308 C   0  0  1  0  0  0
  -20.5931  -28.3734   23.1229 C   0  0  2  0  0  0
  -20.6796  -26.9431   22.5408 C   0  0  0  0  0  0
  -19.5765  -26.6384   21.5227 C   0  0  0  0  0  0
  -18.1946  -26.7942   22.1635 C   0  0  0  0  0  0
  -19.1568  -28.8888   23.2849 C   0  0  0  0  0  0
  -18.9481  -30.1486   23.8876 C   0  0  0  0  0  0
  -17.6473  -30.6599   24.0563 C   0  0  0  0  0  0
  -25.9081  -34.9394   23.5052 C   0  0  0  0  0  0
  -16.5365  -29.9089   23.6339 C   0  0  0  0  0  0
  -16.7293  -28.6506   23.0366 C   0  0  0  0  0  0
  -26.4528  -31.6563   25.0736 C   0  0  0  0  0  0
  -25.3685  -31.3788   26.1412 C   0  0  0  0  0  0
  -27.0399  -30.2940   24.6383 C   0  0  0  0  0  0
  -27.6041  -32.4346   25.7530 C   0  0  0  0  0  0
  -27.5573  -37.1778   24.8460 C   0  0  0  0  0  0
  -21.4284  -29.3048   22.3588 N   0  0  0  0  0  0
  -26.4283  -37.3732   23.9404 N   0  0  0  0  0  0
  -24.7290  -31.0193   22.0934 N   0  0  0  0  0  0
  -23.4213  -28.8068   23.3019 O   0  0  0  0  0  0
  -28.2273  -26.0203   20.2223 O   0  0  0  0  0  0
  -26.5676  -34.8893   22.4637 O   0  0  0  0  0  0
  -23.5596  -32.1307   23.7033 O   0  0  0  0  0  0
  -28.2336  -21.8392   20.3588 C   0  0  0  0  0  0
  -29.2102  -20.8005   20.3267 C   0  0  0  0  0  0
  -30.3891  -21.6209   20.1321 C   0  0  0  0  0  0
  -30.0679  -22.9947   20.0959 C   0  0  0  0  0  0
  -30.9509  -24.1915   19.9120 C   0  0  0  0  0  0
  -32.6792  -21.2596   21.1799 C   0  0  0  0  0  0
  -32.4416  -21.4467   18.6364 C   0  0  0  0  0  0
  -29.0113  -19.1154   20.4501 C   0  0  0  0  0  0
  -30.1149  -17.8005   20.3762 C   0  0  0  0  0  0
  -27.7981  -24.5431   20.0169 C   0  0  0  0  0  0
  -31.7783  -21.0265   19.9582 C   0  0  0  0  0  0
  -28.6910  -23.2109   20.1966 N   0  0  0  0  0  0
  -29.7645  -16.2373   20.5222 N   0  0  0  0  0  0
  -31.4730  -12.8053   19.1925 H   0  0  0  0  0  0
  -30.4499  -11.6998   20.0600 H   0  0  0  0  0  0
  -29.8635  -11.7353   17.6106 H   0  0  0  0  0  0
  -29.6031  -13.4622   17.6817 H   0  0  0  0  0  0
  -27.9762  -11.2752   19.0063 H   0  0  0  0  0  0
  -27.4012  -12.4231   17.8239 H   0  0  0  0  0  0
  -27.5796  -14.2506   19.3887 H   0  0  0  0  0  0
  -28.7734  -12.3589   21.4711 H   0  0  0  0  0  0
  -28.3548  -14.0356   21.7365 H   0  0  0  0  0  0
  -25.2782   -9.5702   22.4753 H   0  0  0  0  0  0
  -24.0024   -7.4650   22.7469 H   0  0  0  0  0  0
  -21.0860   -8.8785   19.8947 H   0  0  0  0  0  0
  -22.3714  -10.9681   19.6163 H   0  0  0  0  0  0
  -21.2004   -7.6147   23.9720 H   0  0  0  0  0  0
  -21.1481   -6.0514   25.9079 H   0  0  0  0  0  0
  -22.0595   -2.7608   23.2832 H   0  0  0  0  0  0
  -22.4071  -11.9882   22.4854 H   0  0  0  0  0  0
  -21.1043  -13.1206   22.2602 H   0  0  0  0  0  0
  -24.6399  -15.8462   20.5263 H   0  0  0  0  0  0
  -26.2501  -15.6370   20.0589 H   0  0  0  0  0  0
  -26.7312  -32.5261   23.1000 H   0  0  0  0  0  0
  -25.0047  -33.9600   25.0276 H   0  0  0  0  0  0
  -22.7623  -31.2879   21.3785 H   0  0  0  0  0  0
  -23.3759  -35.9571   23.3277 H   0  0  0  0  0  0
  -24.3575  -36.8912   22.2063 H   0  0  0  0  0  0
  -23.7243  -37.6428   23.6708 H   0  0  0  0  0  0
  -26.1856  -31.4462   20.6261 H   0  0  0  0  0  0
  -26.8854  -30.7419   22.0464 H   0  0  0  0  0  0
  -28.1382  -28.7262   21.2564 H   0  0  0  0  0  0
  -25.8600  -25.8475   18.9682 H   0  0  0  0  0  0
  -23.9801  -27.3206   18.9597 H   0  0  0  0  0  0
  -23.8301  -30.5697   19.4013 H   0  0  0  0  0  0
  -22.8005  -29.2397   19.8381 H   0  0  0  0  0  0
  -25.1316  -36.1833   25.0800 H   0  0  0  0  0  0
  -21.0028  -28.3331   24.1352 H   0  0  0  0  0  0
  -20.5715  -26.2344   23.3632 H   0  0  0  0  0  0
  -21.6657  -26.7447   22.1194 H   0  0  0  0  0  0
  -19.6925  -25.6291   21.1271 H   0  0  0  0  0  0
  -19.6702  -27.3183   20.6750 H   0  0  0  0  0  0
  -17.4219  -26.6702   21.4033 H   0  0  0  0  0  0
  -18.0332  -26.0092   22.9037 H   0  0  0  0  0  0
  -19.7951  -30.7313   24.2235 H   0  0  0  0  0  0
  -17.5021  -31.6277   24.5167 H   0  0  0  0  0  0
  -15.5364  -30.2984   23.7670 H   0  0  0  0  0  0
  -15.8695  -28.0812   22.7101 H   0  0  0  0  0  0
  -24.5863  -30.7142   25.7722 H   0  0  0  0  0  0
  -24.8879  -32.2989   26.4752 H   0  0  0  0  0  0
  -25.7933  -30.9006   27.0249 H   0  0  0  0  0  0
  -26.3040  -29.6656   24.1356 H   0  0  0  0  0  0
  -27.3927  -29.7256   25.4999 H   0  0  0  0  0  0
  -27.8984  -30.4135   23.9771 H   0  0  0  0  0  0
  -27.2615  -33.3671   26.2031 H   0  0  0  0  0  0
  -28.3892  -32.6877   25.0391 H   0  0  0  0  0  0
  -28.0668  -31.8532   26.5517 H   0  0  0  0  0  0
  -28.2569  -38.0095   24.7509 H   0  0  0  0  0  0
  -28.1092  -36.2621   24.6280 H   0  0  0  0  0  0
  -27.2293  -37.1410   25.8864 H   0  0  0  0  0  0
  -20.9504  -29.8743   21.6743 H   0  0  0  0  0  0
  -26.0141  -38.2793   24.1421 H   0  0  0  0  0  0
  -27.1636  -21.7086   20.4554 H   0  0  0  0  0  0
  -30.9575  -24.5110   18.8698 H   0  0  0  0  0  0
  -31.9782  -23.9903   20.2073 H   0  0  0  0  0  0
  -30.6139  -25.0319   20.5184 H   0  0  0  0  0  0
  -32.2236  -20.8483   22.0811 H   0  0  0  0  0  0
  -32.8728  -22.3155   21.3595 H   0  0  0  0  0  0
  -33.6436  -20.7669   21.0513 H   0  0  0  0  0  0
  -31.7988  -21.2062   17.7885 H   0  0  0  0  0  0
  -33.3835  -20.9179   18.4883 H   0  0  0  0  0  0
  -32.6593  -22.5127   18.5937 H   0  0  0  0  0  0
  -28.2603  -18.8950   19.6916 H   0  0  0  0  0  0
  -28.4797  -18.9900   21.3931 H   0  0  0  0  0  0
  -30.8837  -17.9919   21.1256 H   0  0  0  0  0  0
  -30.6305  -17.8825   19.4193 H   0  0  0  0  0  0
  -26.9147  -24.3896   20.6391 H   0  0  0  0  0  0
  -27.4694  -24.4771   18.9797 H   0  0  0  0  0  0
  -31.6500  -19.9496   19.8817 H   0  0  0  0  0  0
  -28.7865  -16.0619   20.6981 H   0  0  0  0  0  0
  1 25  1  0  0  0
  1 30  2  0  0  0
  1 83  1  0  0  0
  2  3  1  0  0  0
  2 25  1  0  0  0
  2 84  1  0  0  0
  2 85  1  0  0  0
  3  4  1  0  0  0
  3 86  1  0  0  0
  3 87  1  0  0  0
  4  5  1  0  0  0
  4 88  1  0  0  0
  4 89  1  0  0  0
  5  6  1  0  0  0
  5 26  1  0  0  0
  5 90  1  0  0  0
  6 25  1  0  0  0
  6 91  1  0  0  0
  6 92  1  0  0  0
  7  8  2  0  0  0
  7 26  1  0  0  0
  7 29  1  0  0  0
  8  9  1  0  0  0
  8 22  1  0  0  0
  9 10  1  0  0  0
  9 27  2  0  0  0
 10 11  2  0  0  0
 10 15  1  0  0  0
 11 12  1  0  0  0
 11 93  1  0  0  0
 12 13  2  0  0  0
 12 94  1  0  0  0
 13 14  1  0  0  0
 13 31  1  0  0  0
 14 15  2  0  0  0
 14 95  1  0  0  0
 15 96  1  0  0  0
 16 17  2  0  0  0
 16 21  1  0  0  0
 16 31  1  0  0  0
 17 18  1  0  0  0
 17 97  1  0  0  0
 18 19  2  0  0  0
 18 98  1  0  0  0
 19 20  1  0  0  0
 19 24  1  0  0  0
 20 21  2  0  0  0
 20 99  1  0  0  0
 21 23  1  0  0  0
 22 28  1  0  0  0
 22 32  2  0  0  0
 26 27  1  0  0  0
 28100  1  0  0  0
 28101  1  0  0  0
 29102  1  0  0  0
 29103  1  0  0  0
 33 34  1  0  0  0
 33 66  1  0  0  0
 33 70  2  0  0  0
 34 36  1  0  0  0
 34 59  1  0  0  0
 34104  1  0  0  0
 35 44  2  0  0  0
 35 45  1  0  0  0
 35 68  1  0  0  0
 36 56  1  0  0  0
 36105  1  0  0  0
 37 39  1  0  0  0
 37 47  1  0  0  0
 37 66  1  0  0  0
 37106  1  0  0  0
 38 43  2  0  0  0
 38 46  1  0  0  0
 38 47  1  0  0  0
 39 64  1  0  0  0
 39 67  2  0  0  0
 40 52  1  0  0  0
 40 53  2  0  0  0
 40 58  1  0  0  0
 41107  1  0  0  0
 41108  1  0  0  0
 41109  1  0  0  0
 41 48  1  0  0  0
 42 43  1  0  0  0
 42 66  1  0  0  0
 42110  1  0  0  0
 42111  1  0  0  0
 43 44  1  0  0  0
 44112  1  0  0  0
 45 46  2  0  0  0
 45113  1  0  0  0
 46114  1  0  0  0
 47115  1  0  0  0
 47116  1  0  0  0
 48 56  1  0  0  0
 48 65  1  0  0  0
 48117  1  0  0  0
 49 50  1  0  0  0
 49 53  1  0  0  0
 49 64  1  0  0  0
 49118  1  0  0  0
 50 51  1  0  0  0
 50119  1  0  0  0
 50120  1  0  0  0
 51 52  1  0  0  0
 51121  1  0  0  0
 51122  1  0  0  0
 52123  1  0  0  0
 52124  1  0  0  0
 53 54  1  0  0  0
 54 55  2  0  0  0
 54125  1  0  0  0
 55 57  1  0  0  0
 55126  1  0  0  0
 56 69  2  0  0  0
 57 58  2  0  0  0
 57127  1  0  0  0
 58128  1  0  0  0
 59 60  1  0  0  0
 59 61  1  0  0  0
 59 62  1  0  0  0
 60129  1  0  0  0
 60130  1  0  0  0
 60131  1  0  0  0
 61132  1  0  0  0
 61133  1  0  0  0
 61134  1  0  0  0
 62135  1  0  0  0
 62136  1  0  0  0
 62137  1  0  0  0
 63 65  1  0  0  0
 63138  1  0  0  0
 63139  1  0  0  0
 63140  1  0  0  0
 64141  1  0  0  0
 65142  1  0  0  0
 68 80  1  0  0  0
 71 72  2  0  0  0
 71 82  1  0  0  0
 71143  1  0  0  0
 72 73  1  0  0  0
 72 78  1  0  0  0
 73 74  2  0  0  0
 73 81  1  0  0  0
 74 75  1  0  0  0
 74 82  1  0  0  0
 75144  1  0  0  0
 75145  1  0  0  0
 75146  1  0  0  0
 76147  1  0  0  0
 76148  1  0  0  0
 76149  1  0  0  0
 76 81  1  0  0  0
 77 81  1  0  0  0
 77150  1  0  0  0
 77151  1  0  0  0
 77152  1  0  0  0
 78 79  1  0  0  0
 78153  1  0  0  0
 78154  1  0  0  0
 79 83  1  0  0  0
 79155  1  0  0  0
 79156  1  0  0  0
 80 82  1  0  0  0
 80157  1  0  0  0
 80158  1  0  0  0
 81159  1  0  0  0
 83160  1  0  0  0
M  ISO  4   1 100  68 101  80 101  83 100
M  END
> <chiral flag>
0

> <version>
0

> <s_m_source_file>
/data/baiqing/PycharmProjects/Reinvent-master-3.2/result/LINK_invent/BTK/process_docking_weight1_custom_sum_contain_oxygen_bond_distance_aromatic_linkinvent_7_9_3/rearranged_h_0103.sdf

> <i_m_source_file_index>
84

> <r_mmod_Potential_Energy-OPLS-2005>
591.502685546875

> <r_mmod_Stretch_Energy-OPLS-2005>
325.060028076172

> <r_mmod_Bend_Energy-OPLS-2005>
312.57470703125

> <r_mmod_Torsional_Energy-OPLS-2005>
204.492248535156

> <r_mmod_Improper_Torsional_Energy-OPLS-2005>
5.21297359466553

> <r_mmod_Van_der_Waal_Energy-OPLS-2005>
111.955856323242

> <r_mmod_Electrostatic_Energy-OPLS-2005>
-404.992370605469

> <r_mmod_Solvation_Energy-OPLS-2005>
-217.373840332031

> <b_mmod_Minimization_Converged-OPLS-2005>
0

> <r_mmod_RMS_Derivative-OPLS-2005>
1.24017989635468

$$$$
84
                    3D
 Structure written by MMmdl.
169177  0  0  1  0            999 V2000
  -30.4835  -15.0655   20.4995 C   0  0  0  0  0  0
  -30.4551  -12.6868   19.5071 C   0  0  0  0  0  0
  -29.5308  -12.5909   18.2644 C   0  0  0  0  0  0
  -28.0635  -12.3415   18.6658 C   0  0  0  0  0  0
  -27.6346  -13.2433   19.8489 C   0  0  2  0  0  0
  -28.6798  -13.1914   20.9785 C   0  0  0  0  0  0
  -25.2438  -13.8173   20.5642 C   0  0  0  0  0  0
  -24.1767  -13.0406   20.9193 C   0  0  0  0  0  0
  -24.6392  -11.6897   20.8737 C   0  0  0  0  0  0
  -23.9074  -10.4276   21.0400 C   0  0  0  0  0  0
  -24.3621   -9.4198   21.9185 C   0  0  0  0  0  0
  -23.6288   -8.2238   22.0762 C   0  0  0  0  0  0
  -22.4275   -8.0275   21.3547 C   0  0  0  0  0  0
  -21.9910   -9.0247   20.4647 C   0  0  0  0  0  0
  -22.7246  -10.2120   20.3051 C   0  0  0  0  0  0
  -21.6850   -6.0731   22.5277 C   0  0  0  0  0  0
  -21.4012   -6.5636   23.8209 C   0  0  0  0  0  0
  -21.3659   -5.6791   24.9172 C   0  0  0  0  0  0
  -21.6044   -4.3053   24.7226 C   0  0  0  0  0  0
  -21.8819   -3.8142   23.4345 C   0  0  0  0  0  0
  -21.9192   -4.6959   22.3400 C   0  0  0  0  0  0
  -22.7790  -13.5185   21.1861 C   0  0  0  0  0  0
  -22.1661   -4.2145   21.0978 F   0  0  0  0  0  0
  -21.5632   -3.4535   25.7738 F   0  0  0  0  0  0
  -29.9327  -13.7567   20.4313 N   0  0  0  0  0  0
  -26.2894  -12.9409   20.3235 N   0  0  0  0  0  0
  -25.9327  -11.6540   20.5715 N   0  0  0  0  0  0
  -22.0449  -12.8185   22.0430 N   0  0  0  0  0  0
  -25.4011  -15.1898   20.3992 N   0  0  0  0  0  0
  -31.6308  -15.1193   20.0334 O   0  0  0  0  0  0
  -21.6635   -6.8874   21.4241 O   0  0  0  0  0  0
  -22.3469  -14.5493   20.6715 O   0  0  0  0  0  0
  -24.6479  -31.8376   23.1811 C   0  0  0  0  0  0
  -25.9230  -32.4656   23.8229 C   0  0  1  0  0  0
  -27.2263  -27.0791   20.1694 C   0  0  0  0  0  0
  -25.5954  -33.8463   24.2144 N   0  0  0  0  0  0
  -23.4557  -30.4521   21.5273 C   0  0  2  0  0  0
  -24.9070  -28.8597   20.1143 C   0  0  0  0  0  0
  -22.7588  -29.4516   22.4837 C   0  0  0  0  0  0
  -18.0307  -28.1392   22.8474 C   0  0  0  0  0  0
  -24.1483  -36.7234   23.2647 C   0  0  0  0  0  0
  -26.0134  -30.6943   21.3857 C   0  0  0  0  0  0
  -26.0851  -29.2975   20.7317 C   0  0  0  0  0  0
  -27.2444  -28.4264   20.7328 C   0  0  0  0  0  0
  -26.0184  -26.7451   19.5232 C   0  0  0  0  0  0
  -24.8893  -27.5991   19.4930 C   0  0  0  0  0  0
  -23.6858  -29.7710   20.1507 C   0  0  0  0  0  0
  -25.4118  -36.3003   24.0305 C   0  0  1  0  0  0
  -20.5923  -28.3728   23.1215 C   0  0  2  0  0  0
  -20.6787  -26.9423   22.5400 C   0  0  0  0  0  0
  -19.5767  -26.6378   21.5206 C   0  0  0  0  0  0
  -18.1950  -26.7933   22.1614 C   0  0  0  0  0  0
  -19.1565  -28.8877   23.2835 C   0  0  0  0  0  0
  -18.9486  -30.1473   23.8858 C   0  0  0  0  0  0
  -17.6484  -30.6591   24.0557 C   0  0  0  0  0  0
  -25.9077  -34.9383   23.5037 C   0  0  0  0  0  0
  -16.5372  -29.9083   23.6346 C   0  0  0  0  0  0
  -16.7292  -28.6500   23.0367 C   0  0  0  0  0  0
  -26.4527  -31.6557   25.0707 C   0  0  0  0  0  0
  -25.3689  -31.3757   26.1392 C   0  0  0  0  0  0
  -27.0419  -30.2949   24.6338 C   0  0  0  0  0  0
  -27.6035  -32.4351   25.7497 C   0  0  0  0  0  0
  -27.5572  -37.1758   24.8457 C   0  0  0  0  0  0
  -21.4277  -29.3043   22.3578 N   0  0  0  0  0  0
  -26.4270  -37.3732   23.9420 N   0  0  0  0  0  0
  -24.7261  -31.0176   22.0868 N   0  0  0  0  0  0
  -23.4200  -28.8079   23.3025 O   0  0  0  0  0  0
  -28.2984  -26.0976   20.2127 O   0  0  0  0  0  0
  -26.5682  -34.8895   22.4634 O   0  0  0  0  0  0
  -23.5584  -32.1283   23.6992 O   0  0  0  0  0  0
  -28.2885  -21.9138   19.2200 C   0  0  0  0  0  0
  -29.2307  -22.1242   21.4334 C   0  0  0  0  0  0
  -28.2732  -23.5497   19.0587 C   0  0  0  0  0  0
  -29.2019  -23.7577   21.2809 C   0  0  0  0  0  0
  -29.4153  -21.2331   20.1270 C   0  0  1  0  0  0
  -28.1526  -24.5199   20.3314 C   0  0  1  0  0  0
  -30.5550  -17.8098   23.4277 C   0  0  0  0  0  0
  -28.6392  -16.1322   22.0156 C   0  0  0  0  0  0
  -30.2747  -19.3841   18.5357 C   0  0  0  0  0  0
  -31.4298  -19.6728   20.6697 C   0  0  0  0  0  0
  -30.9687  -16.8624   22.2795 C   0  0  0  0  0  0
  -29.3413  -18.0489   20.4740 C   0  0  0  0  0  0
  -29.8891  -16.5328   21.1957 C   0  0  1  0  0  0
  -30.0207  -19.5797   20.0473 C   0  0  0  0  0  0
  -31.4757  -12.8851   19.1785 H   0  0  0  0  0  0
  -30.5165  -11.7228   20.0153 H   0  0  0  0  0  0
  -29.8772  -11.8053   17.5921 H   0  0  0  0  0  0
  -29.5954  -13.5237   17.7020 H   0  0  0  0  0  0
  -27.9686  -11.2931   18.9503 H   0  0  0  0  0  0
  -27.4028  -12.4874   17.8106 H   0  0  0  0  0  0
  -27.6138  -14.2625   19.4621 H   0  0  0  0  0  0
  -28.8218  -12.1575   21.2984 H   0  0  0  0  0  0
  -28.3150  -13.6631   21.8786 H   0  0  0  0  0  0
  -25.2762   -9.5678   22.4763 H   0  0  0  0  0  0
  -23.9992   -7.4635   22.7490 H   0  0  0  0  0  0
  -21.0842   -8.8765   19.8955 H   0  0  0  0  0  0
  -22.3702  -10.9659   19.6158 H   0  0  0  0  0  0
  -21.2001   -7.6143   23.9711 H   0  0  0  0  0  0
  -21.1484   -6.0520   25.9077 H   0  0  0  0  0  0
  -22.0599   -2.7604   23.2845 H   0  0  0  0  0  0
  -22.4069  -11.9844   22.4818 H   0  0  0  0  0  0
  -21.1069  -13.1214   22.2645 H   0  0  0  0  0  0
  -24.6281  -15.8364   20.5142 H   0  0  0  0  0  0
  -26.2470  -15.6387   20.0743 H   0  0  0  0  0  0
  -26.7300  -32.5240   23.0953 H   0  0  0  0  0  0
  -25.0064  -33.9558   25.0266 H   0  0  0  0  0  0
  -22.7610  -31.2787   21.3653 H   0  0  0  0  0  0
  -23.3756  -35.9557   23.3279 H   0  0  0  0  0  0
  -24.3564  -36.8917   22.2072 H   0  0  0  0  0  0
  -23.7234  -37.6411   23.6720 H   0  0  0  0  0  0
  -26.1723  -31.4434   20.6086 H   0  0  0  0  0  0
  -26.8808  -30.7490   22.0318 H   0  0  0  0  0  0
  -28.1451  -28.7621   21.2265 H   0  0  0  0  0  0
  -25.9324  -25.7767   19.0511 H   0  0  0  0  0  0
  -23.9886  -27.2569   19.0030 H   0  0  0  0  0  0
  -23.8259  -30.5405   19.3910 H   0  0  0  0  0  0
  -22.7989  -29.2151   19.8419 H   0  0  0  0  0  0
  -25.1302  -36.1814   25.0792 H   0  0  0  0  0  0
  -21.0009  -28.3339   24.1340 H   0  0  0  0  0  0
  -20.5685  -26.2342   23.3627 H   0  0  0  0  0  0
  -21.6655  -26.7426   22.1203 H   0  0  0  0  0  0
  -19.6932  -25.6281   21.1262 H   0  0  0  0  0  0
  -19.6713  -27.3164   20.6718 H   0  0  0  0  0  0
  -17.4223  -26.6679   21.4013 H   0  0  0  0  0  0
  -18.0336  -26.0071   22.9000 H   0  0  0  0  0  0
  -19.7967  -30.7293   24.2211 H   0  0  0  0  0  0
  -17.5047  -31.6270   24.5163 H   0  0  0  0  0  0
  -15.5374  -30.2978   23.7698 H   0  0  0  0  0  0
  -15.8687  -28.0811   22.7110 H   0  0  0  0  0  0
  -24.5882  -30.7083   25.7710 H   0  0  0  0  0  0
  -24.8845  -32.2933   26.4738 H   0  0  0  0  0  0
  -25.7956  -30.8994   27.0226 H   0  0  0  0  0  0
  -26.3053  -29.6627   24.1360 H   0  0  0  0  0  0
  -27.4031  -29.7297   25.4939 H   0  0  0  0  0  0
  -27.8952  -30.4174   23.9663 H   0  0  0  0  0  0
  -27.2619  -33.3692   26.1966 H   0  0  0  0  0  0
  -28.3895  -32.6856   25.0359 H   0  0  0  0  0  0
  -28.0641  -31.8556   26.5504 H   0  0  0  0  0  0
  -28.2540  -38.0103   24.7568 H   0  0  0  0  0  0
  -28.1118  -36.2633   24.6202 H   0  0  0  0  0  0
  -27.2294  -37.1307   25.8858 H   0  0  0  0  0  0
  -20.9498  -29.8743   21.6735 H   0  0  0  0  0  0
  -26.0122  -38.2780   24.1483 H   0  0  0  0  0  0
  -28.3578  -21.4931   18.2166 H   0  0  0  0  0  0
  -27.3137  -21.5932   19.5898 H   0  0  0  0  0  0
  -28.3150  -21.8097   21.9359 H   0  0  0  0  0  0
  -30.0325  -21.8722   22.1274 H   0  0  0  0  0  0
  -27.4654  -23.8060   18.3731 H   0  0  0  0  0  0
  -29.1855  -23.8256   18.5285 H   0  0  0  0  0  0
  -30.1987  -24.0612   20.9581 H   0  0  0  0  0  0
  -29.0962  -24.1799   22.2808 H   0  0  0  0  0  0
  -30.2794  -21.7368   19.6938 H   0  0  0  0  0  0
  -27.1654  -24.3519   20.7646 H   0  0  0  0  0  0
  -31.4330  -18.1590   23.9710 H   0  0  0  0  0  0
  -29.9156  -17.3061   24.1530 H   0  0  0  0  0  0
  -30.0142  -18.6876   23.0767 H   0  0  0  0  0  0
  -28.1920  -16.9540   22.5733 H   0  0  0  0  0  0
  -28.8861  -15.4020   22.7851 H   0  0  0  0  0  0
  -27.8483  -15.7552   21.3732 H   0  0  0  0  0  0
  -30.8683  -20.1917   18.1056 H   0  0  0  0  0  0
  -29.3373  -19.3416   17.9798 H   0  0  0  0  0  0
  -30.8092  -18.4540   18.3340 H   0  0  0  0  0  0
  -31.9894  -20.5308   20.2965 H   0  0  0  0  0  0
  -32.0381  -18.8078   20.4123 H   0  0  0  0  0  0
  -31.4011  -19.7752   21.7516 H   0  0  0  0  0  0
  -31.3077  -15.9384   22.7539 H   0  0  0  0  0  0
  -31.8667  -17.2416   21.8021 H   0  0  0  0  0  0
  -28.5618  -18.4149   21.1389 H   0  0  0  0  0  0
  -28.7496  -17.7263   19.6163 H   0  0  0  0  0  0
  1 25  1  0  0  0
  1 30  2  0  0  0
  1 83  1  0  0  0
  2  3  1  0  0  0
  2 25  1  0  0  0
  2 85  1  0  0  0
  2 86  1  0  0  0
  3  4  1  0  0  0
  3 87  1  0  0  0
  3 88  1  0  0  0
  4  5  1  0  0  0
  4 89  1  0  0  0
  4 90  1  0  0  0
  5  6  1  0  0  0
  5 26  1  0  0  0
  5 91  1  0  0  0
  6 25  1  0  0  0
  6 92  1  0  0  0
  6 93  1  0  0  0
  7  8  2  0  0  0
  7 26  1  0  0  0
  7 29  1  0  0  0
  8  9  1  0  0  0
  8 22  1  0  0  0
  9 10  1  0  0  0
  9 27  2  0  0  0
 10 11  2  0  0  0
 10 15  1  0  0  0
 11 12  1  0  0  0
 11 94  1  0  0  0
 12 13  2  0  0  0
 12 95  1  0  0  0
 13 14  1  0  0  0
 13 31  1  0  0  0
 14 15  2  0  0  0
 14 96  1  0  0  0
 15 97  1  0  0  0
 16 17  2  0  0  0
 16 21  1  0  0  0
 16 31  1  0  0  0
 17 18  1  0  0  0
 17 98  1  0  0  0
 18 19  2  0  0  0
 18 99  1  0  0  0
 19 20  1  0  0  0
 19 24  1  0  0  0
 20 21  2  0  0  0
 20100  1  0  0  0
 21 23  1  0  0  0
 22 28  1  0  0  0
 22 32  2  0  0  0
 26 27  1  0  0  0
 28101  1  0  0  0
 28102  1  0  0  0
 29103  1  0  0  0
 29104  1  0  0  0
 33 34  1  0  0  0
 33 66  1  0  0  0
 33 70  2  0  0  0
 34 36  1  0  0  0
 34 59  1  0  0  0
 34105  1  0  0  0
 35 44  2  0  0  0
 35 45  1  0  0  0
 35 68  1  0  0  0
 36 56  1  0  0  0
 36106  1  0  0  0
 37 39  1  0  0  0
 37 47  1  0  0  0
 37 66  1  0  0  0
 37107  1  0  0  0
 38 43  2  0  0  0
 38 46  1  0  0  0
 38 47  1  0  0  0
 39 64  1  0  0  0
 39 67  2  0  0  0
 40 52  1  0  0  0
 40 53  2  0  0  0
 40 58  1  0  0  0
 41108  1  0  0  0
 41109  1  0  0  0
 41110  1  0  0  0
 41 48  1  0  0  0
 42 43  1  0  0  0
 42 66  1  0  0  0
 42111  1  0  0  0
 42112  1  0  0  0
 43 44  1  0  0  0
 44113  1  0  0  0
 45 46  2  0  0  0
 45114  1  0  0  0
 46115  1  0  0  0
 47116  1  0  0  0
 47117  1  0  0  0
 48 56  1  0  0  0
 48 65  1  0  0  0
 48118  1  0  0  0
 49 50  1  0  0  0
 49 53  1  0  0  0
 49 64  1  0  0  0
 49119  1  0  0  0
 50 51  1  0  0  0
 50120  1  0  0  0
 50121  1  0  0  0
 51 52  1  0  0  0
 51122  1  0  0  0
 51123  1  0  0  0
 52124  1  0  0  0
 52125  1  0  0  0
 53 54  1  0  0  0
 54 55  2  0  0  0
 54126  1  0  0  0
 55 57  1  0  0  0
 55127  1  0  0  0
 56 69  2  0  0  0
 57 58  2  0  0  0
 57128  1  0  0  0
 58129  1  0  0  0
 59 60  1  0  0  0
 59 61  1  0  0  0
 59 62  1  0  0  0
 60130  1  0  0  0
 60131  1  0  0  0
 60132  1  0  0  0
 61133  1  0  0  0
 61134  1  0  0  0
 61135  1  0  0  0
 62136  1  0  0  0
 62137  1  0  0  0
 62138  1  0  0  0
 63 65  1  0  0  0
 63139  1  0  0  0
 63140  1  0  0  0
 63141  1  0  0  0
 64142  1  0  0  0
 65143  1  0  0  0
 68 76  1  0  0  0
 71 73  1  0  0  0
 71144  1  0  0  0
 71145  1  0  0  0
 71 75  1  0  0  0
 72 74  1  0  0  0
 72 75  1  0  0  0
 72146  1  0  0  0
 72147  1  0  0  0
 73 76  1  0  0  0
 73148  1  0  0  0
 73149  1  0  0  0
 74 76  1  0  0  0
 74150  1  0  0  0
 74151  1  0  0  0
 75 84  1  0  0  0
 75152  1  0  0  0
 76153  1  0  0  0
 77 81  1  0  0  0
 77154  1  0  0  0
 77155  1  0  0  0
 77156  1  0  0  0
 78157  1  0  0  0
 78158  1  0  0  0
 78159  1  0  0  0
 78 83  1  0  0  0
 79160  1  0  0  0
 79161  1  0  0  0
 79162  1  0  0  0
 79 84  1  0  0  0
 80 84  1  0  0  0
 80163  1  0  0  0
 80164  1  0  0  0
 80165  1  0  0  0
 81 83  1  0  0  0
 81166  1  0  0  0
 81167  1  0  0  0
 82 83  1  0  0  0
 82 84  1  0  0  0
 82168  1  0  0  0
 82169  1  0  0  0
M  ISO  4   1 100  68 101  76 101  83 100
M  END
> <chiral flag>
0

> <version>
0

> <s_m_source_file>
/data/baiqing/PycharmProjects/Reinvent-master-3.2/result/LINK_invent/BTK/process_docking_weight1_custom_sum_contain_oxygen_bond_distance_aromatic_linkinvent_7_9_3/rearranged_h_0103.sdf

> <i_m_source_file_index>
85

> <r_mmod_Potential_Energy-OPLS-2005>
1047.53515625

> <r_mmod_Stretch_Energy-OPLS-2005>
404.196807861328

> <r_mmod_Bend_Energy-OPLS-2005>
483.714721679688

> <r_mmod_Torsional_Energy-OPLS-2005>
255.404022216797

> <r_mmod_Improper_Torsional_Energy-OPLS-2005>
2.22802877426147

> <r_mmod_Van_der_Waal_Energy-OPLS-2005>
142.555114746094

> <r_mmod_Electrostatic_Energy-OPLS-2005>
-318.718383789062

> <r_mmod_Solvation_Energy-OPLS-2005>
-169.168685913086

> <b_mmod_Minimization_Converged-OPLS-2005>
0

> <r_mmod_RMS_Derivative-OPLS-2005>
1.17431938648224

$$$$
85
                    3D
 Structure written by MMmdl.
165173  0  0  1  0            999 V2000
  -30.5657  -14.9489   20.4403 C   0  0  0  0  0  0
  -30.4404  -12.5925   19.5076 C   0  0  0  0  0  0
  -29.5255  -12.5345   18.2623 C   0  0  0  0  0  0
  -28.0577  -12.3219   18.6768 C   0  0  0  0  0  0
  -27.6331  -13.2528   19.8430 C   0  0  2  0  0  0
  -28.6743  -13.2894   20.9830 C   0  0  0  0  0  0
  -25.2474  -13.8228   20.5722 C   0  0  0  0  0  0
  -24.1792  -13.0441   20.9226 C   0  0  0  0  0  0
  -24.6418  -11.6932   20.8759 C   0  0  0  0  0  0
  -23.9102  -10.4300   21.0413 C   0  0  0  0  0  0
  -24.3646   -9.4215   21.9191 C   0  0  0  0  0  0
  -23.6314   -8.2256   22.0763 C   0  0  0  0  0  0
  -22.4294   -8.0300   21.3553 C   0  0  0  0  0  0
  -21.9938   -9.0274   20.4649 C   0  0  0  0  0  0
  -22.7277  -10.2144   20.3059 C   0  0  0  0  0  0
  -21.6858   -6.0751   22.5286 C   0  0  0  0  0  0
  -21.4015   -6.5651   23.8220 C   0  0  0  0  0  0
  -21.3659   -5.6795   24.9175 C   0  0  0  0  0  0
  -21.6041   -4.3060   24.7215 C   0  0  0  0  0  0
  -21.8822   -3.8161   23.4336 C   0  0  0  0  0  0
  -21.9193   -4.6980   22.3399 C   0  0  0  0  0  0
  -22.7808  -13.5211   21.1870 C   0  0  0  0  0  0
  -22.1666   -4.2170   21.0975 F   0  0  0  0  0  0
  -21.5623   -3.4541   25.7726 F   0  0  0  0  0  0
  -29.9527  -13.6969   20.3867 N   0  0  0  0  0  0
  -26.2915  -12.9476   20.3265 N   0  0  0  0  0  0
  -25.9354  -11.6599   20.5756 N   0  0  0  0  0  0
  -22.0453  -12.8199   22.0417 N   0  0  0  0  0  0
  -25.4109  -15.1965   20.4162 N   0  0  0  0  0  0
  -31.7646  -14.9963   20.1490 O   0  0  0  0  0  0
  -21.6652   -6.8900   21.4251 O   0  0  0  0  0  0
  -22.3496  -14.5519   20.6717 O   0  0  0  0  0  0
  -24.6444  -31.8442   23.1935 C   0  0  0  0  0  0
  -25.9207  -32.4702   23.8311 C   0  0  1  0  0  0
  -27.2012  -27.1016   20.1636 C   0  0  0  0  0  0
  -25.5950  -33.8519   24.2214 N   0  0  0  0  0  0
  -23.4494  -30.4674   21.5386 C   0  0  2  0  0  0
  -24.9025  -28.9044   20.1094 C   0  0  0  0  0  0
  -22.7582  -29.4536   22.4855 C   0  0  0  0  0  0
  -18.0301  -28.1408   22.8461 C   0  0  0  0  0  0
  -24.1491  -36.7255   23.2644 C   0  0  0  0  0  0
  -26.0108  -30.7019   21.4085 C   0  0  0  0  0  0
  -26.0770  -29.3112   20.7553 C   0  0  0  0  0  0
  -27.2229  -28.4227   20.7801 C   0  0  0  0  0  0
  -26.0431  -26.8742   19.3881 C   0  0  0  0  0  0
  -24.9015  -27.6964   19.4063 C   0  0  0  0  0  0
  -23.6800  -29.8062   20.1553 C   0  0  0  0  0  0
  -25.4120  -36.3043   24.0324 C   0  0  1  0  0  0
  -20.5923  -28.3715   23.1231 C   0  0  2  0  0  0
  -20.6787  -26.9419   22.5402 C   0  0  0  0  0  0
  -19.5765  -26.6380   21.5209 C   0  0  0  0  0  0
  -18.1941  -26.7949   22.1612 C   0  0  0  0  0  0
  -19.1564  -28.8879   23.2840 C   0  0  0  0  0  0
  -18.9483  -30.1476   23.8864 C   0  0  0  0  0  0
  -17.6481  -30.6594   24.0559 C   0  0  0  0  0  0
  -25.9068  -34.9416   23.5078 C   0  0  0  0  0  0
  -16.5368  -29.9089   23.6340 C   0  0  0  0  0  0
  -16.7287  -28.6516   23.0345 C   0  0  0  0  0  0
  -26.4513  -31.6573   25.0753 C   0  0  0  0  0  0
  -25.3672  -31.3776   26.1419 C   0  0  0  0  0  0
  -27.0369  -30.2955   24.6376 C   0  0  0  0  0  0
  -27.6047  -32.4331   25.7523 C   0  0  0  0  0  0
  -27.5577  -37.1778   24.8466 C   0  0  0  0  0  0
  -21.4271  -29.3039   22.3602 N   0  0  0  0  0  0
  -26.4284  -37.3750   23.9414 N   0  0  0  0  0  0
  -24.7209  -31.0257   22.1005 N   0  0  0  0  0  0
  -23.4214  -28.8054   23.2993 O   0  0  0  0  0  0
  -28.2112  -26.0535   20.2235 O   0  0  0  0  0  0
  -26.5656  -34.8905   22.4660 O   0  0  0  0  0  0
  -23.5549  -32.1352   23.7104 O   0  0  0  0  0  0
  -30.3115  -23.6308   20.9169 C   0  0  0  0  0  0
  -31.2799  -22.6461   21.1926 C   0  0  0  0  0  0
  -28.7827  -21.8084   20.5316 C   0  0  0  0  0  0
  -28.9937  -23.2906   20.6065 C   0  0  0  0  0  0
  -31.0566  -21.2316   21.1968 C   0  0  0  0  0  0
  -29.7648  -20.7122   20.7882 C   0  0  0  0  0  0
  -26.6145  -23.9610   19.8972 C   0  0  0  0  0  0
  -33.4292  -21.1465   22.3002 C   0  0  0  0  0  0
  -32.8753  -19.6071   20.5002 C   0  0  0  0  0  0
  -31.8015  -19.4606   22.8894 C   0  0  0  0  0  0
  -29.3429  -19.0798   20.7744 C   0  0  0  0  0  0
  -30.2568  -17.6723   20.4303 C   0  0  0  0  0  0
  -27.8902  -24.5296   20.5480 C   0  0  2  0  0  0
  -32.2381  -20.3484   21.6959 C   0  0  0  0  0  0
  -29.8253  -16.1558   20.6102 N   0  0  0  0  0  0
  -31.4755  -12.7425   19.1967 H   0  0  0  0  0  0
  -30.4285  -11.6411   20.0426 H   0  0  0  0  0  0
  -29.8455  -11.7361   17.5916 H   0  0  0  0  0  0
  -29.6171  -13.4642   17.6982 H   0  0  0  0  0  0
  -27.9493  -11.2793   18.9777 H   0  0  0  0  0  0
  -27.3975  -12.4619   17.8200 H   0  0  0  0  0  0
  -27.5952  -14.2548   19.4150 H   0  0  0  0  0  0
  -28.7601  -12.3194   21.4749 H   0  0  0  0  0  0
  -28.3732  -14.0019   21.7523 H   0  0  0  0  0  0
  -25.2788   -9.5687   22.4771 H   0  0  0  0  0  0
  -24.0015   -7.4648   22.7485 H   0  0  0  0  0  0
  -21.0868   -8.8804   19.8952 H   0  0  0  0  0  0
  -22.3749  -10.9690   19.6169 H   0  0  0  0  0  0
  -21.2017   -7.6161   23.9729 H   0  0  0  0  0  0
  -21.1472   -6.0523   25.9075 H   0  0  0  0  0  0
  -22.0600   -2.7626   23.2828 H   0  0  0  0  0  0
  -22.4071  -11.9849   22.4787 H   0  0  0  0  0  0
  -21.1072  -13.1225   22.2619 H   0  0  0  0  0  0
  -24.6366  -15.8415   20.5301 H   0  0  0  0  0  0
  -26.2494  -15.6444   20.0702 H   0  0  0  0  0  0
  -26.7258  -32.5298   23.1019 H   0  0  0  0  0  0
  -25.0063  -33.9648   25.0338 H   0  0  0  0  0  0
  -22.7538  -31.2957   21.3886 H   0  0  0  0  0  0
  -23.3765  -35.9576   23.3293 H   0  0  0  0  0  0
  -24.3578  -36.8890   22.2060 H   0  0  0  0  0  0
  -23.7233  -37.6450   23.6673 H   0  0  0  0  0  0
  -26.1773  -31.4509   20.6331 H   0  0  0  0  0  0
  -26.8785  -30.7505   22.0543 H   0  0  0  0  0  0
  -28.1065  -28.7237   21.3238 H   0  0  0  0  0  0
  -25.9889  -26.0236   18.7323 H   0  0  0  0  0  0
  -24.0295  -27.4049   18.8370 H   0  0  0  0  0  0
  -23.8188  -30.5874   19.4072 H   0  0  0  0  0  0
  -22.7944  -29.2528   19.8373 H   0  0  0  0  0  0
  -25.1307  -36.1877   25.0813 H   0  0  0  0  0  0
  -21.0007  -28.3286   24.1353 H   0  0  0  0  0  0
  -20.5684  -26.2315   23.3611 H   0  0  0  0  0  0
  -21.6650  -26.7421   22.1201 H   0  0  0  0  0  0
  -19.6926  -25.6289   21.1242 H   0  0  0  0  0  0
  -19.6718  -27.3184   20.6745 H   0  0  0  0  0  0
  -17.4215  -26.6686   21.4010 H   0  0  0  0  0  0
  -18.0329  -26.0113   22.9032 H   0  0  0  0  0  0
  -19.7960  -30.7302   24.2211 H   0  0  0  0  0  0
  -17.5036  -31.6274   24.5168 H   0  0  0  0  0  0
  -15.5367  -30.2982   23.7702 H   0  0  0  0  0  0
  -15.8684  -28.0835   22.7065 H   0  0  0  0  0  0
  -24.5910  -30.7054   25.7734 H   0  0  0  0  0  0
  -24.8788  -32.2961   26.4695 H   0  0  0  0  0  0
  -25.7930  -30.9066   27.0289 H   0  0  0  0  0  0
  -26.3011  -29.6680   24.1335 H   0  0  0  0  0  0
  -27.3907  -29.7249   25.4974 H   0  0  0  0  0  0
  -27.8952  -30.4166   23.9763 H   0  0  0  0  0  0
  -27.2668  -33.3679   26.2000 H   0  0  0  0  0  0
  -28.3899  -32.6799   25.0363 H   0  0  0  0  0  0
  -28.0660  -31.8518   26.5514 H   0  0  0  0  0  0
  -28.2575  -38.0091   24.7519 H   0  0  0  0  0  0
  -28.1089  -36.2621   24.6283 H   0  0  0  0  0  0
  -27.2296  -37.1418   25.8868 H   0  0  0  0  0  0
  -20.9475  -29.8789   21.6811 H   0  0  0  0  0  0
  -26.0157  -38.2820   24.1421 H   0  0  0  0  0  0
  -30.5798  -24.6743   21.0094 H   0  0  0  0  0  0
  -32.2345  -23.0656   21.4628 H   0  0  0  0  0  0
  -27.7881  -21.4603   20.3026 H   0  0  0  0  0  0
  -26.3696  -22.9754   20.2809 H   0  0  0  0  0  0
  -26.7146  -23.8771   18.8149 H   0  0  0  0  0  0
  -25.7252  -24.5277   20.1563 H   0  0  0  0  0  0
  -33.9274  -21.7865   21.5705 H   0  0  0  0  0  0
  -34.2031  -20.4756   22.6769 H   0  0  0  0  0  0
  -33.1250  -21.7721   23.1407 H   0  0  0  0  0  0
  -32.1509  -19.2278   19.7902 H   0  0  0  0  0  0
  -33.5189  -18.7875   20.8236 H   0  0  0  0  0  0
  -33.4919  -20.2829   19.9068 H   0  0  0  0  0  0
  -31.5350  -20.0850   23.7439 H   0  0  0  0  0  0
  -32.6054  -18.8006   23.2168 H   0  0  0  0  0  0
  -30.9348  -18.8356   22.7276 H   0  0  0  0  0  0
  -28.4878  -19.0361   20.1004 H   0  0  0  0  0  0
  -28.8950  -18.9170   21.7552 H   0  0  0  0  0  0
  -31.1870  -17.6948   20.9857 H   0  0  0  0  0  0
  -30.5510  -17.7467   19.3834 H   0  0  0  0  0  0
  -27.6266  -24.6113   21.6032 H   0  0  0  0  0  0
  -28.8464  -16.0130   20.8114 H   0  0  0  0  0  0
  1 25  1  0  0  0
  1 30  2  0  0  0
  1 85  1  0  0  0
  2  3  1  0  0  0
  2 25  1  0  0  0
  2 86  1  0  0  0
  2 87  1  0  0  0
  3  4  1  0  0  0
  3 88  1  0  0  0
  3 89  1  0  0  0
  4  5  1  0  0  0
  4 90  1  0  0  0
  4 91  1  0  0  0
  5  6  1  0  0  0
  5 26  1  0  0  0
  5 92  1  0  0  0
  6 25  1  0  0  0
  6 93  1  0  0  0
  6 94  1  0  0  0
  7  8  2  0  0  0
  7 26  1  0  0  0
  7 29  1  0  0  0
  8  9  1  0  0  0
  8 22  1  0  0  0
  9 10  1  0  0  0
  9 27  2  0  0  0
 10 11  2  0  0  0
 10 15  1  0  0  0
 11 12  1  0  0  0
 11 95  1  0  0  0
 12 13  2  0  0  0
 12 96  1  0  0  0
 13 14  1  0  0  0
 13 31  1  0  0  0
 14 15  2  0  0  0
 14 97  1  0  0  0
 15 98  1  0  0  0
 16 17  2  0  0  0
 16 21  1  0  0  0
 16 31  1  0  0  0
 17 18  1  0  0  0
 17 99  1  0  0  0
 18 19  2  0  0  0
 18100  1  0  0  0
 19 20  1  0  0  0
 19 24  1  0  0  0
 20 21  2  0  0  0
 20101  1  0  0  0
 21 23  1  0  0  0
 22 28  1  0  0  0
 22 32  2  0  0  0
 26 27  1  0  0  0
 28102  1  0  0  0
 28103  1  0  0  0
 29104  1  0  0  0
 29105  1  0  0  0
 33 34  1  0  0  0
 33 66  1  0  0  0
 33 70  2  0  0  0
 34 36  1  0  0  0
 34 59  1  0  0  0
 34106  1  0  0  0
 35 44  2  0  0  0
 35 45  1  0  0  0
 35 68  1  0  0  0
 36 56  1  0  0  0
 36107  1  0  0  0
 37 39  1  0  0  0
 37 47  1  0  0  0
 37 66  1  0  0  0
 37108  1  0  0  0
 38 43  2  0  0  0
 38 46  1  0  0  0
 38 47  1  0  0  0
 39 64  1  0  0  0
 39 67  2  0  0  0
 40 52  1  0  0  0
 40 53  2  0  0  0
 40 58  1  0  0  0
 41109  1  0  0  0
 41110  1  0  0  0
 41111  1  0  0  0
 41 48  1  0  0  0
 42 43  1  0  0  0
 42 66  1  0  0  0
 42112  1  0  0  0
 42113  1  0  0  0
 43 44  1  0  0  0
 44114  1  0  0  0
 45 46  2  0  0  0
 45115  1  0  0  0
 46116  1  0  0  0
 47117  1  0  0  0
 47118  1  0  0  0
 48 56  1  0  0  0
 48 65  1  0  0  0
 48119  1  0  0  0
 49 50  1  0  0  0
 49 53  1  0  0  0
 49 64  1  0  0  0
 49120  1  0  0  0
 50 51  1  0  0  0
 50121  1  0  0  0
 50122  1  0  0  0
 51 52  1  0  0  0
 51123  1  0  0  0
 51124  1  0  0  0
 52125  1  0  0  0
 52126  1  0  0  0
 53 54  1  0  0  0
 54 55  2  0  0  0
 54127  1  0  0  0
 55 57  1  0  0  0
 55128  1  0  0  0
 56 69  2  0  0  0
 57 58  2  0  0  0
 57129  1  0  0  0
 58130  1  0  0  0
 59 60  1  0  0  0
 59 61  1  0  0  0
 59 62  1  0  0  0
 60131  1  0  0  0
 60132  1  0  0  0
 60133  1  0  0  0
 61134  1  0  0  0
 61135  1  0  0  0
 61136  1  0  0  0
 62137  1  0  0  0
 62138  1  0  0  0
 62139  1  0  0  0
 63 65  1  0  0  0
 63140  1  0  0  0
 63141  1  0  0  0
 63142  1  0  0  0
 64143  1  0  0  0
 65144  1  0  0  0
 68 83  1  0  0  0
 71 72  2  0  0  0
 71 74  1  0  0  0
 71145  1  0  0  0
 72 75  1  0  0  0
 72146  1  0  0  0
 73 74  2  0  0  0
 73 76  1  0  0  0
 73147  1  0  0  0
 74 83  1  0  0  0
 75 76  2  0  0  0
 75 84  1  0  0  0
 76 81  1  0  0  0
 77148  1  0  0  0
 77149  1  0  0  0
 77150  1  0  0  0
 77 83  1  0  0  0
 78151  1  0  0  0
 78152  1  0  0  0
 78153  1  0  0  0
 78 84  1  0  0  0
 79 84  1  0  0  0
 79154  1  0  0  0
 79155  1  0  0  0
 79156  1  0  0  0
 80 84  1  0  0  0
 80157  1  0  0  0
 80158  1  0  0  0
 80159  1  0  0  0
 81 82  1  0  0  0
 81160  1  0  0  0
 81161  1  0  0  0
 82 85  1  0  0  0
 82162  1  0  0  0
 82163  1  0  0  0
 83164  1  0  0  0
 85165  1  0  0  0
M  ISO  4   1 100  68 101  83 101  85 100
M  END
> <chiral flag>
0

> <version>
0

> <s_m_source_file>
/data/baiqing/PycharmProjects/Reinvent-master-3.2/result/LINK_invent/BTK/process_docking_weight1_custom_sum_contain_oxygen_bond_distance_aromatic_linkinvent_7_9_3/rearranged_h_0103.sdf

> <i_m_source_file_index>
86

> <r_mmod_Potential_Energy-OPLS-2005>
634.058959960938

> <r_mmod_Stretch_Energy-OPLS-2005>
313.379730224609

> <r_mmod_Bend_Energy-OPLS-2005>
306.142242431641

> <r_mmod_Torsional_Energy-OPLS-2005>
236.918014526367

> <r_mmod_Improper_Torsional_Energy-OPLS-2005>
5.72345066070557

> <r_mmod_Van_der_Waal_Energy-OPLS-2005>
173.61882019043

> <r_mmod_Electrostatic_Energy-OPLS-2005>
-413.84716796875

> <r_mmod_Solvation_Energy-OPLS-2005>
-201.37646484375

> <b_mmod_Minimization_Converged-OPLS-2005>
0

> <r_mmod_RMS_Derivative-OPLS-2005>
1.83666920661926

$$$$
86
                    3D
 Structure written by MMmdl.
160168  0  0  1  0            999 V2000
  -30.5039  -15.0049   20.4045 C   0  0  0  0  0  0
  -30.4508  -12.6319   19.4705 C   0  0  0  0  0  0
  -29.5203  -12.5258   18.2400 C   0  0  0  0  0  0
  -28.0574  -12.2995   18.6730 C   0  0  0  0  0  0
  -27.6241  -13.2451   19.8236 C   0  0  2  0  0  0
  -28.6755  -13.3036   20.9499 C   0  0  0  0  0  0
  -25.2470  -13.8197   20.5726 C   0  0  0  0  0  0
  -24.1780  -13.0423   20.9231 C   0  0  0  0  0  0
  -24.6398  -11.6909   20.8756 C   0  0  0  0  0  0
  -23.9080  -10.4284   21.0412 C   0  0  0  0  0  0
  -24.3627   -9.4199   21.9189 C   0  0  0  0  0  0
  -23.6299   -8.2238   22.0757 C   0  0  0  0  0  0
  -22.4284   -8.0278   21.3544 C   0  0  0  0  0  0
  -21.9921   -9.0252   20.4644 C   0  0  0  0  0  0
  -22.7252  -10.2132   20.3056 C   0  0  0  0  0  0
  -21.6852   -6.0737   22.5279 C   0  0  0  0  0  0
  -21.4013   -6.5638   23.8212 C   0  0  0  0  0  0
  -21.3660   -5.6790   24.9172 C   0  0  0  0  0  0
  -21.6049   -4.3055   24.7227 C   0  0  0  0  0  0
  -21.8816   -3.8146   23.4345 C   0  0  0  0  0  0
  -21.9194   -4.6963   22.3401 C   0  0  0  0  0  0
  -22.7804  -13.5203   21.1885 C   0  0  0  0  0  0
  -22.1663   -4.2146   21.0981 F   0  0  0  0  0  0
  -21.5634   -3.4541   25.7741 F   0  0  0  0  0  0
  -29.9304  -13.7361   20.3227 N   0  0  0  0  0  0
  -26.2878  -12.9417   20.3221 N   0  0  0  0  0  0
  -25.9328  -11.6553   20.5730 N   0  0  0  0  0  0
  -22.0450  -12.8192   22.0436 N   0  0  0  0  0  0
  -25.4134  -15.1931   20.4183 N   0  0  0  0  0  0
  -31.7342  -15.0692   20.2953 O   0  0  0  0  0  0
  -21.6640   -6.8882   21.4242 O   0  0  0  0  0  0
  -22.3491  -14.5506   20.6724 O   0  0  0  0  0  0
  -24.6459  -31.8407   23.1841 C   0  0  0  0  0  0
  -25.9217  -32.4676   23.8249 C   0  0  1  0  0  0
  -27.2175  -27.1051   20.1665 C   0  0  0  0  0  0
  -25.5950  -33.8480   24.2172 N   0  0  0  0  0  0
  -23.4506  -30.4563   21.5317 C   0  0  2  0  0  0
  -24.8978  -28.8646   20.1239 C   0  0  0  0  0  0
  -22.7572  -29.4533   22.4873 C   0  0  0  0  0  0
  -18.0307  -28.1402   22.8478 C   0  0  0  0  0  0
  -24.1491  -36.7247   23.2644 C   0  0  0  0  0  0
  -26.0071  -30.7047   21.3835 C   0  0  0  0  0  0
  -26.0777  -29.3079   20.7362 C   0  0  0  0  0  0
  -27.2417  -28.4469   20.7312 C   0  0  0  0  0  0
  -26.0081  -26.7559   19.5344 C   0  0  0  0  0  0
  -24.8754  -27.6014   19.5098 C   0  0  0  0  0  0
  -23.6786  -29.7750   20.1560 C   0  0  0  0  0  0
  -25.4127  -36.3023   24.0316 C   0  0  1  0  0  0
  -20.5918  -28.3732   23.1234 C   0  0  2  0  0  0
  -20.6795  -26.9435   22.5403 C   0  0  0  0  0  0
  -19.5768  -26.6388   21.5211 C   0  0  0  0  0  0
  -18.1948  -26.7943   22.1621 C   0  0  0  0  0  0
  -19.1562  -28.8885   23.2851 C   0  0  0  0  0  0
  -18.9478  -30.1480   23.8879 C   0  0  0  0  0  0
  -17.6474  -30.6600   24.0560 C   0  0  0  0  0  0
  -25.9079  -34.9398   23.5062 C   0  0  0  0  0  0
  -16.5367  -29.9091   23.6336 C   0  0  0  0  0  0
  -16.7293  -28.6507   23.0364 C   0  0  0  0  0  0
  -26.4528  -31.6550   25.0701 C   0  0  0  0  0  0
  -25.3698  -31.3740   26.1386 C   0  0  0  0  0  0
  -27.0400  -30.2953   24.6275 C   0  0  0  0  0  0
  -27.6060  -32.4312   25.7487 C   0  0  0  0  0  0
  -27.5580  -37.1783   24.8469 C   0  0  0  0  0  0
  -21.4264  -29.3051   22.3606 N   0  0  0  0  0  0
  -26.4291  -37.3737   23.9411 N   0  0  0  0  0  0
  -24.7218  -31.0232   22.0885 N   0  0  0  0  0  0
  -23.4198  -28.8097   23.3051 O   0  0  0  0  0  0
  -28.3022  -26.1554   20.0890 O   0  0  0  0  0  0
  -26.5667  -34.8901   22.4642 O   0  0  0  0  0  0
  -23.5572  -32.1297   23.7042 O   0  0  0  0  0  0
  -29.5634  -18.9418   20.1094 C   0  0  0  0  0  0
  -28.9015  -17.6126   22.0168 C   0  0  0  0  0  0
  -29.0972  -20.2385   20.7122 C   0  0  0  0  0  0
  -28.5080  -20.0757   21.9952 C   0  0  0  0  0  0
  -29.4988  -17.5840   20.7433 C   0  0  0  0  0  0
  -28.3986  -18.7947   22.6084 C   0  0  0  0  0  0
  -28.0062  -21.2985   22.7526 C   0  0  0  0  0  0
  -29.6177  -24.8308   21.5680 C   0  0  0  0  0  0
  -26.3571  -18.6330   23.7489 C   0  0  0  0  0  0
  -29.3466  -21.8005   20.1655 C   0  0  0  0  0  0
  -28.3032  -23.1569   20.0059 C   0  0  0  0  0  0
  -28.3527  -24.7176   20.7110 C   0  0  2  0  0  0
  -29.6891  -16.1605   20.1736 N   0  0  0  0  0  0
  -27.7798  -18.6521   23.8237 O   0  0  0  0  0  0
  -31.4737  -12.8260   19.1454 H   0  0  0  0  0  0
  -30.4811  -11.6923   20.0242 H   0  0  0  0  0  0
  -29.8468  -11.7169   17.5851 H   0  0  0  0  0  0
  -29.5894  -13.4417   17.6504 H   0  0  0  0  0  0
  -27.9714  -11.2631   19.0015 H   0  0  0  0  0  0
  -27.3869  -12.4038   17.8194 H   0  0  0  0  0  0
  -27.5713  -14.2371   19.3753 H   0  0  0  0  0  0
  -28.7893  -12.3361   21.4413 H   0  0  0  0  0  0
  -28.3735  -14.0161   21.7195 H   0  0  0  0  0  0
  -25.2773   -9.5675   22.4764 H   0  0  0  0  0  0
  -24.0004   -7.4627   22.7479 H   0  0  0  0  0  0
  -21.0854   -8.8768   19.8949 H   0  0  0  0  0  0
  -22.3711  -10.9668   19.6163 H   0  0  0  0  0  0
  -21.2002   -7.6144   23.9714 H   0  0  0  0  0  0
  -21.1489   -6.0522   25.9075 H   0  0  0  0  0  0
  -22.0600   -2.7609   23.2847 H   0  0  0  0  0  0
  -22.4076  -11.9861   22.4832 H   0  0  0  0  0  0
  -21.1058  -13.1206   22.2620 H   0  0  0  0  0  0
  -24.6437  -15.8423   20.5378 H   0  0  0  0  0  0
  -26.2641  -15.6443   20.1110 H   0  0  0  0  0  0
  -26.7282  -32.5276   23.0975 H   0  0  0  0  0  0
  -25.0072  -33.9584   25.0303 H   0  0  0  0  0  0
  -22.7556  -31.2831   21.3709 H   0  0  0  0  0  0
  -23.3760  -35.9571   23.3287 H   0  0  0  0  0  0
  -24.3578  -36.8899   22.2062 H   0  0  0  0  0  0
  -23.7236  -37.6434   23.6692 H   0  0  0  0  0  0
  -26.1585  -31.4510   20.6025 H   0  0  0  0  0  0
  -26.8797  -30.7644   22.0225 H   0  0  0  0  0  0
  -28.1531  -28.7921   21.1985 H   0  0  0  0  0  0
  -25.9356  -25.7894   19.0554 H   0  0  0  0  0  0
  -23.9732  -27.2549   19.0242 H   0  0  0  0  0  0
  -23.8226  -30.5436   19.3957 H   0  0  0  0  0  0
  -22.7915  -29.2195   19.8459 H   0  0  0  0  0  0
  -25.1312  -36.1852   25.0808 H   0  0  0  0  0  0
  -21.0008  -28.3325   24.1356 H   0  0  0  0  0  0
  -20.5692  -26.2345   23.3623 H   0  0  0  0  0  0
  -21.6663  -26.7448   22.1195 H   0  0  0  0  0  0
  -19.6932  -25.6290   21.1265 H   0  0  0  0  0  0
  -19.6709  -27.3180   20.6724 H   0  0  0  0  0  0
  -17.4218  -26.6687   21.4026 H   0  0  0  0  0  0
  -18.0353  -26.0093   22.9025 H   0  0  0  0  0  0
  -19.7954  -30.7302   24.2245 H   0  0  0  0  0  0
  -17.5028  -31.6278   24.5164 H   0  0  0  0  0  0
  -15.5368  -30.2987   23.7670 H   0  0  0  0  0  0
  -15.8696  -28.0814   22.7097 H   0  0  0  0  0  0
  -24.5890  -30.7079   25.7695 H   0  0  0  0  0  0
  -24.8863  -32.2917   26.4747 H   0  0  0  0  0  0
  -25.7962  -30.8954   27.0209 H   0  0  0  0  0  0
  -26.3016  -29.6671   24.1279 H   0  0  0  0  0  0
  -27.4028  -29.7257   25.4840 H   0  0  0  0  0  0
  -27.8913  -30.4212   23.9583 H   0  0  0  0  0  0
  -27.2666  -33.3640   26.2005 H   0  0  0  0  0  0
  -28.3900  -32.6826   25.0330 H   0  0  0  0  0  0
  -28.0691  -31.8469   26.5449 H   0  0  0  0  0  0
  -28.2585  -38.0090   24.7516 H   0  0  0  0  0  0
  -28.1089  -36.2620   24.6296 H   0  0  0  0  0  0
  -27.2298  -37.1426   25.8872 H   0  0  0  0  0  0
  -20.9486  -29.8740   21.6755 H   0  0  0  0  0  0
  -26.0157  -38.2806   24.1410 H   0  0  0  0  0  0
  -29.9928  -18.9944   19.1181 H   0  0  0  0  0  0
  -28.7495  -16.6818   22.5447 H   0  0  0  0  0  0
  -28.7692  -22.0715   22.7878 H   0  0  0  0  0  0
  -27.7577  -21.0812   23.7901 H   0  0  0  0  0  0
  -27.1146  -21.7025   22.2738 H   0  0  0  0  0  0
  -29.7251  -23.9943   22.2545 H   0  0  0  0  0  0
  -29.6001  -25.7392   22.1717 H   0  0  0  0  0  0
  -30.5082  -24.8680   20.9409 H   0  0  0  0  0  0
  -25.9452  -19.5435   24.1845 H   0  0  0  0  0  0
  -25.9693  -17.7900   24.3206 H   0  0  0  0  0  0
  -25.9776  -18.5448   22.7285 H   0  0  0  0  0  0
  -29.7503  -21.6465   19.1646 H   0  0  0  0  0  0
  -30.2178  -22.1501   20.7197 H   0  0  0  0  0  0
  -27.2854  -22.7862   20.1273 H   0  0  0  0  0  0
  -28.3341  -23.3736   18.9380 H   0  0  0  0  0  0
  -27.5215  -24.7155   21.4174 H   0  0  0  0  0  0
  -28.8151  -15.8279   19.7986 H   0  0  0  0  0  0
  1 25  1  0  0  0
  1 30  2  0  0  0
  1 83  1  0  0  0
  2  3  1  0  0  0
  2 25  1  0  0  0
  2 85  1  0  0  0
  2 86  1  0  0  0
  3  4  1  0  0  0
  3 87  1  0  0  0
  3 88  1  0  0  0
  4  5  1  0  0  0
  4 89  1  0  0  0
  4 90  1  0  0  0
  5  6  1  0  0  0
  5 26  1  0  0  0
  5 91  1  0  0  0
  6 25  1  0  0  0
  6 92  1  0  0  0
  6 93  1  0  0  0
  7  8  2  0  0  0
  7 26  1  0  0  0
  7 29  1  0  0  0
  8  9  1  0  0  0
  8 22  1  0  0  0
  9 10  1  0  0  0
  9 27  2  0  0  0
 10 11  2  0  0  0
 10 15  1  0  0  0
 11 12  1  0  0  0
 11 94  1  0  0  0
 12 13  2  0  0  0
 12 95  1  0  0  0
 13 14  1  0  0  0
 13 31  1  0  0  0
 14 15  2  0  0  0
 14 96  1  0  0  0
 15 97  1  0  0  0
 16 17  2  0  0  0
 16 21  1  0  0  0
 16 31  1  0  0  0
 17 18  1  0  0  0
 17 98  1  0  0  0
 18 19  2  0  0  0
 18 99  1  0  0  0
 19 20  1  0  0  0
 19 24  1  0  0  0
 20 21  2  0  0  0
 20100  1  0  0  0
 21 23  1  0  0  0
 22 28  1  0  0  0
 22 32  2  0  0  0
 26 27  1  0  0  0
 28101  1  0  0  0
 28102  1  0  0  0
 29103  1  0  0  0
 29104  1  0  0  0
 33 34  1  0  0  0
 33 66  1  0  0  0
 33 70  2  0  0  0
 34 36  1  0  0  0
 34 59  1  0  0  0
 34105  1  0  0  0
 35 44  2  0  0  0
 35 45  1  0  0  0
 35 68  1  0  0  0
 36 56  1  0  0  0
 36106  1  0  0  0
 37 39  1  0  0  0
 37 47  1  0  0  0
 37 66  1  0  0  0
 37107  1  0  0  0
 38 43  2  0  0  0
 38 46  1  0  0  0
 38 47  1  0  0  0
 39 64  1  0  0  0
 39 67  2  0  0  0
 40 52  1  0  0  0
 40 53  2  0  0  0
 40 58  1  0  0  0
 41108  1  0  0  0
 41109  1  0  0  0
 41110  1  0  0  0
 41 48  1  0  0  0
 42 43  1  0  0  0
 42 66  1  0  0  0
 42111  1  0  0  0
 42112  1  0  0  0
 43 44  1  0  0  0
 44113  1  0  0  0
 45 46  2  0  0  0
 45114  1  0  0  0
 46115  1  0  0  0
 47116  1  0  0  0
 47117  1  0  0  0
 48 56  1  0  0  0
 48 65  1  0  0  0
 48118  1  0  0  0
 49 50  1  0  0  0
 49 53  1  0  0  0
 49 64  1  0  0  0
 49119  1  0  0  0
 50 51  1  0  0  0
 50120  1  0  0  0
 50121  1  0  0  0
 51 52  1  0  0  0
 51122  1  0  0  0
 51123  1  0  0  0
 52124  1  0  0  0
 52125  1  0  0  0
 53 54  1  0  0  0
 54 55  2  0  0  0
 54126  1  0  0  0
 55 57  1  0  0  0
 55127  1  0  0  0
 56 69  2  0  0  0
 57 58  2  0  0  0
 57128  1  0  0  0
 58129  1  0  0  0
 59 60  1  0  0  0
 59 61  1  0  0  0
 59 62  1  0  0  0
 60130  1  0  0  0
 60131  1  0  0  0
 60132  1  0  0  0
 61133  1  0  0  0
 61134  1  0  0  0
 61135  1  0  0  0
 62136  1  0  0  0
 62137  1  0  0  0
 62138  1  0  0  0
 63 65  1  0  0  0
 63139  1  0  0  0
 63140  1  0  0  0
 63141  1  0  0  0
 64142  1  0  0  0
 65143  1  0  0  0
 68 82  1  0  0  0
 71 73  2  0  0  0
 71 75  1  0  0  0
 71144  1  0  0  0
 72 75  2  0  0  0
 72 76  1  0  0  0
 72145  1  0  0  0
 73 74  1  0  0  0
 73 80  1  0  0  0
 74 76  2  0  0  0
 74 77  1  0  0  0
 75 83  1  0  0  0
 76 84  1  0  0  0
 77146  1  0  0  0
 77147  1  0  0  0
 77148  1  0  0  0
 78149  1  0  0  0
 78150  1  0  0  0
 78151  1  0  0  0
 78 82  1  0  0  0
 79 84  1  0  0  0
 79152  1  0  0  0
 79153  1  0  0  0
 79154  1  0  0  0
 80 81  1  0  0  0
 80155  1  0  0  0
 80156  1  0  0  0
 81 82  1  0  0  0
 81157  1  0  0  0
 81158  1  0  0  0
 82159  1  0  0  0
 83160  1  0  0  0
M  ISO  4   1 100  68 101  82 101  83 100
M  END
> <chiral flag>
0

> <version>
0

> <s_m_source_file>
/data/baiqing/PycharmProjects/Reinvent-master-3.2/result/LINK_invent/BTK/process_docking_weight1_custom_sum_contain_oxygen_bond_distance_aromatic_linkinvent_7_9_3/rearranged_h_0103.sdf

> <i_m_source_file_index>
87

> <r_mmod_Potential_Energy-OPLS-2005>
749.463684082031

> <r_mmod_Stretch_Energy-OPLS-2005>
303.922760009766

> <r_mmod_Bend_Energy-OPLS-2005>
331.376892089844

> <r_mmod_Torsional_Energy-OPLS-2005>
344.908447265625

> <r_mmod_Improper_Torsional_Energy-OPLS-2005>
17.4606037139893

> <r_mmod_Van_der_Waal_Energy-OPLS-2005>
121.905235290527

> <r_mmod_Electrostatic_Energy-OPLS-2005>
-385.935028076172

> <r_mmod_Solvation_Energy-OPLS-2005>
-210.305450439453

> <b_mmod_Minimization_Converged-OPLS-2005>
0

> <r_mmod_RMS_Derivative-OPLS-2005>
0.988082826137543

$$$$
87
                    3D
 Structure written by MMmdl.
172180  0  0  1  0            999 V2000
  -30.6538  -14.5680   20.5940 C   0  0  0  0  0  0
  -30.4494  -12.3839   19.4304 C   0  0  0  0  0  0
  -29.5063  -12.5162   18.2152 C   0  0  0  0  0  0
  -28.0313  -12.3584   18.6339 C   0  0  0  0  0  0
  -27.6619  -13.2077   19.8770 C   0  0  2  0  0  0
  -28.7052  -13.0190   20.9983 C   0  0  0  0  0  0
  -25.2592  -13.8151   20.5669 C   0  0  0  0  0  0
  -24.1843  -13.0440   20.9187 C   0  0  0  0  0  0
  -24.6380  -11.6910   20.8733 C   0  0  0  0  0  0
  -23.9029  -10.4302   21.0406 C   0  0  0  0  0  0
  -24.3588   -9.4219   21.9183 C   0  0  0  0  0  0
  -23.6266   -8.2251   22.0744 C   0  0  0  0  0  0
  -22.4254   -8.0285   21.3526 C   0  0  0  0  0  0
  -21.9891   -9.0269   20.4638 C   0  0  0  0  0  0
  -22.7205  -10.2154   20.3054 C   0  0  0  0  0  0
  -21.6860   -6.0736   22.5273 C   0  0  0  0  0  0
  -21.4022   -6.5639   23.8214 C   0  0  0  0  0  0
  -21.3653   -5.6783   24.9168 C   0  0  0  0  0  0
  -21.6036   -4.3047   24.7228 C   0  0  0  0  0  0
  -21.8823   -3.8148   23.4344 C   0  0  0  0  0  0
  -21.9195   -4.6965   22.3401 C   0  0  0  0  0  0
  -22.7879  -13.5256   21.1851 C   0  0  0  0  0  0
  -22.1658   -4.2148   21.0974 F   0  0  0  0  0  0
  -21.5623   -3.4530   25.7733 F   0  0  0  0  0  0
  -30.0243  -13.3671   20.4416 N   0  0  0  0  0  0
  -26.3027  -12.9316   20.3361 N   0  0  0  0  0  0
  -25.9321  -11.6478   20.5765 N   0  0  0  0  0  0
  -22.0474  -12.8282   22.0390 N   0  0  0  0  0  0
  -25.4352  -15.1873   20.4074 N   0  0  0  0  0  0
  -31.7983  -14.7743   20.1750 O   0  0  0  0  0  0
  -21.6623   -6.8883   21.4239 O   0  0  0  0  0  0
  -22.3599  -14.5572   20.6679 O   0  0  0  0  0  0
  -24.6223  -31.8618   23.2094 C   0  0  0  0  0  0
  -25.9098  -32.4786   23.8391 C   0  0  1  0  0  0
  -27.2348  -27.3881   20.0943 C   0  0  0  0  0  0
  -25.5914  -33.8582   24.2307 N   0  0  0  0  0  0
  -23.4130  -30.4870   21.5475 C   0  0  2  0  0  0
  -24.8573  -28.9493   20.1145 C   0  0  0  0  0  0
  -22.7462  -29.4622   22.4947 C   0  0  0  0  0  0
  -18.0298  -28.1392   22.8478 C   0  0  0  0  0  0
  -24.1485  -36.7316   23.2643 C   0  0  0  0  0  0
  -25.9458  -30.8171   21.3656 C   0  0  0  0  0  0
  -26.0221  -29.4492   20.7091 C   0  0  0  0  0  0
  -27.2112  -28.6786   20.6902 C   0  0  0  0  0  0
  -26.0413  -26.9089   19.5090 C   0  0  0  0  0  0
  -24.8655  -27.6814   19.5131 C   0  0  0  0  0  0
  -23.6234  -29.8203   20.1630 C   0  0  0  0  0  0
  -25.4103  -36.3097   24.0337 C   0  0  1  0  0  0
  -20.5893  -28.3704   23.1280 C   0  0  2  0  0  0
  -20.6772  -26.9421   22.5417 C   0  0  0  0  0  0
  -19.5740  -26.6392   21.5225 C   0  0  0  0  0  0
  -18.1922  -26.7932   22.1629 C   0  0  0  0  0  0
  -19.1540  -28.8864   23.2879 C   0  0  0  0  0  0
  -18.9459  -30.1458   23.8908 C   0  0  0  0  0  0
  -17.6460  -30.6588   24.0574 C   0  0  0  0  0  0
  -25.9030  -34.9459   23.5124 C   0  0  0  0  0  0
  -16.5357  -29.9100   23.6324 C   0  0  0  0  0  0
  -16.7285  -28.6515   23.0347 C   0  0  0  0  0  0
  -26.4494  -31.6594   25.0745 C   0  0  0  0  0  0
  -25.3716  -31.3721   26.1460 C   0  0  0  0  0  0
  -27.0355  -30.3036   24.6175 C   0  0  0  0  0  0
  -27.6089  -32.4316   25.7483 C   0  0  0  0  0  0
  -27.5583  -37.1823   24.8465 C   0  0  0  0  0  0
  -21.4181  -29.3051   22.3679 N   0  0  0  0  0  0
  -26.4299  -37.3787   23.9404 N   0  0  0  0  0  0
  -24.6788  -31.0710   22.0985 N   0  0  0  0  0  0
  -23.4198  -28.8148   23.3001 O   0  0  0  0  0  0
  -28.4081  -26.6421   20.1181 O   0  0  0  0  0  0
  -26.5605  -34.8931   22.4694 O   0  0  0  0  0  0
  -23.5415  -32.1360   23.7492 O   0  0  0  0  0  0
  -28.5104  -21.6347   20.7554 C   0  0  0  0  0  0
  -30.2103  -23.0422   20.7879 C   0  0  0  0  0  0
  -29.6006  -20.8892   21.1675 C   0  0  0  0  0  0
  -30.7109  -21.8230   21.1910 C   0  0  0  0  0  0
  -32.6763  -22.9087   22.3407 C   0  0  0  0  0  0
  -33.0257  -21.4772   20.3246 C   0  0  0  0  0  0
  -32.4384  -20.4532   22.5412 C   0  0  0  0  0  0
  -28.4190  -17.8168   20.0497 C   0  0  0  0  0  0
  -30.8127  -18.4246   19.6388 C   0  0  0  0  0  0
  -29.5100  -19.4148   21.6679 C   0  0  0  0  0  0
  -27.9384  -24.1043   20.2723 C   0  0  0  0  0  0
  -30.2504  -16.9219   21.5956 C   0  0  0  0  0  0
  -28.4981  -25.3380   19.4746 C   0  0  0  0  0  0
  -32.1828  -21.6448   21.5975 C   0  0  0  0  0  0
  -29.7608  -18.1561   20.7315 C   0  0  0  0  0  0
  -28.8576  -22.9672   20.5505 N   0  0  0  0  0  0
  -29.8970  -15.5512   21.1366 N   0  0  0  0  0  0
  -31.4824  -12.5449   19.1222 H   0  0  0  0  0  0
  -30.4189  -11.3773   19.8468 H   0  0  0  0  0  0
  -29.7584  -11.7724   17.4579 H   0  0  0  0  0  0
  -29.6529  -13.4916   17.7454 H   0  0  0  0  0  0
  -27.8673  -11.3026   18.8493 H   0  0  0  0  0  0
  -27.3782  -12.6135   17.8002 H   0  0  0  0  0  0
  -27.6887  -14.2503   19.5637 H   0  0  0  0  0  0
  -28.7121  -11.9854   21.3461 H   0  0  0  0  0  0
  -28.4464  -13.6163   21.8736 H   0  0  0  0  0  0
  -25.2732   -9.5706   22.4776 H   0  0  0  0  0  0
  -23.9967   -7.4654   22.7480 H   0  0  0  0  0  0
  -21.0823   -8.8815   19.8951 H   0  0  0  0  0  0
  -22.3658  -10.9718   19.6188 H   0  0  0  0  0  0
  -21.2007   -7.6151   23.9719 H   0  0  0  0  0  0
  -21.1463   -6.0506   25.9065 H   0  0  0  0  0  0
  -22.0599   -2.7616   23.2849 H   0  0  0  0  0  0
  -22.4016  -11.9959   22.4871 H   0  0  0  0  0  0
  -21.1098  -13.1406   22.2496 H   0  0  0  0  0  0
  -24.6773  -15.8527   20.5141 H   0  0  0  0  0  0
  -26.2858  -15.6191   20.0689 H   0  0  0  0  0  0
  -26.7172  -32.5485   23.1170 H   0  0  0  0  0  0
  -25.0051  -33.9679   25.0440 H   0  0  0  0  0  0
  -22.7052  -31.3071   21.4045 H   0  0  0  0  0  0
  -23.3741  -35.9663   23.3313 H   0  0  0  0  0  0
  -24.3581  -36.8914   22.2056 H   0  0  0  0  0  0
  -23.7242  -37.6530   23.6636 H   0  0  0  0  0  0
  -26.0695  -31.5846   20.6002 H   0  0  0  0  0  0
  -26.8300  -30.8702   21.9884 H   0  0  0  0  0  0
  -28.1120  -29.0694   21.1455 H   0  0  0  0  0  0
  -25.9840  -25.9304   19.0593 H   0  0  0  0  0  0
  -23.9682  -27.2852   19.0604 H   0  0  0  0  0  0
  -23.7438  -30.5919   19.4025 H   0  0  0  0  0  0
  -22.7455  -29.2484   19.8579 H   0  0  0  0  0  0
  -25.1299  -36.1961   25.0833 H   0  0  0  0  0  0
  -21.0009  -28.3300   24.1402 H   0  0  0  0  0  0
  -20.5697  -26.2324   23.3621 H   0  0  0  0  0  0
  -21.6631  -26.7472   22.1186 H   0  0  0  0  0  0
  -19.6906  -25.6318   21.1222 H   0  0  0  0  0  0
  -19.6659  -27.3231   20.6765 H   0  0  0  0  0  0
  -17.4205  -26.6720   21.4021 H   0  0  0  0  0  0
  -18.0306  -26.0062   22.9008 H   0  0  0  0  0  0
  -19.7928  -30.7264   24.2292 H   0  0  0  0  0  0
  -17.5012  -31.6257   24.5197 H   0  0  0  0  0  0
  -15.5353  -30.3015   23.7605 H   0  0  0  0  0  0
  -15.8678  -28.0827   22.7070 H   0  0  0  0  0  0
  -24.5889  -30.7087   25.7756 H   0  0  0  0  0  0
  -24.8906  -32.2890   26.4890 H   0  0  0  0  0  0
  -25.8016  -30.8862   27.0230 H   0  0  0  0  0  0
  -26.2942  -29.6761   24.1216 H   0  0  0  0  0  0
  -27.4108  -29.7313   25.4676 H   0  0  0  0  0  0
  -27.8777  -30.4372   23.9376 H   0  0  0  0  0  0
  -27.2739  -33.3627   26.2076 H   0  0  0  0  0  0
  -28.3866  -32.6857   25.0255 H   0  0  0  0  0  0
  -28.0796  -31.8417   26.5359 H   0  0  0  0  0  0
  -28.2628  -38.0100   24.7506 H   0  0  0  0  0  0
  -28.1051  -36.2641   24.6305 H   0  0  0  0  0  0
  -27.2291  -37.1488   25.8864 H   0  0  0  0  0  0
  -20.9403  -29.8786   21.6859 H   0  0  0  0  0  0
  -26.0185  -38.2869   24.1402 H   0  0  0  0  0  0
  -27.4725  -21.3431   20.6603 H   0  0  0  0  0  0
  -30.6999  -24.0023   20.7009 H   0  0  0  0  0  0
  -32.6702  -23.7944   21.7057 H   0  0  0  0  0  0
  -33.7004  -22.7971   22.6924 H   0  0  0  0  0  0
  -32.0539  -23.1272   23.2080 H   0  0  0  0  0  0
  -32.9444  -22.3534   19.6795 H   0  0  0  0  0  0
  -32.7080  -20.6161   19.7404 H   0  0  0  0  0  0
  -34.0797  -21.3371   20.5593 H   0  0  0  0  0  0
  -31.8510  -20.5310   23.4558 H   0  0  0  0  0  0
  -33.4836  -20.4074   22.8460 H   0  0  0  0  0  0
  -32.2272  -19.4970   22.0697 H   0  0  0  0  0  0
  -28.0093  -18.6866   19.5359 H   0  0  0  0  0  0
  -27.6770  -17.4945   20.7819 H   0  0  0  0  0  0
  -28.5225  -17.0175   19.3111 H   0  0  0  0  0  0
  -30.5945  -19.3266   19.0690 H   0  0  0  0  0  0
  -30.8655  -17.5961   18.9306 H   0  0  0  0  0  0
  -31.8121  -18.5338   20.0607 H   0  0  0  0  0  0
  -28.5093  -19.3184   22.0912 H   0  0  0  0  0  0
  -30.1298  -19.3264   22.5541 H   0  0  0  0  0  0
  -27.0804  -23.7150   19.7269 H   0  0  0  0  0  0
  -27.5407  -24.4499   21.2270 H   0  0  0  0  0  0
  -29.7890  -17.0035   22.5815 H   0  0  0  0  0  0
  -31.3216  -16.9900   21.7919 H   0  0  0  0  0  0
  -28.0284  -25.3781   18.4916 H   0  0  0  0  0  0
  -29.5472  -25.1837   19.2319 H   0  0  0  0  0  0
  -28.9647  -15.2521   21.3852 H   0  0  0  0  0  0
  1 25  1  0  0  0
  1 30  2  0  0  0
  1 87  1  0  0  0
  2  3  1  0  0  0
  2 25  1  0  0  0
  2 88  1  0  0  0
  2 89  1  0  0  0
  3  4  1  0  0  0
  3 90  1  0  0  0
  3 91  1  0  0  0
  4  5  1  0  0  0
  4 92  1  0  0  0
  4 93  1  0  0  0
  5  6  1  0  0  0
  5 26  1  0  0  0
  5 94  1  0  0  0
  6 25  1  0  0  0
  6 95  1  0  0  0
  6 96  1  0  0  0
  7  8  2  0  0  0
  7 26  1  0  0  0
  7 29  1  0  0  0
  8  9  1  0  0  0
  8 22  1  0  0  0
  9 10  1  0  0  0
  9 27  2  0  0  0
 10 11  2  0  0  0
 10 15  1  0  0  0
 11 12  1  0  0  0
 11 97  1  0  0  0
 12 13  2  0  0  0
 12 98  1  0  0  0
 13 14  1  0  0  0
 13 31  1  0  0  0
 14 15  2  0  0  0
 14 99  1  0  0  0
 15100  1  0  0  0
 16 17  2  0  0  0
 16 21  1  0  0  0
 16 31  1  0  0  0
 17 18  1  0  0  0
 17101  1  0  0  0
 18 19  2  0  0  0
 18102  1  0  0  0
 19 20  1  0  0  0
 19 24  1  0  0  0
 20 21  2  0  0  0
 20103  1  0  0  0
 21 23  1  0  0  0
 22 28  1  0  0  0
 22 32  2  0  0  0
 26 27  1  0  0  0
 28104  1  0  0  0
 28105  1  0  0  0
 29106  1  0  0  0
 29107  1  0  0  0
 33 34  1  0  0  0
 33 66  1  0  0  0
 33 70  2  0  0  0
 34 36  1  0  0  0
 34 59  1  0  0  0
 34108  1  0  0  0
 35 44  2  0  0  0
 35 45  1  0  0  0
 35 68  1  0  0  0
 36 56  1  0  0  0
 36109  1  0  0  0
 37 39  1  0  0  0
 37 47  1  0  0  0
 37 66  1  0  0  0
 37110  1  0  0  0
 38 43  2  0  0  0
 38 46  1  0  0  0
 38 47  1  0  0  0
 39 64  1  0  0  0
 39 67  2  0  0  0
 40 52  1  0  0  0
 40 53  2  0  0  0
 40 58  1  0  0  0
 41111  1  0  0  0
 41112  1  0  0  0
 41113  1  0  0  0
 41 48  1  0  0  0
 42 43  1  0  0  0
 42 66  1  0  0  0
 42114  1  0  0  0
 42115  1  0  0  0
 43 44  1  0  0  0
 44116  1  0  0  0
 45 46  2  0  0  0
 45117  1  0  0  0
 46118  1  0  0  0
 47119  1  0  0  0
 47120  1  0  0  0
 48 56  1  0  0  0
 48 65  1  0  0  0
 48121  1  0  0  0
 49 50  1  0  0  0
 49 53  1  0  0  0
 49 64  1  0  0  0
 49122  1  0  0  0
 50 51  1  0  0  0
 50123  1  0  0  0
 50124  1  0  0  0
 51 52  1  0  0  0
 51125  1  0  0  0
 51126  1  0  0  0
 52127  1  0  0  0
 52128  1  0  0  0
 53 54  1  0  0  0
 54 55  2  0  0  0
 54129  1  0  0  0
 55 57  1  0  0  0
 55130  1  0  0  0
 56 69  2  0  0  0
 57 58  2  0  0  0
 57131  1  0  0  0
 58132  1  0  0  0
 59 60  1  0  0  0
 59 61  1  0  0  0
 59 62  1  0  0  0
 60133  1  0  0  0
 60134  1  0  0  0
 60135  1  0  0  0
 61136  1  0  0  0
 61137  1  0  0  0
 61138  1  0  0  0
 62139  1  0  0  0
 62140  1  0  0  0
 62141  1  0  0  0
 63 65  1  0  0  0
 63142  1  0  0  0
 63143  1  0  0  0
 63144  1  0  0  0
 64145  1  0  0  0
 65146  1  0  0  0
 68 83  1  0  0  0
 71 73  2  0  0  0
 71 86  1  0  0  0
 71147  1  0  0  0
 72 74  2  0  0  0
 72 86  1  0  0  0
 72148  1  0  0  0
 73 74  1  0  0  0
 73 80  1  0  0  0
 74 84  1  0  0  0
 75149  1  0  0  0
 75150  1  0  0  0
 75151  1  0  0  0
 75 84  1  0  0  0
 76 84  1  0  0  0
 76152  1  0  0  0
 76153  1  0  0  0
 76154  1  0  0  0
 77 84  1  0  0  0
 77155  1  0  0  0
 77156  1  0  0  0
 77157  1  0  0  0
 78158  1  0  0  0
 78159  1  0  0  0
 78160  1  0  0  0
 78 85  1  0  0  0
 79 85  1  0  0  0
 79161  1  0  0  0
 79162  1  0  0  0
 79163  1  0  0  0
 80 85  1  0  0  0
 80164  1  0  0  0
 80165  1  0  0  0
 81 83  1  0  0  0
 81 86  1  0  0  0
 81166  1  0  0  0
 81167  1  0  0  0
 82 85  1  0  0  0
 82 87  1  0  0  0
 82168  1  0  0  0
 82169  1  0  0  0
 83170  1  0  0  0
 83171  1  0  0  0
 87172  1  0  0  0
M  ISO  4   1 100  68 101  83 101  87 100
M  END
> <chiral flag>
0

> <version>
0

> <s_m_source_file>
/data/baiqing/PycharmProjects/Reinvent-master-3.2/result/LINK_invent/BTK/process_docking_weight1_custom_sum_contain_oxygen_bond_distance_aromatic_linkinvent_7_9_3/rearranged_h_0103.sdf

> <i_m_source_file_index>
88

> <r_mmod_Potential_Energy-OPLS-2005>
-39.0387268066406

> <r_mmod_Stretch_Energy-OPLS-2005>
59.4673042297363

> <r_mmod_Bend_Energy-OPLS-2005>
156.721969604492

> <r_mmod_Torsional_Energy-OPLS-2005>
230.677200317383

> <r_mmod_Improper_Torsional_Energy-OPLS-2005>
4.30878686904907

> <r_mmod_Van_der_Waal_Energy-OPLS-2005>
128.838958740234

> <r_mmod_Electrostatic_Energy-OPLS-2005>
-444.697906494141

> <r_mmod_Solvation_Energy-OPLS-2005>
-200.154678344727

> <b_mmod_Minimization_Converged-OPLS-2005>
0

> <r_mmod_RMS_Derivative-OPLS-2005>
4.03164720535278

$$$$
88
                    3D
 Structure written by MMmdl.
163171  0  0  1  0            999 V2000
  -30.6331  -14.7285   20.4796 C   0  0  0  0  0  0
  -30.4297  -12.4549   19.4583 C   0  0  0  0  0  0
  -29.5035  -12.5198   18.2250 C   0  0  0  0  0  0
  -28.0299  -12.3484   18.6386 C   0  0  0  0  0  0
  -27.6413  -13.2337   19.8527 C   0  0  2  0  0  0
  -28.6880  -13.1573   20.9847 C   0  0  0  0  0  0
  -25.2515  -13.8212   20.5694 C   0  0  0  0  0  0
  -24.1795  -13.0443   20.9220 C   0  0  0  0  0  0
  -24.6389  -11.6939   20.8758 C   0  0  0  0  0  0
  -23.9045  -10.4306   21.0414 C   0  0  0  0  0  0
  -24.3604   -9.4235   21.9191 C   0  0  0  0  0  0
  -23.6299   -8.2260   22.0757 C   0  0  0  0  0  0
  -22.4288   -8.0298   21.3559 C   0  0  0  0  0  0
  -21.9909   -9.0255   20.4652 C   0  0  0  0  0  0
  -22.7227  -10.2148   20.3062 C   0  0  0  0  0  0
  -21.6852   -6.0745   22.5283 C   0  0  0  0  0  0
  -21.4014   -6.5649   23.8220 C   0  0  0  0  0  0
  -21.3653   -5.6795   24.9177 C   0  0  0  0  0  0
  -21.6038   -4.3059   24.7223 C   0  0  0  0  0  0
  -21.8829   -3.8156   23.4341 C   0  0  0  0  0  0
  -21.9200   -4.6975   22.3400 C   0  0  0  0  0  0
  -22.7832  -13.5234   21.1897 C   0  0  0  0  0  0
  -22.1682   -4.2156   21.0978 F   0  0  0  0  0  0
  -21.5621   -3.4544   25.7734 F   0  0  0  0  0  0
  -29.9881  -13.5123   20.3984 N   0  0  0  0  0  0
  -26.2933  -12.9405   20.3292 N   0  0  0  0  0  0
  -25.9317  -11.6548   20.5738 N   0  0  0  0  0  0
  -22.0487  -12.8191   22.0446 N   0  0  0  0  0  0
  -25.4186  -15.1918   20.4099 N   0  0  0  0  0  0
  -31.8281  -14.8155   20.1916 O   0  0  0  0  0  0
  -21.6665   -6.8894   21.4250 O   0  0  0  0  0  0
  -22.3522  -14.5547   20.6791 O   0  0  0  0  0  0
  -24.6292  -31.8544   23.1964 C   0  0  0  0  0  0
  -25.9111  -32.4735   23.8318 C   0  0  1  0  0  0
  -27.2221  -27.2806   20.1366 C   0  0  0  0  0  0
  -25.5898  -33.8540   24.2229 N   0  0  0  0  0  0
  -23.4262  -30.4753   21.5390 C   0  0  2  0  0  0
  -24.8750  -28.9219   20.1154 C   0  0  0  0  0  0
  -22.7483  -29.4589   22.4908 C   0  0  0  0  0  0
  -18.0283  -28.1371   22.8477 C   0  0  0  0  0  0
  -24.1488  -36.7288   23.2645 C   0  0  0  0  0  0
  -25.9700  -30.7786   21.3722 C   0  0  0  0  0  0
  -26.0470  -29.4016   20.7158 C   0  0  0  0  0  0
  -27.2280  -28.5952   20.7096 C   0  0  0  0  0  0
  -26.0308  -26.8641   19.5065 C   0  0  0  0  0  0
  -24.8707  -27.6592   19.5022 C   0  0  0  0  0  0
  -23.6428  -29.8024   20.1583 C   0  0  0  0  0  0
  -25.4106  -36.3053   24.0322 C   0  0  1  0  0  0
  -20.5880  -28.3654   23.1269 C   0  0  2  0  0  0
  -20.6752  -26.9370   22.5411 C   0  0  0  0  0  0
  -19.5741  -26.6361   21.5201 C   0  0  0  0  0  0
  -18.1921  -26.7918   22.1618 C   0  0  0  0  0  0
  -19.1535  -28.8840   23.2863 C   0  0  0  0  0  0
  -18.9462  -30.1448   23.8860 C   0  0  0  0  0  0
  -17.6460  -30.6563   24.0559 C   0  0  0  0  0  0
  -25.9044  -34.9417   23.5083 C   0  0  0  0  0  0
  -16.5350  -29.9065   23.6330 C   0  0  0  0  0  0
  -16.7280  -28.6495   23.0338 C   0  0  0  0  0  0
  -26.4475  -31.6576   25.0717 C   0  0  0  0  0  0
  -25.3691  -31.3749   26.1432 C   0  0  0  0  0  0
  -27.0331  -30.2977   24.6252 C   0  0  0  0  0  0
  -27.6011  -32.4325   25.7494 C   0  0  0  0  0  0
  -27.5569  -37.1790   24.8451 C   0  0  0  0  0  0
  -21.4186  -29.3015   22.3654 N   0  0  0  0  0  0
  -26.4272  -37.3746   23.9398 N   0  0  0  0  0  0
  -24.6935  -31.0532   22.0925 N   0  0  0  0  0  0
  -23.4196  -28.8137   23.2992 O   0  0  0  0  0  0
  -28.3188  -26.3980   20.1641 O   0  0  0  0  0  0
  -26.5631  -34.8900   22.4671 O   0  0  0  0  0  0
  -23.5431  -32.1352   23.7264 O   0  0  0  0  0  0
  -30.9815  -21.8389   19.0092 C   0  0  0  0  0  0
  -29.9364  -21.2696   19.6918 C   0  0  0  0  0  0
  -31.2249  -19.6579   18.7330 C   0  0  0  0  0  0
  -33.3158  -18.3341   18.1251 C   0  0  0  0  0  0
  -31.2765  -18.2480   16.6033 C   0  0  0  0  0  0
  -28.8419  -22.2153   20.3200 C   0  0  0  0  0  0
  -28.9406  -23.7929   19.8845 C   0  0  0  0  0  0
  -29.4737  -18.5498   20.0969 C   0  0  0  0  0  0
  -30.3180  -17.3466   20.8157 C   0  0  0  0  0  0
  -28.0903  -24.9705   20.5696 C   0  0  0  0  0  0
  -31.7761  -18.4165   18.0496 C   0  0  0  0  0  0
  -30.1817  -19.8375   19.5964 N   0  0  0  0  0  0
  -31.7209  -20.8585   18.4479 N   0  3  0  0  0  0
  -29.8814  -15.8778   20.6832 N   0  0  0  0  0  0
  -31.4681  -12.5873   19.1519 H   0  0  0  0  0  0
  -30.3767  -11.4718   19.9277 H   0  0  0  0  0  0
  -29.7768  -11.7530   17.4995 H   0  0  0  0  0  0
  -29.6326  -13.4795   17.7232 H   0  0  0  0  0  0
  -27.8756  -11.2956   18.8815 H   0  0  0  0  0  0
  -27.3755  -12.5672   17.7932 H   0  0  0  0  0  0
  -27.6366  -14.2600   19.4864 H   0  0  0  0  0  0
  -28.7156  -12.1538   21.4119 H   0  0  0  0  0  0
  -28.4220  -13.8275   21.8030 H   0  0  0  0  0  0
  -25.2751   -9.5732   22.4758 H   0  0  0  0  0  0
  -24.0034   -7.4643   22.7463 H   0  0  0  0  0  0
  -21.0850   -8.8757   19.8926 H   0  0  0  0  0  0
  -22.3682  -10.9678   19.6174 H   0  0  0  0  0  0
  -21.1990   -7.6158   23.9716 H   0  0  0  0  0  0
  -21.1475   -6.0530   25.9070 H   0  0  0  0  0  0
  -22.0596   -2.7618   23.2837 H   0  0  0  0  0  0
  -22.4119  -11.9822   22.4760 H   0  0  0  0  0  0
  -21.1095  -13.1195   22.2672 H   0  0  0  0  0  0
  -24.6425  -15.8392   20.5024 H   0  0  0  0  0  0
  -26.2550  -15.6302   20.0468 H   0  0  0  0  0  0
  -26.7202  -32.5398   23.1073 H   0  0  0  0  0  0
  -24.9956  -33.9669   25.0312 H   0  0  0  0  0  0
  -22.7210  -31.2947   21.3858 H   0  0  0  0  0  0
  -23.3726  -35.9644   23.3298 H   0  0  0  0  0  0
  -24.3583  -36.8931   22.2063 H   0  0  0  0  0  0
  -23.7269  -37.6495   23.6692 H   0  0  0  0  0  0
  -26.1049  -31.5443   20.6073 H   0  0  0  0  0  0
  -26.8475  -30.8279   22.0049 H   0  0  0  0  0  0
  -28.1311  -28.9560   21.1830 H   0  0  0  0  0  0
  -25.9836  -25.8986   19.0236 H   0  0  0  0  0  0
  -23.9731  -27.2780   19.0357 H   0  0  0  0  0  0
  -23.7603  -30.5707   19.3929 H   0  0  0  0  0  0
  -22.7656  -29.2253   19.8604 H   0  0  0  0  0  0
  -25.1296  -36.1887   25.0813 H   0  0  0  0  0  0
  -20.9982  -28.3240   24.1386 H   0  0  0  0  0  0
  -20.5596  -26.2276   23.3612 H   0  0  0  0  0  0
  -21.6629  -26.7354   22.1238 H   0  0  0  0  0  0
  -19.6886  -25.6273   21.1228 H   0  0  0  0  0  0
  -19.6688  -27.3168   20.6726 H   0  0  0  0  0  0
  -17.4180  -26.6645   21.4027 H   0  0  0  0  0  0
  -18.0326  -26.0058   22.9016 H   0  0  0  0  0  0
  -19.7940  -30.7274   24.2199 H   0  0  0  0  0  0
  -17.5019  -31.6247   24.5166 H   0  0  0  0  0  0
  -15.5351  -30.2960   23.7676 H   0  0  0  0  0  0
  -15.8678  -28.0826   22.7040 H   0  0  0  0  0  0
  -24.5857  -30.7101   25.7770 H   0  0  0  0  0  0
  -24.8885  -32.2933   26.4807 H   0  0  0  0  0  0
  -25.7989  -30.8959   27.0235 H   0  0  0  0  0  0
  -26.2953  -29.6694   24.1235 H   0  0  0  0  0  0
  -27.3936  -29.7258   25.4814 H   0  0  0  0  0  0
  -27.8857  -30.4199   23.9561 H   0  0  0  0  0  0
  -27.2600  -33.3624   26.2032 H   0  0  0  0  0  0
  -28.3834  -32.6874   25.0344 H   0  0  0  0  0  0
  -28.0656  -31.8480   26.5434 H   0  0  0  0  0  0
  -28.2559  -38.0107   24.7490 H   0  0  0  0  0  0
  -28.1091  -36.2632   24.6280 H   0  0  0  0  0  0
  -27.2293  -37.1439   25.8855 H   0  0  0  0  0  0
  -20.9358  -29.8794   21.6913 H   0  0  0  0  0  0
  -26.0149  -38.2819   24.1402 H   0  0  0  0  0  0
  -31.2288  -22.8746   18.8299 H   0  0  0  0  0  0
  -33.6546  -18.2128   19.1539 H   0  0  0  0  0  0
  -33.8029  -19.2243   17.7224 H   0  0  0  0  0  0
  -33.6961  -17.4823   17.5573 H   0  0  0  0  0  0
  -30.1932  -18.1362   16.5778 H   0  0  0  0  0  0
  -31.6952  -17.3400   16.1646 H   0  0  0  0  0  0
  -31.5431  -19.0745   15.9475 H   0  0  0  0  0  0
  -28.9027  -22.1468   21.4058 H   0  0  0  0  0  0
  -27.8521  -21.8429   20.0528 H   0  0  0  0  0  0
  -28.7503  -23.8530   18.8121 H   0  0  0  0  0  0
  -29.9689  -24.1234   20.0187 H   0  0  0  0  0  0
  -28.6592  -18.8617   20.7523 H   0  0  0  0  0  0
  -28.9950  -18.1263   19.2131 H   0  0  0  0  0  0
  -30.3022  -17.5646   21.8853 H   0  0  0  0  0  0
  -31.3807  -17.4148   20.5900 H   0  0  0  0  0  0
  -28.3230  -24.9399   21.6350 H   0  0  0  0  0  0
  -27.0367  -24.7041   20.5177 H   0  0  0  0  0  0
  -31.3794  -17.5484   18.5524 H   0  0  0  0  0  0
  -32.5259  -21.0313   17.8587 H   0  0  0  0  0  0
  -28.8972  -15.7066   20.8237 H   0  0  0  0  0  0
  1 25  1  0  0  0
  1 30  2  0  0  0
  1 84  1  0  0  0
  2  3  1  0  0  0
  2 25  1  0  0  0
  2 85  1  0  0  0
  2 86  1  0  0  0
  3  4  1  0  0  0
  3 87  1  0  0  0
  3 88  1  0  0  0
  4  5  1  0  0  0
  4 89  1  0  0  0
  4 90  1  0  0  0
  5  6  1  0  0  0
  5 26  1  0  0  0
  5 91  1  0  0  0
  6 25  1  0  0  0
  6 92  1  0  0  0
  6 93  1  0  0  0
  7  8  2  0  0  0
  7 26  1  0  0  0
  7 29  1  0  0  0
  8  9  1  0  0  0
  8 22  1  0  0  0
  9 10  1  0  0  0
  9 27  2  0  0  0
 10 11  2  0  0  0
 10 15  1  0  0  0
 11 12  1  0  0  0
 11 94  1  0  0  0
 12 13  2  0  0  0
 12 95  1  0  0  0
 13 14  1  0  0  0
 13 31  1  0  0  0
 14 15  2  0  0  0
 14 96  1  0  0  0
 15 97  1  0  0  0
 16 17  2  0  0  0
 16 21  1  0  0  0
 16 31  1  0  0  0
 17 18  1  0  0  0
 17 98  1  0  0  0
 18 19  2  0  0  0
 18 99  1  0  0  0
 19 20  1  0  0  0
 19 24  1  0  0  0
 20 21  2  0  0  0
 20100  1  0  0  0
 21 23  1  0  0  0
 22 28  1  0  0  0
 22 32  2  0  0  0
 26 27  1  0  0  0
 28101  1  0  0  0
 28102  1  0  0  0
 29103  1  0  0  0
 29104  1  0  0  0
 33 34  1  0  0  0
 33 66  1  0  0  0
 33 70  2  0  0  0
 34 36  1  0  0  0
 34 59  1  0  0  0
 34105  1  0  0  0
 35 44  2  0  0  0
 35 45  1  0  0  0
 35 68  1  0  0  0
 36 56  1  0  0  0
 36106  1  0  0  0
 37 39  1  0  0  0
 37 47  1  0  0  0
 37 66  1  0  0  0
 37107  1  0  0  0
 38 43  2  0  0  0
 38 46  1  0  0  0
 38 47  1  0  0  0
 39 64  1  0  0  0
 39 67  2  0  0  0
 40 52  1  0  0  0
 40 53  2  0  0  0
 40 58  1  0  0  0
 41108  1  0  0  0
 41109  1  0  0  0
 41110  1  0  0  0
 41 48  1  0  0  0
 42 43  1  0  0  0
 42 66  1  0  0  0
 42111  1  0  0  0
 42112  1  0  0  0
 43 44  1  0  0  0
 44113  1  0  0  0
 45 46  2  0  0  0
 45114  1  0  0  0
 46115  1  0  0  0
 47116  1  0  0  0
 47117  1  0  0  0
 48 56  1  0  0  0
 48 65  1  0  0  0
 48118  1  0  0  0
 49 50  1  0  0  0
 49 53  1  0  0  0
 49 64  1  0  0  0
 49119  1  0  0  0
 50 51  1  0  0  0
 50120  1  0  0  0
 50121  1  0  0  0
 51 52  1  0  0  0
 51122  1  0  0  0
 51123  1  0  0  0
 52124  1  0  0  0
 52125  1  0  0  0
 53 54  1  0  0  0
 54 55  2  0  0  0
 54126  1  0  0  0
 55 57  1  0  0  0
 55127  1  0  0  0
 56 69  2  0  0  0
 57 58  2  0  0  0
 57128  1  0  0  0
 58129  1  0  0  0
 59 60  1  0  0  0
 59 61  1  0  0  0
 59 62  1  0  0  0
 60130  1  0  0  0
 60131  1  0  0  0
 60132  1  0  0  0
 61133  1  0  0  0
 61134  1  0  0  0
 61135  1  0  0  0
 62136  1  0  0  0
 62137  1  0  0  0
 62138  1  0  0  0
 63 65  1  0  0  0
 63139  1  0  0  0
 63140  1  0  0  0
 63141  1  0  0  0
 64142  1  0  0  0
 65143  1  0  0  0
 68 80  1  0  0  0
 71 72  2  0  0  0
 71 83  1  0  0  0
 71144  1  0  0  0
 72 76  1  0  0  0
 72 82  1  0  0  0
 73 81  1  0  0  0
 73 82  1  0  0  0
 73 83  2  0  0  0
 74145  1  0  0  0
 74146  1  0  0  0
 74147  1  0  0  0
 74 81  1  0  0  0
 75 81  1  0  0  0
 75148  1  0  0  0
 75149  1  0  0  0
 75150  1  0  0  0
 76 77  1  0  0  0
 76151  1  0  0  0
 76152  1  0  0  0
 77 80  1  0  0  0
 77153  1  0  0  0
 77154  1  0  0  0
 78 79  1  0  0  0
 78 82  1  0  0  0
 78155  1  0  0  0
 78156  1  0  0  0
 79 84  1  0  0  0
 79157  1  0  0  0
 79158  1  0  0  0
 80159  1  0  0  0
 80160  1  0  0  0
 81161  1  0  0  0
 83162  1  0  0  0
 84163  1  0  0  0
M  CHG  1  83   1
M  ISO  4   1 100  68 101  80 101  84 100
M  END
> <chiral flag>
0

> <version>
0

> <s_m_source_file>
/data/baiqing/PycharmProjects/Reinvent-master-3.2/result/LINK_invent/BTK/process_docking_weight1_custom_sum_contain_oxygen_bond_distance_aromatic_linkinvent_7_9_3/rearranged_h_0103.sdf

> <i_m_source_file_index>
89

> <r_mmod_Potential_Energy-OPLS-2005>
142.585189819336

> <r_mmod_Stretch_Energy-OPLS-2005>
142.312805175781

> <r_mmod_Bend_Energy-OPLS-2005>
200.591186523438

> <r_mmod_Torsional_Energy-OPLS-2005>
250.976623535156

> <r_mmod_Improper_Torsional_Energy-OPLS-2005>
5.44258594512939

> <r_mmod_Van_der_Waal_Energy-OPLS-2005>
122.904632568359

> <r_mmod_Electrostatic_Energy-OPLS-2005>
-241.450210571289

> <r_mmod_Solvation_Energy-OPLS-2005>
-414.662200927734

> <b_mmod_Minimization_Converged-OPLS-2005>
0

> <r_mmod_RMS_Derivative-OPLS-2005>
4.9746470451355

$$$$
89
                    3D
 Structure written by MMmdl.
163171  0  0  1  0            999 V2000
  -30.5014  -15.0277   20.3889 C   0  0  0  0  0  0
  -30.4408  -12.6303   19.5305 C   0  0  0  0  0  0
  -29.5334  -12.5424   18.2793 C   0  0  0  0  0  0
  -28.0672  -12.3148   18.6899 C   0  0  0  0  0  0
  -27.6297  -13.2547   19.8432 C   0  0  2  0  0  0
  -28.6651  -13.3101   20.9879 C   0  0  0  0  0  0
  -25.2458  -13.8226   20.5726 C   0  0  0  0  0  0
  -24.1781  -13.0439   20.9234 C   0  0  0  0  0  0
  -24.6398  -11.6926   20.8749 C   0  0  0  0  0  0
  -23.9083  -10.4293   21.0406 C   0  0  0  0  0  0
  -24.3632   -9.4211   21.9181 C   0  0  0  0  0  0
  -23.6307   -8.2246   22.0753 C   0  0  0  0  0  0
  -22.4286   -8.0285   21.3548 C   0  0  0  0  0  0
  -21.9921   -9.0256   20.4644 C   0  0  0  0  0  0
  -22.7253  -10.2132   20.3054 C   0  0  0  0  0  0
  -21.6852   -6.0733   22.5282 C   0  0  0  0  0  0
  -21.4015   -6.5637   23.8217 C   0  0  0  0  0  0
  -21.3659   -5.6792   24.9177 C   0  0  0  0  0  0
  -21.6052   -4.3053   24.7226 C   0  0  0  0  0  0
  -21.8816   -3.8145   23.4347 C   0  0  0  0  0  0
  -21.9198   -4.6965   22.3403 C   0  0  0  0  0  0
  -22.7795  -13.5205   21.1880 C   0  0  0  0  0  0
  -22.1665   -4.2151   21.0980 F   0  0  0  0  0  0
  -21.5632   -3.4536   25.7736 F   0  0  0  0  0  0
  -29.9377  -13.7436   20.3979 N   0  0  0  0  0  0
  -26.2888  -12.9466   20.3266 N   0  0  0  0  0  0
  -25.9334  -11.6583   20.5734 N   0  0  0  0  0  0
  -22.0447  -12.8195   22.0434 N   0  0  0  0  0  0
  -25.4119  -15.1955   20.4147 N   0  0  0  0  0  0
  -31.6870  -15.0914   20.0436 O   0  0  0  0  0  0
  -21.6647   -6.8883   21.4244 O   0  0  0  0  0  0
  -22.3481  -14.5504   20.6718 O   0  0  0  0  0  0
  -24.6481  -31.8355   23.1801 C   0  0  0  0  0  0
  -25.9229  -32.4643   23.8215 C   0  0  1  0  0  0
  -27.2248  -27.0747   20.1607 C   0  0  0  0  0  0
  -25.5956  -33.8453   24.2136 N   0  0  0  0  0  0
  -23.4551  -30.4510   21.5250 C   0  0  2  0  0  0
  -24.9074  -28.8610   20.1051 C   0  0  0  0  0  0
  -22.7588  -29.4502   22.4816 C   0  0  0  0  0  0
  -18.0306  -28.1398   22.8472 C   0  0  0  0  0  0
  -24.1495  -36.7237   23.2647 C   0  0  0  0  0  0
  -26.0126  -30.6889   21.3884 C   0  0  0  0  0  0
  -26.0822  -29.2935   20.7308 C   0  0  0  0  0  0
  -27.2347  -28.4150   20.7426 C   0  0  0  0  0  0
  -26.0249  -26.7519   19.4917 C   0  0  0  0  0  0
  -24.8951  -27.6067   19.4703 C   0  0  0  0  0  0
  -23.6857  -29.7715   20.1461 C   0  0  0  0  0  0
  -25.4128  -36.2995   24.0308 C   0  0  1  0  0  0
  -20.5925  -28.3734   23.1216 C   0  0  2  0  0  0
  -20.6788  -26.9425   22.5405 C   0  0  0  0  0  0
  -19.5768  -26.6379   21.5211 C   0  0  0  0  0  0
  -18.1947  -26.7933   22.1617 C   0  0  0  0  0  0
  -19.1568  -28.8881   23.2836 C   0  0  0  0  0  0
  -18.9483  -30.1477   23.8862 C   0  0  0  0  0  0
  -17.6481  -30.6591   24.0558 C   0  0  0  0  0  0
  -25.9085  -34.9375   23.5039 C   0  0  0  0  0  0
  -16.5371  -29.9086   23.6337 C   0  0  0  0  0  0
  -16.7290  -28.6508   23.0351 C   0  0  0  0  0  0
  -26.4542  -31.6541   25.0682 C   0  0  0  0  0  0
  -25.3722  -31.3745   26.1381 C   0  0  0  0  0  0
  -27.0431  -30.2925   24.6320 C   0  0  0  0  0  0
  -27.6047  -32.4339   25.7475 C   0  0  0  0  0  0
  -27.5574  -37.1772   24.8465 C   0  0  0  0  0  0
  -21.4271  -29.3045   22.3573 N   0  0  0  0  0  0
  -26.4286  -37.3721   23.9410 N   0  0  0  0  0  0
  -24.7248  -31.0157   22.0856 N   0  0  0  0  0  0
  -23.4207  -28.8066   23.3001 O   0  0  0  0  0  0
  -28.2882  -26.0902   20.2881 O   0  0  0  0  0  0
  -26.5679  -34.8889   22.4625 O   0  0  0  0  0  0
  -23.5590  -32.1262   23.6991 O   0  0  0  0  0  0
  -30.5961  -20.0185   20.9535 C   0  0  0  0  0  0
  -28.6460  -20.3419   20.0926 C   0  0  0  0  0  0
  -29.5666  -19.2628   20.3168 C   0  0  0  0  0  0
  -30.3493  -21.3891   21.0295 C   0  0  0  0  0  0
  -33.4185  -23.4311   20.3865 C   0  0  0  0  0  0
  -33.7722  -21.5479   22.0378 C   0  0  0  0  0  0
  -29.7033  -17.6461   19.8233 C   0  0  0  0  0  0
  -28.2315  -23.0861   20.6271 C   0  0  0  0  0  0
  -28.3721  -24.5843   19.7928 C   0  0  0  0  0  0
  -31.3578  -22.3529   21.6476 C   0  0  1  0  0  0
  -32.7905  -22.1756   21.0313 C   0  0  0  0  0  0
  -29.0617  -21.6910   20.5171 N   0  0  0  0  0  0
  -29.7153  -16.2218   20.5582 N   0  0  0  0  0  0
  -30.9517  -23.7642   21.7228 N   0  3  0  0  0  0
  -31.4760  -12.7875   19.2254 H   0  0  0  0  0  0
  -30.4389  -11.6860   20.0765 H   0  0  0  0  0  0
  -29.8684  -11.7401   17.6209 H   0  0  0  0  0  0
  -29.6163  -13.4669   17.7041 H   0  0  0  0  0  0
  -27.9750  -11.2762   19.0095 H   0  0  0  0  0  0
  -27.4073  -12.4308   17.8298 H   0  0  0  0  0  0
  -27.5854  -14.2506   19.4018 H   0  0  0  0  0  0
  -28.7641  -12.3403   21.4775 H   0  0  0  0  0  0
  -28.3486  -14.0131   21.7596 H   0  0  0  0  0  0
  -25.2766   -9.5687   22.4761 H   0  0  0  0  0  0
  -24.0012   -7.4634   22.7466 H   0  0  0  0  0  0
  -21.0853   -8.8775   19.8943 H   0  0  0  0  0  0
  -22.3711  -10.9673   19.6168 H   0  0  0  0  0  0
  -21.2003   -7.6143   23.9719 H   0  0  0  0  0  0
  -21.1486   -6.0517   25.9080 H   0  0  0  0  0  0
  -22.0595   -2.7608   23.2846 H   0  0  0  0  0  0
  -22.4058  -11.9866   22.4847 H   0  0  0  0  0  0
  -21.1056  -13.1214   22.2609 H   0  0  0  0  0  0
  -24.6409  -15.8449   20.5248 H   0  0  0  0  0  0
  -26.2526  -15.6383   20.0676 H   0  0  0  0  0  0
  -26.7289  -32.5225   23.0932 H   0  0  0  0  0  0
  -25.0078  -33.9556   25.0268 H   0  0  0  0  0  0
  -22.7611  -31.2779   21.3634 H   0  0  0  0  0  0
  -23.3758  -35.9566   23.3288 H   0  0  0  0  0  0
  -24.3577  -36.8894   22.2064 H   0  0  0  0  0  0
  -23.7253  -37.6426   23.6708 H   0  0  0  0  0  0
  -26.1791  -31.4399   20.6152 H   0  0  0  0  0  0
  -26.8784  -30.7381   22.0370 H   0  0  0  0  0  0
  -28.1253  -28.7404   21.2625 H   0  0  0  0  0  0
  -25.9233  -25.7879   19.0168 H   0  0  0  0  0  0
  -23.9961  -27.2703   18.9718 H   0  0  0  0  0  0
  -23.8291  -30.5428   19.3887 H   0  0  0  0  0  0
  -22.7988  -29.2177   19.8347 H   0  0  0  0  0  0
  -25.1323  -36.1809   25.0797 H   0  0  0  0  0  0
  -21.0018  -28.3336   24.1340 H   0  0  0  0  0  0
  -20.5675  -26.2345   23.3635 H   0  0  0  0  0  0
  -21.6652  -26.7417   22.1209 H   0  0  0  0  0  0
  -19.6929  -25.6284   21.1256 H   0  0  0  0  0  0
  -19.6707  -27.3172   20.6727 H   0  0  0  0  0  0
  -17.4217  -26.6680   21.4019 H   0  0  0  0  0  0
  -18.0345  -26.0080   22.9017 H   0  0  0  0  0  0
  -19.7962  -30.7302   24.2213 H   0  0  0  0  0  0
  -17.5035  -31.6262   24.5176 H   0  0  0  0  0  0
  -15.5374  -30.2978   23.7677 H   0  0  0  0  0  0
  -15.8692  -28.0817   22.7081 H   0  0  0  0  0  0
  -24.5906  -30.7086   25.7713 H   0  0  0  0  0  0
  -24.8913  -32.2929   26.4749 H   0  0  0  0  0  0
  -25.8006  -30.8960   27.0194 H   0  0  0  0  0  0
  -26.3065  -29.6615   24.1334 H   0  0  0  0  0  0
  -27.4030  -29.7262   25.4922 H   0  0  0  0  0  0
  -27.8972  -30.4147   23.9657 H   0  0  0  0  0  0
  -27.2615  -33.3671   26.1957 H   0  0  0  0  0  0
  -28.3902  -32.6857   25.0336 H   0  0  0  0  0  0
  -28.0668  -31.8533   26.5474 H   0  0  0  0  0  0
  -28.2574  -38.0085   24.7510 H   0  0  0  0  0  0
  -28.1085  -36.2611   24.6293 H   0  0  0  0  0  0
  -27.2288  -37.1412   25.8866 H   0  0  0  0  0  0
  -20.9498  -29.8745   21.6732 H   0  0  0  0  0  0
  -26.0142  -38.2779   24.1414 H   0  0  0  0  0  0
  -31.5272  -19.5815   21.2894 H   0  0  0  0  0  0
  -27.6716  -20.2679   19.6261 H   0  0  0  0  0  0
  -34.3706  -23.1818   19.9157 H   0  0  0  0  0  0
  -33.6225  -24.2154   21.1164 H   0  0  0  0  0  0
  -32.7837  -23.8447   19.6015 H   0  0  0  0  0  0
  -34.7150  -21.2877   21.5563 H   0  0  0  0  0  0
  -33.3713  -20.6286   22.4669 H   0  0  0  0  0  0
  -33.9958  -22.2268   22.8610 H   0  0  0  0  0  0
  -30.6189  -17.6386   19.2297 H   0  0  0  0  0  0
  -28.9151  -17.5403   19.0766 H   0  0  0  0  0  0
  -27.1853  -22.8001   20.5186 H   0  0  0  0  0  0
  -28.2785  -23.3487   21.6829 H   0  0  0  0  0  0
  -27.7343  -24.5072   18.9135 H   0  0  0  0  0  0
  -29.3700  -24.5482   19.3575 H   0  0  0  0  0  0
  -31.4218  -22.0635   22.6987 H   0  0  0  0  0  0
  -32.7106  -21.4623   20.2094 H   0  0  0  0  0  0
  -28.8201  -16.0144   20.9744 H   0  0  0  0  0  0
  -30.9300  -24.1745   20.8075 H   0  0  0  0  0  0
  -31.6126  -24.2717   22.2843 H   0  0  0  0  0  0
  -30.0544  -23.8407   22.1659 H   0  0  0  0  0  0
  1 25  1  0  0  0
  1 30  2  0  0  0
  1 83  1  0  0  0
  2  3  1  0  0  0
  2 25  1  0  0  0
  2 85  1  0  0  0
  2 86  1  0  0  0
  3  4  1  0  0  0
  3 87  1  0  0  0
  3 88  1  0  0  0
  4  5  1  0  0  0
  4 89  1  0  0  0
  4 90  1  0  0  0
  5  6  1  0  0  0
  5 26  1  0  0  0
  5 91  1  0  0  0
  6 25  1  0  0  0
  6 92  1  0  0  0
  6 93  1  0  0  0
  7  8  2  0  0  0
  7 26  1  0  0  0
  7 29  1  0  0  0
  8  9  1  0  0  0
  8 22  1  0  0  0
  9 10  1  0  0  0
  9 27  2  0  0  0
 10 11  2  0  0  0
 10 15  1  0  0  0
 11 12  1  0  0  0
 11 94  1  0  0  0
 12 13  2  0  0  0
 12 95  1  0  0  0
 13 14  1  0  0  0
 13 31  1  0  0  0
 14 15  2  0  0  0
 14 96  1  0  0  0
 15 97  1  0  0  0
 16 17  2  0  0  0
 16 21  1  0  0  0
 16 31  1  0  0  0
 17 18  1  0  0  0
 17 98  1  0  0  0
 18 19  2  0  0  0
 18 99  1  0  0  0
 19 20  1  0  0  0
 19 24  1  0  0  0
 20 21  2  0  0  0
 20100  1  0  0  0
 21 23  1  0  0  0
 22 28  1  0  0  0
 22 32  2  0  0  0
 26 27  1  0  0  0
 28101  1  0  0  0
 28102  1  0  0  0
 29103  1  0  0  0
 29104  1  0  0  0
 33 34  1  0  0  0
 33 66  1  0  0  0
 33 70  2  0  0  0
 34 36  1  0  0  0
 34 59  1  0  0  0
 34105  1  0  0  0
 35 44  2  0  0  0
 35 45  1  0  0  0
 35 68  1  0  0  0
 36 56  1  0  0  0
 36106  1  0  0  0
 37 39  1  0  0  0
 37 47  1  0  0  0
 37 66  1  0  0  0
 37107  1  0  0  0
 38 43  2  0  0  0
 38 46  1  0  0  0
 38 47  1  0  0  0
 39 64  1  0  0  0
 39 67  2  0  0  0
 40 52  1  0  0  0
 40 53  2  0  0  0
 40 58  1  0  0  0
 41108  1  0  0  0
 41109  1  0  0  0
 41110  1  0  0  0
 41 48  1  0  0  0
 42 43  1  0  0  0
 42 66  1  0  0  0
 42111  1  0  0  0
 42112  1  0  0  0
 43 44  1  0  0  0
 44113  1  0  0  0
 45 46  2  0  0  0
 45114  1  0  0  0
 46115  1  0  0  0
 47116  1  0  0  0
 47117  1  0  0  0
 48 56  1  0  0  0
 48 65  1  0  0  0
 48118  1  0  0  0
 49 50  1  0  0  0
 49 53  1  0  0  0
 49 64  1  0  0  0
 49119  1  0  0  0
 50 51  1  0  0  0
 50120  1  0  0  0
 50121  1  0  0  0
 51 52  1  0  0  0
 51122  1  0  0  0
 51123  1  0  0  0
 52124  1  0  0  0
 52125  1  0  0  0
 53 54  1  0  0  0
 54 55  2  0  0  0
 54126  1  0  0  0
 55 57  1  0  0  0
 55127  1  0  0  0
 56 69  2  0  0  0
 57 58  2  0  0  0
 57128  1  0  0  0
 58129  1  0  0  0
 59 60  1  0  0  0
 59 61  1  0  0  0
 59 62  1  0  0  0
 60130  1  0  0  0
 60131  1  0  0  0
 60132  1  0  0  0
 61133  1  0  0  0
 61134  1  0  0  0
 61135  1  0  0  0
 62136  1  0  0  0
 62137  1  0  0  0
 62138  1  0  0  0
 63 65  1  0  0  0
 63139  1  0  0  0
 63140  1  0  0  0
 63141  1  0  0  0
 64142  1  0  0  0
 65143  1  0  0  0
 68 79  1  0  0  0
 71 73  1  0  0  0
 71 74  2  0  0  0
 71144  1  0  0  0
 72 73  2  0  0  0
 72 82  1  0  0  0
 72145  1  0  0  0
 73 77  1  0  0  0
 74 80  1  0  0  0
 74 82  1  0  0  0
 75146  1  0  0  0
 75147  1  0  0  0
 75148  1  0  0  0
 75 81  1  0  0  0
 76 81  1  0  0  0
 76149  1  0  0  0
 76150  1  0  0  0
 76151  1  0  0  0
 77 83  1  0  0  0
 77152  1  0  0  0
 77153  1  0  0  0
 78 79  1  0  0  0
 78 82  1  0  0  0
 78154  1  0  0  0
 78155  1  0  0  0
 79156  1  0  0  0
 79157  1  0  0  0
 80 81  1  0  0  0
 80 84  1  0  0  0
 80158  1  0  0  0
 81159  1  0  0  0
 83160  1  0  0  0
 84161  1  0  0  0
 84162  1  0  0  0
 84163  1  0  0  0
M  CHG  1  84   1
M  ISO  4   1 100  68 101  79 101  83 100
M  END
> <chiral flag>
0

> <version>
0

> <s_m_source_file>
/data/baiqing/PycharmProjects/Reinvent-master-3.2/result/LINK_invent/BTK/process_docking_weight1_custom_sum_contain_oxygen_bond_distance_aromatic_linkinvent_7_9_3/rearranged_h_0103.sdf

> <i_m_source_file_index>
90

> <r_mmod_Potential_Energy-OPLS-2005>
490.5107421875

> <r_mmod_Stretch_Energy-OPLS-2005>
336.661376953125

> <r_mmod_Bend_Energy-OPLS-2005>
377.160522460938

> <r_mmod_Torsional_Energy-OPLS-2005>
268.132965087891

> <r_mmod_Improper_Torsional_Energy-OPLS-2005>
9.34427738189697

> <r_mmod_Van_der_Waal_Energy-OPLS-2005>
114.923538208008

> <r_mmod_Electrostatic_Energy-OPLS-2005>
-382.206268310547

> <r_mmod_Solvation_Energy-OPLS-2005>
-483.913269042969

> <b_mmod_Minimization_Converged-OPLS-2005>
0

> <r_mmod_RMS_Derivative-OPLS-2005>
1.52948307991028

$$$$
90
                    3D
 Structure written by MMmdl.
170178  0  0  1  0            999 V2000
  -30.5385  -14.9338   20.4455 C   0  0  0  0  0  0
  -30.4481  -12.5796   19.4810 C   0  0  0  0  0  0
  -29.5189  -12.5152   18.2491 C   0  0  0  0  0  0
  -28.0505  -12.3163   18.6642 C   0  0  0  0  0  0
  -27.6310  -13.2465   19.8304 C   0  0  2  0  0  0
  -28.6780  -13.2622   20.9626 C   0  0  0  0  0  0
  -25.2508  -13.8243   20.5668 C   0  0  0  0  0  0
  -24.1781  -13.0453   20.9164 C   0  0  0  0  0  0
  -24.6384  -11.6983   20.8676 C   0  0  0  0  0  0
  -23.9033  -10.4349   21.0336 C   0  0  0  0  0  0
  -24.3592   -9.4292   21.9118 C   0  0  0  0  0  0
  -23.6326   -8.2303   22.0721 C   0  0  0  0  0  0
  -22.4337   -8.0289   21.3516 C   0  0  0  0  0  0
  -21.9908   -9.0226   20.4608 C   0  0  0  0  0  0
  -22.7185  -10.2153   20.3021 C   0  0  0  0  0  0
  -21.6921   -6.0723   22.5266 C   0  0  0  0  0  0
  -21.4009   -6.5618   23.8164 C   0  0  0  0  0  0
  -21.3671   -5.6784   24.9125 C   0  0  0  0  0  0
  -21.6081   -4.3049   24.7179 C   0  0  0  0  0  0
  -21.8829   -3.8132   23.4297 C   0  0  0  0  0  0
  -21.9214   -4.6944   22.3347 C   0  0  0  0  0  0
  -22.7825  -13.5230   21.1829 C   0  0  0  0  0  0
  -22.1706   -4.2139   21.0933 F   0  0  0  0  0  0
  -21.5634   -3.4534   25.7670 F   0  0  0  0  0  0
  -29.9460  -13.6775   20.3528 N   0  0  0  0  0  0
  -26.2890  -12.9444   20.3181 N   0  0  0  0  0  0
  -25.9324  -11.6590   20.5669 N   0  0  0  0  0  0
  -22.0497  -12.8206   22.0414 N   0  0  0  0  0  0
  -25.4215  -15.1928   20.4117 N   0  0  0  0  0  0
  -31.7575  -15.0077   20.2734 O   0  0  0  0  0  0
  -21.6752   -6.8865   21.4244 O   0  0  0  0  0  0
  -22.3487  -14.5491   20.6663 O   0  0  0  0  0  0
  -24.6408  -31.8419   23.1876 C   0  0  0  0  0  0
  -25.9154  -32.4710   23.8276 C   0  0  1  0  0  0
  -27.2214  -27.1240   20.1684 C   0  0  0  0  0  0
  -25.5919  -33.8522   24.2197 N   0  0  0  0  0  0
  -23.4539  -30.4499   21.5368 C   0  0  2  0  0  0
  -24.9146  -28.8912   20.1062 C   0  0  0  0  0  0
  -22.7633  -29.4408   22.4908 C   0  0  0  0  0  0
  -18.0309  -28.1362   22.8521 C   0  0  0  0  0  0
  -24.1498  -36.7208   23.2639 C   0  0  0  0  0  0
  -26.0138  -30.7187   21.3950 C   0  0  0  0  0  0
  -26.0899  -29.3321   20.7285 C   0  0  0  0  0  0
  -27.2470  -28.4672   20.7311 C   0  0  0  0  0  0
  -26.0189  -26.7894   19.5101 C   0  0  0  0  0  0
  -24.8962  -27.6401   19.4722 C   0  0  0  0  0  0
  -23.6841  -29.7787   20.1559 C   0  0  0  0  0  0
  -25.4142  -36.3030   24.0315 C   0  0  1  0  0  0
  -20.5936  -28.3618   23.1314 C   0  0  2  0  0  0
  -20.6776  -26.9310   22.5431 C   0  0  0  0  0  0
  -19.5749  -26.6314   21.5249 C   0  0  0  0  0  0
  -18.1931  -26.7914   22.1649 C   0  0  0  0  0  0
  -19.1572  -28.8832   23.2899 C   0  0  0  0  0  0
  -18.9466  -30.1475   23.8853 C   0  0  0  0  0  0
  -17.6445  -30.6553   24.0553 C   0  0  0  0  0  0
  -25.9080  -34.9412   23.5052 C   0  0  0  0  0  0
  -16.5344  -29.9029   23.6356 C   0  0  0  0  0  0
  -16.7286  -28.6461   23.0368 C   0  0  0  0  0  0
  -26.4503  -31.6618   25.0709 C   0  0  0  0  0  0
  -25.3680  -31.3761   26.1375 C   0  0  0  0  0  0
  -27.0381  -30.3041   24.6277 C   0  0  0  0  0  0
  -27.6066  -32.4386   25.7477 C   0  0  0  0  0  0
  -27.5598  -37.1743   24.8468 C   0  0  0  0  0  0
  -21.4322  -29.2949   22.3716 N   0  0  0  0  0  0
  -26.4306  -37.3744   23.9412 N   0  0  0  0  0  0
  -24.7238  -31.0231   22.0943 N   0  0  0  0  0  0
  -23.4285  -28.7952   23.3043 O   0  0  0  0  0  0
  -28.2650  -26.1228   20.2590 O   0  0  0  0  0  0
  -26.5656  -34.8919   22.4633 O   0  0  0  0  0  0
  -23.5507  -32.1290   23.7062 O   0  0  0  0  0  0
  -31.1190  -19.0053   19.6194 C   0  0  0  0  0  0
  -30.6940  -20.9196   21.5652 C   0  0  0  0  0  0
  -29.8816  -19.0107   20.2988 C   0  0  0  0  0  0
  -29.6055  -20.3772   20.8749 C   0  0  0  0  0  0
  -32.1322  -19.8882   20.0596 C   0  0  0  0  0  0
  -34.5243  -21.7935   17.5917 C   0  0  0  0  0  0
  -34.8018  -18.2375   20.5653 C   0  0  0  0  0  0
  -35.1271  -20.6797   21.2109 C   0  0  0  0  0  0
  -28.6039  -21.6069   20.4005 C   0  0  0  0  0  0
  -29.8796  -17.5629   21.0925 C   0  0  0  0  0  0
  -33.4415  -21.4576   18.6225 C   0  0  0  0  0  0
  -28.9984  -23.2746   20.4588 C   0  0  0  0  0  0
  -27.9779  -24.5871   20.1290 C   0  0  0  0  0  0
  -33.4508  -20.0464   19.2849 C   0  0  1  0  0  0
  -34.7574  -19.7020   20.0693 C   0  0  0  0  0  0
  -31.9402  -20.7338   21.0992 N   0  0  0  0  0  0
  -29.7296  -16.1000   20.5232 N   0  0  0  0  0  0
  -31.4795  -12.7562   19.1684 H   0  0  0  0  0  0
  -30.4572  -11.6297   20.0177 H   0  0  0  0  0  0
  -29.8225  -11.7078   17.5812 H   0  0  0  0  0  0
  -29.6125  -13.4435   17.6853 H   0  0  0  0  0  0
  -27.9377  -11.2750   18.9709 H   0  0  0  0  0  0
  -27.3958  -12.4597   17.8068 H   0  0  0  0  0  0
  -27.5897  -14.2447   19.3941 H   0  0  0  0  0  0
  -28.7643  -12.2815   21.4332 H   0  0  0  0  0  0
  -28.3835  -13.9631   21.7435 H   0  0  0  0  0  0
  -25.2715   -9.5881   22.4700 H   0  0  0  0  0  0
  -24.0094   -7.4750   22.7448 H   0  0  0  0  0  0
  -21.0818   -8.8633   19.8958 H   0  0  0  0  0  0
  -22.3478  -10.9654   19.6153 H   0  0  0  0  0  0
  -21.2005   -7.6131   23.9619 H   0  0  0  0  0  0
  -21.1509   -6.0535   25.9012 H   0  0  0  0  0  0
  -22.0614   -2.7615   23.2770 H   0  0  0  0  0  0
  -22.4201  -11.9914   22.4777 H   0  0  0  0  0  0
  -21.1087  -13.1211   22.2563 H   0  0  0  0  0  0
  -24.6528  -15.8481   20.4955 H   0  0  0  0  0  0
  -26.2620  -15.6265   20.0605 H   0  0  0  0  0  0
  -26.7230  -32.5319   23.1018 H   0  0  0  0  0  0
  -25.0049  -33.9717   25.0332 H   0  0  0  0  0  0
  -22.7506  -31.2670   21.3749 H   0  0  0  0  0  0
  -23.3815  -35.9483   23.3277 H   0  0  0  0  0  0
  -24.3546  -36.8852   22.2050 H   0  0  0  0  0  0
  -23.7209  -37.6368   23.6705 H   0  0  0  0  0  0
  -26.1741  -31.4877   20.6390 H   0  0  0  0  0  0
  -26.8805  -30.7605   22.0419 H   0  0  0  0  0  0
  -28.1525  -28.8001   21.2245 H   0  0  0  0  0  0
  -25.9075  -25.8221   19.0485 H   0  0  0  0  0  0
  -24.0068  -27.2964   18.9677 H   0  0  0  0  0  0
  -23.8130  -30.5504   19.3940 H   0  0  0  0  0  0
  -22.8098  -29.1995   19.8496 H   0  0  0  0  0  0
  -25.1355  -36.1846   25.0810 H   0  0  0  0  0  0
  -21.0042  -28.3097   24.1435 H   0  0  0  0  0  0
  -20.5694  -26.2145   23.3599 H   0  0  0  0  0  0
  -21.6617  -26.7298   22.1184 H   0  0  0  0  0  0
  -19.6852  -25.6231   21.1253 H   0  0  0  0  0  0
  -19.6712  -27.3167   20.6833 H   0  0  0  0  0  0
  -17.4203  -26.6723   21.4037 H   0  0  0  0  0  0
  -18.0264  -26.0065   22.9048 H   0  0  0  0  0  0
  -19.7911  -30.7382   24.2118 H   0  0  0  0  0  0
  -17.4939  -31.6235   24.5143 H   0  0  0  0  0  0
  -15.5328  -30.2883   23.7708 H   0  0  0  0  0  0
  -15.8694  -28.0775   22.7063 H   0  0  0  0  0  0
  -24.5866  -30.7142   25.7616 H   0  0  0  0  0  0
  -24.8825  -32.2912   26.4801 H   0  0  0  0  0  0
  -25.7901  -30.8866   27.0159 H   0  0  0  0  0  0
  -26.2981  -29.6763   24.1266 H   0  0  0  0  0  0
  -27.4019  -29.7358   25.4850 H   0  0  0  0  0  0
  -27.8910  -30.4334   23.9594 H   0  0  0  0  0  0
  -27.2704  -33.3735   26.2002 H   0  0  0  0  0  0
  -28.3882  -32.6865   25.0275 H   0  0  0  0  0  0
  -28.0742  -31.8512   26.5402 H   0  0  0  0  0  0
  -28.2574  -38.0086   24.7569 H   0  0  0  0  0  0
  -28.1126  -36.2586   24.6256 H   0  0  0  0  0  0
  -27.2264  -37.1356   25.8858 H   0  0  0  0  0  0
  -20.9522  -29.8644   21.6905 H   0  0  0  0  0  0
  -26.0151  -38.2785   24.1490 H   0  0  0  0  0  0
  -31.3905  -18.1753   18.9783 H   0  0  0  0  0  0
  -30.5761  -21.8012   22.1799 H   0  0  0  0  0  0
  -35.5012  -21.9323   18.0564 H   0  0  0  0  0  0
  -34.2579  -22.7277   17.0912 H   0  0  0  0  0  0
  -34.6254  -21.0354   16.8169 H   0  0  0  0  0  0
  -35.7997  -17.9741   20.9211 H   0  0  0  0  0  0
  -34.5718  -17.5338   19.7654 H   0  0  0  0  0  0
  -34.1040  -18.0504   21.3817 H   0  0  0  0  0  0
  -34.3963  -20.6421   22.0203 H   0  0  0  0  0  0
  -35.1785  -21.7145   20.8719 H   0  0  0  0  0  0
  -36.1056  -20.4496   21.6395 H   0  0  0  0  0  0
  -27.7106  -21.4787   21.0143 H   0  0  0  0  0  0
  -28.3022  -21.3653   19.3758 H   0  0  0  0  0  0
  -29.1515  -17.6466   21.9028 H   0  0  0  0  0  0
  -30.8273  -17.5301   21.6360 H   0  0  0  0  0  0
  -33.4753  -22.2266   19.3912 H   0  0  0  0  0  0
  -32.4784  -21.5910   18.1257 H   0  0  0  0  0  0
  -29.8694  -23.4029   19.8143 H   0  0  0  0  0  0
  -29.3789  -23.4691   21.4612 H   0  0  0  0  0  0
  -27.0695  -24.4028   20.6984 H   0  0  0  0  0  0
  -27.6858  -24.4490   19.0856 H   0  0  0  0  0  0
  -33.4217  -19.3185   18.4705 H   0  0  0  0  0  0
  -35.5557  -19.7968   19.3330 H   0  0  0  0  0  0
  -28.7552  -15.9037   20.3452 H   0  0  0  0  0  0
  1 25  1  0  0  0
  1 30  2  0  0  0
  1 87  1  0  0  0
  2  3  1  0  0  0
  2 25  1  0  0  0
  2 88  1  0  0  0
  2 89  1  0  0  0
  3  4  1  0  0  0
  3 90  1  0  0  0
  3 91  1  0  0  0
  4  5  1  0  0  0
  4 92  1  0  0  0
  4 93  1  0  0  0
  5  6  1  0  0  0
  5 26  1  0  0  0
  5 94  1  0  0  0
  6 25  1  0  0  0
  6 95  1  0  0  0
  6 96  1  0  0  0
  7  8  2  0  0  0
  7 26  1  0  0  0
  7 29  1  0  0  0
  8  9  1  0  0  0
  8 22  1  0  0  0
  9 10  1  0  0  0
  9 27  2  0  0  0
 10 11  2  0  0  0
 10 15  1  0  0  0
 11 12  1  0  0  0
 11 97  1  0  0  0
 12 13  2  0  0  0
 12 98  1  0  0  0
 13 14  1  0  0  0
 13 31  1  0  0  0
 14 15  2  0  0  0
 14 99  1  0  0  0
 15100  1  0  0  0
 16 17  2  0  0  0
 16 21  1  0  0  0
 16 31  1  0  0  0
 17 18  1  0  0  0
 17101  1  0  0  0
 18 19  2  0  0  0
 18102  1  0  0  0
 19 20  1  0  0  0
 19 24  1  0  0  0
 20 21  2  0  0  0
 20103  1  0  0  0
 21 23  1  0  0  0
 22 28  1  0  0  0
 22 32  2  0  0  0
 26 27  1  0  0  0
 28104  1  0  0  0
 28105  1  0  0  0
 29106  1  0  0  0
 29107  1  0  0  0
 33 34  1  0  0  0
 33 66  1  0  0  0
 33 70  2  0  0  0
 34 36  1  0  0  0
 34 59  1  0  0  0
 34108  1  0  0  0
 35 44  2  0  0  0
 35 45  1  0  0  0
 35 68  1  0  0  0
 36 56  1  0  0  0
 36109  1  0  0  0
 37 39  1  0  0  0
 37 47  1  0  0  0
 37 66  1  0  0  0
 37110  1  0  0  0
 38 43  2  0  0  0
 38 46  1  0  0  0
 38 47  1  0  0  0
 39 64  1  0  0  0
 39 67  2  0  0  0
 40 52  1  0  0  0
 40 53  2  0  0  0
 40 58  1  0  0  0
 41111  1  0  0  0
 41112  1  0  0  0
 41113  1  0  0  0
 41 48  1  0  0  0
 42 43  1  0  0  0
 42 66  1  0  0  0
 42114  1  0  0  0
 42115  1  0  0  0
 43 44  1  0  0  0
 44116  1  0  0  0
 45 46  2  0  0  0
 45117  1  0  0  0
 46118  1  0  0  0
 47119  1  0  0  0
 47120  1  0  0  0
 48 56  1  0  0  0
 48 65  1  0  0  0
 48121  1  0  0  0
 49 50  1  0  0  0
 49 53  1  0  0  0
 49 64  1  0  0  0
 49122  1  0  0  0
 50 51  1  0  0  0
 50123  1  0  0  0
 50124  1  0  0  0
 51 52  1  0  0  0
 51125  1  0  0  0
 51126  1  0  0  0
 52127  1  0  0  0
 52128  1  0  0  0
 53 54  1  0  0  0
 54 55  2  0  0  0
 54129  1  0  0  0
 55 57  1  0  0  0
 55130  1  0  0  0
 56 69  2  0  0  0
 57 58  2  0  0  0
 57131  1  0  0  0
 58132  1  0  0  0
 59 60  1  0  0  0
 59 61  1  0  0  0
 59 62  1  0  0  0
 60133  1  0  0  0
 60134  1  0  0  0
 60135  1  0  0  0
 61136  1  0  0  0
 61137  1  0  0  0
 61138  1  0  0  0
 62139  1  0  0  0
 62140  1  0  0  0
 62141  1  0  0  0
 63 65  1  0  0  0
 63142  1  0  0  0
 63143  1  0  0  0
 63144  1  0  0  0
 64145  1  0  0  0
 65146  1  0  0  0
 68 83  1  0  0  0
 71 73  2  0  0  0
 71 75  1  0  0  0
 71147  1  0  0  0
 72 74  2  0  0  0
 72 86  1  0  0  0
 72148  1  0  0  0
 73 74  1  0  0  0
 73 80  1  0  0  0
 74 79  1  0  0  0
 75 84  1  0  0  0
 75 86  2  0  0  0
 76 81  1  0  0  0
 76149  1  0  0  0
 76150  1  0  0  0
 76151  1  0  0  0
 77152  1  0  0  0
 77153  1  0  0  0
 77154  1  0  0  0
 77 85  1  0  0  0
 78 85  1  0  0  0
 78155  1  0  0  0
 78156  1  0  0  0
 78157  1  0  0  0
 79 82  1  0  0  0
 79158  1  0  0  0
 79159  1  0  0  0
 80 87  1  0  0  0
 80160  1  0  0  0
 80161  1  0  0  0
 81162  1  0  0  0
 81163  1  0  0  0
 81 84  1  0  0  0
 82 83  1  0  0  0
 82164  1  0  0  0
 82165  1  0  0  0
 83166  1  0  0  0
 83167  1  0  0  0
 84 85  1  0  0  0
 84168  1  0  0  0
 85169  1  0  0  0
 87170  1  0  0  0
M  ISO  4   1 100  68 101  83 101  87 100
M  END
> <chiral flag>
0

> <version>
0

> <s_m_source_file>
/data/baiqing/PycharmProjects/Reinvent-master-3.2/result/LINK_invent/BTK/process_docking_weight1_custom_sum_contain_oxygen_bond_distance_aromatic_linkinvent_7_9_3/rearranged_h_0103.sdf

> <i_m_source_file_index>
91

> <r_mmod_Potential_Energy-OPLS-2005>
645.901000976562

> <r_mmod_Stretch_Energy-OPLS-2005>
287.090789794922

> <r_mmod_Bend_Energy-OPLS-2005>
323.809295654297

> <r_mmod_Torsional_Energy-OPLS-2005>
424.892822265625

> <r_mmod_Improper_Torsional_Energy-OPLS-2005>
35.3484115600586

> <r_mmod_Van_der_Waal_Energy-OPLS-2005>
134.497711181641

> <r_mmod_Electrostatic_Energy-OPLS-2005>
-542.721740722656

> <r_mmod_Solvation_Energy-OPLS-2005>
-216.067657470703

> <b_mmod_Minimization_Converged-OPLS-2005>
0

> <r_mmod_RMS_Derivative-OPLS-2005>
9.00519752502441

$$$$
91
                    3D
 Structure written by MMmdl.
157165  0  0  1  0            999 V2000
  -30.6112  -14.7301   20.4623 C   0  0  0  0  0  0
  -30.4333  -12.4461   19.4718 C   0  0  0  0  0  0
  -29.5103  -12.5080   18.2348 C   0  0  0  0  0  0
  -28.0360  -12.3323   18.6484 C   0  0  0  0  0  0
  -27.6436  -13.2287   19.8531 C   0  0  2  0  0  0
  -28.6877  -13.1537   20.9886 C   0  0  0  0  0  0
  -25.2517  -13.8192   20.5690 C   0  0  0  0  0  0
  -24.1806  -13.0441   20.9206 C   0  0  0  0  0  0
  -24.6393  -11.6917   20.8747 C   0  0  0  0  0  0
  -23.9068  -10.4295   21.0406 C   0  0  0  0  0  0
  -24.3621   -9.4209   21.9183 C   0  0  0  0  0  0
  -23.6298   -8.2244   22.0752 C   0  0  0  0  0  0
  -22.4281   -8.0282   21.3542 C   0  0  0  0  0  0
  -21.9916   -9.0255   20.4644 C   0  0  0  0  0  0
  -22.7242  -10.2136   20.3053 C   0  0  0  0  0  0
  -21.6855   -6.0739   22.5278 C   0  0  0  0  0  0
  -21.4016   -6.5641   23.8213 C   0  0  0  0  0  0
  -21.3659   -5.6793   24.9174 C   0  0  0  0  0  0
  -21.6044   -4.3056   24.7223 C   0  0  0  0  0  0
  -21.8820   -3.8150   23.4343 C   0  0  0  0  0  0
  -21.9195   -4.6967   22.3401 C   0  0  0  0  0  0
  -22.7829  -13.5224   21.1872 C   0  0  0  0  0  0
  -22.1661   -4.2152   21.0978 F   0  0  0  0  0  0
  -21.5631   -3.4537   25.7733 F   0  0  0  0  0  0
  -29.9904  -13.5033   20.4089 N   0  0  0  0  0  0
  -26.2943  -12.9390   20.3287 N   0  0  0  0  0  0
  -25.9323  -11.6536   20.5755 N   0  0  0  0  0  0
  -22.0473  -12.8211   22.0424 N   0  0  0  0  0  0
  -25.4215  -15.1916   20.4096 N   0  0  0  0  0  0
  -31.7957  -14.8376   20.1344 O   0  0  0  0  0  0
  -21.6641   -6.8881   21.4240 O   0  0  0  0  0  0
  -22.3510  -14.5529   20.6721 O   0  0  0  0  0  0
  -24.6303  -31.8553   23.1973 C   0  0  0  0  0  0
  -25.9130  -32.4752   23.8323 C   0  0  1  0  0  0
  -27.2221  -27.2657   20.1218 C   0  0  0  0  0  0
  -25.5928  -33.8555   24.2251 N   0  0  0  0  0  0
  -23.4259  -30.4773   21.5410 C   0  0  2  0  0  0
  -24.8710  -28.9220   20.1101 C   0  0  0  0  0  0
  -22.7495  -29.4601   22.4916 C   0  0  0  0  0  0
  -18.0288  -28.1385   22.8485 C   0  0  0  0  0  0
  -24.1489  -36.7284   23.2641 C   0  0  0  0  0  0
  -25.9705  -30.7694   21.3750 C   0  0  0  0  0  0
  -26.0412  -29.3916   20.7177 C   0  0  0  0  0  0
  -27.2152  -28.5750   20.7121 C   0  0  0  0  0  0
  -26.0227  -26.8560   19.4958 C   0  0  0  0  0  0
  -24.8667  -27.6625   19.4911 C   0  0  0  0  0  0
  -23.6425  -29.8092   20.1575 C   0  0  0  0  0  0
  -25.4116  -36.3069   24.0326 C   0  0  1  0  0  0
  -20.5892  -28.3693   23.1273 C   0  0  2  0  0  0
  -20.6776  -26.9414   22.5409 C   0  0  0  0  0  0
  -19.5752  -26.6382   21.5211 C   0  0  0  0  0  0
  -18.1932  -26.7926   22.1623 C   0  0  0  0  0  0
  -19.1542  -28.8856   23.2871 C   0  0  0  0  0  0
  -18.9465  -30.1456   23.8892 C   0  0  0  0  0  0
  -17.6465  -30.6587   24.0562 C   0  0  0  0  0  0
  -25.9056  -34.9439   23.5093 C   0  0  0  0  0  0
  -16.5356  -29.9087   23.6328 C   0  0  0  0  0  0
  -16.7275  -28.6502   23.0353 C   0  0  0  0  0  0
  -26.4501  -31.6577   25.0713 C   0  0  0  0  0  0
  -25.3724  -31.3730   26.1434 C   0  0  0  0  0  0
  -27.0350  -30.2994   24.6198 C   0  0  0  0  0  0
  -27.6049  -32.4324   25.7491 C   0  0  0  0  0  0
  -27.5579  -37.1798   24.8466 C   0  0  0  0  0  0
  -21.4202  -29.3042   22.3663 N   0  0  0  0  0  0
  -26.4290  -37.3768   23.9408 N   0  0  0  0  0  0
  -24.6949  -31.0524   22.0942 N   0  0  0  0  0  0
  -23.4199  -28.8147   23.3016 O   0  0  0  0  0  0
  -28.3548  -26.4230   20.1909 O   0  0  0  0  0  0
  -26.5634  -34.8917   22.4665 O   0  0  0  0  0  0
  -23.5455  -32.1376   23.7274 O   0  0  0  0  0  0
  -28.5372  -21.1145   20.7216 C   0  0  0  0  0  0
  -29.3518  -20.0412   20.3476 C   0  0  0  0  0  0
  -30.4677  -20.6965   19.7254 C   0  0  0  0  0  0
  -30.3066  -22.0714   19.8040 C   0  0  0  0  0  0
  -31.6483  -19.9956   19.0980 C   0  0  0  0  0  0
  -31.2526  -23.1524   19.3748 C   0  0  0  0  0  0
  -29.0688  -18.4729   20.5352 C   0  0  0  0  0  0
  -28.5440  -23.7718   20.7801 C   0  0  0  0  0  0
  -30.2194  -17.3307   20.4957 C   0  0  0  0  0  0
  -28.4082  -24.9918   19.7249 C   0  0  0  0  0  0
  -29.0831  -22.3819   20.3951 N   0  0  0  0  0  0
  -29.8351  -15.8589   20.6703 N   0  0  0  0  0  0
  -31.4745  -12.5712   19.1694 H   0  0  0  0  0  0
  -30.3764  -11.4670   19.9500 H   0  0  0  0  0  0
  -29.7916  -11.7379   17.5155 H   0  0  0  0  0  0
  -29.6386  -13.4647   17.7255 H   0  0  0  0  0  0
  -27.8920  -11.2834   18.9093 H   0  0  0  0  0  0
  -27.3784  -12.5267   17.8003 H   0  0  0  0  0  0
  -27.6414  -14.2520   19.4777 H   0  0  0  0  0  0
  -28.7193  -12.1534   21.4227 H   0  0  0  0  0  0
  -28.4251  -13.8317   21.8024 H   0  0  0  0  0  0
  -25.2765   -9.5688   22.4758 H   0  0  0  0  0  0
  -24.0012   -7.4632   22.7468 H   0  0  0  0  0  0
  -21.0850   -8.8773   19.8947 H   0  0  0  0  0  0
  -22.3700  -10.9676   19.6164 H   0  0  0  0  0  0
  -21.2005   -7.6149   23.9720 H   0  0  0  0  0  0
  -21.1481   -6.0519   25.9078 H   0  0  0  0  0  0
  -22.0600   -2.7612   23.2840 H   0  0  0  0  0  0
  -22.4090  -11.9874   22.4812 H   0  0  0  0  0  0
  -21.1088  -13.1231   22.2628 H   0  0  0  0  0  0
  -24.6531  -15.8450   20.5156 H   0  0  0  0  0  0
  -26.2645  -15.6285   20.0599 H   0  0  0  0  0  0
  -26.7195  -32.5401   23.1063 H   0  0  0  0  0  0
  -25.0063  -33.9693   25.0389 H   0  0  0  0  0  0
  -22.7218  -31.2991   21.3946 H   0  0  0  0  0  0
  -23.3751  -35.9616   23.3301 H   0  0  0  0  0  0
  -24.3579  -36.8910   22.2055 H   0  0  0  0  0  0
  -23.7243  -37.6484   23.6669 H   0  0  0  0  0  0
  -26.1089  -31.5296   20.6049 H   0  0  0  0  0  0
  -26.8485  -30.8182   22.0077 H   0  0  0  0  0  0
  -28.1131  -28.9321   21.1969 H   0  0  0  0  0  0
  -25.9299  -25.8947   19.0182 H   0  0  0  0  0  0
  -23.9675  -27.2959   19.0151 H   0  0  0  0  0  0
  -23.7674  -30.5843   19.4004 H   0  0  0  0  0  0
  -22.7605  -29.2427   19.8533 H   0  0  0  0  0  0
  -25.1298  -36.1916   25.0819 H   0  0  0  0  0  0
  -20.9983  -28.3270   24.1394 H   0  0  0  0  0  0
  -20.5672  -26.2306   23.3612 H   0  0  0  0  0  0
  -21.6644  -26.7436   22.1206 H   0  0  0  0  0  0
  -19.6917  -25.6291   21.1243 H   0  0  0  0  0  0
  -19.6689  -27.3189   20.6739 H   0  0  0  0  0  0
  -17.4202  -26.6669   21.4025 H   0  0  0  0  0  0
  -18.0335  -26.0068   22.9021 H   0  0  0  0  0  0
  -19.7942  -30.7270   24.2261 H   0  0  0  0  0  0
  -17.5021  -31.6267   24.5164 H   0  0  0  0  0  0
  -15.5356  -30.2991   23.7652 H   0  0  0  0  0  0
  -15.8673  -28.0819   22.7076 H   0  0  0  0  0  0
  -24.5901  -30.7075   25.7765 H   0  0  0  0  0  0
  -24.8914  -32.2900   26.4845 H   0  0  0  0  0  0
  -25.8042  -30.8919   27.0219 H   0  0  0  0  0  0
  -26.2933  -29.6735   24.1219 H   0  0  0  0  0  0
  -27.4028  -29.7261   25.4718 H   0  0  0  0  0  0
  -27.8811  -30.4267   23.9442 H   0  0  0  0  0  0
  -27.2647  -33.3628   26.2053 H   0  0  0  0  0  0
  -28.3868  -32.6880   25.0326 H   0  0  0  0  0  0
  -28.0708  -31.8460   26.5421 H   0  0  0  0  0  0
  -28.2595  -38.0096   24.7508 H   0  0  0  0  0  0
  -28.1075  -36.2625   24.6297 H   0  0  0  0  0  0
  -27.2297  -37.1452   25.8870 H   0  0  0  0  0  0
  -20.9388  -29.8767   21.6871 H   0  0  0  0  0  0
  -26.0168  -38.2842   24.1403 H   0  0  0  0  0  0
  -27.5825  -21.0865   21.2319 H   0  0  0  0  0  0
  -31.3089  -19.2701   18.3592 H   0  0  0  0  0  0
  -32.2325  -19.4756   19.8576 H   0  0  0  0  0  0
  -32.3107  -20.6890   18.5817 H   0  0  0  0  0  0
  -32.2846  -22.8035   19.3792 H   0  0  0  0  0  0
  -31.2179  -24.0104   20.0459 H   0  0  0  0  0  0
  -31.0220  -23.4931   18.3654 H   0  0  0  0  0  0
  -28.3287  -18.2150   19.7772 H   0  0  0  0  0  0
  -28.5423  -18.3747   21.4849 H   0  0  0  0  0  0
  -27.5707  -23.6274   21.2493 H   0  0  0  0  0  0
  -29.1886  -24.1239   21.5856 H   0  0  0  0  0  0
  -30.9662  -17.5649   21.2553 H   0  0  0  0  0  0
  -30.7390  -17.3969   19.5405 H   0  0  0  0  0  0
  -27.6178  -24.7484   19.0210 H   0  0  0  0  0  0
  -29.2968  -24.9747   19.0987 H   0  0  0  0  0  0
  -28.8712  -15.6774   20.9063 H   0  0  0  0  0  0
  1 25  1  0  0  0
  1 30  2  0  0  0
  1 82  1  0  0  0
  2  3  1  0  0  0
  2 25  1  0  0  0
  2 83  1  0  0  0
  2 84  1  0  0  0
  3  4  1  0  0  0
  3 85  1  0  0  0
  3 86  1  0  0  0
  4  5  1  0  0  0
  4 87  1  0  0  0
  4 88  1  0  0  0
  5  6  1  0  0  0
  5 26  1  0  0  0
  5 89  1  0  0  0
  6 25  1  0  0  0
  6 90  1  0  0  0
  6 91  1  0  0  0
  7  8  2  0  0  0
  7 26  1  0  0  0
  7 29  1  0  0  0
  8  9  1  0  0  0
  8 22  1  0  0  0
  9 10  1  0  0  0
  9 27  2  0  0  0
 10 11  2  0  0  0
 10 15  1  0  0  0
 11 12  1  0  0  0
 11 92  1  0  0  0
 12 13  2  0  0  0
 12 93  1  0  0  0
 13 14  1  0  0  0
 13 31  1  0  0  0
 14 15  2  0  0  0
 14 94  1  0  0  0
 15 95  1  0  0  0
 16 17  2  0  0  0
 16 21  1  0  0  0
 16 31  1  0  0  0
 17 18  1  0  0  0
 17 96  1  0  0  0
 18 19  2  0  0  0
 18 97  1  0  0  0
 19 20  1  0  0  0
 19 24  1  0  0  0
 20 21  2  0  0  0
 20 98  1  0  0  0
 21 23  1  0  0  0
 22 28  1  0  0  0
 22 32  2  0  0  0
 26 27  1  0  0  0
 28 99  1  0  0  0
 28100  1  0  0  0
 29101  1  0  0  0
 29102  1  0  0  0
 33 34  1  0  0  0
 33 66  1  0  0  0
 33 70  2  0  0  0
 34 36  1  0  0  0
 34 59  1  0  0  0
 34103  1  0  0  0
 35 44  2  0  0  0
 35 45  1  0  0  0
 35 68  1  0  0  0
 36 56  1  0  0  0
 36104  1  0  0  0
 37 39  1  0  0  0
 37 47  1  0  0  0
 37 66  1  0  0  0
 37105  1  0  0  0
 38 43  2  0  0  0
 38 46  1  0  0  0
 38 47  1  0  0  0
 39 64  1  0  0  0
 39 67  2  0  0  0
 40 52  1  0  0  0
 40 53  2  0  0  0
 40 58  1  0  0  0
 41106  1  0  0  0
 41107  1  0  0  0
 41108  1  0  0  0
 41 48  1  0  0  0
 42 43  1  0  0  0
 42 66  1  0  0  0
 42109  1  0  0  0
 42110  1  0  0  0
 43 44  1  0  0  0
 44111  1  0  0  0
 45 46  2  0  0  0
 45112  1  0  0  0
 46113  1  0  0  0
 47114  1  0  0  0
 47115  1  0  0  0
 48 56  1  0  0  0
 48 65  1  0  0  0
 48116  1  0  0  0
 49 50  1  0  0  0
 49 53  1  0  0  0
 49 64  1  0  0  0
 49117  1  0  0  0
 50 51  1  0  0  0
 50118  1  0  0  0
 50119  1  0  0  0
 51 52  1  0  0  0
 51120  1  0  0  0
 51121  1  0  0  0
 52122  1  0  0  0
 52123  1  0  0  0
 53 54  1  0  0  0
 54 55  2  0  0  0
 54124  1  0  0  0
 55 57  1  0  0  0
 55125  1  0  0  0
 56 69  2  0  0  0
 57 58  2  0  0  0
 57126  1  0  0  0
 58127  1  0  0  0
 59 60  1  0  0  0
 59 61  1  0  0  0
 59 62  1  0  0  0
 60128  1  0  0  0
 60129  1  0  0  0
 60130  1  0  0  0
 61131  1  0  0  0
 61132  1  0  0  0
 61133  1  0  0  0
 62134  1  0  0  0
 62135  1  0  0  0
 62136  1  0  0  0
 63 65  1  0  0  0
 63137  1  0  0  0
 63138  1  0  0  0
 63139  1  0  0  0
 64140  1  0  0  0
 65141  1  0  0  0
 68 80  1  0  0  0
 71 72  2  0  0  0
 71 81  1  0  0  0
 71142  1  0  0  0
 72 73  1  0  0  0
 72 77  1  0  0  0
 73 74  2  0  0  0
 73 75  1  0  0  0
 74 76  1  0  0  0
 74 81  1  0  0  0
 75143  1  0  0  0
 75144  1  0  0  0
 75145  1  0  0  0
 76146  1  0  0  0
 76147  1  0  0  0
 76148  1  0  0  0
 77 79  1  0  0  0
 77149  1  0  0  0
 77150  1  0  0  0
 78 80  1  0  0  0
 78 81  1  0  0  0
 78151  1  0  0  0
 78152  1  0  0  0
 79 82  1  0  0  0
 79153  1  0  0  0
 79154  1  0  0  0
 80155  1  0  0  0
 80156  1  0  0  0
 82157  1  0  0  0
M  ISO  4   1 100  68 101  80 101  82 100
M  END
> <chiral flag>
0

> <version>
0

> <s_m_source_file>
/data/baiqing/PycharmProjects/Reinvent-master-3.2/result/LINK_invent/BTK/process_docking_weight1_custom_sum_contain_oxygen_bond_distance_aromatic_linkinvent_7_9_3/rearranged_h_0103.sdf

> <i_m_source_file_index>
92

> <r_mmod_Potential_Energy-OPLS-2005>
88.7981491088867

> <r_mmod_Stretch_Energy-OPLS-2005>
119.155494689941

> <r_mmod_Bend_Energy-OPLS-2005>
180.300445556641

> <r_mmod_Torsional_Energy-OPLS-2005>
207.77326965332

> <r_mmod_Improper_Torsional_Energy-OPLS-2005>
5.89163446426392

> <r_mmod_Van_der_Waal_Energy-OPLS-2005>
117.041526794434

> <r_mmod_Electrostatic_Energy-OPLS-2005>
-400.261352539062

> <r_mmod_Solvation_Energy-OPLS-2005>
-218.53434753418

> <b_mmod_Minimization_Converged-OPLS-2005>
0

> <r_mmod_RMS_Derivative-OPLS-2005>
0.556785702705383

$$$$
92
                    3D
 Structure written by MMmdl.
161169  0  0  1  0            999 V2000
  -30.4645  -15.0448   20.3805 C   0  0  0  0  0  0
  -30.4595  -12.6533   19.4703 C   0  0  0  0  0  0
  -29.5271  -12.5206   18.2410 C   0  0  0  0  0  0
  -28.0616  -12.2960   18.6651 C   0  0  0  0  0  0
  -27.6238  -13.2395   19.8174 C   0  0  2  0  0  0
  -28.6771  -13.2946   20.9415 C   0  0  0  0  0  0
  -25.2456  -13.8158   20.5665 C   0  0  0  0  0  0
  -24.1796  -13.0409   20.9259 C   0  0  0  0  0  0
  -24.6395  -11.6893   20.8770 C   0  0  0  0  0  0
  -23.9072  -10.4280   21.0414 C   0  0  0  0  0  0
  -24.3615   -9.4194   21.9186 C   0  0  0  0  0  0
  -23.6306   -8.2218   22.0745 C   0  0  0  0  0  0
  -22.4287   -8.0247   21.3537 C   0  0  0  0  0  0
  -21.9918   -9.0219   20.4637 C   0  0  0  0  0  0
  -22.7238  -10.2105   20.3060 C   0  0  0  0  0  0
  -21.6857   -6.0723   22.5288 C   0  0  0  0  0  0
  -21.4008   -6.5631   23.8219 C   0  0  0  0  0  0
  -21.3652   -5.6777   24.9184 C   0  0  0  0  0  0
  -21.6053   -4.3044   24.7232 C   0  0  0  0  0  0
  -21.8827   -3.8133   23.4354 C   0  0  0  0  0  0
  -21.9197   -4.6954   22.3411 C   0  0  0  0  0  0
  -22.7803  -13.5188   21.1900 C   0  0  0  0  0  0
  -22.1656   -4.2132   21.0992 F   0  0  0  0  0  0
  -21.5625   -3.4535   25.7753 F   0  0  0  0  0  0
  -29.9295  -13.7519   20.3221 N   0  0  0  0  0  0
  -26.2868  -12.9374   20.3150 N   0  0  0  0  0  0
  -25.9323  -11.6524   20.5717 N   0  0  0  0  0  0
  -22.0427  -12.8195   22.0448 N   0  0  0  0  0  0
  -25.4052  -15.1884   20.3963 N   0  0  0  0  0  0
  -31.6923  -15.1536   20.3046 O   0  0  0  0  0  0
  -21.6641   -6.8858   21.4240 O   0  0  0  0  0  0
  -22.3509  -14.5475   20.6694 O   0  0  0  0  0  0
  -24.6502  -31.8365   23.1815 C   0  0  0  0  0  0
  -25.9249  -32.4647   23.8224 C   0  0  1  0  0  0
  -27.2300  -27.0735   20.1669 C   0  0  0  0  0  0
  -25.5994  -33.8460   24.2146 N   0  0  0  0  0  0
  -23.4569  -30.4475   21.5311 C   0  0  2  0  0  0
  -24.9065  -28.8533   20.1244 C   0  0  0  0  0  0
  -22.7602  -29.4471   22.4871 C   0  0  0  0  0  0
  -18.0318  -28.1376   22.8458 C   0  0  0  0  0  0
  -24.1489  -36.7210   23.2644 C   0  0  0  0  0  0
  -26.0177  -30.6889   21.3886 C   0  0  0  0  0  0
  -26.0886  -29.2906   20.7374 C   0  0  0  0  0  0
  -27.2519  -28.4207   20.7322 C   0  0  0  0  0  0
  -26.0168  -26.7438   19.5284 C   0  0  0  0  0  0
  -24.8864  -27.5934   19.5031 C   0  0  0  0  0  0
  -23.6856  -29.7624   20.1571 C   0  0  0  0  0  0
  -25.4127  -36.2983   24.0304 C   0  0  1  0  0  0
  -20.5930  -28.3688   23.1232 C   0  0  2  0  0  0
  -20.6785  -26.9387   22.5403 C   0  0  0  0  0  0
  -19.5762  -26.6357   21.5204 C   0  0  0  0  0  0
  -18.1943  -26.7917   22.1606 C   0  0  0  0  0  0
  -19.1572  -28.8864   23.2818 C   0  0  0  0  0  0
  -18.9485  -30.1479   23.8805 C   0  0  0  0  0  0
  -17.6468  -30.6568   24.0537 C   0  0  0  0  0  0
  -25.9089  -34.9370   23.5030 C   0  0  0  0  0  0
  -16.5364  -29.9039   23.6350 C   0  0  0  0  0  0
  -16.7294  -28.6477   23.0342 C   0  0  0  0  0  0
  -26.4560  -31.6546   25.0700 C   0  0  0  0  0  0
  -25.3739  -31.3782   26.1399 C   0  0  0  0  0  0
  -27.0457  -30.2922   24.6369 C   0  0  0  0  0  0
  -27.6076  -32.4341   25.7482 C   0  0  0  0  0  0
  -27.5563  -37.1750   24.8464 C   0  0  0  0  0  0
  -21.4293  -29.3016   22.3619 N   0  0  0  0  0  0
  -26.4262  -37.3719   23.9425 N   0  0  0  0  0  0
  -24.7284  -31.0151   22.0877 N   0  0  0  0  0  0
  -23.4212  -28.8046   23.3065 O   0  0  0  0  0  0
  -28.2964  -26.0857   20.1001 O   0  0  0  0  0  0
  -26.5659  -34.8885   22.4591 O   0  0  0  0  0  0
  -23.5607  -32.1260   23.6985 O   0  0  0  0  0  0
  -27.9230  -22.9393   18.7358 C   0  0  0  0  0  0
  -29.1528  -21.8834   20.5150 C   0  0  0  0  0  0
  -28.5113  -23.1467   19.9972 C   0  0  0  0  0  0
  -27.9460  -21.6690   18.1123 C   0  0  0  0  0  0
  -29.1396  -20.5435   19.8337 C   0  0  0  0  0  0
  -28.4311  -21.3445   15.6370 C   0  0  0  0  0  0
  -29.1762  -24.7579   21.9481 C   0  0  0  0  0  0
  -31.5156  -19.5758   20.2747 C   0  0  0  0  0  0
  -27.3530  -21.4854   16.7256 C   0  0  0  0  0  0
  -28.2534  -24.6385   20.7316 C   0  0  1  0  0  0
  -30.0701  -19.1342   19.9883 C   0  0  1  0  0  0
  -28.4942  -20.5460   18.6434 N   0  0  0  0  0  0
  -29.5802  -16.1458   20.1453 N   0  0  0  0  0  0
  -29.8184  -17.7549   20.7618 N   0  3  0  0  0  0
  -31.4767  -12.8703   19.1417 H   0  0  0  0  0  0
  -30.5029  -11.7138   20.0263 H   0  0  0  0  0  0
  -29.8647  -11.6998   17.6071 H   0  0  0  0  0  0
  -29.5946  -13.4248   17.6360 H   0  0  0  0  0  0
  -27.9707  -11.2582   18.9861 H   0  0  0  0  0  0
  -27.3971  -12.4059   17.8060 H   0  0  0  0  0  0
  -27.5698  -14.2339   19.3770 H   0  0  0  0  0  0
  -28.7992  -12.3173   21.4111 H   0  0  0  0  0  0
  -28.3685  -13.9833   21.7285 H   0  0  0  0  0  0
  -25.2748   -9.5687   22.4773 H   0  0  0  0  0  0
  -24.0027   -7.4613   22.7450 H   0  0  0  0  0  0
  -21.0858   -8.8729   19.8932 H   0  0  0  0  0  0
  -22.3682  -10.9640   19.6179 H   0  0  0  0  0  0
  -21.1977   -7.6139   23.9716 H   0  0  0  0  0  0
  -21.1474   -6.0515   25.9089 H   0  0  0  0  0  0
  -22.0616   -2.7597   23.2879 H   0  0  0  0  0  0
  -22.4036  -11.9896   22.4909 H   0  0  0  0  0  0
  -21.1006  -13.1175   22.2534 H   0  0  0  0  0  0
  -24.5979  -15.8025   20.4369 H   0  0  0  0  0  0
  -26.1853  -15.6006   19.9045 H   0  0  0  0  0  0
  -26.7309  -32.5218   23.0942 H   0  0  0  0  0  0
  -25.0234  -33.9599   25.0356 H   0  0  0  0  0  0
  -22.7634  -31.2742   21.3644 H   0  0  0  0  0  0
  -23.3762  -35.9524   23.3270 H   0  0  0  0  0  0
  -24.3587  -36.8888   22.2067 H   0  0  0  0  0  0
  -23.7224  -37.6385   23.6711 H   0  0  0  0  0  0
  -26.1854  -31.4358   20.6116 H   0  0  0  0  0  0
  -26.8839  -30.7391   22.0365 H   0  0  0  0  0  0
  -28.1596  -28.7653   21.2063 H   0  0  0  0  0  0
  -25.9359  -25.7800   19.0469 H   0  0  0  0  0  0
  -23.9870  -27.2498   19.0114 H   0  0  0  0  0  0
  -23.8216  -30.5256   19.3910 H   0  0  0  0  0  0
  -22.8014  -29.2026   19.8481 H   0  0  0  0  0  0
  -25.1306  -36.1776   25.0788 H   0  0  0  0  0  0
  -21.0004  -28.3258   24.1357 H   0  0  0  0  0  0
  -20.5672  -26.2299   23.3623 H   0  0  0  0  0  0
  -21.6646  -26.7379   22.1201 H   0  0  0  0  0  0
  -19.6915  -25.6266   21.1246 H   0  0  0  0  0  0
  -19.6693  -27.3159   20.6726 H   0  0  0  0  0  0
  -17.4217  -26.6669   21.4003 H   0  0  0  0  0  0
  -18.0303  -26.0069   22.9002 H   0  0  0  0  0  0
  -19.7967  -30.7334   24.2082 H   0  0  0  0  0  0
  -17.5023  -31.6234   24.5163 H   0  0  0  0  0  0
  -15.5361  -30.2891   23.7758 H   0  0  0  0  0  0
  -15.8698  -28.0785   22.7059 H   0  0  0  0  0  0
  -24.5914  -30.7130   25.7740 H   0  0  0  0  0  0
  -24.8954  -32.2994   26.4725 H   0  0  0  0  0  0
  -25.8026  -30.9028   27.0231 H   0  0  0  0  0  0
  -26.3120  -29.6607   24.1357 H   0  0  0  0  0  0
  -27.4014  -29.7264   25.4994 H   0  0  0  0  0  0
  -27.9032  -30.4130   23.9748 H   0  0  0  0  0  0
  -27.2659  -33.3694   26.1912 H   0  0  0  0  0  0
  -28.3952  -32.6813   25.0354 H   0  0  0  0  0  0
  -28.0653  -31.8564   26.5520 H   0  0  0  0  0  0
  -28.2540  -38.0088   24.7538 H   0  0  0  0  0  0
  -28.1098  -36.2613   24.6228 H   0  0  0  0  0  0
  -27.2301  -37.1311   25.8875 H   0  0  0  0  0  0
  -20.9527  -29.8726   21.6778 H   0  0  0  0  0  0
  -26.0101  -38.2762   24.1479 H   0  0  0  0  0  0
  -27.4244  -23.7657   18.2466 H   0  0  0  0  0  0
  -29.6888  -21.9503   21.4512 H   0  0  0  0  0  0
  -27.9771  -21.2333   14.6515 H   0  0  0  0  0  0
  -29.0604  -20.4685   15.8089 H   0  0  0  0  0  0
  -29.0786  -22.2221   15.6106 H   0  0  0  0  0  0
  -29.0476  -23.9212   22.6354 H   0  0  0  0  0  0
  -28.9774  -25.6731   22.5055 H   0  0  0  0  0  0
  -30.2215  -24.7791   21.6402 H   0  0  0  0  0  0
  -31.8588  -20.2858   19.5232 H   0  0  0  0  0  0
  -32.2145  -18.7373   20.2662 H   0  0  0  0  0  0
  -31.5885  -20.0756   21.2423 H   0  0  0  0  0  0
  -26.7065  -22.3290   16.4857 H   0  0  0  0  0  0
  -26.7121  -20.6026   16.7292 H   0  0  0  0  0  0
  -27.2435  -24.5489   21.1326 H   0  0  0  0  0  0
  -30.1048  -18.7655   18.9623 H   0  0  0  0  0  0
  -28.6110  -15.9308   19.9871 H   0  0  0  0  0  0
  -30.5832  -17.6885   21.4131 H   0  0  0  0  0  0
  -29.0173  -17.9503   21.3396 H   0  0  0  0  0  0
  1 25  1  0  0  0
  1 30  2  0  0  0
  1 83  1  0  0  0
  2  3  1  0  0  0
  2 25  1  0  0  0
  2 85  1  0  0  0
  2 86  1  0  0  0
  3  4  1  0  0  0
  3 87  1  0  0  0
  3 88  1  0  0  0
  4  5  1  0  0  0
  4 89  1  0  0  0
  4 90  1  0  0  0
  5  6  1  0  0  0
  5 26  1  0  0  0
  5 91  1  0  0  0
  6 25  1  0  0  0
  6 92  1  0  0  0
  6 93  1  0  0  0
  7  8  2  0  0  0
  7 26  1  0  0  0
  7 29  1  0  0  0
  8  9  1  0  0  0
  8 22  1  0  0  0
  9 10  1  0  0  0
  9 27  2  0  0  0
 10 11  2  0  0  0
 10 15  1  0  0  0
 11 12  1  0  0  0
 11 94  1  0  0  0
 12 13  2  0  0  0
 12 95  1  0  0  0
 13 14  1  0  0  0
 13 31  1  0  0  0
 14 15  2  0  0  0
 14 96  1  0  0  0
 15 97  1  0  0  0
 16 17  2  0  0  0
 16 21  1  0  0  0
 16 31  1  0  0  0
 17 18  1  0  0  0
 17 98  1  0  0  0
 18 19  2  0  0  0
 18 99  1  0  0  0
 19 20  1  0  0  0
 19 24  1  0  0  0
 20 21  2  0  0  0
 20100  1  0  0  0
 21 23  1  0  0  0
 22 28  1  0  0  0
 22 32  2  0  0  0
 26 27  1  0  0  0
 28101  1  0  0  0
 28102  1  0  0  0
 29103  1  0  0  0
 29104  1  0  0  0
 33 34  1  0  0  0
 33 66  1  0  0  0
 33 70  2  0  0  0
 34 36  1  0  0  0
 34 59  1  0  0  0
 34105  1  0  0  0
 35 44  2  0  0  0
 35 45  1  0  0  0
 35 68  1  0  0  0
 36 56  1  0  0  0
 36106  1  0  0  0
 37 39  1  0  0  0
 37 47  1  0  0  0
 37 66  1  0  0  0
 37107  1  0  0  0
 38 43  2  0  0  0
 38 46  1  0  0  0
 38 47  1  0  0  0
 39 64  1  0  0  0
 39 67  2  0  0  0
 40 52  1  0  0  0
 40 53  2  0  0  0
 40 58  1  0  0  0
 41108  1  0  0  0
 41109  1  0  0  0
 41110  1  0  0  0
 41 48  1  0  0  0
 42 43  1  0  0  0
 42 66  1  0  0  0
 42111  1  0  0  0
 42112  1  0  0  0
 43 44  1  0  0  0
 44113  1  0  0  0
 45 46  2  0  0  0
 45114  1  0  0  0
 46115  1  0  0  0
 47116  1  0  0  0
 47117  1  0  0  0
 48 56  1  0  0  0
 48 65  1  0  0  0
 48118  1  0  0  0
 49 50  1  0  0  0
 49 53  1  0  0  0
 49 64  1  0  0  0
 49119  1  0  0  0
 50 51  1  0  0  0
 50120  1  0  0  0
 50121  1  0  0  0
 51 52  1  0  0  0
 51122  1  0  0  0
 51123  1  0  0  0
 52124  1  0  0  0
 52125  1  0  0  0
 53 54  1  0  0  0
 54 55  2  0  0  0
 54126  1  0  0  0
 55 57  1  0  0  0
 55127  1  0  0  0
 56 69  2  0  0  0
 57 58  2  0  0  0
 57128  1  0  0  0
 58129  1  0  0  0
 59 60  1  0  0  0
 59 61  1  0  0  0
 59 62  1  0  0  0
 60130  1  0  0  0
 60131  1  0  0  0
 60132  1  0  0  0
 61133  1  0  0  0
 61134  1  0  0  0
 61135  1  0  0  0
 62136  1  0  0  0
 62137  1  0  0  0
 62138  1  0  0  0
 63 65  1  0  0  0
 63139  1  0  0  0
 63140  1  0  0  0
 63141  1  0  0  0
 64142  1  0  0  0
 65143  1  0  0  0
 68 80  1  0  0  0
 71 73  2  0  0  0
 71 74  1  0  0  0
 71144  1  0  0  0
 72 73  1  0  0  0
 72 75  2  0  0  0
 72145  1  0  0  0
 73 80  1  0  0  0
 74 79  1  0  0  0
 74 82  2  0  0  0
 75 81  1  0  0  0
 75 82  1  0  0  0
 76 79  1  0  0  0
 76146  1  0  0  0
 76147  1  0  0  0
 76148  1  0  0  0
 77149  1  0  0  0
 77150  1  0  0  0
 77151  1  0  0  0
 77 80  1  0  0  0
 78152  1  0  0  0
 78153  1  0  0  0
 78154  1  0  0  0
 78 81  1  0  0  0
 79155  1  0  0  0
 79156  1  0  0  0
 80157  1  0  0  0
 81 84  1  0  0  0
 81158  1  0  0  0
 83 84  1  0  0  0
 83159  1  0  0  0
 84160  1  0  0  0
 84161  1  0  0  0
M  CHG  1  84   1
M  ISO  4   1 100  68 101  80 101  83 100
M  END
> <chiral flag>
0

> <version>
0

> <s_m_source_file>
/data/baiqing/PycharmProjects/Reinvent-master-3.2/result/LINK_invent/BTK/process_docking_weight1_custom_sum_contain_oxygen_bond_distance_aromatic_linkinvent_7_9_3/rearranged_h_0103.sdf

> <i_m_source_file_index>
93

> <r_mmod_Potential_Energy-OPLS-2005>
292.367309570312

> <r_mmod_Stretch_Energy-OPLS-2005>
348.365997314453

> <r_mmod_Bend_Energy-OPLS-2005>
359.796966552734

> <r_mmod_Torsional_Energy-OPLS-2005>
268.632415771484

> <r_mmod_Improper_Torsional_Energy-OPLS-2005>
16.1028861999512

> <r_mmod_Van_der_Waal_Energy-OPLS-2005>
120.138442993164

> <r_mmod_Electrostatic_Energy-OPLS-2005>
-596.781921386719

> <r_mmod_Solvation_Energy-OPLS-2005>
-487.554992675781

> <b_mmod_Minimization_Converged-OPLS-2005>
0

> <r_mmod_RMS_Derivative-OPLS-2005>
3.24996328353882

$$$$
93
                    3D
 Structure written by MMmdl.
175183  0  0  1  0            999 V2000
  -30.6027  -14.7375   20.4921 C   0  0  0  0  0  0
  -30.4396  -12.4606   19.4574 C   0  0  0  0  0  0
  -29.5083  -12.5084   18.2262 C   0  0  0  0  0  0
  -28.0352  -12.3296   18.6446 C   0  0  0  0  0  0
  -27.6427  -13.2257   19.8494 C   0  0  2  0  0  0
  -28.6893  -13.1443   20.9797 C   0  0  0  0  0  0
  -25.2528  -13.8181   20.5692 C   0  0  0  0  0  0
  -24.1812  -13.0437   20.9210 C   0  0  0  0  0  0
  -24.6391  -11.6910   20.8747 C   0  0  0  0  0  0
  -23.9060  -10.4291   21.0408 C   0  0  0  0  0  0
  -24.3608   -9.4208   21.9189 C   0  0  0  0  0  0
  -23.6285   -8.2242   22.0756 C   0  0  0  0  0  0
  -22.4273   -8.0277   21.3540 C   0  0  0  0  0  0
  -21.9909   -9.0251   20.4643 C   0  0  0  0  0  0
  -22.7235  -10.2129   20.3057 C   0  0  0  0  0  0
  -21.6851   -6.0727   22.5278 C   0  0  0  0  0  0
  -21.4014   -6.5635   23.8211 C   0  0  0  0  0  0
  -21.3660   -5.6790   24.9177 C   0  0  0  0  0  0
  -21.6046   -4.3052   24.7229 C   0  0  0  0  0  0
  -21.8819   -3.8140   23.4350 C   0  0  0  0  0  0
  -21.9194   -4.6954   22.3404 C   0  0  0  0  0  0
  -22.7832  -13.5225   21.1864 C   0  0  0  0  0  0
  -22.1666   -4.2137   21.0983 F   0  0  0  0  0  0
  -21.5624   -3.4541   25.7746 F   0  0  0  0  0  0
  -29.9862  -13.5107   20.3964 N   0  0  0  0  0  0
  -26.2946  -12.9372   20.3272 N   0  0  0  0  0  0
  -25.9319  -11.6518   20.5733 N   0  0  0  0  0  0
  -22.0479  -12.8216   22.0413 N   0  0  0  0  0  0
  -25.4229  -15.1905   20.4109 N   0  0  0  0  0  0
  -31.7979  -14.8568   20.2089 O   0  0  0  0  0  0
  -21.6637   -6.8871   21.4237 O   0  0  0  0  0  0
  -22.3531  -14.5532   20.6706 O   0  0  0  0  0  0
  -24.6314  -31.8561   23.1989 C   0  0  0  0  0  0
  -25.9150  -32.4756   23.8324 C   0  0  1  0  0  0
  -27.2234  -27.2593   20.1179 C   0  0  0  0  0  0
  -25.5932  -33.8560   24.2236 N   0  0  0  0  0  0
  -23.4277  -30.4757   21.5436 C   0  0  2  0  0  0
  -24.8747  -28.9211   20.1111 C   0  0  0  0  0  0
  -22.7505  -29.4592   22.4930 C   0  0  0  0  0  0
  -18.0290  -28.1369   22.8472 C   0  0  0  0  0  0
  -24.1507  -36.7294   23.2637 C   0  0  0  0  0  0
  -25.9727  -30.7619   21.3818 C   0  0  0  0  0  0
  -26.0454  -29.3836   20.7244 C   0  0  0  0  0  0
  -27.2224  -28.5655   20.7178 C   0  0  0  0  0  0
  -26.0262  -26.8651   19.4785 C   0  0  0  0  0  0
  -24.8698  -27.6691   19.4778 C   0  0  0  0  0  0
  -23.6450  -29.8095   20.1597 C   0  0  0  0  0  0
  -25.4131  -36.3070   24.0315 C   0  0  1  0  0  0
  -20.5890  -28.3705   23.1259 C   0  0  2  0  0  0
  -20.6796  -26.9424   22.5392 C   0  0  0  0  0  0
  -19.5775  -26.6373   21.5188 C   0  0  0  0  0  0
  -18.1949  -26.7920   22.1593 C   0  0  0  0  0  0
  -19.1538  -28.8844   23.2865 C   0  0  0  0  0  0
  -18.9473  -30.1440   23.8898 C   0  0  0  0  0  0
  -17.6469  -30.6587   24.0543 C   0  0  0  0  0  0
  -25.9061  -34.9448   23.5077 C   0  0  0  0  0  0
  -16.5358  -29.9077   23.6317 C   0  0  0  0  0  0
  -16.7282  -28.6486   23.0356 C   0  0  0  0  0  0
  -26.4510  -31.6569   25.0716 C   0  0  0  0  0  0
  -25.3709  -31.3712   26.1412 C   0  0  0  0  0  0
  -27.0383  -30.3001   24.6206 C   0  0  0  0  0  0
  -27.6052  -32.4321   25.7502 C   0  0  0  0  0  0
  -27.5598  -37.1807   24.8459 C   0  0  0  0  0  0
  -21.4208  -29.3052   22.3669 N   0  0  0  0  0  0
  -26.4308  -37.3755   23.9395 N   0  0  0  0  0  0
  -24.6962  -31.0496   22.0976 N   0  0  0  0  0  0
  -23.4206  -28.8116   23.3027 O   0  0  0  0  0  0
  -28.3263  -26.3709   20.1666 O   0  0  0  0  0  0
  -26.5636  -34.8917   22.4649 O   0  0  0  0  0  0
  -23.5472  -32.1387   23.7272 O   0  0  0  0  0  0
  -32.4830  -21.0418   21.3359 C   0  0  0  0  0  0
  -31.4055  -21.9395   21.2432 C   0  0  0  0  0  0
  -32.0765  -19.8390   20.8468 C   0  0  0  0  0  0
  -30.3255  -21.3098   20.6839 C   0  0  0  0  0  0
  -33.6619  -18.1603   21.8772 C   0  0  0  0  0  0
  -34.0986  -19.0531   19.5741 C   0  0  0  0  0  0
  -27.9289  -22.6038   23.2717 C   0  0  0  0  0  0
  -26.4621  -20.6185   22.7766 C   0  0  0  0  0  0
  -29.2395  -23.8111   20.3831 C   0  0  0  0  0  0
  -27.7575  -21.6542   20.8764 C   0  0  0  0  0  0
  -29.9265  -18.6009   20.2460 C   0  0  0  0  0  0
  -30.1525  -17.2700   21.1719 C   0  0  0  0  0  0
  -28.1078  -24.8915   19.9685 C   0  0  0  0  0  0
  -33.0035  -18.6742   20.5821 C   0  0  0  0  0  0
  -29.0736  -22.1731   20.2555 C   0  0  2  0  0  0
  -27.7563  -21.3519   22.3948 C   0  0  0  0  0  0
  -30.6834  -19.8837   20.6132 N   0  0  0  0  0  0
  -29.8064  -15.8457   20.7341 N   0  0  0  0  0  0
  -31.4765  -12.6050   19.1498 H   0  0  0  0  0  0
  -30.4021  -11.4789   19.9328 H   0  0  0  0  0  0
  -29.7882  -11.7372   17.5084 H   0  0  0  0  0  0
  -29.6301  -13.4628   17.7118 H   0  0  0  0  0  0
  -27.8937  -11.2802   18.9061 H   0  0  0  0  0  0
  -27.3739  -12.5221   17.7990 H   0  0  0  0  0  0
  -27.6409  -14.2499   19.4749 H   0  0  0  0  0  0
  -28.7280  -12.1382   21.4005 H   0  0  0  0  0  0
  -28.4240  -13.8073   21.8046 H   0  0  0  0  0  0
  -25.2752   -9.5685   22.4772 H   0  0  0  0  0  0
  -23.9990   -7.4635   22.7485 H   0  0  0  0  0  0
  -21.0835   -8.8763   19.8949 H   0  0  0  0  0  0
  -22.3692  -10.9661   19.6167 H   0  0  0  0  0  0
  -21.2008   -7.6150   23.9707 H   0  0  0  0  0  0
  -21.1484   -6.0528   25.9076 H   0  0  0  0  0  0
  -22.0599   -2.7602   23.2859 H   0  0  0  0  0  0
  -22.4085  -11.9867   22.4783 H   0  0  0  0  0  0
  -21.1103  -13.1233   22.2614 H   0  0  0  0  0  0
  -24.6522  -15.8414   20.5154 H   0  0  0  0  0  0
  -26.2636  -15.6285   20.0575 H   0  0  0  0  0  0
  -26.7217  -32.5416   23.1064 H   0  0  0  0  0  0
  -25.0056  -33.9664   25.0374 H   0  0  0  0  0  0
  -22.7211  -31.2965   21.3988 H   0  0  0  0  0  0
  -23.3758  -35.9640   23.3290 H   0  0  0  0  0  0
  -24.3573  -36.8935   22.2047 H   0  0  0  0  0  0
  -23.7277  -37.6498   23.6681 H   0  0  0  0  0  0
  -26.1058  -31.5212   20.6098 H   0  0  0  0  0  0
  -26.8510  -30.8150   22.0125 H   0  0  0  0  0  0
  -28.1179  -28.9118   21.2136 H   0  0  0  0  0  0
  -25.9535  -25.9100   18.9801 H   0  0  0  0  0  0
  -23.9751  -27.3102   18.9865 H   0  0  0  0  0  0
  -23.7707  -30.5848   19.4026 H   0  0  0  0  0  0
  -22.7639  -29.2415   19.8583 H   0  0  0  0  0  0
  -25.1320  -36.1917   25.0808 H   0  0  0  0  0  0
  -20.9953  -28.3309   24.1392 H   0  0  0  0  0  0
  -20.5696  -26.2323   23.3599 H   0  0  0  0  0  0
  -21.6672  -26.7468   22.1191 H   0  0  0  0  0  0
  -19.6946  -25.6271   21.1252 H   0  0  0  0  0  0
  -19.6722  -27.3153   20.6692 H   0  0  0  0  0  0
  -17.4221  -26.6649   21.3992 H   0  0  0  0  0  0
  -18.0367  -26.0047   22.8972 H   0  0  0  0  0  0
  -19.7951  -30.7226   24.2297 H   0  0  0  0  0  0
  -17.5043  -31.6275   24.5139 H   0  0  0  0  0  0
  -15.5365  -30.2986   23.7652 H   0  0  0  0  0  0
  -15.8671  -28.0798   22.7089 H   0  0  0  0  0  0
  -24.5938  -30.7001   25.7723 H   0  0  0  0  0  0
  -24.8826  -32.2878   26.4764 H   0  0  0  0  0  0
  -25.8022  -30.8953   27.0230 H   0  0  0  0  0  0
  -26.2988  -29.6718   24.1240 H   0  0  0  0  0  0
  -27.4074  -29.7292   25.4728 H   0  0  0  0  0  0
  -27.8855  -30.4267   23.9461 H   0  0  0  0  0  0
  -27.2665  -33.3651   26.2026 H   0  0  0  0  0  0
  -28.3917  -32.6827   25.0368 H   0  0  0  0  0  0
  -28.0671  -31.8471   26.5466 H   0  0  0  0  0  0
  -28.2591  -38.0128   24.7504 H   0  0  0  0  0  0
  -28.1115  -36.2642   24.6300 H   0  0  0  0  0  0
  -27.2281  -37.1460   25.8850 H   0  0  0  0  0  0
  -20.9403  -29.8791   21.6872 H   0  0  0  0  0  0
  -26.0196  -38.2834   24.1379 H   0  0  0  0  0  0
  -33.4885  -21.2747   21.6606 H   0  0  0  0  0  0
  -31.4630  -22.9871   21.4997 H   0  0  0  0  0  0
  -32.9286  -17.8491   22.6206 H   0  0  0  0  0  0
  -34.2718  -18.9352   22.3440 H   0  0  0  0  0  0
  -34.3103  -17.3060   21.6808 H   0  0  0  0  0  0
  -33.6669  -19.3802   18.6275 H   0  0  0  0  0  0
  -34.7464  -18.2018   19.3604 H   0  0  0  0  0  0
  -34.7305  -19.8605   19.9465 H   0  0  0  0  0  0
  -27.7824  -22.3734   24.3280 H   0  0  0  0  0  0
  -27.2167  -23.3863   23.0011 H   0  0  0  0  0  0
  -28.9352  -23.0105   23.1882 H   0  0  0  0  0  0
  -26.4549  -20.3458   23.8316 H   0  0  0  0  0  0
  -26.3497  -19.6969   22.2057 H   0  0  0  0  0  0
  -25.5814  -21.2332   22.5869 H   0  0  0  0  0  0
  -29.5038  -24.0594   21.4066 H   0  0  0  0  0  0
  -30.1258  -24.0771   19.8044 H   0  0  0  0  0  0
  -27.5190  -20.7228   20.3617 H   0  0  0  0  0  0
  -26.9340  -22.3173   20.6186 H   0  0  0  0  0  0
  -28.8631  -18.8328   20.2172 H   0  0  0  0  0  0
  -30.1999  -18.3611   19.2185 H   0  0  0  0  0  0
  -29.5587  -17.4396   22.0706 H   0  0  0  0  0  0
  -31.1505  -17.2132   21.5782 H   0  0  0  0  0  0
  -27.2068  -24.6245   20.5193 H   0  0  0  0  0  0
  -27.8804  -24.7308   18.9145 H   0  0  0  0  0  0
  -32.4755  -17.8577   20.0961 H   0  0  0  0  0  0
  -28.9611  -22.0080   19.1829 H   0  0  0  0  0  0
  -28.5803  -20.6706   22.6143 H   0  0  0  0  0  0
  -28.8272  -15.6179   20.8243 H   0  0  0  0  0  0
  1 25  1  0  0  0
  1 30  2  0  0  0
  1 88  1  0  0  0
  2  3  1  0  0  0
  2 25  1  0  0  0
  2 89  1  0  0  0
  2 90  1  0  0  0
  3  4  1  0  0  0
  3 91  1  0  0  0
  3 92  1  0  0  0
  4  5  1  0  0  0
  4 93  1  0  0  0
  4 94  1  0  0  0
  5  6  1  0  0  0
  5 26  1  0  0  0
  5 95  1  0  0  0
  6 25  1  0  0  0
  6 96  1  0  0  0
  6 97  1  0  0  0
  7  8  2  0  0  0
  7 26  1  0  0  0
  7 29  1  0  0  0
  8  9  1  0  0  0
  8 22  1  0  0  0
  9 10  1  0  0  0
  9 27  2  0  0  0
 10 11  2  0  0  0
 10 15  1  0  0  0
 11 12  1  0  0  0
 11 98  1  0  0  0
 12 13  2  0  0  0
 12 99  1  0  0  0
 13 14  1  0  0  0
 13 31  1  0  0  0
 14 15  2  0  0  0
 14100  1  0  0  0
 15101  1  0  0  0
 16 17  2  0  0  0
 16 21  1  0  0  0
 16 31  1  0  0  0
 17 18  1  0  0  0
 17102  1  0  0  0
 18 19  2  0  0  0
 18103  1  0  0  0
 19 20  1  0  0  0
 19 24  1  0  0  0
 20 21  2  0  0  0
 20104  1  0  0  0
 21 23  1  0  0  0
 22 28  1  0  0  0
 22 32  2  0  0  0
 26 27  1  0  0  0
 28105  1  0  0  0
 28106  1  0  0  0
 29107  1  0  0  0
 29108  1  0  0  0
 33 34  1  0  0  0
 33 66  1  0  0  0
 33 70  2  0  0  0
 34 36  1  0  0  0
 34 59  1  0  0  0
 34109  1  0  0  0
 35 44  2  0  0  0
 35 45  1  0  0  0
 35 68  1  0  0  0
 36 56  1  0  0  0
 36110  1  0  0  0
 37 39  1  0  0  0
 37 47  1  0  0  0
 37 66  1  0  0  0
 37111  1  0  0  0
 38 43  2  0  0  0
 38 46  1  0  0  0
 38 47  1  0  0  0
 39 64  1  0  0  0
 39 67  2  0  0  0
 40 52  1  0  0  0
 40 53  2  0  0  0
 40 58  1  0  0  0
 41112  1  0  0  0
 41113  1  0  0  0
 41114  1  0  0  0
 41 48  1  0  0  0
 42 43  1  0  0  0
 42 66  1  0  0  0
 42115  1  0  0  0
 42116  1  0  0  0
 43 44  1  0  0  0
 44117  1  0  0  0
 45 46  2  0  0  0
 45118  1  0  0  0
 46119  1  0  0  0
 47120  1  0  0  0
 47121  1  0  0  0
 48 56  1  0  0  0
 48 65  1  0  0  0
 48122  1  0  0  0
 49 50  1  0  0  0
 49 53  1  0  0  0
 49 64  1  0  0  0
 49123  1  0  0  0
 50 51  1  0  0  0
 50124  1  0  0  0
 50125  1  0  0  0
 51 52  1  0  0  0
 51126  1  0  0  0
 51127  1  0  0  0
 52128  1  0  0  0
 52129  1  0  0  0
 53 54  1  0  0  0
 54 55  2  0  0  0
 54130  1  0  0  0
 55 57  1  0  0  0
 55131  1  0  0  0
 56 69  2  0  0  0
 57 58  2  0  0  0
 57132  1  0  0  0
 58133  1  0  0  0
 59 60  1  0  0  0
 59 61  1  0  0  0
 59 62  1  0  0  0
 60134  1  0  0  0
 60135  1  0  0  0
 60136  1  0  0  0
 61137  1  0  0  0
 61138  1  0  0  0
 61139  1  0  0  0
 62140  1  0  0  0
 62141  1  0  0  0
 62142  1  0  0  0
 63 65  1  0  0  0
 63143  1  0  0  0
 63144  1  0  0  0
 63145  1  0  0  0
 64146  1  0  0  0
 65147  1  0  0  0
 68 83  1  0  0  0
 71 72  1  0  0  0
 71 73  2  0  0  0
 71148  1  0  0  0
 72 74  2  0  0  0
 72149  1  0  0  0
 73 84  1  0  0  0
 73 87  1  0  0  0
 74 85  1  0  0  0
 74 87  1  0  0  0
 75150  1  0  0  0
 75151  1  0  0  0
 75152  1  0  0  0
 75 84  1  0  0  0
 76 84  1  0  0  0
 76153  1  0  0  0
 76154  1  0  0  0
 76155  1  0  0  0
 77156  1  0  0  0
 77157  1  0  0  0
 77158  1  0  0  0
 77 86  1  0  0  0
 78 86  1  0  0  0
 78159  1  0  0  0
 78160  1  0  0  0
 78161  1  0  0  0
 79 83  1  0  0  0
 79162  1  0  0  0
 79163  1  0  0  0
 79 85  1  0  0  0
 80 85  1  0  0  0
 80 86  1  0  0  0
 80164  1  0  0  0
 80165  1  0  0  0
 81 82  1  0  0  0
 81 87  1  0  0  0
 81166  1  0  0  0
 81167  1  0  0  0
 82 88  1  0  0  0
 82168  1  0  0  0
 82169  1  0  0  0
 83170  1  0  0  0
 83171  1  0  0  0
 84172  1  0  0  0
 85173  1  0  0  0
 86174  1  0  0  0
 88175  1  0  0  0
M  ISO  4   1 100  68 101  83 101  88 100
M  END
> <chiral flag>
0

> <version>
0

> <s_m_source_file>
/data/baiqing/PycharmProjects/Reinvent-master-3.2/result/LINK_invent/BTK/process_docking_weight1_custom_sum_contain_oxygen_bond_distance_aromatic_linkinvent_7_9_3/rearranged_h_0103.sdf

> <i_m_source_file_index>
94

> <r_mmod_Potential_Energy-OPLS-2005>
219.10334777832

> <r_mmod_Stretch_Energy-OPLS-2005>
150.090362548828

> <r_mmod_Bend_Energy-OPLS-2005>
217.786819458008

> <r_mmod_Torsional_Energy-OPLS-2005>
254.604782104492

> <r_mmod_Improper_Torsional_Energy-OPLS-2005>
4.95460653305054

> <r_mmod_Van_der_Waal_Energy-OPLS-2005>
118.422996520996

> <r_mmod_Electrostatic_Energy-OPLS-2005>
-409.209259033203

> <r_mmod_Solvation_Energy-OPLS-2005>
-201.811614990234

> <b_mmod_Minimization_Converged-OPLS-2005>
0

> <r_mmod_RMS_Derivative-OPLS-2005>
2.47175478935242

$$$$
94
                    3D
 Structure written by MMmdl.
173181  0  0  1  0            999 V2000
  -30.4598  -15.3075   20.3631 C   0  0  0  0  0  0
  -30.4317  -12.8426   19.5401 C   0  0  0  0  0  0
  -29.5351  -12.5829   18.3025 C   0  0  0  0  0  0
  -28.0874  -12.2971   18.7383 C   0  0  0  0  0  0
  -27.6121  -13.2855   19.8334 C   0  0  2  0  0  0
  -28.6458  -13.4890   20.9622 C   0  0  0  0  0  0
  -25.2414  -13.8253   20.5822 C   0  0  0  0  0  0
  -24.1768  -13.0447   20.9293 C   0  0  0  0  0  0
  -24.6434  -11.6946   20.8783 C   0  0  0  0  0  0
  -23.9138  -10.4306   21.0440 C   0  0  0  0  0  0
  -24.3682   -9.4205   21.9218 C   0  0  0  0  0  0
  -23.6342   -8.2234   22.0766 C   0  0  0  0  0  0
  -22.4313   -8.0299   21.3557 C   0  0  0  0  0  0
  -21.9976   -9.0277   20.4647 C   0  0  0  0  0  0
  -22.7312  -10.2150   20.3078 C   0  0  0  0  0  0
  -21.6860   -6.0773   22.5283 C   0  0  0  0  0  0
  -21.4014   -6.5674   23.8222 C   0  0  0  0  0  0
  -21.3649   -5.6814   24.9177 C   0  0  0  0  0  0
  -21.6033   -4.3075   24.7218 C   0  0  0  0  0  0
  -21.8817   -3.8182   23.4338 C   0  0  0  0  0  0
  -21.9200   -4.7004   22.3400 C   0  0  0  0  0  0
  -22.7783  -13.5190   21.1904 C   0  0  0  0  0  0
  -22.1673   -4.2206   21.0972 F   0  0  0  0  0  0
  -21.5624   -3.4543   25.7724 F   0  0  0  0  0  0
  -29.8704  -14.0050   20.3267 N   0  0  0  0  0  0
  -26.2856  -12.9558   20.3317 N   0  0  0  0  0  0
  -25.9392  -11.6656   20.5806 N   0  0  0  0  0  0
  -22.0442  -12.8160   22.0439 N   0  0  0  0  0  0
  -25.4050  -15.1978   20.4215 N   0  0  0  0  0  0
  -31.6865  -15.2358   20.1578 O   0  0  0  0  0  0
  -21.6651   -6.8919   21.4252 O   0  0  0  0  0  0
  -22.3465  -14.5487   20.6719 O   0  0  0  0  0  0
  -24.6597  -31.8243   23.1707 C   0  0  0  0  0  0
  -25.9268  -32.4588   23.8200 C   0  0  1  0  0  0
  -27.2073  -26.9312   20.1939 C   0  0  0  0  0  0
  -25.5984  -33.8405   24.2092 N   0  0  0  0  0  0
  -23.4728  -30.4340   21.5258 C   0  0  2  0  0  0
  -24.9186  -28.8240   20.1132 C   0  0  0  0  0  0
  -22.7665  -29.4401   22.4862 C   0  0  0  0  0  0
  -18.0336  -28.1410   22.8473 C   0  0  0  0  0  0
  -24.1514  -36.7208   23.2657 C   0  0  0  0  0  0
  -26.0408  -30.6324   21.3931 C   0  0  0  0  0  0
  -26.1035  -29.2218   20.7440 C   0  0  0  0  0  0
  -27.2396  -28.2989   20.7600 C   0  0  0  0  0  0
  -26.0001  -26.6882   19.5018 C   0  0  0  0  0  0
  -24.8916  -27.5751   19.4749 C   0  0  0  0  0  0
  -23.7051  -29.7520   20.1508 C   0  0  0  0  0  0
  -25.4145  -36.2950   24.0303 C   0  0  1  0  0  0
  -20.5946  -28.3686   23.1273 C   0  0  2  0  0  0
  -20.6816  -26.9378   22.5431 C   0  0  0  0  0  0
  -19.5792  -26.6356   21.5246 C   0  0  0  0  0  0
  -18.1970  -26.7962   22.1612 C   0  0  0  0  0  0
  -19.1602  -28.8879   23.2858 C   0  0  0  0  0  0
  -18.9486  -30.1509   23.8831 C   0  0  0  0  0  0
  -17.6477  -30.6591   24.0544 C   0  0  0  0  0  0
  -25.9101  -34.9346   23.4985 C   0  0  0  0  0  0
  -16.5367  -29.9043   23.6382 C   0  0  0  0  0  0
  -16.7316  -28.6488   23.0359 C   0  0  0  0  0  0
  -26.4509  -31.6543   25.0710 C   0  0  0  0  0  0
  -25.3681  -31.3727   26.1383 C   0  0  0  0  0  0
  -27.0409  -30.2948   24.6384 C   0  0  0  0  0  0
  -27.6037  -32.4351   25.7457 C   0  0  0  0  0  0
  -27.5567  -37.1757   24.8474 C   0  0  0  0  0  0
  -21.4327  -29.2983   22.3637 N   0  0  0  0  0  0
  -26.4283  -37.3684   23.9399 N   0  0  0  0  0  0
  -24.7466  -30.9923   22.0816 N   0  0  0  0  0  0
  -23.4238  -28.7999   23.3102 O   0  0  0  0  0  0
  -28.2146  -25.8305   20.2395 O   0  0  0  0  0  0
  -26.5727  -34.8854   22.4589 O   0  0  0  0  0  0
  -23.5652  -32.1221   23.6800 O   0  0  0  0  0  0
  -29.8285  -20.0017   18.4906 C   0  0  0  0  0  0
  -30.9709  -19.5561   17.8128 C   0  0  0  0  0  0
  -29.5002  -19.5584   19.7885 C   0  0  0  0  0  0
  -31.8324  -18.6974   18.5135 C   0  0  0  0  0  0
  -30.1787  -18.1659   20.1222 C   0  0  0  0  0  0
  -34.2817  -19.3985   18.3909 C   0  0  0  0  0  0
  -29.5801  -18.6454   15.2580 C   0  0  0  0  0  0
  -31.1006  -20.1715   13.9424 C   0  0  0  0  0  0
  -27.5133  -24.1423   21.9072 C   0  0  0  0  0  0
  -31.3032  -20.1798   16.4581 C   0  0  0  0  0  0
  -28.7163  -20.9374   20.5125 C   0  0  0  0  0  0
  -28.9085  -22.7092   20.1366 C   0  0  0  0  0  0
  -33.2379  -18.3279   18.0214 C   0  0  1  0  0  0
  -30.9675  -19.3186   15.2125 C   0  0  0  0  0  0
  -27.9474  -24.2098   20.4342 C   0  0  2  0  0  0
  -31.4505  -18.0957   19.6642 N   0  0  0  0  0  0
  -29.7536  -16.6336   20.4252 N   0  0  0  0  0  0
  -33.5864  -17.0250   18.6023 N   0  3  0  0  0  0
  -31.4550  -13.0289   19.2081 H   0  0  0  0  0  0
  -30.4983  -11.9489   20.1629 H   0  0  0  0  0  0
  -29.9226  -11.7474   17.7166 H   0  0  0  0  0  0
  -29.5548  -13.4546   17.6476 H   0  0  0  0  0  0
  -28.0526  -11.2768   19.1277 H   0  0  0  0  0  0
  -27.4109  -12.3176   17.8808 H   0  0  0  0  0  0
  -27.5191  -14.2463   19.3248 H   0  0  0  0  0  0
  -28.8270  -12.5629   21.5100 H   0  0  0  0  0  0
  -28.2776  -14.2119   21.6927 H   0  0  0  0  0  0
  -25.2830   -9.5674   22.4810 H   0  0  0  0  0  0
  -24.0047   -7.4632   22.7473 H   0  0  0  0  0  0
  -21.0923   -8.8810   19.8951 H   0  0  0  0  0  0
  -22.3793  -10.9711   19.6188 H   0  0  0  0  0  0
  -21.2003   -7.6180   23.9756 H   0  0  0  0  0  0
  -21.1463   -6.0530   25.9085 H   0  0  0  0  0  0
  -22.0602   -2.7652   23.2808 H   0  0  0  0  0  0
  -22.4074  -11.9815   22.4808 H   0  0  0  0  0  0
  -21.1049  -13.1152   22.2608 H   0  0  0  0  0  0
  -24.6376  -15.8500   20.5528 H   0  0  0  0  0  0
  -26.2363  -15.6344   20.0499 H   0  0  0  0  0  0
  -26.7329  -32.5073   23.0918 H   0  0  0  0  0  0
  -25.0119  -33.9563   25.0229 H   0  0  0  0  0  0
  -22.7813  -31.2634   21.3612 H   0  0  0  0  0  0
  -23.3774  -35.9539   23.3274 H   0  0  0  0  0  0
  -24.3648  -36.8880   22.2090 H   0  0  0  0  0  0
  -23.7295  -37.6381   23.6749 H   0  0  0  0  0  0
  -26.2280  -31.3699   20.6105 H   0  0  0  0  0  0
  -26.9005  -30.6840   22.0465 H   0  0  0  0  0  0
  -28.1319  -28.6096   21.2869 H   0  0  0  0  0  0
  -25.8878  -25.7455   18.9882 H   0  0  0  0  0  0
  -23.9918  -27.2612   18.9647 H   0  0  0  0  0  0
  -23.8465  -30.5249   19.3914 H   0  0  0  0  0  0
  -22.8103  -29.2052   19.8446 H   0  0  0  0  0  0
  -25.1362  -36.1706   25.0805 H   0  0  0  0  0  0
  -21.0048  -28.3189   24.1386 H   0  0  0  0  0  0
  -20.5782  -26.2226   23.3607 H   0  0  0  0  0  0
  -21.6664  -26.7424   22.1157 H   0  0  0  0  0  0
  -19.6938  -25.6263   21.1282 H   0  0  0  0  0  0
  -19.6770  -27.3157   20.6776 H   0  0  0  0  0  0
  -17.4258  -26.6757   21.3991 H   0  0  0  0  0  0
  -18.0292  -26.0149   22.9044 H   0  0  0  0  0  0
  -19.7953  -30.7411   24.2079 H   0  0  0  0  0  0
  -17.4991  -31.6270   24.5162 H   0  0  0  0  0  0
  -15.5351  -30.2883   23.7788 H   0  0  0  0  0  0
  -15.8723  -28.0804   22.7047 H   0  0  0  0  0  0
  -24.5927  -30.6981   25.7696 H   0  0  0  0  0  0
  -24.8780  -32.2872   26.4708 H   0  0  0  0  0  0
  -25.7964  -30.8982   27.0219 H   0  0  0  0  0  0
  -26.3043  -29.6633   24.1370 H   0  0  0  0  0  0
  -27.3985  -29.7272   25.4980 H   0  0  0  0  0  0
  -27.8959  -30.4206   23.9747 H   0  0  0  0  0  0
  -27.2679  -33.3763   26.1814 H   0  0  0  0  0  0
  -28.3911  -32.6707   25.0300 H   0  0  0  0  0  0
  -28.0613  -31.8623   26.5524 H   0  0  0  0  0  0
  -28.2534  -38.0090   24.7513 H   0  0  0  0  0  0
  -28.1105  -36.2611   24.6287 H   0  0  0  0  0  0
  -27.2319  -37.1380   25.8889 H   0  0  0  0  0  0
  -20.9537  -29.8656   21.6775 H   0  0  0  0  0  0
  -26.0090  -38.2721   24.1403 H   0  0  0  0  0  0
  -29.2816  -20.8283   18.0652 H   0  0  0  0  0  0
  -33.9881  -20.3820   18.0258 H   0  0  0  0  0  0
  -35.2472  -19.1788   17.9306 H   0  0  0  0  0  0
  -34.4195  -19.4743   19.4693 H   0  0  0  0  0  0
  -29.4094  -18.0851   14.3391 H   0  0  0  0  0  0
  -28.7784  -19.3822   15.3501 H   0  0  0  0  0  0
  -29.4820  -17.9401   16.0851 H   0  0  0  0  0  0
  -30.9536  -19.5781   13.0370 H   0  0  0  0  0  0
  -32.0901  -20.6266   13.8738 H   0  0  0  0  0  0
  -30.3686  -20.9793   13.9351 H   0  0  0  0  0  0
  -27.0965  -23.1663   22.1553 H   0  0  0  0  0  0
  -26.7471  -24.8808   22.1327 H   0  0  0  0  0  0
  -28.3592  -24.3189   22.5734 H   0  0  0  0  0  0
  -32.3484  -20.4867   16.4251 H   0  0  0  0  0  0
  -30.7480  -21.1168   16.3872 H   0  0  0  0  0  0
  -28.8516  -20.8350   21.5883 H   0  0  0  0  0  0
  -27.6511  -20.7389   20.3727 H   0  0  0  0  0  0
  -29.0666  -22.7497   19.0606 H   0  0  0  0  0  0
  -29.8922  -22.9455   20.5424 H   0  0  0  0  0  0
  -33.2261  -18.2080   16.9404 H   0  0  0  0  0  0
  -31.7021  -18.5164   15.1376 H   0  0  0  0  0  0
  -27.0474  -24.0366   19.8482 H   0  0  0  0  0  0
  -28.7642  -16.5301   20.5899 H   0  0  0  0  0  0
  -33.0763  -17.0203   19.4764 H   0  0  0  0  0  0
  -34.5699  -16.8976   18.7492 H   0  0  0  0  0  0
  -33.2042  -16.2804   18.0498 H   0  0  0  0  0  0
  1 25  1  0  0  0
  1 30  2  0  0  0
  1 87  1  0  0  0
  2  3  1  0  0  0
  2 25  1  0  0  0
  2 89  1  0  0  0
  2 90  1  0  0  0
  3  4  1  0  0  0
  3 91  1  0  0  0
  3 92  1  0  0  0
  4  5  1  0  0  0
  4 93  1  0  0  0
  4 94  1  0  0  0
  5  6  1  0  0  0
  5 26  1  0  0  0
  5 95  1  0  0  0
  6 25  1  0  0  0
  6 96  1  0  0  0
  6 97  1  0  0  0
  7  8  2  0  0  0
  7 26  1  0  0  0
  7 29  1  0  0  0
  8  9  1  0  0  0
  8 22  1  0  0  0
  9 10  1  0  0  0
  9 27  2  0  0  0
 10 11  2  0  0  0
 10 15  1  0  0  0
 11 12  1  0  0  0
 11 98  1  0  0  0
 12 13  2  0  0  0
 12 99  1  0  0  0
 13 14  1  0  0  0
 13 31  1  0  0  0
 14 15  2  0  0  0
 14100  1  0  0  0
 15101  1  0  0  0
 16 17  2  0  0  0
 16 21  1  0  0  0
 16 31  1  0  0  0
 17 18  1  0  0  0
 17102  1  0  0  0
 18 19  2  0  0  0
 18103  1  0  0  0
 19 20  1  0  0  0
 19 24  1  0  0  0
 20 21  2  0  0  0
 20104  1  0  0  0
 21 23  1  0  0  0
 22 28  1  0  0  0
 22 32  2  0  0  0
 26 27  1  0  0  0
 28105  1  0  0  0
 28106  1  0  0  0
 29107  1  0  0  0
 29108  1  0  0  0
 33 34  1  0  0  0
 33 66  1  0  0  0
 33 70  2  0  0  0
 34 36  1  0  0  0
 34 59  1  0  0  0
 34109  1  0  0  0
 35 44  2  0  0  0
 35 45  1  0  0  0
 35 68  1  0  0  0
 36 56  1  0  0  0
 36110  1  0  0  0
 37 39  1  0  0  0
 37 47  1  0  0  0
 37 66  1  0  0  0
 37111  1  0  0  0
 38 43  2  0  0  0
 38 46  1  0  0  0
 38 47  1  0  0  0
 39 64  1  0  0  0
 39 67  2  0  0  0
 40 52  1  0  0  0
 40 53  2  0  0  0
 40 58  1  0  0  0
 41112  1  0  0  0
 41113  1  0  0  0
 41114  1  0  0  0
 41 48  1  0  0  0
 42 43  1  0  0  0
 42 66  1  0  0  0
 42115  1  0  0  0
 42116  1  0  0  0
 43 44  1  0  0  0
 44117  1  0  0  0
 45 46  2  0  0  0
 45118  1  0  0  0
 46119  1  0  0  0
 47120  1  0  0  0
 47121  1  0  0  0
 48 56  1  0  0  0
 48 65  1  0  0  0
 48122  1  0  0  0
 49 50  1  0  0  0
 49 53  1  0  0  0
 49 64  1  0  0  0
 49123  1  0  0  0
 50 51  1  0  0  0
 50124  1  0  0  0
 50125  1  0  0  0
 51 52  1  0  0  0
 51126  1  0  0  0
 51127  1  0  0  0
 52128  1  0  0  0
 52129  1  0  0  0
 53 54  1  0  0  0
 54 55  2  0  0  0
 54130  1  0  0  0
 55 57  1  0  0  0
 55131  1  0  0  0
 56 69  2  0  0  0
 57 58  2  0  0  0
 57132  1  0  0  0
 58133  1  0  0  0
 59 60  1  0  0  0
 59 61  1  0  0  0
 59 62  1  0  0  0
 60134  1  0  0  0
 60135  1  0  0  0
 60136  1  0  0  0
 61137  1  0  0  0
 61138  1  0  0  0
 61139  1  0  0  0
 62140  1  0  0  0
 62141  1  0  0  0
 62142  1  0  0  0
 63 65  1  0  0  0
 63143  1  0  0  0
 63144  1  0  0  0
 63145  1  0  0  0
 64146  1  0  0  0
 65147  1  0  0  0
 68 85  1  0  0  0
 71 72  2  0  0  0
 71 73  1  0  0  0
 71148  1  0  0  0
 72 74  1  0  0  0
 72 80  1  0  0  0
 73 75  2  0  0  0
 73 81  1  0  0  0
 74 83  1  0  0  0
 74 86  2  0  0  0
 75 86  1  0  0  0
 75 87  1  0  0  0
 76149  1  0  0  0
 76150  1  0  0  0
 76151  1  0  0  0
 76 83  1  0  0  0
 77152  1  0  0  0
 77153  1  0  0  0
 77154  1  0  0  0
 77 84  1  0  0  0
 78 84  1  0  0  0
 78155  1  0  0  0
 78156  1  0  0  0
 78157  1  0  0  0
 79158  1  0  0  0
 79159  1  0  0  0
 79160  1  0  0  0
 79 85  1  0  0  0
 80 84  1  0  0  0
 80161  1  0  0  0
 80162  1  0  0  0
 81 82  1  0  0  0
 81163  1  0  0  0
 81164  1  0  0  0
 82 85  1  0  0  0
 82165  1  0  0  0
 82166  1  0  0  0
 83 88  1  0  0  0
 83167  1  0  0  0
 84168  1  0  0  0
 85169  1  0  0  0
 87170  1  0  0  0
 88171  1  0  0  0
 88172  1  0  0  0
 88173  1  0  0  0
M  CHG  1  88   1
M  ISO  4   1 100  68 101  85 101  87 100
M  END
> <chiral flag>
0

> <version>
0

> <s_m_source_file>
/data/baiqing/PycharmProjects/Reinvent-master-3.2/result/LINK_invent/BTK/process_docking_weight1_custom_sum_contain_oxygen_bond_distance_aromatic_linkinvent_7_9_3/rearranged_h_0103.sdf

> <i_m_source_file_index>
95

> <r_mmod_Potential_Energy-OPLS-2005>
1024.09631347656

> <r_mmod_Stretch_Energy-OPLS-2005>
645.239685058594

> <r_mmod_Bend_Energy-OPLS-2005>
518.584106445312

> <r_mmod_Torsional_Energy-OPLS-2005>
364.153198242188

> <r_mmod_Improper_Torsional_Energy-OPLS-2005>
13.1934413909912

> <r_mmod_Van_der_Waal_Energy-OPLS-2005>
141.48095703125

> <r_mmod_Electrostatic_Energy-OPLS-2005>
-714.167053222656

> <r_mmod_Solvation_Energy-OPLS-2005>
-417.297241210938

> <b_mmod_Minimization_Converged-OPLS-2005>
0

> <r_mmod_RMS_Derivative-OPLS-2005>
5.74413251876831

$$$$
95
                    3D
 Structure written by MMmdl.
157164  0  0  1  0            999 V2000
  -30.3475  -15.4762   20.3066 C   0  0  0  0  0  0
  -30.4515  -12.9434   19.5412 C   0  0  0  0  0  0
  -29.5549  -12.6262   18.3082 C   0  0  0  0  0  0
  -28.1110  -12.3097   18.7348 C   0  0  0  0  0  0
  -27.6108  -13.2945   19.8168 C   0  0  2  0  0  0
  -28.6393  -13.5498   20.9412 C   0  0  0  0  0  0
  -25.2433  -13.8307   20.5800 C   0  0  0  0  0  0
  -24.1778  -13.0466   20.9231 C   0  0  0  0  0  0
  -24.6455  -11.6964   20.8686 C   0  0  0  0  0  0
  -23.9126  -10.4324   21.0353 C   0  0  0  0  0  0
  -24.3652   -9.4234   21.9146 C   0  0  0  0  0  0
  -23.6330   -8.2270   22.0739 C   0  0  0  0  0  0
  -22.4306   -8.0310   21.3540 C   0  0  0  0  0  0
  -21.9959   -9.0277   20.4637 C   0  0  0  0  0  0
  -22.7282  -10.2169   20.3024 C   0  0  0  0  0  0
  -21.6878   -6.0756   22.5266 C   0  0  0  0  0  0
  -21.4047   -6.5658   23.8198 C   0  0  0  0  0  0
  -21.3641   -5.6802   24.9151 C   0  0  0  0  0  0
  -21.6020   -4.3059   24.7206 C   0  0  0  0  0  0
  -21.8848   -3.8162   23.4327 C   0  0  0  0  0  0
  -21.9224   -4.6982   22.3385 C   0  0  0  0  0  0
  -22.7789  -13.5207   21.1885 C   0  0  0  0  0  0
  -22.1698   -4.2176   21.0966 F   0  0  0  0  0  0
  -21.5610   -3.4543   25.7709 F   0  0  0  0  0  0
  -29.8578  -14.1095   20.3192 N   0  0  0  0  0  0
  -26.2861  -12.9594   20.3239 N   0  0  0  0  0  0
  -25.9401  -11.6679   20.5666 N   0  0  0  0  0  0
  -22.0481  -12.8124   22.0421 N   0  0  0  0  0  0
  -25.4134  -15.2046   20.4358 N   0  0  0  0  0  0
  -31.5781  -15.4563   20.1407 O   0  0  0  0  0  0
  -21.6680   -6.8890   21.4224 O   0  0  0  0  0  0
  -22.3434  -14.5514   20.6776 O   0  0  0  0  0  0
  -24.6736  -31.8115   23.1598 C   0  0  0  0  0  0
  -25.9377  -32.4519   23.8109 C   0  0  1  0  0  0
  -27.2425  -26.8209   20.2135 C   0  0  0  0  0  0
  -25.5991  -33.8334   24.2014 N   0  0  0  0  0  0
  -23.4923  -30.4176   21.5102 C   0  0  2  0  0  0
  -24.9515  -28.7744   20.1224 C   0  0  0  0  0  0
  -22.7698  -29.4395   22.4747 C   0  0  0  0  0  0
  -18.0337  -28.1402   22.8456 C   0  0  0  0  0  0
  -24.1495  -36.7175   23.2651 C   0  0  0  0  0  0
  -26.0664  -30.5876   21.4020 C   0  0  0  0  0  0
  -26.1384  -29.1619   20.7562 C   0  0  0  0  0  0
  -27.2732  -28.2112   20.7704 C   0  0  0  0  0  0
  -26.0195  -26.6102   19.5298 C   0  0  0  0  0  0
  -24.9239  -27.5201   19.4878 C   0  0  0  0  0  0
  -23.7386  -29.7131   20.1450 C   0  0  0  0  0  0
  -25.4134  -36.2913   24.0292 C   0  0  1  0  0  0
  -20.5959  -28.3775   23.1144 C   0  0  2  0  0  0
  -20.6793  -26.9442   22.5392 C   0  0  0  0  0  0
  -19.5773  -26.6371   21.5190 C   0  0  0  0  0  0
  -18.1958  -26.7931   22.1603 C   0  0  0  0  0  0
  -19.1601  -28.8907   23.2786 C   0  0  0  0  0  0
  -18.9510  -30.1490   23.8834 C   0  0  0  0  0  0
  -17.6504  -30.6593   24.0545 C   0  0  0  0  0  0
  -25.9104  -34.9305   23.4975 C   0  0  0  0  0  0
  -16.5394  -29.9075   23.6342 C   0  0  0  0  0  0
  -16.7316  -28.6491   23.0373 C   0  0  0  0  0  0
  -26.4593  -31.6501   25.0671 C   0  0  0  0  0  0
  -25.3711  -31.3794   26.1324 C   0  0  0  0  0  0
  -27.0518  -30.2849   24.6486 C   0  0  0  0  0  0
  -27.6053  -32.4337   25.7509 C   0  0  0  0  0  0
  -27.5561  -37.1744   24.8468 C   0  0  0  0  0  0
  -21.4363  -29.3054   22.3482 N   0  0  0  0  0  0
  -26.4264  -37.3662   23.9410 N   0  0  0  0  0  0
  -24.7661  -30.9693   22.0770 N   0  0  0  0  0  0
  -23.4190  -28.8000   23.3052 O   0  0  0  0  0  0
  -28.2528  -25.6796   20.2610 O   0  0  0  0  0  0
  -26.5730  -34.8865   22.4579 O   0  0  0  0  0  0
  -23.5785  -32.1138   23.6630 O   0  0  0  0  0  0
  -28.6374  -16.9420   18.9367 C   0  0  0  0  0  0
  -30.9775  -19.0961   21.2660 C   0  0  0  0  0  0
  -28.2951  -20.5013   21.9254 C   0  0  0  0  0  0
  -29.0526  -22.3871   20.2191 C   0  0  0  0  0  0
  -28.0533  -23.9817   20.3365 C   0  0  0  0  0  0
  -27.5527  -20.2505   19.5376 C   0  0  0  0  0  0
  -29.4464  -17.0800   20.2503 C   0  0  2  0  0  0
  -29.7890  -18.9437   20.3049 C   0  0  1  0  0  0
  -28.7619  -20.5368   20.4534 C   0  0  2  0  0  0
  -26.4971  -21.1772   19.7306 O   0  0  0  0  0  0
  -31.4582  -13.1761   19.1924 H   0  0  0  0  0  0
  -30.5656  -12.0646   20.1803 H   0  0  0  0  0  0
  -29.9638  -11.7954   17.7332 H   0  0  0  0  0  0
  -29.5565  -13.4902   17.6419 H   0  0  0  0  0  0
  -28.0907  -11.2924   19.1263 H   0  0  0  0  0  0
  -27.4420  -12.3173   17.8721 H   0  0  0  0  0  0
  -27.4924  -14.2369   19.2839 H   0  0  0  0  0  0
  -28.8427  -12.6418   21.5127 H   0  0  0  0  0  0
  -28.2456  -14.2823   21.6471 H   0  0  0  0  0  0
  -25.2796   -9.5748   22.4691 H   0  0  0  0  0  0
  -24.0060   -7.4682   22.7467 H   0  0  0  0  0  0
  -21.0904   -8.8805   19.8914 H   0  0  0  0  0  0
  -22.3731  -10.9710   19.6132 H   0  0  0  0  0  0
  -21.2058   -7.6165   23.9714 H   0  0  0  0  0  0
  -21.1416   -6.0517   25.9059 H   0  0  0  0  0  0
  -22.0637   -2.7631   23.2815 H   0  0  0  0  0  0
  -22.4196  -11.9796   22.4723 H   0  0  0  0  0  0
  -21.1096  -13.1091   22.2710 H   0  0  0  0  0  0
  -24.6603  -15.8696   20.5735 H   0  0  0  0  0  0
  -26.2934  -15.6403   20.1937 H   0  0  0  0  0  0
  -26.7453  -32.5042   23.0828 H   0  0  0  0  0  0
  -25.0070  -33.9387   25.0120 H   0  0  0  0  0  0
  -22.8115  -31.2515   21.3242 H   0  0  0  0  0  0
  -23.3750  -35.9511   23.3279 H   0  0  0  0  0  0
  -24.3564  -36.8864   22.2071 H   0  0  0  0  0  0
  -23.7273  -37.6357   23.6743 H   0  0  0  0  0  0
  -26.2504  -31.3178   20.6133 H   0  0  0  0  0  0
  -26.9227  -30.6568   22.0599 H   0  0  0  0  0  0
  -28.1715  -28.5171   21.2890 H   0  0  0  0  0  0
  -25.8838  -25.6601   19.0345 H   0  0  0  0  0  0
  -24.0245  -27.2108   18.9727 H   0  0  0  0  0  0
  -23.8989  -30.4703   19.3774 H   0  0  0  0  0  0
  -22.8464  -29.1681   19.8312 H   0  0  0  0  0  0
  -25.1341  -36.1673   25.0782 H   0  0  0  0  0  0
  -21.0054  -28.3390   24.1264 H   0  0  0  0  0  0
  -20.5614  -26.2406   23.3654 H   0  0  0  0  0  0
  -21.6660  -26.7361   22.1240 H   0  0  0  0  0  0
  -19.6929  -25.6260   21.1268 H   0  0  0  0  0  0
  -19.6695  -27.3135   20.6681 H   0  0  0  0  0  0
  -17.4215  -26.6671   21.4020 H   0  0  0  0  0  0
  -18.0366  -26.0084   22.9013 H   0  0  0  0  0  0
  -19.7992  -30.7317   24.2170 H   0  0  0  0  0  0
  -17.5062  -31.6269   24.5162 H   0  0  0  0  0  0
  -15.5391  -30.2964   23.7700 H   0  0  0  0  0  0
  -15.8713  -28.0779   22.7141 H   0  0  0  0  0  0
  -24.5879  -30.7151   25.7652 H   0  0  0  0  0  0
  -24.8920  -32.3016   26.4624 H   0  0  0  0  0  0
  -25.7933  -30.9045   27.0188 H   0  0  0  0  0  0
  -26.3219  -29.6490   24.1457 H   0  0  0  0  0  0
  -27.3970  -29.7256   25.5194 H   0  0  0  0  0  0
  -27.9188  -30.4001   23.9977 H   0  0  0  0  0  0
  -27.2578  -33.3676   26.1947 H   0  0  0  0  0  0
  -28.3956  -32.6843   25.0420 H   0  0  0  0  0  0
  -28.0616  -31.8555   26.5556 H   0  0  0  0  0  0
  -28.2555  -38.0057   24.7482 H   0  0  0  0  0  0
  -28.1075  -36.2576   24.6320 H   0  0  0  0  0  0
  -27.2271  -37.1414   25.8869 H   0  0  0  0  0  0
  -20.9635  -29.8740   21.6593 H   0  0  0  0  0  0
  -26.0092  -38.2714   24.1396 H   0  0  0  0  0  0
  -27.5754  -17.1337   19.0875 H   0  0  0  0  0  0
  -28.7166  -15.9570   18.4770 H   0  0  0  0  0  0
  -28.9936  -17.6370   18.1756 H   0  0  0  0  0  0
  -31.7493  -18.3602   21.0391 H   0  0  0  0  0  0
  -30.6746  -18.9407   22.3018 H   0  0  0  0  0  0
  -31.4365  -20.0821   21.1867 H   0  0  0  0  0  0
  -27.5051  -21.2261   22.1265 H   0  0  0  0  0  0
  -29.1168  -20.7607   22.5924 H   0  0  0  0  0  0
  -27.9241  -19.5187   22.2155 H   0  0  0  0  0  0
  -29.9090  -22.5850   20.8645 H   0  0  0  0  0  0
  -29.4771  -22.4434   19.2180 H   0  0  0  0  0  0
  -27.5949  -23.8853   21.3206 H   0  0  0  0  0  0
  -27.2219  -23.8167   19.6535 H   0  0  0  0  0  0
  -27.1513  -19.2585   19.7384 H   0  0  0  0  0  0
  -27.8638  -20.2688   18.4915 H   0  0  0  0  0  0
  -28.7485  -16.9274   21.0732 H   0  0  0  0  0  0
  -30.2433  -19.1042   19.3260 H   0  0  0  0  0  0
  -26.2637  -21.1515   20.6524 H   0  0  0  0  0  0
  1 25  1  0  0  0
  1 30  2  0  0  0
  1 77  1  0  0  0
  2  3  1  0  0  0
  2 25  1  0  0  0
  2 81  1  0  0  0
  2 82  1  0  0  0
  3  4  1  0  0  0
  3 83  1  0  0  0
  3 84  1  0  0  0
  4  5  1  0  0  0
  4 85  1  0  0  0
  4 86  1  0  0  0
  5  6  1  0  0  0
  5 26  1  0  0  0
  5 87  1  0  0  0
  6 25  1  0  0  0
  6 88  1  0  0  0
  6 89  1  0  0  0
  7  8  2  0  0  0
  7 26  1  0  0  0
  7 29  1  0  0  0
  8  9  1  0  0  0
  8 22  1  0  0  0
  9 10  1  0  0  0
  9 27  2  0  0  0
 10 11  2  0  0  0
 10 15  1  0  0  0
 11 12  1  0  0  0
 11 90  1  0  0  0
 12 13  2  0  0  0
 12 91  1  0  0  0
 13 14  1  0  0  0
 13 31  1  0  0  0
 14 15  2  0  0  0
 14 92  1  0  0  0
 15 93  1  0  0  0
 16 17  2  0  0  0
 16 21  1  0  0  0
 16 31  1  0  0  0
 17 18  1  0  0  0
 17 94  1  0  0  0
 18 19  2  0  0  0
 18 95  1  0  0  0
 19 20  1  0  0  0
 19 24  1  0  0  0
 20 21  2  0  0  0
 20 96  1  0  0  0
 21 23  1  0  0  0
 22 28  1  0  0  0
 22 32  2  0  0  0
 26 27  1  0  0  0
 28 97  1  0  0  0
 28 98  1  0  0  0
 29 99  1  0  0  0
 29100  1  0  0  0
 33 34  1  0  0  0
 33 66  1  0  0  0
 33 70  2  0  0  0
 34 36  1  0  0  0
 34 59  1  0  0  0
 34101  1  0  0  0
 35 44  2  0  0  0
 35 45  1  0  0  0
 35 68  1  0  0  0
 36 56  1  0  0  0
 36102  1  0  0  0
 37 39  1  0  0  0
 37 47  1  0  0  0
 37 66  1  0  0  0
 37103  1  0  0  0
 38 43  2  0  0  0
 38 46  1  0  0  0
 38 47  1  0  0  0
 39 64  1  0  0  0
 39 67  2  0  0  0
 40 52  1  0  0  0
 40 53  2  0  0  0
 40 58  1  0  0  0
 41104  1  0  0  0
 41105  1  0  0  0
 41106  1  0  0  0
 41 48  1  0  0  0
 42 43  1  0  0  0
 42 66  1  0  0  0
 42107  1  0  0  0
 42108  1  0  0  0
 43 44  1  0  0  0
 44109  1  0  0  0
 45 46  2  0  0  0
 45110  1  0  0  0
 46111  1  0  0  0
 47112  1  0  0  0
 47113  1  0  0  0
 48 56  1  0  0  0
 48 65  1  0  0  0
 48114  1  0  0  0
 49 50  1  0  0  0
 49 53  1  0  0  0
 49 64  1  0  0  0
 49115  1  0  0  0
 50 51  1  0  0  0
 50116  1  0  0  0
 50117  1  0  0  0
 51 52  1  0  0  0
 51118  1  0  0  0
 51119  1  0  0  0
 52120  1  0  0  0
 52121  1  0  0  0
 53 54  1  0  0  0
 54 55  2  0  0  0
 54122  1  0  0  0
 55 57  1  0  0  0
 55123  1  0  0  0
 56 69  2  0  0  0
 57 58  2  0  0  0
 57124  1  0  0  0
 58125  1  0  0  0
 59 60  1  0  0  0
 59 61  1  0  0  0
 59 62  1  0  0  0
 60126  1  0  0  0
 60127  1  0  0  0
 60128  1  0  0  0
 61129  1  0  0  0
 61130  1  0  0  0
 61131  1  0  0  0
 62132  1  0  0  0
 62133  1  0  0  0
 62134  1  0  0  0
 63 65  1  0  0  0
 63135  1  0  0  0
 63136  1  0  0  0
 63137  1  0  0  0
 64138  1  0  0  0
 65139  1  0  0  0
 68 75  1  0  0  0
 71140  1  0  0  0
 71141  1  0  0  0
 71142  1  0  0  0
 71 77  1  0  0  0
 72143  1  0  0  0
 72144  1  0  0  0
 72145  1  0  0  0
 72 78  1  0  0  0
 73146  1  0  0  0
 73147  1  0  0  0
 73148  1  0  0  0
 73 79  1  0  0  0
 74 75  1  0  0  0
 74 79  1  0  0  0
 74149  1  0  0  0
 74150  1  0  0  0
 75151  1  0  0  0
 75152  1  0  0  0
 76 79  1  0  0  0
 76 80  1  0  0  0
 76153  1  0  0  0
 76154  1  0  0  0
 77 78  1  0  0  0
 77155  1  0  0  0
 78 79  1  0  0  0
 78156  1  0  0  0
 80157  1  0  0  0
M  ISO  4   1 100  68 101  75 101  77 100
M  END
> <chiral flag>
0

> <version>
0

> <s_m_source_file>
/data/baiqing/PycharmProjects/Reinvent-master-3.2/result/LINK_invent/BTK/process_docking_weight1_custom_sum_contain_oxygen_bond_distance_aromatic_linkinvent_7_9_3/rearranged_h_0103.sdf

> <i_m_source_file_index>
96

> <r_mmod_Potential_Energy-OPLS-2005>
2073.38305664062

> <r_mmod_Stretch_Energy-OPLS-2005>
1007.80645751953

> <r_mmod_Bend_Energy-OPLS-2005>
574.872497558594

> <r_mmod_Torsional_Energy-OPLS-2005>
231.876281738281

> <r_mmod_Improper_Torsional_Energy-OPLS-2005>
4.32457590103149

> <r_mmod_Van_der_Waal_Energy-OPLS-2005>
105.31241607666

> <r_mmod_Electrostatic_Energy-OPLS-2005>
-316.552490234375

> <r_mmod_Solvation_Energy-OPLS-2005>
-200.768157958984

> <b_mmod_Minimization_Converged-OPLS-2005>
0

> <r_mmod_RMS_Derivative-OPLS-2005>
3.91076683998108

$$$$
96
                    3D
 Structure written by MMmdl.
179186  0  0  1  0            999 V2000
  -30.6686  -14.5181   20.5472 C   0  0  0  0  0  0
  -30.4224  -12.3227   19.4422 C   0  0  0  0  0  0
  -29.5001  -12.5028   18.2176 C   0  0  0  0  0  0
  -28.0218  -12.3574   18.6292 C   0  0  0  0  0  0
  -27.6602  -13.2073   19.8757 C   0  0  2  0  0  0
  -28.6989  -13.0091   21.0047 C   0  0  0  0  0  0
  -25.2596  -13.8150   20.5683 C   0  0  0  0  0  0
  -24.1857  -13.0442   20.9203 C   0  0  0  0  0  0
  -24.6396  -11.6904   20.8748 C   0  0  0  0  0  0
  -23.9049  -10.4290   21.0412 C   0  0  0  0  0  0
  -24.3604   -9.4218   21.9191 C   0  0  0  0  0  0
  -23.6286   -8.2244   22.0752 C   0  0  0  0  0  0
  -22.4268   -8.0275   21.3537 C   0  0  0  0  0  0
  -21.9898   -9.0259   20.4651 C   0  0  0  0  0  0
  -22.7218  -10.2132   20.3073 C   0  0  0  0  0  0
  -21.6855   -6.0744   22.5289 C   0  0  0  0  0  0
  -21.4001   -6.5656   23.8216 C   0  0  0  0  0  0
  -21.3659   -5.6803   24.9186 C   0  0  0  0  0  0
  -21.6041   -4.3072   24.7228 C   0  0  0  0  0  0
  -21.8806   -3.8162   23.4351 C   0  0  0  0  0  0
  -21.9189   -4.6966   22.3415 C   0  0  0  0  0  0
  -22.7889  -13.5253   21.1886 C   0  0  0  0  0  0
  -22.1664   -4.2162   21.0983 F   0  0  0  0  0  0
  -21.5626   -3.4549   25.7746 F   0  0  0  0  0  0
  -30.0262  -13.3193   20.4518 N   0  0  0  0  0  0
  -26.3020  -12.9320   20.3355 N   0  0  0  0  0  0
  -25.9313  -11.6483   20.5772 N   0  0  0  0  0  0
  -22.0522  -12.8234   22.0431 N   0  0  0  0  0  0
  -25.4342  -15.1851   20.4040 N   0  0  0  0  0  0
  -31.8034  -14.6986   20.0977 O   0  0  0  0  0  0
  -21.6631   -6.8878   21.4249 O   0  0  0  0  0  0
  -22.3588  -14.5593   20.6786 O   0  0  0  0  0  0
  -24.6203  -31.8633   23.2029 C   0  0  0  0  0  0
  -25.9076  -32.4786   23.8318 C   0  0  1  0  0  0
  -27.2362  -27.4009   20.0948 C   0  0  0  0  0  0
  -25.5908  -33.8576   24.2262 N   0  0  0  0  0  0
  -23.4065  -30.4841   21.5472 C   0  0  2  0  0  0
  -24.8489  -28.9397   20.1141 C   0  0  0  0  0  0
  -22.7398  -29.4651   22.4994 C   0  0  0  0  0  0
  -18.0246  -28.1393   22.8524 C   0  0  0  0  0  0
  -24.1501  -36.7298   23.2631 C   0  0  0  0  0  0
  -25.9332  -30.8176   21.3568 C   0  0  0  0  0  0
  -26.0093  -29.4465   20.7112 C   0  0  0  0  0  0
  -27.2009  -28.6834   20.7003 C   0  0  0  0  0  0
  -26.0546  -26.9154   19.4906 C   0  0  0  0  0  0
  -24.8674  -27.6736   19.5039 C   0  0  0  0  0  0
  -23.6123  -29.8082   20.1645 C   0  0  0  0  0  0
  -25.4105  -36.3044   24.0308 C   0  0  1  0  0  0
  -20.5837  -28.3669   23.1319 C   0  0  2  0  0  0
  -20.6720  -26.9408   22.5417 C   0  0  0  0  0  0
  -19.5679  -26.6377   21.5265 C   0  0  0  0  0  0
  -18.1888  -26.7908   22.1746 C   0  0  0  0  0  0
  -19.1502  -28.8847   23.2918 C   0  0  0  0  0  0
  -18.9451  -30.1452   23.8926 C   0  0  0  0  0  0
  -17.6461  -30.6581   24.0604 C   0  0  0  0  0  0
  -25.9030  -34.9440   23.5066 C   0  0  0  0  0  0
  -16.5349  -29.9105   23.6357 C   0  0  0  0  0  0
  -16.7237  -28.6531   23.0358 C   0  0  0  0  0  0
  -26.4481  -31.6542   25.0658 C   0  0  0  0  0  0
  -25.3747  -31.3642   26.1398 C   0  0  0  0  0  0
  -27.0275  -30.2970   24.6002 C   0  0  0  0  0  0
  -27.6092  -32.4196   25.7425 C   0  0  0  0  0  0
  -27.5549  -37.1768   24.8457 C   0  0  0  0  0  0
  -21.4122  -29.3038   22.3725 N   0  0  0  0  0  0
  -26.4278  -37.3731   23.9395 N   0  0  0  0  0  0
  -24.6720  -31.0692   22.0956 N   0  0  0  0  0  0
  -23.4139  -28.8205   23.3060 O   0  0  0  0  0  0
  -28.4200  -26.6826   20.1299 O   0  0  0  0  0  0
  -26.5586  -34.8916   22.4622 O   0  0  0  0  0  0
  -23.5396  -32.1410   23.7422 O   0  0  0  0  0  0
  -26.3562  -22.9482   25.5929 C   0  0  0  0  0  0
  -27.6278  -25.0521   24.9728 C   0  0  0  0  0  0
  -29.7093  -17.9545   22.9548 C   0  0  0  0  0  0
  -27.7990  -17.6122   21.3594 C   0  0  0  0  0  0
  -26.9627  -21.0584   20.2229 C   0  0  0  0  0  0
  -27.8774  -24.2040   20.3955 C   0  0  0  0  0  0
  -27.8805  -22.9417   23.5540 C   0  0  0  0  0  0
  -28.7095  -22.8739   20.5586 C   0  0  0  0  0  0
  -27.1255  -22.1437   22.4585 C   0  0  0  0  0  0
  -30.1652  -16.9889   20.6765 C   0  0  0  0  0  0
  -29.4639  -19.4901   20.8985 C   0  0  0  0  0  0
  -28.5343  -25.3522   19.5716 C   0  0  0  0  0  0
  -26.9366  -23.7836   24.4439 C   0  0  0  0  0  0
  -29.2830  -18.0238   21.4718 C   0  0  0  0  0  0
  -27.9677  -21.6497   21.2417 C   0  0  1  0  0  0
  -29.9107  -15.5557   20.9693 N   0  0  0  0  0  0
  -28.8978  -20.5792   21.7656 N   0  3  0  0  0  0
  -31.4707  -12.4142   19.1511 H   0  0  0  0  0  0
  -30.3179  -11.3166   19.8503 H   0  0  0  0  0  0
  -29.7449  -11.7714   17.4458 H   0  0  0  0  0  0
  -29.6658  -13.4822   17.7667 H   0  0  0  0  0  0
  -27.8416  -11.3034   18.8392 H   0  0  0  0  0  0
  -27.3683  -12.6111   17.7939 H   0  0  0  0  0  0
  -27.6972  -14.2515   19.5659 H   0  0  0  0  0  0
  -28.6829  -11.9767   21.3584 H   0  0  0  0  0  0
  -28.4581  -13.6200   21.8766 H   0  0  0  0  0  0
  -25.2729   -9.5703   22.4776 H   0  0  0  0  0  0
  -24.0002   -7.4631   22.7457 H   0  0  0  0  0  0
  -21.0833   -8.8762   19.8957 H   0  0  0  0  0  0
  -22.3663  -10.9672   19.6196 H   0  0  0  0  0  0
  -21.1980   -7.6158   23.9725 H   0  0  0  0  0  0
  -21.1501   -6.0541   25.9086 H   0  0  0  0  0  0
  -22.0578   -2.7621   23.2849 H   0  0  0  0  0  0
  -22.4118  -11.9857   22.4758 H   0  0  0  0  0  0
  -21.1162  -13.1295   22.2665 H   0  0  0  0  0  0
  -24.6727  -15.8446   20.5153 H   0  0  0  0  0  0
  -26.2843  -15.6094   20.0554 H   0  0  0  0  0  0
  -26.7153  -32.5495   23.1073 H   0  0  0  0  0  0
  -25.0068  -33.9716   25.0423 H   0  0  0  0  0  0
  -22.6988  -31.3037   21.4048 H   0  0  0  0  0  0
  -23.3717  -35.9679   23.3271 H   0  0  0  0  0  0
  -24.3587  -36.8930   22.2047 H   0  0  0  0  0  0
  -23.7315  -37.6519   23.6680 H   0  0  0  0  0  0
  -26.0341  -31.5773   20.5808 H   0  0  0  0  0  0
  -26.8267  -30.8842   21.9665 H   0  0  0  0  0  0
  -28.0959  -29.0700   21.1686 H   0  0  0  0  0  0
  -26.0292  -25.9471   19.0151 H   0  0  0  0  0  0
  -23.9741  -27.2773   19.0398 H   0  0  0  0  0  0
  -23.7151  -30.5766   19.3961 H   0  0  0  0  0  0
  -22.7367  -29.2232   19.8769 H   0  0  0  0  0  0
  -25.1281  -36.1848   25.0792 H   0  0  0  0  0  0
  -20.9921  -28.3202   24.1437 H   0  0  0  0  0  0
  -20.5664  -26.2280   23.3596 H   0  0  0  0  0  0
  -21.6588  -26.7463   22.1206 H   0  0  0  0  0  0
  -19.6796  -25.6288   21.1312 H   0  0  0  0  0  0
  -19.6520  -27.3162   20.6751 H   0  0  0  0  0  0
  -17.4104  -26.6536   21.4223 H   0  0  0  0  0  0
  -18.0385  -26.0121   22.9244 H   0  0  0  0  0  0
  -19.7938  -30.7235   24.2300 H   0  0  0  0  0  0
  -17.5019  -31.6243   24.5252 H   0  0  0  0  0  0
  -15.5366  -30.3017   23.7724 H   0  0  0  0  0  0
  -15.8635  -28.0874   22.7048 H   0  0  0  0  0  0
  -24.5914  -30.7015   25.7675 H   0  0  0  0  0  0
  -24.8941  -32.2806   26.4832 H   0  0  0  0  0  0
  -25.8039  -30.8787   27.0169 H   0  0  0  0  0  0
  -26.2844  -29.6813   24.0938 H   0  0  0  0  0  0
  -27.3921  -29.7124   25.4455 H   0  0  0  0  0  0
  -27.8712  -30.4279   23.9223 H   0  0  0  0  0  0
  -27.2825  -33.3578   26.1918 H   0  0  0  0  0  0
  -28.3989  -32.6523   25.0272 H   0  0  0  0  0  0
  -28.0642  -31.8306   26.5391 H   0  0  0  0  0  0
  -28.2532  -38.0087   24.7495 H   0  0  0  0  0  0
  -28.1075  -36.2611   24.6298 H   0  0  0  0  0  0
  -27.2259  -37.1404   25.8856 H   0  0  0  0  0  0
  -20.9301  -29.8774   21.6951 H   0  0  0  0  0  0
  -26.0128  -38.2796   24.1394 H   0  0  0  0  0  0
  -25.6414  -23.5289   26.1759 H   0  0  0  0  0  0
  -27.1389  -22.6021   26.2695 H   0  0  0  0  0  0
  -25.8270  -22.0719   25.2221 H   0  0  0  0  0  0
  -26.9902  -25.5877   25.6775 H   0  0  0  0  0  0
  -27.8505  -25.7462   24.1598 H   0  0  0  0  0  0
  -28.5645  -24.8195   25.4827 H   0  0  0  0  0  0
  -29.6320  -16.9366   23.3401 H   0  0  0  0  0  0
  -30.7472  -18.2628   23.0863 H   0  0  0  0  0  0
  -29.0861  -18.5712   23.6013 H   0  0  0  0  0  0
  -27.6261  -16.6117   21.7563 H   0  0  0  0  0  0
  -27.4569  -17.6186   20.3244 H   0  0  0  0  0  0
  -27.1457  -18.2764   21.9259 H   0  0  0  0  0  0
  -26.1764  -21.7722   19.9770 H   0  0  0  0  0  0
  -26.4661  -20.1710   20.6107 H   0  0  0  0  0  0
  -27.4302  -20.8003   19.2740 H   0  0  0  0  0  0
  -27.6394  -24.6131   21.3766 H   0  0  0  0  0  0
  -26.9116  -23.9757   19.9453 H   0  0  0  0  0  0
  -28.6001  -23.6194   23.0990 H   0  0  0  0  0  0
  -28.4797  -22.2694   24.1710 H   0  0  0  0  0  0
  -29.6139  -23.1127   21.1163 H   0  0  0  0  0  0
  -29.0671  -22.5640   19.5754 H   0  0  0  0  0  0
  -26.3232  -22.7709   22.0699 H   0  0  0  0  0  0
  -26.6033  -21.3051   22.9234 H   0  0  0  0  0  0
  -31.2218  -17.2022   20.8537 H   0  0  0  0  0  0
  -30.0086  -17.1315   19.6060 H   0  0  0  0  0  0
  -29.0793  -19.5293   19.8814 H   0  0  0  0  0  0
  -30.5281  -19.7095   20.7939 H   0  0  0  0  0  0
  -28.1916  -25.3402   18.5358 H   0  0  0  0  0  0
  -29.6044  -25.1539   19.5123 H   0  0  0  0  0  0
  -26.1014  -24.1318   23.8363 H   0  0  0  0  0  0
  -28.9979  -15.3192   21.3255 H   0  0  0  0  0  0
  -29.6759  -21.0223   22.2296 H   0  0  0  0  0  0
  -28.3868  -20.0996   22.4910 H   0  0  0  0  0  0
  1 25  1  0  0  0
  1 30  2  0  0  0
  1 86  1  0  0  0
  2  3  1  0  0  0
  2 25  1  0  0  0
  2 88  1  0  0  0
  2 89  1  0  0  0
  3  4  1  0  0  0
  3 90  1  0  0  0
  3 91  1  0  0  0
  4  5  1  0  0  0
  4 92  1  0  0  0
  4 93  1  0  0  0
  5  6  1  0  0  0
  5 26  1  0  0  0
  5 94  1  0  0  0
  6 25  1  0  0  0
  6 95  1  0  0  0
  6 96  1  0  0  0
  7  8  2  0  0  0
  7 26  1  0  0  0
  7 29  1  0  0  0
  8  9  1  0  0  0
  8 22  1  0  0  0
  9 10  1  0  0  0
  9 27  2  0  0  0
 10 11  2  0  0  0
 10 15  1  0  0  0
 11 12  1  0  0  0
 11 97  1  0  0  0
 12 13  2  0  0  0
 12 98  1  0  0  0
 13 14  1  0  0  0
 13 31  1  0  0  0
 14 15  2  0  0  0
 14 99  1  0  0  0
 15100  1  0  0  0
 16 17  2  0  0  0
 16 21  1  0  0  0
 16 31  1  0  0  0
 17 18  1  0  0  0
 17101  1  0  0  0
 18 19  2  0  0  0
 18102  1  0  0  0
 19 20  1  0  0  0
 19 24  1  0  0  0
 20 21  2  0  0  0
 20103  1  0  0  0
 21 23  1  0  0  0
 22 28  1  0  0  0
 22 32  2  0  0  0
 26 27  1  0  0  0
 28104  1  0  0  0
 28105  1  0  0  0
 29106  1  0  0  0
 29107  1  0  0  0
 33 34  1  0  0  0
 33 66  1  0  0  0
 33 70  2  0  0  0
 34 36  1  0  0  0
 34 59  1  0  0  0
 34108  1  0  0  0
 35 44  2  0  0  0
 35 45  1  0  0  0
 35 68  1  0  0  0
 36 56  1  0  0  0
 36109  1  0  0  0
 37 39  1  0  0  0
 37 47  1  0  0  0
 37 66  1  0  0  0
 37110  1  0  0  0
 38 43  2  0  0  0
 38 46  1  0  0  0
 38 47  1  0  0  0
 39 64  1  0  0  0
 39 67  2  0  0  0
 40 52  1  0  0  0
 40 53  2  0  0  0
 40 58  1  0  0  0
 41111  1  0  0  0
 41112  1  0  0  0
 41113  1  0  0  0
 41 48  1  0  0  0
 42 43  1  0  0  0
 42 66  1  0  0  0
 42114  1  0  0  0
 42115  1  0  0  0
 43 44  1  0  0  0
 44116  1  0  0  0
 45 46  2  0  0  0
 45117  1  0  0  0
 46118  1  0  0  0
 47119  1  0  0  0
 47120  1  0  0  0
 48 56  1  0  0  0
 48 65  1  0  0  0
 48121  1  0  0  0
 49 50  1  0  0  0
 49 53  1  0  0  0
 49 64  1  0  0  0
 49122  1  0  0  0
 50 51  1  0  0  0
 50123  1  0  0  0
 50124  1  0  0  0
 51 52  1  0  0  0
 51125  1  0  0  0
 51126  1  0  0  0
 52127  1  0  0  0
 52128  1  0  0  0
 53 54  1  0  0  0
 54 55  2  0  0  0
 54129  1  0  0  0
 55 57  1  0  0  0
 55130  1  0  0  0
 56 69  2  0  0  0
 57 58  2  0  0  0
 57131  1  0  0  0
 58132  1  0  0  0
 59 60  1  0  0  0
 59 61  1  0  0  0
 59 62  1  0  0  0
 60133  1  0  0  0
 60134  1  0  0  0
 60135  1  0  0  0
 61136  1  0  0  0
 61137  1  0  0  0
 61138  1  0  0  0
 62139  1  0  0  0
 62140  1  0  0  0
 62141  1  0  0  0
 63 65  1  0  0  0
 63142  1  0  0  0
 63143  1  0  0  0
 63144  1  0  0  0
 64145  1  0  0  0
 65146  1  0  0  0
 68 82  1  0  0  0
 71147  1  0  0  0
 71148  1  0  0  0
 71149  1  0  0  0
 71 83  1  0  0  0
 72 83  1  0  0  0
 72150  1  0  0  0
 72151  1  0  0  0
 72152  1  0  0  0
 73153  1  0  0  0
 73154  1  0  0  0
 73155  1  0  0  0
 73 84  1  0  0  0
 74 84  1  0  0  0
 74156  1  0  0  0
 74157  1  0  0  0
 74158  1  0  0  0
 75159  1  0  0  0
 75160  1  0  0  0
 75161  1  0  0  0
 75 85  1  0  0  0
 76 78  1  0  0  0
 76 82  1  0  0  0
 76162  1  0  0  0
 76163  1  0  0  0
 77 79  1  0  0  0
 77 83  1  0  0  0
 77164  1  0  0  0
 77165  1  0  0  0
 78 85  1  0  0  0
 78166  1  0  0  0
 78167  1  0  0  0
 79 85  1  0  0  0
 79168  1  0  0  0
 79169  1  0  0  0
 80 84  1  0  0  0
 80 86  1  0  0  0
 80170  1  0  0  0
 80171  1  0  0  0
 81 84  1  0  0  0
 81 87  1  0  0  0
 81172  1  0  0  0
 81173  1  0  0  0
 82174  1  0  0  0
 82175  1  0  0  0
 83176  1  0  0  0
 85 87  1  0  0  0
 86177  1  0  0  0
 87178  1  0  0  0
 87179  1  0  0  0
M  CHG  1  87   1
M  ISO  4   1 100  68 101  82 101  86 100
M  END
> <chiral flag>
0

> <version>
0

> <s_m_source_file>
/data/baiqing/PycharmProjects/Reinvent-master-3.2/result/LINK_invent/BTK/process_docking_weight1_custom_sum_contain_oxygen_bond_distance_aromatic_linkinvent_7_9_3/rearranged_h_0103.sdf

> <i_m_source_file_index>
97

> <r_mmod_Potential_Energy-OPLS-2005>
-144.97624206543

> <r_mmod_Stretch_Energy-OPLS-2005>
54.9717178344727

> <r_mmod_Bend_Energy-OPLS-2005>
139.839538574219

> <r_mmod_Torsional_Energy-OPLS-2005>
274.266510009766

> <r_mmod_Improper_Torsional_Energy-OPLS-2005>
5.35386037826538

> <r_mmod_Van_der_Waal_Energy-OPLS-2005>
128.802734375

> <r_mmod_Electrostatic_Energy-OPLS-2005>
-325.684692382812

> <r_mmod_Solvation_Energy-OPLS-2005>
-440.948394775391

> <b_mmod_Minimization_Converged-OPLS-2005>
0

> <r_mmod_RMS_Derivative-OPLS-2005>
3.53276515007019

$$$$
