0
                    3D
 Structure written by MMmdl.
165173  0  0  1  0            999 V2000
  -30.7178  -14.4061   20.6529 C   0  0  0  0  0  0
  -30.4303  -12.2997   19.3975 C   0  0  0  0  0  0
  -29.4908  -12.5059   18.1938 C   0  0  0  0  0  0
  -28.0111  -12.3688   18.6120 C   0  0  0  0  0  0
  -27.6641  -13.1983   19.8771 C   0  0  2  0  0  0
  -28.7019  -12.9329   20.9886 C   0  0  0  0  0  0
  -25.2616  -13.8152   20.5701 C   0  0  0  0  0  0
  -24.1845  -13.0428   20.9187 C   0  0  0  0  0  0
  -24.6389  -11.6898   20.8750 C   0  0  0  0  0  0
  -23.9039  -10.4295   21.0423 C   0  0  0  0  0  0
  -24.3599   -9.4214   21.9197 C   0  0  0  0  0  0
  -23.6291   -8.2228   22.0744 C   0  0  0  0  0  0
  -22.4276   -8.0264   21.3527 C   0  0  0  0  0  0
  -21.9907   -9.0240   20.4634 C   0  0  0  0  0  0
  -22.7222  -10.2131   20.3057 C   0  0  0  0  0  0
  -21.6844   -6.0729   22.5290 C   0  0  0  0  0  0
  -21.4008   -6.5628   23.8225 C   0  0  0  0  0  0
  -21.3663   -5.6782   24.9185 C   0  0  0  0  0  0
  -21.6047   -4.3041   24.7231 C   0  0  0  0  0  0
  -21.8816   -3.8133   23.4352 C   0  0  0  0  0  0
  -21.9192   -4.6959   22.3415 C   0  0  0  0  0  0
  -22.7873  -13.5247   21.1845 C   0  0  0  0  0  0
  -22.1664   -4.2149   21.0989 F   0  0  0  0  0  0
  -21.5636   -3.4525   25.7737 F   0  0  0  0  0  0
  -30.0369  -13.2494   20.4470 N   0  0  0  0  0  0
  -26.3029  -12.9298   20.3363 N   0  0  0  0  0  0
  -25.9308  -11.6466   20.5767 N   0  0  0  0  0  0
  -22.0492  -12.8259   22.0407 N   0  0  0  0  0  0
  -25.4357  -15.1856   20.4135 N   0  0  0  0  0  0
  -31.8059  -14.6617   20.1278 O   0  0  0  0  0  0
  -21.6624   -6.8875   21.4247 O   0  0  0  0  0  0
  -22.3578  -14.5550   20.6692 O   0  0  0  0  0  0
  -24.6114  -31.8706   23.2138 C   0  0  0  0  0  0
  -25.9023  -32.4854   23.8431 C   0  0  1  0  0  0
  -27.2416  -27.4755   20.1022 C   0  0  0  0  0  0
  -25.5900  -33.8661   24.2373 N   0  0  0  0  0  0
  -23.3983  -30.4945   21.5519 C   0  0  2  0  0  0
  -24.8493  -28.9603   20.1192 C   0  0  0  0  0  0
  -22.7397  -29.4700   22.5000 C   0  0  0  0  0  0
  -18.0295  -28.1359   22.8490 C   0  0  0  0  0  0
  -24.1480  -36.7306   23.2636 C   0  0  0  0  0  0
  -25.9232  -30.8449   21.3654 C   0  0  0  0  0  0
  -26.0019  -29.4803   20.7210 C   0  0  0  0  0  0
  -27.2024  -28.7421   20.7202 C   0  0  0  0  0  0
  -26.0810  -26.9602   19.4899 C   0  0  0  0  0  0
  -24.8802  -27.6955   19.5029 C   0  0  0  0  0  0
  -23.6077  -29.8220   20.1679 C   0  0  0  0  0  0
  -25.4108  -36.3139   24.0341 C   0  0  1  0  0  0
  -20.5875  -28.3701   23.1322 C   0  0  2  0  0  0
  -20.6859  -26.9445   22.5410 C   0  0  0  0  0  0
  -19.5828  -26.6355   21.5248 C   0  0  0  0  0  0
  -18.1989  -26.7896   22.1644 C   0  0  0  0  0  0
  -19.1530  -28.8848   23.2894 C   0  0  0  0  0  0
  -18.9430  -30.1460   23.8889 C   0  0  0  0  0  0
  -17.6425  -30.6584   24.0504 C   0  0  0  0  0  0
  -25.9019  -34.9498   23.5139 C   0  0  0  0  0  0
  -16.5322  -29.9054   23.6270 C   0  0  0  0  0  0
  -16.7273  -28.6463   23.0328 C   0  0  0  0  0  0
  -26.4490  -31.6621   25.0728 C   0  0  0  0  0  0
  -25.3776  -31.3692   26.1481 C   0  0  0  0  0  0
  -27.0321  -30.3074   24.6056 C   0  0  0  0  0  0
  -27.6072  -32.4342   25.7484 C   0  0  0  0  0  0
  -27.5590  -37.1826   24.8474 C   0  0  0  0  0  0
  -21.4125  -29.3111   22.3762 N   0  0  0  0  0  0
  -26.4303  -37.3819   23.9411 N   0  0  0  0  0  0
  -24.6626  -31.0846   22.1019 N   0  0  0  0  0  0
  -23.4178  -28.8219   23.3009 O   0  0  0  0  0  0
  -28.4001  -26.7454   20.0614 O   0  0  0  0  0  0
  -26.5574  -34.8933   22.4698 O   0  0  0  0  0  0
  -23.5311  -32.1449   23.7548 O   0  0  0  0  0  0
  -26.1063  -22.7934   23.2287 C   0  0  0  0  0  0
  -27.3896  -22.8056   22.7467 C   0  0  0  0  0  0
  -26.5314  -20.7656   22.4231 C   0  0  0  0  0  0
  -24.2263  -21.1167   23.2979 C   0  0  0  0  0  0
  -28.3602  -23.9379   22.6175 C   0  0  0  0  0  0
  -26.4172  -19.3282   21.9819 C   0  0  0  0  0  0
  -27.8825  -24.8795   21.5039 C   0  0  0  0  0  0
  -29.5471  -17.3611   22.6757 C   0  0  0  0  0  0
  -30.6212  -16.5626   21.9115 C   0  0  0  0  0  0
  -28.4638  -18.0140   21.7913 C   0  0  0  0  0  0
  -28.7570  -26.1245   21.2940 C   0  0  0  0  0  0
  -25.5967  -21.5434   22.9993 N   0  0  0  0  0  0
  -27.6199  -21.5330   22.2803 N   0  3  0  0  0  0
  -30.0926  -15.2852   21.4461 N   0  0  0  0  0  0
  -27.3588  -18.4297   22.6507 N   0  0  0  0  0  0
  -31.4698  -12.4259   19.0866 H   0  0  0  0  0  0
  -30.3531  -11.2802   19.7777 H   0  0  0  0  0  0
  -29.7257  -11.7880   17.4077 H   0  0  0  0  0  0
  -29.6623  -13.4928   17.7630 H   0  0  0  0  0  0
  -27.8160  -11.3125   18.7991 H   0  0  0  0  0  0
  -27.3595  -12.6500   17.7849 H   0  0  0  0  0  0
  -27.7233  -14.2526   19.6054 H   0  0  0  0  0  0
  -28.6735  -11.8832   21.2828 H   0  0  0  0  0  0
  -28.4501  -13.4813   21.8972 H   0  0  0  0  0  0
  -25.2739   -9.5690   22.4770 H   0  0  0  0  0  0
  -23.9999   -7.4620   22.7455 H   0  0  0  0  0  0
  -21.0835   -8.8748   19.8951 H   0  0  0  0  0  0
  -22.3674  -10.9659   19.6154 H   0  0  0  0  0  0
  -21.1980   -7.6135   23.9735 H   0  0  0  0  0  0
  -21.1501   -6.0504   25.9096 H   0  0  0  0  0  0
  -22.0594   -2.7599   23.2850 H   0  0  0  0  0  0
  -22.4065  -11.9924   22.4829 H   0  0  0  0  0  0
  -21.1098  -13.1297   22.2556 H   0  0  0  0  0  0
  -24.6811  -15.8484   20.5509 H   0  0  0  0  0  0
  -26.2988  -15.6244   20.1181 H   0  0  0  0  0  0
  -26.7102  -32.5567   23.1213 H   0  0  0  0  0  0
  -25.0167  -33.9883   25.0598 H   0  0  0  0  0  0
  -22.6857  -31.3114   21.4157 H   0  0  0  0  0  0
  -23.3756  -35.9631   23.3328 H   0  0  0  0  0  0
  -24.3567  -36.8874   22.2039 H   0  0  0  0  0  0
  -23.7206  -37.6512   23.6622 H   0  0  0  0  0  0
  -26.0270  -31.6056   20.5921 H   0  0  0  0  0  0
  -26.8149  -30.9022   21.9798 H   0  0  0  0  0  0
  -28.0926  -29.1449   21.1833 H   0  0  0  0  0  0
  -26.1069  -25.9903   19.0148 H   0  0  0  0  0  0
  -23.9937  -27.2862   19.0382 H   0  0  0  0  0  0
  -23.7123  -30.5942   19.4044 H   0  0  0  0  0  0
  -22.7336  -29.2389   19.8745 H   0  0  0  0  0  0
  -25.1296  -36.2028   25.0839 H   0  0  0  0  0  0
  -20.9943  -28.3253   24.1436 H   0  0  0  0  0  0
  -20.5882  -26.2301   23.3599 H   0  0  0  0  0  0
  -21.6709  -26.7611   22.1100 H   0  0  0  0  0  0
  -19.6999  -25.6254   21.1315 H   0  0  0  0  0  0
  -19.6769  -27.3157   20.6759 H   0  0  0  0  0  0
  -17.4290  -26.6613   21.4016 H   0  0  0  0  0  0
  -18.0403  -26.0042   22.9054 H   0  0  0  0  0  0
  -19.7893  -30.7314   24.2238 H   0  0  0  0  0  0
  -17.4951  -31.6289   24.5067 H   0  0  0  0  0  0
  -15.5318  -30.2961   23.7533 H   0  0  0  0  0  0
  -15.8693  -28.0766   22.7034 H   0  0  0  0  0  0
  -24.5947  -30.7054   25.7799 H   0  0  0  0  0  0
  -24.8981  -32.2830   26.4985 H   0  0  0  0  0  0
  -25.8131  -30.8807   27.0201 H   0  0  0  0  0  0
  -26.2829  -29.6819   24.1171 H   0  0  0  0  0  0
  -27.4183  -29.7334   25.4493 H   0  0  0  0  0  0
  -27.8643  -30.4432   23.9141 H   0  0  0  0  0  0
  -27.2703  -33.3638   26.2105 H   0  0  0  0  0  0
  -28.3862  -32.6909   25.0287 H   0  0  0  0  0  0
  -28.0777  -31.8433   26.5367 H   0  0  0  0  0  0
  -28.2646  -38.0094   24.7541 H   0  0  0  0  0  0
  -28.1057  -36.2633   24.6310 H   0  0  0  0  0  0
  -27.2304  -37.1482   25.8877 H   0  0  0  0  0  0
  -20.9265  -29.8917   21.7066 H   0  0  0  0  0  0
  -26.0190  -38.2901   24.1421 H   0  0  0  0  0  0
  -25.5178  -23.5878   23.6681 H   0  0  0  0  0  0
  -23.7755  -21.8172   24.0016 H   0  0  0  0  0  0
  -24.2265  -20.1231   23.7459 H   0  0  0  0  0  0
  -23.6512  -21.1177   22.3717 H   0  0  0  0  0  0
  -29.3557  -23.5545   22.3931 H   0  0  0  0  0  0
  -28.4313  -24.4685   23.5678 H   0  0  0  0  0  0
  -26.5100  -19.3098   20.8944 H   0  0  0  0  0  0
  -25.4020  -19.0049   22.2074 H   0  0  0  0  0  0
  -26.8648  -25.2048   21.7254 H   0  0  0  0  0  0
  -27.8283  -24.3177   20.5709 H   0  0  0  0  0  0
  -30.0459  -18.1462   23.2486 H   0  0  0  0  0  0
  -29.0825  -16.7014   23.4132 H   0  0  0  0  0  0
  -31.4544  -16.3441   22.5811 H   0  0  0  0  0  0
  -31.0277  -17.1508   21.0878 H   0  0  0  0  0  0
  -28.1027  -17.3095   21.0380 H   0  0  0  0  0  0
  -28.8822  -18.8669   21.2506 H   0  0  0  0  0  0
  -28.6659  -26.8095   22.1405 H   0  0  0  0  0  0
  -29.8077  -25.8422   21.2372 H   0  0  0  0  0  0
  -28.4792  -21.2149   21.8497 H   0  0  0  0  0  0
  -29.1872  -15.0069   21.7940 H   0  0  0  0  0  0
  -27.7269  -18.9079   23.4687 H   0  0  0  0  0  0
  1 25  1  0  0  0
  1 30  2  0  0  0
  1 84  1  0  0  0
  2  3  1  0  0  0
  2 25  1  0  0  0
  2 86  1  0  0  0
  2 87  1  0  0  0
  3  4  1  0  0  0
  3 88  1  0  0  0
  3 89  1  0  0  0
  4  5  1  0  0  0
  4 90  1  0  0  0
  4 91  1  0  0  0
  5  6  1  0  0  0
  5 26  1  0  0  0
  5 92  1  0  0  0
  6 25  1  0  0  0
  6 93  1  0  0  0
  6 94  1  0  0  0
  7  8  2  0  0  0
  7 26  1  0  0  0
  7 29  1  0  0  0
  8  9  1  0  0  0
  8 22  1  0  0  0
  9 10  1  0  0  0
  9 27  2  0  0  0
 10 11  2  0  0  0
 10 15  1  0  0  0
 11 12  1  0  0  0
 11 95  1  0  0  0
 12 13  2  0  0  0
 12 96  1  0  0  0
 13 14  1  0  0  0
 13 31  1  0  0  0
 14 15  2  0  0  0
 14 97  1  0  0  0
 15 98  1  0  0  0
 16 17  2  0  0  0
 16 21  1  0  0  0
 16 31  1  0  0  0
 17 18  1  0  0  0
 17 99  1  0  0  0
 18 19  2  0  0  0
 18100  1  0  0  0
 19 20  1  0  0  0
 19 24  1  0  0  0
 20 21  2  0  0  0
 20101  1  0  0  0
 21 23  1  0  0  0
 22 28  1  0  0  0
 22 32  2  0  0  0
 26 27  1  0  0  0
 28102  1  0  0  0
 28103  1  0  0  0
 29104  1  0  0  0
 29105  1  0  0  0
 33 34  1  0  0  0
 33 66  1  0  0  0
 33 70  2  0  0  0
 34 36  1  0  0  0
 34 59  1  0  0  0
 34106  1  0  0  0
 35 44  2  0  0  0
 35 45  1  0  0  0
 35 68  1  0  0  0
 36 56  1  0  0  0
 36107  1  0  0  0
 37 39  1  0  0  0
 37 47  1  0  0  0
 37 66  1  0  0  0
 37108  1  0  0  0
 38 43  2  0  0  0
 38 46  1  0  0  0
 38 47  1  0  0  0
 39 64  1  0  0  0
 39 67  2  0  0  0
 40 52  1  0  0  0
 40 53  2  0  0  0
 40 58  1  0  0  0
 41109  1  0  0  0
 41110  1  0  0  0
 41111  1  0  0  0
 41 48  1  0  0  0
 42 43  1  0  0  0
 42 66  1  0  0  0
 42112  1  0  0  0
 42113  1  0  0  0
 43 44  1  0  0  0
 44114  1  0  0  0
 45 46  2  0  0  0
 45115  1  0  0  0
 46116  1  0  0  0
 47117  1  0  0  0
 47118  1  0  0  0
 48 56  1  0  0  0
 48 65  1  0  0  0
 48119  1  0  0  0
 49 50  1  0  0  0
 49 53  1  0  0  0
 49 64  1  0  0  0
 49120  1  0  0  0
 50 51  1  0  0  0
 50121  1  0  0  0
 50122  1  0  0  0
 51 52  1  0  0  0
 51123  1  0  0  0
 51124  1  0  0  0
 52125  1  0  0  0
 52126  1  0  0  0
 53 54  1  0  0  0
 54 55  2  0  0  0
 54127  1  0  0  0
 55 57  1  0  0  0
 55128  1  0  0  0
 56 69  2  0  0  0
 57 58  2  0  0  0
 57129  1  0  0  0
 58130  1  0  0  0
 59 60  1  0  0  0
 59 61  1  0  0  0
 59 62  1  0  0  0
 60131  1  0  0  0
 60132  1  0  0  0
 60133  1  0  0  0
 61134  1  0  0  0
 61135  1  0  0  0
 61136  1  0  0  0
 62137  1  0  0  0
 62138  1  0  0  0
 62139  1  0  0  0
 63 65  1  0  0  0
 63140  1  0  0  0
 63141  1  0  0  0
 63142  1  0  0  0
 64143  1  0  0  0
 65144  1  0  0  0
 68 81  1  0  0  0
 71 72  2  0  0  0
 71 82  1  0  0  0
 71145  1  0  0  0
 72 75  1  0  0  0
 72 83  1  0  0  0
 73 76  1  0  0  0
 73 82  1  0  0  0
 73 83  2  0  0  0
 74 82  1  0  0  0
 74146  1  0  0  0
 74147  1  0  0  0
 74148  1  0  0  0
 75 77  1  0  0  0
 75149  1  0  0  0
 75150  1  0  0  0
 76 85  1  0  0  0
 76151  1  0  0  0
 76152  1  0  0  0
 77 81  1  0  0  0
 77153  1  0  0  0
 77154  1  0  0  0
 78 79  1  0  0  0
 78 80  1  0  0  0
 78155  1  0  0  0
 78156  1  0  0  0
 79 84  1  0  0  0
 79157  1  0  0  0
 79158  1  0  0  0
 80 85  1  0  0  0
 80159  1  0  0  0
 80160  1  0  0  0
 81161  1  0  0  0
 81162  1  0  0  0
 83163  1  0  0  0
 84164  1  0  0  0
 85165  1  0  0  0
M  CHG  1  83   1
M  ISO  4   1 100  68 101  81 101  84 100
M  END
> <chiral flag>
0

> <version>
0

> <s_m_source_file>
/data/baiqing/PycharmProjects/Reinvent-master-3.2/result/LINK_invent/BTK/process_docking_weight1_custom_sum_contain_oxygen_bond_distance_aromatic_linkinvent_7_9_3/rearranged_h_0044.sdf

> <i_m_source_file_index>
1

> <r_mmod_Potential_Energy-OPLS-2005>
-108.460235595703

> <r_mmod_Stretch_Energy-OPLS-2005>
30.8013191223145

> <r_mmod_Bend_Energy-OPLS-2005>
90.1292114257812

> <r_mmod_Torsional_Energy-OPLS-2005>
240.370025634766

> <r_mmod_Improper_Torsional_Energy-OPLS-2005>
2.03021931648254

> <r_mmod_Van_der_Waal_Energy-OPLS-2005>
122.709365844727

> <r_mmod_Electrostatic_Energy-OPLS-2005>
-172.443649291992

> <r_mmod_Solvation_Energy-OPLS-2005>
-429.539947509766

> <b_mmod_Minimization_Converged-OPLS-2005>
0

> <r_mmod_RMS_Derivative-OPLS-2005>
3.27957630157471

$$$$
1
                    3D
 Structure written by MMmdl.
158166  0  0  1  0            999 V2000
  -30.6095  -14.6872   20.4735 C   0  0  0  0  0  0
  -30.4377  -12.4130   19.4706 C   0  0  0  0  0  0
  -29.5119  -12.5214   18.2365 C   0  0  0  0  0  0
  -28.0349  -12.3464   18.6418 C   0  0  0  0  0  0
  -27.6488  -13.2244   19.8601 C   0  0  2  0  0  0
  -28.6940  -13.1103   20.9907 C   0  0  0  0  0  0
  -25.2551  -13.8180   20.5712 C   0  0  0  0  0  0
  -24.1818  -13.0429   20.9192 C   0  0  0  0  0  0
  -24.6393  -11.6908   20.8729 C   0  0  0  0  0  0
  -23.9060  -10.4294   21.0397 C   0  0  0  0  0  0
  -24.3614   -9.4215   21.9174 C   0  0  0  0  0  0
  -23.6299   -8.2247   22.0742 C   0  0  0  0  0  0
  -22.4279   -8.0280   21.3543 C   0  0  0  0  0  0
  -21.9913   -9.0246   20.4638 C   0  0  0  0  0  0
  -22.7233  -10.2131   20.3049 C   0  0  0  0  0  0
  -21.6865   -6.0736   22.5278 C   0  0  0  0  0  0
  -21.4026   -6.5637   23.8211 C   0  0  0  0  0  0
  -21.3667   -5.6783   24.9170 C   0  0  0  0  0  0
  -21.6046   -4.3048   24.7220 C   0  0  0  0  0  0
  -21.8820   -3.8144   23.4339 C   0  0  0  0  0  0
  -21.9204   -4.6963   22.3401 C   0  0  0  0  0  0
  -22.7844  -13.5217   21.1874 C   0  0  0  0  0  0
  -22.1667   -4.2152   21.0978 F   0  0  0  0  0  0
  -21.5630   -3.4528   25.7732 F   0  0  0  0  0  0
  -30.0118  -13.4494   20.4341 N   0  0  0  0  0  0
  -26.2973  -12.9363   20.3328 N   0  0  0  0  0  0
  -25.9323  -11.6508   20.5747 N   0  0  0  0  0  0
  -22.0499  -12.8181   22.0419 N   0  0  0  0  0  0
  -25.4276  -15.1899   20.4164 N   0  0  0  0  0  0
  -31.7968  -14.8067   20.1541 O   0  0  0  0  0  0
  -21.6650   -6.8875   21.4239 O   0  0  0  0  0  0
  -22.3516  -14.5530   20.6752 O   0  0  0  0  0  0
  -24.6292  -31.8585   23.2033 C   0  0  0  0  0  0
  -25.9133  -32.4771   23.8358 C   0  0  1  0  0  0
  -27.2177  -27.2870   20.1172 C   0  0  0  0  0  0
  -25.5937  -33.8573   24.2283 N   0  0  0  0  0  0
  -23.4237  -30.4842   21.5477 C   0  0  2  0  0  0
  -24.8689  -28.9396   20.1166 C   0  0  0  0  0  0
  -22.7492  -29.4612   22.4935 C   0  0  0  0  0  0
  -18.0292  -28.1379   22.8490 C   0  0  0  0  0  0
  -24.1488  -36.7284   23.2633 C   0  0  0  0  0  0
  -25.9696  -30.7804   21.3804 C   0  0  0  0  0  0
  -26.0434  -29.4065   20.7200 C   0  0  0  0  0  0
  -27.2207  -28.5934   20.7098 C   0  0  0  0  0  0
  -26.0108  -26.8842   19.4949 C   0  0  0  0  0  0
  -24.8560  -27.6846   19.4976 C   0  0  0  0  0  0
  -23.6409  -29.8252   20.1627 C   0  0  0  0  0  0
  -25.4116  -36.3072   24.0323 C   0  0  1  0  0  0
  -20.5894  -28.3684   23.1285 C   0  0  2  0  0  0
  -20.6789  -26.9407   22.5405 C   0  0  0  0  0  0
  -19.5755  -26.6380   21.5214 C   0  0  0  0  0  0
  -18.1938  -26.7921   22.1630 C   0  0  0  0  0  0
  -19.1543  -28.8848   23.2885 C   0  0  0  0  0  0
  -18.9460  -30.1451   23.8895 C   0  0  0  0  0  0
  -17.6459  -30.6584   24.0554 C   0  0  0  0  0  0
  -25.9055  -34.9443   23.5101 C   0  0  0  0  0  0
  -16.5357  -29.9079   23.6326 C   0  0  0  0  0  0
  -16.7280  -28.6495   23.0352 C   0  0  0  0  0  0
  -26.4503  -31.6582   25.0737 C   0  0  0  0  0  0
  -25.3702  -31.3735   26.1433 C   0  0  0  0  0  0
  -27.0362  -30.3005   24.6214 C   0  0  0  0  0  0
  -27.6066  -32.4295   25.7519 C   0  0  0  0  0  0
  -27.5582  -37.1799   24.8463 C   0  0  0  0  0  0
  -21.4201  -29.3042   22.3680 N   0  0  0  0  0  0
  -26.4294  -37.3773   23.9404 N   0  0  0  0  0  0
  -24.6932  -31.0576   22.1002 N   0  0  0  0  0  0
  -23.4209  -28.8128   23.3003 O   0  0  0  0  0  0
  -28.3256  -26.4109   20.1556 O   0  0  0  0  0  0
  -26.5620  -34.8916   22.4666 O   0  0  0  0  0  0
  -23.5445  -32.1400   23.7340 O   0  0  0  0  0  0
  -31.1417  -21.9242   19.6268 C   0  0  0  0  0  0
  -30.4198  -24.1179   19.3060 C   0  0  0  0  0  0
  -29.9540  -21.5894   20.3324 C   0  0  0  0  0  0
  -29.2184  -23.8656   20.0165 C   0  0  0  0  0  0
  -32.2777  -20.9382   19.4183 C   0  0  0  0  0  0
  -30.7269  -25.4635   18.6727 C   0  0  0  0  0  0
  -29.8288  -20.1839   21.0586 C   0  0  0  0  0  0
  -28.0584  -24.9399   20.0630 C   0  0  0  0  0  0
  -29.7403  -16.0159   20.6475 C   0  0  0  0  0  0
  -29.7080  -18.7910   20.2633 C   0  0  0  0  0  0
  -30.4093  -17.4645   20.8634 C   0  0  0  0  0  0
  -31.3624  -23.1621   19.1200 N   0  0  0  0  0  0
  -28.9977  -22.5821   20.5154 N   0  0  0  0  0  0
  -31.4812  -12.5301   19.1727 H   0  0  0  0  0  0
  -30.3645  -11.4218   19.9217 H   0  0  0  0  0  0
  -29.7851  -11.7779   17.4871 H   0  0  0  0  0  0
  -29.6462  -13.4964   17.7659 H   0  0  0  0  0  0
  -27.8794  -11.2933   18.8787 H   0  0  0  0  0  0
  -27.3808  -12.5666   17.7980 H   0  0  0  0  0  0
  -27.6533  -14.2553   19.5082 H   0  0  0  0  0  0
  -28.7091  -12.0975   21.3954 H   0  0  0  0  0  0
  -28.4333  -13.7575   21.8284 H   0  0  0  0  0  0
  -25.2758   -9.5695   22.4738 H   0  0  0  0  0  0
  -24.0026   -7.4635   22.7447 H   0  0  0  0  0  0
  -21.0856   -8.8753   19.8922 H   0  0  0  0  0  0
  -22.3696  -10.9662   19.6152 H   0  0  0  0  0  0
  -21.2012   -7.6141   23.9717 H   0  0  0  0  0  0
  -21.1490   -6.0511   25.9073 H   0  0  0  0  0  0
  -22.0595   -2.7608   23.2839 H   0  0  0  0  0  0
  -22.4142  -11.9832   22.4764 H   0  0  0  0  0  0
  -21.1116  -13.1178   22.2650 H   0  0  0  0  0  0
  -24.6660  -15.8505   20.5301 H   0  0  0  0  0  0
  -26.2898  -15.6293   20.1174 H   0  0  0  0  0  0
  -26.7198  -32.5433   23.1100 H   0  0  0  0  0  0
  -25.0067  -33.9721   25.0414 H   0  0  0  0  0  0
  -22.7181  -31.3054   21.4053 H   0  0  0  0  0  0
  -23.3757  -35.9611   23.3285 H   0  0  0  0  0  0
  -24.3583  -36.8918   22.2052 H   0  0  0  0  0  0
  -23.7243  -37.6480   23.6665 H   0  0  0  0  0  0
  -26.1048  -31.5437   20.6126 H   0  0  0  0  0  0
  -26.8486  -30.8288   22.0121 H   0  0  0  0  0  0
  -28.1198  -28.9461   21.1955 H   0  0  0  0  0  0
  -25.9049  -25.9323   19.0007 H   0  0  0  0  0  0
  -23.9547  -27.3202   19.0256 H   0  0  0  0  0  0
  -23.7697  -30.6051   19.4105 H   0  0  0  0  0  0
  -22.7587  -29.2618   19.8517 H   0  0  0  0  0  0
  -25.1300  -36.1921   25.0818 H   0  0  0  0  0  0
  -20.9989  -28.3248   24.1404 H   0  0  0  0  0  0
  -20.5707  -26.2281   23.3600 H   0  0  0  0  0  0
  -21.6650  -26.7445   22.1182 H   0  0  0  0  0  0
  -19.6918  -25.6290   21.1245 H   0  0  0  0  0  0
  -19.6698  -27.3191   20.6742 H   0  0  0  0  0  0
  -17.4208  -26.6670   21.4032 H   0  0  0  0  0  0
  -18.0340  -26.0066   22.9025 H   0  0  0  0  0  0
  -19.7930  -30.7270   24.2274 H   0  0  0  0  0  0
  -17.5008  -31.6268   24.5139 H   0  0  0  0  0  0
  -15.5353  -30.2977   23.7642 H   0  0  0  0  0  0
  -15.8682  -28.0808   22.7073 H   0  0  0  0  0  0
  -24.5880  -30.7100   25.7730 H   0  0  0  0  0  0
  -24.8889  -32.2910   26.4825 H   0  0  0  0  0  0
  -25.7977  -30.8909   27.0228 H   0  0  0  0  0  0
  -26.2967  -29.6746   24.1209 H   0  0  0  0  0  0
  -27.4026  -29.7272   25.4738 H   0  0  0  0  0  0
  -27.8840  -30.4295   23.9485 H   0  0  0  0  0  0
  -27.2697  -33.3590   26.2118 H   0  0  0  0  0  0
  -28.3883  -32.6852   25.0353 H   0  0  0  0  0  0
  -28.0725  -31.8392   26.5418 H   0  0  0  0  0  0
  -28.2583  -38.0110   24.7517 H   0  0  0  0  0  0
  -28.1094  -36.2639   24.6278 H   0  0  0  0  0  0
  -27.2293  -37.1430   25.8864 H   0  0  0  0  0  0
  -20.9373  -29.8782   21.6909 H   0  0  0  0  0  0
  -26.0166  -38.2843   24.1416 H   0  0  0  0  0  0
  -32.0154  -20.2078   18.6533 H   0  0  0  0  0  0
  -32.5189  -20.4077   20.3383 H   0  0  0  0  0  0
  -33.1866  -21.4470   19.0948 H   0  0  0  0  0  0
  -29.8638  -25.8533   18.1341 H   0  0  0  0  0  0
  -31.5483  -25.3923   17.9586 H   0  0  0  0  0  0
  -31.0097  -26.1868   19.4371 H   0  0  0  0  0  0
  -28.9888  -20.2474   21.7502 H   0  0  0  0  0  0
  -30.6981  -20.1181   21.7129 H   0  0  0  0  0  0
  -27.3679  -24.6629   20.8613 H   0  0  0  0  0  0
  -27.5477  -24.7393   19.1232 H   0  0  0  0  0  0
  -29.1499  -16.0747   19.7340 H   0  0  0  0  0  0
  -29.0180  -15.8612   21.4474 H   0  0  0  0  0  0
  -30.1056  -18.9302   19.2585 H   0  0  0  0  0  0
  -28.6467  -18.5975   20.1052 H   0  0  0  0  0  0
  -31.4346  -17.4369   20.4920 H   0  0  0  0  0  0
  -30.5168  -17.6021   21.9404 H   0  0  0  0  0  0
  1 25  1  0  0  0
  1 30  2  0  0  0
  1 79  1  0  0  0
  2  3  1  0  0  0
  2 25  1  0  0  0
  2 84  1  0  0  0
  2 85  1  0  0  0
  3  4  1  0  0  0
  3 86  1  0  0  0
  3 87  1  0  0  0
  4  5  1  0  0  0
  4 88  1  0  0  0
  4 89  1  0  0  0
  5  6  1  0  0  0
  5 26  1  0  0  0
  5 90  1  0  0  0
  6 25  1  0  0  0
  6 91  1  0  0  0
  6 92  1  0  0  0
  7  8  2  0  0  0
  7 26  1  0  0  0
  7 29  1  0  0  0
  8  9  1  0  0  0
  8 22  1  0  0  0
  9 10  1  0  0  0
  9 27  2  0  0  0
 10 11  2  0  0  0
 10 15  1  0  0  0
 11 12  1  0  0  0
 11 93  1  0  0  0
 12 13  2  0  0  0
 12 94  1  0  0  0
 13 14  1  0  0  0
 13 31  1  0  0  0
 14 15  2  0  0  0
 14 95  1  0  0  0
 15 96  1  0  0  0
 16 17  2  0  0  0
 16 21  1  0  0  0
 16 31  1  0  0  0
 17 18  1  0  0  0
 17 97  1  0  0  0
 18 19  2  0  0  0
 18 98  1  0  0  0
 19 20  1  0  0  0
 19 24  1  0  0  0
 20 21  2  0  0  0
 20 99  1  0  0  0
 21 23  1  0  0  0
 22 28  1  0  0  0
 22 32  2  0  0  0
 26 27  1  0  0  0
 28100  1  0  0  0
 28101  1  0  0  0
 29102  1  0  0  0
 29103  1  0  0  0
 33 34  1  0  0  0
 33 66  1  0  0  0
 33 70  2  0  0  0
 34 36  1  0  0  0
 34 59  1  0  0  0
 34104  1  0  0  0
 35 44  2  0  0  0
 35 45  1  0  0  0
 35 68  1  0  0  0
 36 56  1  0  0  0
 36105  1  0  0  0
 37 39  1  0  0  0
 37 47  1  0  0  0
 37 66  1  0  0  0
 37106  1  0  0  0
 38 43  2  0  0  0
 38 46  1  0  0  0
 38 47  1  0  0  0
 39 64  1  0  0  0
 39 67  2  0  0  0
 40 52  1  0  0  0
 40 53  2  0  0  0
 40 58  1  0  0  0
 41107  1  0  0  0
 41108  1  0  0  0
 41109  1  0  0  0
 41 48  1  0  0  0
 42 43  1  0  0  0
 42 66  1  0  0  0
 42110  1  0  0  0
 42111  1  0  0  0
 43 44  1  0  0  0
 44112  1  0  0  0
 45 46  2  0  0  0
 45113  1  0  0  0
 46114  1  0  0  0
 47115  1  0  0  0
 47116  1  0  0  0
 48 56  1  0  0  0
 48 65  1  0  0  0
 48117  1  0  0  0
 49 50  1  0  0  0
 49 53  1  0  0  0
 49 64  1  0  0  0
 49118  1  0  0  0
 50 51  1  0  0  0
 50119  1  0  0  0
 50120  1  0  0  0
 51 52  1  0  0  0
 51121  1  0  0  0
 51122  1  0  0  0
 52123  1  0  0  0
 52124  1  0  0  0
 53 54  1  0  0  0
 54 55  2  0  0  0
 54125  1  0  0  0
 55 57  1  0  0  0
 55126  1  0  0  0
 56 69  2  0  0  0
 57 58  2  0  0  0
 57127  1  0  0  0
 58128  1  0  0  0
 59 60  1  0  0  0
 59 61  1  0  0  0
 59 62  1  0  0  0
 60129  1  0  0  0
 60130  1  0  0  0
 60131  1  0  0  0
 61132  1  0  0  0
 61133  1  0  0  0
 61134  1  0  0  0
 62135  1  0  0  0
 62136  1  0  0  0
 62137  1  0  0  0
 63 65  1  0  0  0
 63138  1  0  0  0
 63139  1  0  0  0
 63140  1  0  0  0
 64141  1  0  0  0
 65142  1  0  0  0
 68 78  1  0  0  0
 71 73  2  0  0  0
 71 75  1  0  0  0
 71 82  1  0  0  0
 72 74  1  0  0  0
 72 76  1  0  0  0
 72 82  2  0  0  0
 73 77  1  0  0  0
 73 83  1  0  0  0
 74 78  1  0  0  0
 74 83  2  0  0  0
 75143  1  0  0  0
 75144  1  0  0  0
 75145  1  0  0  0
 76146  1  0  0  0
 76147  1  0  0  0
 76148  1  0  0  0
 77 80  1  0  0  0
 77149  1  0  0  0
 77150  1  0  0  0
 78151  1  0  0  0
 78152  1  0  0  0
 79 81  1  0  0  0
 79153  1  0  0  0
 79154  1  0  0  0
 80 81  1  0  0  0
 80155  1  0  0  0
 80156  1  0  0  0
 81157  1  0  0  0
 81158  1  0  0  0
M  ISO  4   1 100  68 101  78 101  79 100
M  END
> <chiral flag>
0

> <version>
0

> <s_m_source_file>
/data/baiqing/PycharmProjects/Reinvent-master-3.2/result/LINK_invent/BTK/process_docking_weight1_custom_sum_contain_oxygen_bond_distance_aromatic_linkinvent_7_9_3/rearranged_h_0044.sdf

> <i_m_source_file_index>
2

> <r_mmod_Potential_Energy-OPLS-2005>
211.287567138672

> <r_mmod_Stretch_Energy-OPLS-2005>
110.831733703613

> <r_mmod_Bend_Energy-OPLS-2005>
155.730407714844

> <r_mmod_Torsional_Energy-OPLS-2005>
201.174987792969

> <r_mmod_Improper_Torsional_Energy-OPLS-2005>
7.32539796829224

> <r_mmod_Van_der_Waal_Energy-OPLS-2005>
146.871368408203

> <r_mmod_Electrostatic_Energy-OPLS-2005>
-267.483581542969

> <r_mmod_Solvation_Energy-OPLS-2005>
-207.424011230469

> <b_mmod_Minimization_Converged-OPLS-2005>
0

> <r_mmod_RMS_Derivative-OPLS-2005>
1.64038836956024

$$$$
2
                    3D
 Structure written by MMmdl.
153161  0  0  1  0            999 V2000
  -30.6052  -14.7728   20.4680 C   0  0  0  0  0  0
  -30.4352  -12.4760   19.4890 C   0  0  0  0  0  0
  -29.5146  -12.5049   18.2495 C   0  0  0  0  0  0
  -28.0449  -12.3107   18.6657 C   0  0  0  0  0  0
  -27.6389  -13.2283   19.8500 C   0  0  2  0  0  0
  -28.6794  -13.1876   20.9900 C   0  0  0  0  0  0
  -25.2504  -13.8192   20.5697 C   0  0  0  0  0  0
  -24.1796  -13.0444   20.9235 C   0  0  0  0  0  0
  -24.6365  -11.6912   20.8755 C   0  0  0  0  0  0
  -23.9040  -10.4301   21.0440 C   0  0  0  0  0  0
  -24.3607   -9.4216   21.9222 C   0  0  0  0  0  0
  -23.6301   -8.2230   22.0769 C   0  0  0  0  0  0
  -22.4274   -8.0262   21.3563 C   0  0  0  0  0  0
  -21.9889   -9.0246   20.4675 C   0  0  0  0  0  0
  -22.7208  -10.2136   20.3095 C   0  0  0  0  0  0
  -21.6834   -6.0743   22.5277 C   0  0  0  0  0  0
  -21.4015   -6.5652   23.8206 C   0  0  0  0  0  0
  -21.3672   -5.6805   24.9166 C   0  0  0  0  0  0
  -21.6037   -4.3070   24.7228 C   0  0  0  0  0  0
  -21.8816   -3.8165   23.4345 C   0  0  0  0  0  0
  -21.9186   -4.6980   22.3408 C   0  0  0  0  0  0
  -22.7826  -13.5245   21.1865 C   0  0  0  0  0  0
  -22.1660   -4.2163   21.0982 F   0  0  0  0  0  0
  -21.5619   -3.4558   25.7750 F   0  0  0  0  0  0
  -29.9793  -13.5453   20.4083 N   0  0  0  0  0  0
  -26.2911  -12.9380   20.3271 N   0  0  0  0  0  0
  -25.9299  -11.6529   20.5757 N   0  0  0  0  0  0
  -22.0412  -12.8234   22.0361 N   0  0  0  0  0  0
  -25.4239  -15.1907   20.4104 N   0  0  0  0  0  0
  -31.7945  -14.8651   20.1540 O   0  0  0  0  0  0
  -21.6629   -6.8882   21.4236 O   0  0  0  0  0  0
  -22.3551  -14.5580   20.6720 O   0  0  0  0  0  0
  -24.6301  -31.8530   23.1987 C   0  0  0  0  0  0
  -25.9119  -32.4747   23.8335 C   0  0  1  0  0  0
  -27.2287  -27.2633   20.1436 C   0  0  0  0  0  0
  -25.5886  -33.8549   24.2240 N   0  0  0  0  0  0
  -23.4298  -30.4737   21.5420 C   0  0  2  0  0  0
  -24.8815  -28.9139   20.1190 C   0  0  0  0  0  0
  -22.7510  -29.4588   22.4930 C   0  0  0  0  0  0
  -18.0285  -28.1385   22.8465 C   0  0  0  0  0  0
  -24.1495  -36.7286   23.2635 C   0  0  0  0  0  0
  -25.9771  -30.7697   21.3801 C   0  0  0  0  0  0
  -26.0538  -29.3906   20.7213 C   0  0  0  0  0  0
  -27.2347  -28.5791   20.7160 C   0  0  0  0  0  0
  -26.0365  -26.8478   19.5176 C   0  0  0  0  0  0
  -24.8763  -27.6502   19.5056 C   0  0  0  0  0  0
  -23.6506  -29.8005   20.1616 C   0  0  0  0  0  0
  -25.4107  -36.3050   24.0324 C   0  0  1  0  0  0
  -20.5893  -28.3688   23.1270 C   0  0  2  0  0  0
  -20.6760  -26.9400   22.5416 C   0  0  0  0  0  0
  -19.5749  -26.6370   21.5205 C   0  0  0  0  0  0
  -18.1923  -26.7925   22.1609 C   0  0  0  0  0  0
  -19.1536  -28.8849   23.2859 C   0  0  0  0  0  0
  -18.9467  -30.1447   23.8886 C   0  0  0  0  0  0
  -17.6457  -30.6579   24.0550 C   0  0  0  0  0  0
  -25.9040  -34.9426   23.5086 C   0  0  0  0  0  0
  -16.5341  -29.9081   23.6319 C   0  0  0  0  0  0
  -16.7271  -28.6497   23.0347 C   0  0  0  0  0  0
  -26.4493  -31.6603   25.0746 C   0  0  0  0  0  0
  -25.3736  -31.3786   26.1508 C   0  0  0  0  0  0
  -27.0339  -30.2997   24.6284 C   0  0  0  0  0  0
  -27.6047  -32.4381   25.7479 C   0  0  0  0  0  0
  -27.5574  -37.1802   24.8448 C   0  0  0  0  0  0
  -21.4217  -29.3037   22.3676 N   0  0  0  0  0  0
  -26.4273  -37.3757   23.9402 N   0  0  0  0  0  0
  -24.6986  -31.0495   22.0969 N   0  0  0  0  0  0
  -23.4210  -28.8148   23.3043 O   0  0  0  0  0  0
  -28.3194  -26.3683   20.1380 O   0  0  0  0  0  0
  -26.5650  -34.8900   22.4679 O   0  0  0  0  0  0
  -23.5442  -32.1333   23.7283 O   0  0  0  0  0  0
  -27.6498  -23.0136   19.2772 C   0  0  0  0  0  0
  -28.3990  -23.6340   20.3177 C   0  0  0  0  0  0
  -27.9968  -21.6771   19.2588 C   0  0  0  0  0  0
  -27.4634  -20.6122   18.3618 C   0  0  0  0  0  0
  -28.2068  -25.0965   20.9298 C   0  0  0  0  0  0
  -29.2258  -18.6266   20.4592 C   0  0  0  0  0  0
  -29.7719  -20.1637   20.5670 C   0  0  0  0  0  0
  -30.2807  -17.3939   20.6520 C   0  0  0  0  0  0
  -29.1809  -22.6539   20.8731 N   0  0  0  0  0  0
  -28.9423  -21.4240   20.2495 N   0  0  0  0  0  0
  -29.8423  -15.9192   20.6825 N   0  0  0  0  0  0
  -31.4763  -12.6049   19.1874 H   0  0  0  0  0  0
  -30.3869  -11.5046   19.9833 H   0  0  0  0  0  0
  -29.8084  -11.7264   17.5449 H   0  0  0  0  0  0
  -29.6271  -13.4561   17.7264 H   0  0  0  0  0  0
  -27.9278  -11.2651   18.9558 H   0  0  0  0  0  0
  -27.3798  -12.4629   17.8146 H   0  0  0  0  0  0
  -27.6271  -14.2457   19.4554 H   0  0  0  0  0  0
  -28.7192  -12.2002   21.4503 H   0  0  0  0  0  0
  -28.4013  -13.8820   21.7844 H   0  0  0  0  0  0
  -25.2755   -9.5704   22.4797 H   0  0  0  0  0  0
  -24.0070   -7.4609   22.7440 H   0  0  0  0  0  0
  -21.0827   -8.8769   19.8970 H   0  0  0  0  0  0
  -22.3663  -10.9691   19.6217 H   0  0  0  0  0  0
  -21.2009   -7.6156   23.9724 H   0  0  0  0  0  0
  -21.1487   -6.0534   25.9064 H   0  0  0  0  0  0
  -22.0580   -2.7627   23.2836 H   0  0  0  0  0  0
  -22.3992  -11.9898   22.4788 H   0  0  0  0  0  0
  -21.1004  -13.1248   22.2472 H   0  0  0  0  0  0
  -24.6616  -15.8487   20.5268 H   0  0  0  0  0  0
  -26.2786  -15.6283   20.0912 H   0  0  0  0  0  0
  -26.7201  -32.5397   23.1088 H   0  0  0  0  0  0
  -24.9955  -33.9666   25.0337 H   0  0  0  0  0  0
  -22.7268  -31.2959   21.3926 H   0  0  0  0  0  0
  -23.3741  -35.9640   23.3278 H   0  0  0  0  0  0
  -24.3578  -36.8922   22.2048 H   0  0  0  0  0  0
  -23.7287  -37.6495   23.6684 H   0  0  0  0  0  0
  -26.1170  -31.5358   20.6163 H   0  0  0  0  0  0
  -26.8521  -30.8158   22.0172 H   0  0  0  0  0  0
  -28.1378  -28.9408   21.1886 H   0  0  0  0  0  0
  -26.0018  -25.8758   19.0457 H   0  0  0  0  0  0
  -23.9795  -27.2786   19.0316 H   0  0  0  0  0  0
  -23.7777  -30.5748   19.4039 H   0  0  0  0  0  0
  -22.7691  -29.2337   19.8551 H   0  0  0  0  0  0
  -25.1293  -36.1877   25.0819 H   0  0  0  0  0  0
  -20.9961  -28.3272   24.1402 H   0  0  0  0  0  0
  -20.5610  -26.2305   23.3627 H   0  0  0  0  0  0
  -21.6641  -26.7397   22.1244 H   0  0  0  0  0  0
  -19.6909  -25.6279   21.1244 H   0  0  0  0  0  0
  -19.6701  -27.3184   20.6734 H   0  0  0  0  0  0
  -17.4192  -26.6658   21.4011 H   0  0  0  0  0  0
  -18.0321  -26.0084   22.9016 H   0  0  0  0  0  0
  -19.7946  -30.7253   24.2273 H   0  0  0  0  0  0
  -17.5017  -31.6264   24.5157 H   0  0  0  0  0  0
  -15.5348  -30.2974   23.7651 H   0  0  0  0  0  0
  -15.8669  -28.0805   22.7083 H   0  0  0  0  0  0
  -24.5891  -30.7127   25.7882 H   0  0  0  0  0  0
  -24.8956  -32.2979   26.4911 H   0  0  0  0  0  0
  -25.8088  -30.9001   27.0296 H   0  0  0  0  0  0
  -26.2928  -29.6736   24.1314 H   0  0  0  0  0  0
  -27.3975  -29.7290   25.4836 H   0  0  0  0  0  0
  -27.8826  -30.4202   23.9554 H   0  0  0  0  0  0
  -27.2642  -33.3706   26.1989 H   0  0  0  0  0  0
  -28.3879  -32.6916   25.0320 H   0  0  0  0  0  0
  -28.0724  -31.8578   26.5442 H   0  0  0  0  0  0
  -28.2561  -38.0119   24.7464 H   0  0  0  0  0  0
  -28.1101  -36.2644   24.6296 H   0  0  0  0  0  0
  -27.2301  -37.1465   25.8854 H   0  0  0  0  0  0
  -20.9422  -29.8743   21.6863 H   0  0  0  0  0  0
  -26.0142  -38.2820   24.1438 H   0  0  0  0  0  0
  -26.9058  -23.4886   18.6526 H   0  0  0  0  0  0
  -26.9028  -19.8732   18.9344 H   0  0  0  0  0  0
  -28.2698  -20.1094   17.8277 H   0  0  0  0  0  0
  -26.7849  -21.0347   17.6178 H   0  0  0  0  0  0
  -28.9125  -25.2077   21.7518 H   0  0  0  0  0  0
  -27.2360  -25.1043   21.4268 H   0  0  0  0  0  0
  -28.7539  -18.4893   19.4879 H   0  0  0  0  0  0
  -28.4217  -18.5091   21.1873 H   0  0  0  0  0  0
  -30.6544  -20.2240   19.9306 H   0  0  0  0  0  0
  -30.1501  -20.2916   21.5825 H   0  0  0  0  0  0
  -31.0334  -17.4872   19.8667 H   0  0  0  0  0  0
  -30.8214  -17.5755   21.5812 H   0  0  0  0  0  0
  -28.8750  -15.7486   20.9123 H   0  0  0  0  0  0
  1 25  1  0  0  0
  1 30  2  0  0  0
  1 81  1  0  0  0
  2  3  1  0  0  0
  2 25  1  0  0  0
  2 82  1  0  0  0
  2 83  1  0  0  0
  3  4  1  0  0  0
  3 84  1  0  0  0
  3 85  1  0  0  0
  4  5  1  0  0  0
  4 86  1  0  0  0
  4 87  1  0  0  0
  5  6  1  0  0  0
  5 26  1  0  0  0
  5 88  1  0  0  0
  6 25  1  0  0  0
  6 89  1  0  0  0
  6 90  1  0  0  0
  7  8  2  0  0  0
  7 26  1  0  0  0
  7 29  1  0  0  0
  8  9  1  0  0  0
  8 22  1  0  0  0
  9 10  1  0  0  0
  9 27  2  0  0  0
 10 11  2  0  0  0
 10 15  1  0  0  0
 11 12  1  0  0  0
 11 91  1  0  0  0
 12 13  2  0  0  0
 12 92  1  0  0  0
 13 14  1  0  0  0
 13 31  1  0  0  0
 14 15  2  0  0  0
 14 93  1  0  0  0
 15 94  1  0  0  0
 16 17  2  0  0  0
 16 21  1  0  0  0
 16 31  1  0  0  0
 17 18  1  0  0  0
 17 95  1  0  0  0
 18 19  2  0  0  0
 18 96  1  0  0  0
 19 20  1  0  0  0
 19 24  1  0  0  0
 20 21  2  0  0  0
 20 97  1  0  0  0
 21 23  1  0  0  0
 22 28  1  0  0  0
 22 32  2  0  0  0
 26 27  1  0  0  0
 28 98  1  0  0  0
 28 99  1  0  0  0
 29100  1  0  0  0
 29101  1  0  0  0
 33 34  1  0  0  0
 33 66  1  0  0  0
 33 70  2  0  0  0
 34 36  1  0  0  0
 34 59  1  0  0  0
 34102  1  0  0  0
 35 44  2  0  0  0
 35 45  1  0  0  0
 35 68  1  0  0  0
 36 56  1  0  0  0
 36103  1  0  0  0
 37 39  1  0  0  0
 37 47  1  0  0  0
 37 66  1  0  0  0
 37104  1  0  0  0
 38 43  2  0  0  0
 38 46  1  0  0  0
 38 47  1  0  0  0
 39 64  1  0  0  0
 39 67  2  0  0  0
 40 52  1  0  0  0
 40 53  2  0  0  0
 40 58  1  0  0  0
 41105  1  0  0  0
 41106  1  0  0  0
 41107  1  0  0  0
 41 48  1  0  0  0
 42 43  1  0  0  0
 42 66  1  0  0  0
 42108  1  0  0  0
 42109  1  0  0  0
 43 44  1  0  0  0
 44110  1  0  0  0
 45 46  2  0  0  0
 45111  1  0  0  0
 46112  1  0  0  0
 47113  1  0  0  0
 47114  1  0  0  0
 48 56  1  0  0  0
 48 65  1  0  0  0
 48115  1  0  0  0
 49 50  1  0  0  0
 49 53  1  0  0  0
 49 64  1  0  0  0
 49116  1  0  0  0
 50 51  1  0  0  0
 50117  1  0  0  0
 50118  1  0  0  0
 51 52  1  0  0  0
 51119  1  0  0  0
 51120  1  0  0  0
 52121  1  0  0  0
 52122  1  0  0  0
 53 54  1  0  0  0
 54 55  2  0  0  0
 54123  1  0  0  0
 55 57  1  0  0  0
 55124  1  0  0  0
 56 69  2  0  0  0
 57 58  2  0  0  0
 57125  1  0  0  0
 58126  1  0  0  0
 59 60  1  0  0  0
 59 61  1  0  0  0
 59 62  1  0  0  0
 60127  1  0  0  0
 60128  1  0  0  0
 60129  1  0  0  0
 61130  1  0  0  0
 61131  1  0  0  0
 61132  1  0  0  0
 62133  1  0  0  0
 62134  1  0  0  0
 62135  1  0  0  0
 63 65  1  0  0  0
 63136  1  0  0  0
 63137  1  0  0  0
 63138  1  0  0  0
 64139  1  0  0  0
 65140  1  0  0  0
 68 75  1  0  0  0
 71 72  1  0  0  0
 71 73  2  0  0  0
 71141  1  0  0  0
 72 75  1  0  0  0
 72 79  2  0  0  0
 73 74  1  0  0  0
 73 80  1  0  0  0
 74142  1  0  0  0
 74143  1  0  0  0
 74144  1  0  0  0
 75145  1  0  0  0
 75146  1  0  0  0
 76 77  1  0  0  0
 76 78  1  0  0  0
 76147  1  0  0  0
 76148  1  0  0  0
 77 80  1  0  0  0
 77149  1  0  0  0
 77150  1  0  0  0
 78 81  1  0  0  0
 78151  1  0  0  0
 78152  1  0  0  0
 79 80  1  0  0  0
 81153  1  0  0  0
M  ISO  4   1 100  68 101  75 101  81 100
M  END
> <chiral flag>
0

> <version>
0

> <s_m_source_file>
/data/baiqing/PycharmProjects/Reinvent-master-3.2/result/LINK_invent/BTK/process_docking_weight1_custom_sum_contain_oxygen_bond_distance_aromatic_linkinvent_7_9_3/rearranged_h_0044.sdf

> <i_m_source_file_index>
3

> <r_mmod_Potential_Energy-OPLS-2005>
168.350189208984

> <r_mmod_Stretch_Energy-OPLS-2005>
131.811614990234

> <r_mmod_Bend_Energy-OPLS-2005>
178.528930664062

> <r_mmod_Torsional_Energy-OPLS-2005>
244.467193603516

> <r_mmod_Improper_Torsional_Energy-OPLS-2005>
5.78309106826782

> <r_mmod_Van_der_Waal_Energy-OPLS-2005>
109.51530456543

> <r_mmod_Electrostatic_Energy-OPLS-2005>
-367.596740722656

> <r_mmod_Solvation_Energy-OPLS-2005>
-226.130325317383

> <b_mmod_Minimization_Converged-OPLS-2005>
0

> <r_mmod_RMS_Derivative-OPLS-2005>
3.32152199745178

$$$$
3
                    3D
 Structure written by MMmdl.
160168  0  0  1  0            999 V2000
  -30.6405  -14.6417   20.4961 C   0  0  0  0  0  0
  -30.4206  -12.3936   19.4644 C   0  0  0  0  0  0
  -29.5016  -12.5032   18.2294 C   0  0  0  0  0  0
  -28.0249  -12.3395   18.6383 C   0  0  0  0  0  0
  -27.6435  -13.2242   19.8562 C   0  0  2  0  0  0
  -28.6826  -13.1118   20.9929 C   0  0  0  0  0  0
  -25.2503  -13.8192   20.5692 C   0  0  0  0  0  0
  -24.1783  -13.0439   20.9190 C   0  0  0  0  0  0
  -24.6366  -11.6913   20.8726 C   0  0  0  0  0  0
  -23.9042  -10.4299   21.0398 C   0  0  0  0  0  0
  -24.3605   -9.4207   21.9168 C   0  0  0  0  0  0
  -23.6286   -8.2236   22.0738 C   0  0  0  0  0  0
  -22.4262   -8.0275   21.3535 C   0  0  0  0  0  0
  -21.9893   -9.0246   20.4633 C   0  0  0  0  0  0
  -22.7217  -10.2129   20.3041 C   0  0  0  0  0  0
  -21.6855   -6.0732   22.5279 C   0  0  0  0  0  0
  -21.4023   -6.5633   23.8220 C   0  0  0  0  0  0
  -21.3657   -5.6777   24.9174 C   0  0  0  0  0  0
  -21.6046   -4.3043   24.7217 C   0  0  0  0  0  0
  -21.8815   -3.8139   23.4335 C   0  0  0  0  0  0
  -21.9192   -4.6961   22.3391 C   0  0  0  0  0  0
  -22.7805  -13.5229   21.1846 C   0  0  0  0  0  0
  -22.1659   -4.2147   21.0969 F   0  0  0  0  0  0
  -21.5624   -3.4523   25.7733 F   0  0  0  0  0  0
  -29.9951  -13.4357   20.4218 N   0  0  0  0  0  0
  -26.2922  -12.9389   20.3283 N   0  0  0  0  0  0
  -25.9291  -11.6535   20.5732 N   0  0  0  0  0  0
  -22.0450  -12.8239   22.0423 N   0  0  0  0  0  0
  -25.4173  -15.1922   20.4134 N   0  0  0  0  0  0
  -31.8172  -14.7506   20.1410 O   0  0  0  0  0  0
  -21.6623   -6.8871   21.4238 O   0  0  0  0  0  0
  -22.3477  -14.5522   20.6666 O   0  0  0  0  0  0
  -24.6230  -31.8615   23.2015 C   0  0  0  0  0  0
  -25.9082  -32.4794   23.8354 C   0  0  1  0  0  0
  -27.2225  -27.3283   20.1426 C   0  0  0  0  0  0
  -25.5891  -33.8591   24.2275 N   0  0  0  0  0  0
  -23.4184  -30.4819   21.5439 C   0  0  2  0  0  0
  -24.8686  -28.9325   20.1167 C   0  0  0  0  0  0
  -22.7460  -29.4634   22.4942 C   0  0  0  0  0  0
  -18.0280  -28.1393   22.8480 C   0  0  0  0  0  0
  -24.1481  -36.7300   23.2644 C   0  0  0  0  0  0
  -25.9579  -30.7940   21.3745 C   0  0  0  0  0  0
  -26.0352  -29.4194   20.7248 C   0  0  0  0  0  0
  -27.2189  -28.6270   20.7325 C   0  0  0  0  0  0
  -26.0451  -26.8882   19.5088 C   0  0  0  0  0  0
  -24.8743  -27.6698   19.5012 C   0  0  0  0  0  0
  -23.6356  -29.8116   20.1613 C   0  0  0  0  0  0
  -25.4113  -36.3096   24.0332 C   0  0  1  0  0  0
  -20.5876  -28.3689   23.1285 C   0  0  2  0  0  0
  -20.6761  -26.9409   22.5426 C   0  0  0  0  0  0
  -19.5745  -26.6386   21.5218 C   0  0  0  0  0  0
  -18.1920  -26.7936   22.1619 C   0  0  0  0  0  0
  -19.1534  -28.8858   23.2879 C   0  0  0  0  0  0
  -18.9461  -30.1456   23.8913 C   0  0  0  0  0  0
  -17.6468  -30.6592   24.0577 C   0  0  0  0  0  0
  -25.9049  -34.9463   23.5117 C   0  0  0  0  0  0
  -16.5355  -29.9104   23.6325 C   0  0  0  0  0  0
  -16.7272  -28.6516   23.0344 C   0  0  0  0  0  0
  -26.4470  -31.6597   25.0724 C   0  0  0  0  0  0
  -25.3702  -31.3736   26.1451 C   0  0  0  0  0  0
  -27.0317  -30.3015   24.6197 C   0  0  0  0  0  0
  -27.6041  -32.4329   25.7483 C   0  0  0  0  0  0
  -27.5585  -37.1799   24.8462 C   0  0  0  0  0  0
  -21.4181  -29.3038   22.3679 N   0  0  0  0  0  0
  -26.4294  -37.3784   23.9406 N   0  0  0  0  0  0
  -24.6848  -31.0626   22.0966 N   0  0  0  0  0  0
  -23.4182  -28.8188   23.3041 O   0  0  0  0  0  0
  -28.3087  -26.4515   20.1410 O   0  0  0  0  0  0
  -26.5636  -34.8925   22.4692 O   0  0  0  0  0  0
  -23.5397  -32.1415   23.7337 O   0  0  0  0  0  0
  -29.3439  -22.2128   19.5570 C   0  0  0  0  0  0
  -28.5410  -22.9525   22.0149 C   0  0  0  0  0  0
  -29.3384  -21.2397   20.6116 C   0  0  0  0  0  0
  -28.6129  -23.9453   20.9770 C   0  0  0  0  0  0
  -29.7962  -21.8583   18.1550 C   0  0  0  0  0  0
  -28.1160  -23.2679   23.4411 C   0  0  0  0  0  0
  -29.5332  -26.0583   22.1098 C   0  0  0  0  0  0
  -30.0847  -19.8481   20.5292 C   0  0  0  0  0  0
  -29.3822  -18.4278   20.7230 C   0  0  0  0  0  0
  -30.3924  -17.1875   20.6506 C   0  0  0  0  0  0
  -28.3833  -25.4937   21.2573 C   0  0  1  0  0  0
  -28.9078  -21.6430   21.8341 N   0  0  0  0  0  0
  -29.0023  -23.5323   19.7375 N   0  0  0  0  0  0
  -29.8969  -15.7655   20.7659 N   0  0  0  0  0  0
  -31.4664  -12.4977   19.1701 H   0  0  0  0  0  0
  -30.3393  -11.4062   19.9206 H   0  0  0  0  0  0
  -29.7722  -11.7506   17.4880 H   0  0  0  0  0  0
  -29.6423  -13.4735   17.7506 H   0  0  0  0  0  0
  -27.8665  -11.2884   18.8822 H   0  0  0  0  0  0
  -27.3712  -12.5557   17.7917 H   0  0  0  0  0  0
  -27.6543  -14.2532   19.4970 H   0  0  0  0  0  0
  -28.6910  -12.1039   21.4118 H   0  0  0  0  0  0
  -28.4291  -13.7810   21.8167 H   0  0  0  0  0  0
  -25.2763   -9.5692   22.4722 H   0  0  0  0  0  0
  -24.0003   -7.4629   22.7459 H   0  0  0  0  0  0
  -21.0818   -8.8758   19.8943 H   0  0  0  0  0  0
  -22.3675  -10.9653   19.6135 H   0  0  0  0  0  0
  -21.2023   -7.6143   23.9733 H   0  0  0  0  0  0
  -21.1487   -6.0497   25.9083 H   0  0  0  0  0  0
  -22.0597   -2.7599   23.2826 H   0  0  0  0  0  0
  -22.4077  -11.9926   22.4850 H   0  0  0  0  0  0
  -21.1055  -13.1252   22.2610 H   0  0  0  0  0  0
  -24.6423  -15.8384   20.5198 H   0  0  0  0  0  0
  -26.2645  -15.6421   20.0902 H   0  0  0  0  0  0
  -26.7157  -32.5468   23.1116 H   0  0  0  0  0  0
  -24.9967  -33.9732   25.0370 H   0  0  0  0  0  0
  -22.7118  -31.3015   21.3977 H   0  0  0  0  0  0
  -23.3748  -35.9627   23.3312 H   0  0  0  0  0  0
  -24.3569  -36.8922   22.2058 H   0  0  0  0  0  0
  -23.7231  -37.6500   23.6671 H   0  0  0  0  0  0
  -26.0902  -31.5548   20.6039 H   0  0  0  0  0  0
  -26.8362  -30.8436   22.0062 H   0  0  0  0  0  0
  -28.1138  -28.9970   21.2133 H   0  0  0  0  0  0
  -26.0289  -25.9141   19.0394 H   0  0  0  0  0  0
  -23.9797  -27.2862   19.0277 H   0  0  0  0  0  0
  -23.7551  -30.5850   19.4024 H   0  0  0  0  0  0
  -22.7552  -29.2406   19.8601 H   0  0  0  0  0  0
  -25.1292  -36.1955   25.0828 H   0  0  0  0  0  0
  -20.9968  -28.3275   24.1403 H   0  0  0  0  0  0
  -20.5639  -26.2309   23.3632 H   0  0  0  0  0  0
  -21.6636  -26.7429   22.1242 H   0  0  0  0  0  0
  -19.6907  -25.6294   21.1250 H   0  0  0  0  0  0
  -19.6688  -27.3193   20.6745 H   0  0  0  0  0  0
  -17.4192  -26.6679   21.4020 H   0  0  0  0  0  0
  -18.0320  -26.0088   22.9024 H   0  0  0  0  0  0
  -19.7945  -30.7253   24.2293 H   0  0  0  0  0  0
  -17.5031  -31.6262   24.5196 H   0  0  0  0  0  0
  -15.5360  -30.3016   23.7643 H   0  0  0  0  0  0
  -15.8664  -28.0849   22.7050 H   0  0  0  0  0  0
  -24.5851  -30.7129   25.7756 H   0  0  0  0  0  0
  -24.8924  -32.2908   26.4910 H   0  0  0  0  0  0
  -25.8009  -30.8862   27.0211 H   0  0  0  0  0  0
  -26.2897  -29.6760   24.1224 H   0  0  0  0  0  0
  -27.4000  -29.7284   25.4719 H   0  0  0  0  0  0
  -27.8777  -30.4290   23.9437 H   0  0  0  0  0  0
  -27.2661  -33.3623   26.2086 H   0  0  0  0  0  0
  -28.3830  -32.6911   25.0294 H   0  0  0  0  0  0
  -28.0749  -31.8451   26.5377 H   0  0  0  0  0  0
  -28.2608  -38.0089   24.7508 H   0  0  0  0  0  0
  -28.1069  -36.2622   24.6285 H   0  0  0  0  0  0
  -27.2301  -37.1457   25.8863 H   0  0  0  0  0  0
  -20.9357  -29.8755   21.6879 H   0  0  0  0  0  0
  -26.0181  -38.2863   24.1401 H   0  0  0  0  0  0
  -29.2502  -20.9881   17.7899 H   0  0  0  0  0  0
  -30.8625  -21.6303   18.1460 H   0  0  0  0  0  0
  -29.6172  -22.6784   17.4584 H   0  0  0  0  0  0
  -28.9912  -23.4710   24.0583 H   0  0  0  0  0  0
  -27.5928  -22.4187   23.8840 H   0  0  0  0  0  0
  -27.4418  -24.1193   23.5055 H   0  0  0  0  0  0
  -30.4816  -25.9933   21.5768 H   0  0  0  0  0  0
  -29.6468  -25.5278   23.0540 H   0  0  0  0  0  0
  -29.3644  -27.1062   22.3557 H   0  0  0  0  0  0
  -30.8777  -19.9124   21.2745 H   0  0  0  0  0  0
  -30.6200  -19.8086   19.5829 H   0  0  0  0  0  0
  -28.6104  -18.3095   19.9617 H   0  0  0  0  0  0
  -28.8668  -18.4172   21.6835 H   0  0  0  0  0  0
  -31.1465  -17.3167   21.4277 H   0  0  0  0  0  0
  -30.9343  -17.2642   19.7065 H   0  0  0  0  0  0
  -27.4614  -25.5738   21.8343 H   0  0  0  0  0  0
  -28.9278  -15.6253   21.0099 H   0  0  0  0  0  0
  1 25  1  0  0  0
  1 30  2  0  0  0
  1 84  1  0  0  0
  2  3  1  0  0  0
  2 25  1  0  0  0
  2 85  1  0  0  0
  2 86  1  0  0  0
  3  4  1  0  0  0
  3 87  1  0  0  0
  3 88  1  0  0  0
  4  5  1  0  0  0
  4 89  1  0  0  0
  4 90  1  0  0  0
  5  6  1  0  0  0
  5 26  1  0  0  0
  5 91  1  0  0  0
  6 25  1  0  0  0
  6 92  1  0  0  0
  6 93  1  0  0  0
  7  8  2  0  0  0
  7 26  1  0  0  0
  7 29  1  0  0  0
  8  9  1  0  0  0
  8 22  1  0  0  0
  9 10  1  0  0  0
  9 27  2  0  0  0
 10 11  2  0  0  0
 10 15  1  0  0  0
 11 12  1  0  0  0
 11 94  1  0  0  0
 12 13  2  0  0  0
 12 95  1  0  0  0
 13 14  1  0  0  0
 13 31  1  0  0  0
 14 15  2  0  0  0
 14 96  1  0  0  0
 15 97  1  0  0  0
 16 17  2  0  0  0
 16 21  1  0  0  0
 16 31  1  0  0  0
 17 18  1  0  0  0
 17 98  1  0  0  0
 18 19  2  0  0  0
 18 99  1  0  0  0
 19 20  1  0  0  0
 19 24  1  0  0  0
 20 21  2  0  0  0
 20100  1  0  0  0
 21 23  1  0  0  0
 22 28  1  0  0  0
 22 32  2  0  0  0
 26 27  1  0  0  0
 28101  1  0  0  0
 28102  1  0  0  0
 29103  1  0  0  0
 29104  1  0  0  0
 33 34  1  0  0  0
 33 66  1  0  0  0
 33 70  2  0  0  0
 34 36  1  0  0  0
 34 59  1  0  0  0
 34105  1  0  0  0
 35 44  2  0  0  0
 35 45  1  0  0  0
 35 68  1  0  0  0
 36 56  1  0  0  0
 36106  1  0  0  0
 37 39  1  0  0  0
 37 47  1  0  0  0
 37 66  1  0  0  0
 37107  1  0  0  0
 38 43  2  0  0  0
 38 46  1  0  0  0
 38 47  1  0  0  0
 39 64  1  0  0  0
 39 67  2  0  0  0
 40 52  1  0  0  0
 40 53  2  0  0  0
 40 58  1  0  0  0
 41108  1  0  0  0
 41109  1  0  0  0
 41110  1  0  0  0
 41 48  1  0  0  0
 42 43  1  0  0  0
 42 66  1  0  0  0
 42111  1  0  0  0
 42112  1  0  0  0
 43 44  1  0  0  0
 44113  1  0  0  0
 45 46  2  0  0  0
 45114  1  0  0  0
 46115  1  0  0  0
 47116  1  0  0  0
 47117  1  0  0  0
 48 56  1  0  0  0
 48 65  1  0  0  0
 48118  1  0  0  0
 49 50  1  0  0  0
 49 53  1  0  0  0
 49 64  1  0  0  0
 49119  1  0  0  0
 50 51  1  0  0  0
 50120  1  0  0  0
 50121  1  0  0  0
 51 52  1  0  0  0
 51122  1  0  0  0
 51123  1  0  0  0
 52124  1  0  0  0
 52125  1  0  0  0
 53 54  1  0  0  0
 54 55  2  0  0  0
 54126  1  0  0  0
 55 57  1  0  0  0
 55127  1  0  0  0
 56 69  2  0  0  0
 57 58  2  0  0  0
 57128  1  0  0  0
 58129  1  0  0  0
 59 60  1  0  0  0
 59 61  1  0  0  0
 59 62  1  0  0  0
 60130  1  0  0  0
 60131  1  0  0  0
 60132  1  0  0  0
 61133  1  0  0  0
 61134  1  0  0  0
 61135  1  0  0  0
 62136  1  0  0  0
 62137  1  0  0  0
 62138  1  0  0  0
 63 65  1  0  0  0
 63139  1  0  0  0
 63140  1  0  0  0
 63141  1  0  0  0
 64142  1  0  0  0
 65143  1  0  0  0
 68 81  1  0  0  0
 71 73  2  0  0  0
 71 75  1  0  0  0
 71 83  1  0  0  0
 72 74  1  0  0  0
 72 76  1  0  0  0
 72 82  2  0  0  0
 73 78  1  0  0  0
 73 82  1  0  0  0
 74 81  1  0  0  0
 74 83  2  0  0  0
 75144  1  0  0  0
 75145  1  0  0  0
 75146  1  0  0  0
 76147  1  0  0  0
 76148  1  0  0  0
 76149  1  0  0  0
 77150  1  0  0  0
 77151  1  0  0  0
 77152  1  0  0  0
 77 81  1  0  0  0
 78 79  1  0  0  0
 78153  1  0  0  0
 78154  1  0  0  0
 79 80  1  0  0  0
 79155  1  0  0  0
 79156  1  0  0  0
 80 84  1  0  0  0
 80157  1  0  0  0
 80158  1  0  0  0
 81159  1  0  0  0
 84160  1  0  0  0
M  ISO  4   1 100  68 101  81 101  84 100
M  END
> <chiral flag>
0

> <version>
0

> <s_m_source_file>
/data/baiqing/PycharmProjects/Reinvent-master-3.2/result/LINK_invent/BTK/process_docking_weight1_custom_sum_contain_oxygen_bond_distance_aromatic_linkinvent_7_9_3/rearranged_h_0044.sdf

> <i_m_source_file_index>
4

> <r_mmod_Potential_Energy-OPLS-2005>
91.1222686767578

> <r_mmod_Stretch_Energy-OPLS-2005>
87.1760559082031

> <r_mmod_Bend_Energy-OPLS-2005>
145.558502197266

> <r_mmod_Torsional_Energy-OPLS-2005>
224.34977722168

> <r_mmod_Improper_Torsional_Energy-OPLS-2005>
6.78536558151245

> <r_mmod_Van_der_Waal_Energy-OPLS-2005>
139.72541809082

> <r_mmod_Electrostatic_Energy-OPLS-2005>
-337.921295166016

> <r_mmod_Solvation_Energy-OPLS-2005>
-224.911926269531

> <b_mmod_Minimization_Converged-OPLS-2005>
0

> <r_mmod_RMS_Derivative-OPLS-2005>
2.3737781047821

$$$$
4
                    3D
 Structure written by MMmdl.
156164  0  0  1  0            999 V2000
  -30.7009  -14.4049   20.6108 C   0  0  0  0  0  0
  -30.4248  -12.2690   19.4248 C   0  0  0  0  0  0
  -29.4983  -12.5103   18.2148 C   0  0  0  0  0  0
  -28.0156  -12.3835   18.6173 C   0  0  0  0  0  0
  -27.6724  -13.1955   19.8927 C   0  0  2  0  0  0
  -28.7069  -12.9258   21.0146 C   0  0  0  0  0  0
  -25.2608  -13.8154   20.5679 C   0  0  0  0  0  0
  -24.1851  -13.0440   20.9177 C   0  0  0  0  0  0
  -24.6370  -11.6910   20.8726 C   0  0  0  0  0  0
  -23.9028  -10.4305   21.0370 C   0  0  0  0  0  0
  -24.3583   -9.4231   21.9150 C   0  0  0  0  0  0
  -23.6284   -8.2266   22.0720 C   0  0  0  0  0  0
  -22.4273   -8.0283   21.3533 C   0  0  0  0  0  0
  -21.9879   -9.0244   20.4623 C   0  0  0  0  0  0
  -22.7183  -10.2135   20.3016 C   0  0  0  0  0  0
  -21.6871   -6.0724   22.5274 C   0  0  0  0  0  0
  -21.4026   -6.5623   23.8216 C   0  0  0  0  0  0
  -21.3657   -5.6783   24.9169 C   0  0  0  0  0  0
  -21.6048   -4.3041   24.7226 C   0  0  0  0  0  0
  -21.8829   -3.8129   23.4351 C   0  0  0  0  0  0
  -21.9206   -4.6958   22.3393 C   0  0  0  0  0  0
  -22.7898  -13.5260   21.1842 C   0  0  0  0  0  0
  -22.1678   -4.2142   21.0976 F   0  0  0  0  0  0
  -21.5624   -3.4519   25.7731 F   0  0  0  0  0  0
  -30.0556  -13.2200   20.4803 N   0  0  0  0  0  0
  -26.3043  -12.9309   20.3425 N   0  0  0  0  0  0
  -25.9299  -11.6467   20.5771 N   0  0  0  0  0  0
  -22.0536  -12.8246   22.0383 N   0  0  0  0  0  0
  -25.4352  -15.1864   20.4110 N   0  0  0  0  0  0
  -31.7786  -14.6756   20.0729 O   0  0  0  0  0  0
  -21.6652   -6.8855   21.4234 O   0  0  0  0  0  0
  -22.3585  -14.5557   20.6677 O   0  0  0  0  0  0
  -24.6125  -31.8650   23.2104 C   0  0  0  0  0  0
  -25.9044  -32.4821   23.8382 C   0  0  1  0  0  0
  -27.2553  -27.4553   20.0845 C   0  0  0  0  0  0
  -25.5912  -33.8598   24.2325 N   0  0  0  0  0  0
  -23.4022  -30.4881   21.5477 C   0  0  2  0  0  0
  -24.8517  -28.9429   20.1238 C   0  0  0  0  0  0
  -22.7391  -29.4675   22.5004 C   0  0  0  0  0  0
  -18.0283  -28.1364   22.8513 C   0  0  0  0  0  0
  -24.1480  -36.7308   23.2633 C   0  0  0  0  0  0
  -25.9286  -30.8316   21.3633 C   0  0  0  0  0  0
  -26.0102  -29.4633   20.7176 C   0  0  0  0  0  0
  -27.2152  -28.7274   20.6949 C   0  0  0  0  0  0
  -26.0840  -26.9335   19.5017 C   0  0  0  0  0  0
  -24.8808  -27.6711   19.5211 C   0  0  0  0  0  0
  -23.6132  -29.8112   20.1668 C   0  0  0  0  0  0
  -25.4113  -36.3094   24.0333 C   0  0  1  0  0  0
  -20.5855  -28.3657   23.1309 C   0  0  2  0  0  0
  -20.6756  -26.9412   22.5342 C   0  0  0  0  0  0
  -19.5712  -26.6434   21.5145 C   0  0  0  0  0  0
  -18.1910  -26.7928   22.1604 C   0  0  0  0  0  0
  -19.1519  -28.8824   23.2915 C   0  0  0  0  0  0
  -18.9451  -30.1445   23.8938 C   0  0  0  0  0  0
  -17.6471  -30.6572   24.0592 C   0  0  0  0  0  0
  -25.9035  -34.9470   23.5130 C   0  0  0  0  0  0
  -16.5354  -29.9084   23.6327 C   0  0  0  0  0  0
  -16.7270  -28.6508   23.0348 C   0  0  0  0  0  0
  -26.4484  -31.6595   25.0692 C   0  0  0  0  0  0
  -25.3796  -31.3670   26.1469 C   0  0  0  0  0  0
  -27.0290  -30.3026   24.6047 C   0  0  0  0  0  0
  -27.6064  -32.4294   25.7448 C   0  0  0  0  0  0
  -27.5583  -37.1809   24.8478 C   0  0  0  0  0  0
  -21.4129  -29.3046   22.3729 N   0  0  0  0  0  0
  -26.4305  -37.3795   23.9413 N   0  0  0  0  0  0
  -24.6650  -31.0773   22.0991 N   0  0  0  0  0  0
  -23.4166  -28.8243   23.3067 O   0  0  0  0  0  0
  -28.4329  -26.7528   19.9872 O   0  0  0  0  0  0
  -26.5604  -34.8931   22.4680 O   0  0  0  0  0  0
  -23.5309  -32.1438   23.7498 O   0  0  0  0  0  0
  -29.8622  -20.0975   19.8148 C   0  0  0  0  0  0
  -28.3399  -20.9369   21.1411 C   0  0  0  0  0  0
  -28.6773  -19.7598   20.5307 C   0  0  0  0  0  0
  -27.9295  -18.4478   20.5803 C   0  0  0  0  0  0
  -28.5880  -17.3351   21.4181 C   0  0  0  0  0  0
  -28.9912  -24.3476   20.2312 C   0  0  0  0  0  0
  -29.3663  -23.2649   21.2710 C   0  0  0  0  0  0
  -29.8459  -16.7120   20.7875 C   0  0  0  0  0  0
  -28.6006  -25.6807   20.9151 C   0  0  0  0  0  0
  -30.2170  -21.3703   19.9736 N   0  0  0  0  0  0
  -29.2754  -21.8886   20.7959 N   0  0  0  0  0  0
  -29.9718  -15.3294   21.2403 N   0  0  0  0  0  0
  -31.4705  -12.3661   19.1343 H   0  0  0  0  0  0
  -30.3189  -11.2530   19.7994 H   0  0  0  0  0  0
  -29.7356  -11.8091   17.4130 H   0  0  0  0  0  0
  -29.6832  -13.5039   17.8076 H   0  0  0  0  0  0
  -27.8060  -11.3239   18.7814 H   0  0  0  0  0  0
  -27.3745  -12.6945   17.7933 H   0  0  0  0  0  0
  -27.7294  -14.2520   19.6244 H   0  0  0  0  0  0
  -28.6627  -11.8834   21.3276 H   0  0  0  0  0  0
  -28.4603  -13.5025   21.9096 H   0  0  0  0  0  0
  -25.2718   -9.5768   22.4726 H   0  0  0  0  0  0
  -24.0037   -7.4653   22.7415 H   0  0  0  0  0  0
  -21.0828   -8.8717   19.8920 H   0  0  0  0  0  0
  -22.3603  -10.9661   19.6133 H   0  0  0  0  0  0
  -21.2024   -7.6136   23.9719 H   0  0  0  0  0  0
  -21.1465   -6.0501   25.9085 H   0  0  0  0  0  0
  -22.0610   -2.7593   23.2841 H   0  0  0  0  0  0
  -22.4187  -11.9929   22.4773 H   0  0  0  0  0  0
  -21.1137  -13.1228   22.2578 H   0  0  0  0  0  0
  -24.6641  -15.8361   20.5059 H   0  0  0  0  0  0
  -26.2855  -15.6223   20.0794 H   0  0  0  0  0  0
  -26.7120  -32.5526   23.1131 H   0  0  0  0  0  0
  -25.0114  -33.9776   25.0511 H   0  0  0  0  0  0
  -22.6911  -31.3025   21.4028 H   0  0  0  0  0  0
  -23.3731  -35.9646   23.3319 H   0  0  0  0  0  0
  -24.3588  -36.8897   22.2046 H   0  0  0  0  0  0
  -23.7244  -37.6528   23.6634 H   0  0  0  0  0  0
  -26.0339  -31.5928   20.5892 H   0  0  0  0  0  0
  -26.8181  -30.8899   21.9779 H   0  0  0  0  0  0
  -28.1153  -29.1395   21.1328 H   0  0  0  0  0  0
  -26.1092  -25.9673   19.0182 H   0  0  0  0  0  0
  -23.9970  -27.2574   19.0564 H   0  0  0  0  0  0
  -23.7285  -30.5806   19.4036 H   0  0  0  0  0  0
  -22.7365  -29.2330   19.8720 H   0  0  0  0  0  0
  -25.1273  -36.1967   25.0835 H   0  0  0  0  0  0
  -20.9976  -28.3187   24.1414 H   0  0  0  0  0  0
  -20.5632  -26.2260   23.3502 H   0  0  0  0  0  0
  -21.6626  -26.7485   22.1123 H   0  0  0  0  0  0
  -19.6870  -25.6360   21.1095 H   0  0  0  0  0  0
  -19.6579  -27.3288   20.6698 H   0  0  0  0  0  0
  -17.4176  -26.6749   21.4005 H   0  0  0  0  0  0
  -18.0345  -26.0003   22.8923 H   0  0  0  0  0  0
  -19.7924  -30.7244   24.2313 H   0  0  0  0  0  0
  -17.5026  -31.6233   24.5204 H   0  0  0  0  0  0
  -15.5354  -30.3003   23.7637 H   0  0  0  0  0  0
  -15.8671  -28.0826   22.7034 H   0  0  0  0  0  0
  -24.5976  -30.6985   25.7853 H   0  0  0  0  0  0
  -24.8978  -32.2808   26.4939 H   0  0  0  0  0  0
  -25.8207  -30.8855   27.0211 H   0  0  0  0  0  0
  -26.2798  -29.6773   24.1157 H   0  0  0  0  0  0
  -27.4140  -29.7242   25.4469 H   0  0  0  0  0  0
  -27.8613  -30.4318   23.9113 H   0  0  0  0  0  0
  -27.2688  -33.3578   26.2048 H   0  0  0  0  0  0
  -28.3864  -32.6877   25.0280 H   0  0  0  0  0  0
  -28.0750  -31.8410   26.5346 H   0  0  0  0  0  0
  -28.2613  -38.0083   24.7503 H   0  0  0  0  0  0
  -28.1054  -36.2625   24.6318 H   0  0  0  0  0  0
  -27.2310  -37.1492   25.8880 H   0  0  0  0  0  0
  -20.9270  -29.8776   21.6968 H   0  0  0  0  0  0
  -26.0175  -38.2865   24.1407 H   0  0  0  0  0  0
  -30.4701  -19.4603   19.1852 H   0  0  0  0  0  0
  -27.5102  -21.1708   21.7935 H   0  0  0  0  0  0
  -27.7413  -18.0729   19.5753 H   0  0  0  0  0  0
  -26.9392  -18.6188   21.0068 H   0  0  0  0  0  0
  -27.8311  -16.5538   21.5198 H   0  0  0  0  0  0
  -28.8076  -17.6768   22.4301 H   0  0  0  0  0  0
  -28.1677  -24.0083   19.6026 H   0  0  0  0  0  0
  -29.8421  -24.5025   19.5673 H   0  0  0  0  0  0
  -28.7169  -23.3507   22.1431 H   0  0  0  0  0  0
  -30.3772  -23.4346   21.6418 H   0  0  0  0  0  0
  -30.7489  -17.2857   21.0041 H   0  0  0  0  0  0
  -29.7472  -16.7051   19.6994 H   0  0  0  0  0  0
  -27.7098  -25.5317   21.5279 H   0  0  0  0  0  0
  -29.3923  -25.9785   21.6026 H   0  0  0  0  0  0
  -29.1812  -14.9529   21.7412 H   0  0  0  0  0  0
  1 25  1  0  0  0
  1 30  2  0  0  0
  1 82  1  0  0  0
  2  3  1  0  0  0
  2 25  1  0  0  0
  2 83  1  0  0  0
  2 84  1  0  0  0
  3  4  1  0  0  0
  3 85  1  0  0  0
  3 86  1  0  0  0
  4  5  1  0  0  0
  4 87  1  0  0  0
  4 88  1  0  0  0
  5  6  1  0  0  0
  5 26  1  0  0  0
  5 89  1  0  0  0
  6 25  1  0  0  0
  6 90  1  0  0  0
  6 91  1  0  0  0
  7  8  2  0  0  0
  7 26  1  0  0  0
  7 29  1  0  0  0
  8  9  1  0  0  0
  8 22  1  0  0  0
  9 10  1  0  0  0
  9 27  2  0  0  0
 10 11  2  0  0  0
 10 15  1  0  0  0
 11 12  1  0  0  0
 11 92  1  0  0  0
 12 13  2  0  0  0
 12 93  1  0  0  0
 13 14  1  0  0  0
 13 31  1  0  0  0
 14 15  2  0  0  0
 14 94  1  0  0  0
 15 95  1  0  0  0
 16 17  2  0  0  0
 16 21  1  0  0  0
 16 31  1  0  0  0
 17 18  1  0  0  0
 17 96  1  0  0  0
 18 19  2  0  0  0
 18 97  1  0  0  0
 19 20  1  0  0  0
 19 24  1  0  0  0
 20 21  2  0  0  0
 20 98  1  0  0  0
 21 23  1  0  0  0
 22 28  1  0  0  0
 22 32  2  0  0  0
 26 27  1  0  0  0
 28 99  1  0  0  0
 28100  1  0  0  0
 29101  1  0  0  0
 29102  1  0  0  0
 33 34  1  0  0  0
 33 66  1  0  0  0
 33 70  2  0  0  0
 34 36  1  0  0  0
 34 59  1  0  0  0
 34103  1  0  0  0
 35 44  2  0  0  0
 35 45  1  0  0  0
 35 68  1  0  0  0
 36 56  1  0  0  0
 36104  1  0  0  0
 37 39  1  0  0  0
 37 47  1  0  0  0
 37 66  1  0  0  0
 37105  1  0  0  0
 38 43  2  0  0  0
 38 46  1  0  0  0
 38 47  1  0  0  0
 39 64  1  0  0  0
 39 67  2  0  0  0
 40 52  1  0  0  0
 40 53  2  0  0  0
 40 58  1  0  0  0
 41106  1  0  0  0
 41107  1  0  0  0
 41108  1  0  0  0
 41 48  1  0  0  0
 42 43  1  0  0  0
 42 66  1  0  0  0
 42109  1  0  0  0
 42110  1  0  0  0
 43 44  1  0  0  0
 44111  1  0  0  0
 45 46  2  0  0  0
 45112  1  0  0  0
 46113  1  0  0  0
 47114  1  0  0  0
 47115  1  0  0  0
 48 56  1  0  0  0
 48 65  1  0  0  0
 48116  1  0  0  0
 49 50  1  0  0  0
 49 53  1  0  0  0
 49 64  1  0  0  0
 49117  1  0  0  0
 50 51  1  0  0  0
 50118  1  0  0  0
 50119  1  0  0  0
 51 52  1  0  0  0
 51120  1  0  0  0
 51121  1  0  0  0
 52122  1  0  0  0
 52123  1  0  0  0
 53 54  1  0  0  0
 54 55  2  0  0  0
 54124  1  0  0  0
 55 57  1  0  0  0
 55125  1  0  0  0
 56 69  2  0  0  0
 57 58  2  0  0  0
 57126  1  0  0  0
 58127  1  0  0  0
 59 60  1  0  0  0
 59 61  1  0  0  0
 59 62  1  0  0  0
 60128  1  0  0  0
 60129  1  0  0  0
 60130  1  0  0  0
 61131  1  0  0  0
 61132  1  0  0  0
 61133  1  0  0  0
 62134  1  0  0  0
 62135  1  0  0  0
 62136  1  0  0  0
 63 65  1  0  0  0
 63137  1  0  0  0
 63138  1  0  0  0
 63139  1  0  0  0
 64140  1  0  0  0
 65141  1  0  0  0
 68 79  1  0  0  0
 71 73  1  0  0  0
 71 80  2  0  0  0
 71142  1  0  0  0
 72 73  2  0  0  0
 72 81  1  0  0  0
 72143  1  0  0  0
 73 74  1  0  0  0
 74 75  1  0  0  0
 74144  1  0  0  0
 74145  1  0  0  0
 75 78  1  0  0  0
 75146  1  0  0  0
 75147  1  0  0  0
 76 77  1  0  0  0
 76 79  1  0  0  0
 76148  1  0  0  0
 76149  1  0  0  0
 77 81  1  0  0  0
 77150  1  0  0  0
 77151  1  0  0  0
 78 82  1  0  0  0
 78152  1  0  0  0
 78153  1  0  0  0
 79154  1  0  0  0
 79155  1  0  0  0
 80 81  1  0  0  0
 82156  1  0  0  0
M  ISO  4   1 100  68 101  79 101  82 100
M  END
> <chiral flag>
0

> <version>
0

> <s_m_source_file>
/data/baiqing/PycharmProjects/Reinvent-master-3.2/result/LINK_invent/BTK/process_docking_weight1_custom_sum_contain_oxygen_bond_distance_aromatic_linkinvent_7_9_3/rearranged_h_0044.sdf

> <i_m_source_file_index>
5

> <r_mmod_Potential_Energy-OPLS-2005>
-85.5117492675781

> <r_mmod_Stretch_Energy-OPLS-2005>
31.7906112670898

> <r_mmod_Bend_Energy-OPLS-2005>
89.7678146362305

> <r_mmod_Torsional_Energy-OPLS-2005>
258.974090576172

> <r_mmod_Improper_Torsional_Energy-OPLS-2005>
6.39914989471436

> <r_mmod_Van_der_Waal_Energy-OPLS-2005>
120.592559814453

> <r_mmod_Electrostatic_Energy-OPLS-2005>
-370.856140136719

> <r_mmod_Solvation_Energy-OPLS-2005>
-230.207000732422

> <b_mmod_Minimization_Converged-OPLS-2005>
0

> <r_mmod_RMS_Derivative-OPLS-2005>
6.56969404220581

$$$$
5
                    3D
 Structure written by MMmdl.
158166  0  0  1  0            999 V2000
  -30.6381  -14.6175   20.4683 C   0  0  0  0  0  0
  -30.4337  -12.3705   19.4472 C   0  0  0  0  0  0
  -29.5001  -12.4647   18.2208 C   0  0  0  0  0  0
  -28.0242  -12.3189   18.6397 C   0  0  0  0  0  0
  -27.6481  -13.2113   19.8522 C   0  0  2  0  0  0
  -28.6944  -13.0862   20.9817 C   0  0  0  0  0  0
  -25.2537  -13.8165   20.5698 C   0  0  0  0  0  0
  -24.1811  -13.0441   20.9215 C   0  0  0  0  0  0
  -24.6361  -11.6901   20.8740 C   0  0  0  0  0  0
  -23.9026  -10.4294   21.0402 C   0  0  0  0  0  0
  -24.3595   -9.4212   21.9176 C   0  0  0  0  0  0
  -23.6281   -8.2242   22.0748 C   0  0  0  0  0  0
  -22.4266   -8.0268   21.3538 C   0  0  0  0  0  0
  -21.9896   -9.0239   20.4638 C   0  0  0  0  0  0
  -22.7207  -10.2119   20.3047 C   0  0  0  0  0  0
  -21.6836   -6.0716   22.5270 C   0  0  0  0  0  0
  -21.4002   -6.5634   23.8200 C   0  0  0  0  0  0
  -21.3664   -5.6791   24.9172 C   0  0  0  0  0  0
  -21.6048   -4.3055   24.7227 C   0  0  0  0  0  0
  -21.8820   -3.8136   23.4357 C   0  0  0  0  0  0
  -21.9199   -4.6946   22.3410 C   0  0  0  0  0  0
  -22.7825  -13.5210   21.1883 C   0  0  0  0  0  0
  -22.1662   -4.2128   21.0984 F   0  0  0  0  0  0
  -21.5641   -3.4540   25.7748 F   0  0  0  0  0  0
  -30.0097  -13.4046   20.4078 N   0  0  0  0  0  0
  -26.2955  -12.9343   20.3287 N   0  0  0  0  0  0
  -25.9280  -11.6501   20.5740 N   0  0  0  0  0  0
  -22.0478  -12.8199   22.0442 N   0  0  0  0  0  0
  -25.4259  -15.1889   20.4102 N   0  0  0  0  0  0
  -31.8172  -14.7577   20.1369 O   0  0  0  0  0  0
  -21.6645   -6.8853   21.4232 O   0  0  0  0  0  0
  -22.3515  -14.5530   20.6750 O   0  0  0  0  0  0
  -24.6248  -31.8603   23.2038 C   0  0  0  0  0  0
  -25.9085  -32.4782   23.8369 C   0  0  1  0  0  0
  -27.2137  -27.3234   20.1121 C   0  0  0  0  0  0
  -25.5883  -33.8574   24.2298 N   0  0  0  0  0  0
  -23.4171  -30.4884   21.5487 C   0  0  2  0  0  0
  -24.8592  -28.9433   20.1162 C   0  0  0  0  0  0
  -22.7444  -29.4676   22.4959 C   0  0  0  0  0  0
  -18.0276  -28.1384   22.8519 C   0  0  0  0  0  0
  -24.1487  -36.7328   23.2641 C   0  0  0  0  0  0
  -25.9588  -30.7975   21.3682 C   0  0  0  0  0  0
  -26.0310  -29.4228   20.7131 C   0  0  0  0  0  0
  -27.2136  -28.6242   20.7003 C   0  0  0  0  0  0
  -26.0132  -26.8944   19.4973 C   0  0  0  0  0  0
  -24.8495  -27.6826   19.5034 C   0  0  0  0  0  0
  -23.6272  -29.8222   20.1652 C   0  0  0  0  0  0
  -25.4087  -36.3071   24.0336 C   0  0  1  0  0  0
  -20.5881  -28.3717   23.1292 C   0  0  2  0  0  0
  -20.6788  -26.9453   22.5405 C   0  0  0  0  0  0
  -19.5758  -26.6410   21.5210 C   0  0  0  0  0  0
  -18.1928  -26.7938   22.1630 C   0  0  0  0  0  0
  -19.1535  -28.8864   23.2899 C   0  0  0  0  0  0
  -18.9468  -30.1465   23.8927 C   0  0  0  0  0  0
  -17.6471  -30.6607   24.0570 C   0  0  0  0  0  0
  -25.9024  -34.9439   23.5126 C   0  0  0  0  0  0
  -16.5363  -29.9108   23.6325 C   0  0  0  0  0  0
  -16.7265  -28.6508   23.0377 C   0  0  0  0  0  0
  -26.4457  -31.6570   25.0724 C   0  0  0  0  0  0
  -25.3707  -31.3708   26.1472 C   0  0  0  0  0  0
  -27.0258  -30.2981   24.6145 C   0  0  0  0  0  0
  -27.6004  -32.4313   25.7493 C   0  0  0  0  0  0
  -27.5573  -37.1794   24.8449 C   0  0  0  0  0  0
  -21.4163  -29.3079   22.3695 N   0  0  0  0  0  0
  -26.4273  -37.3753   23.9407 N   0  0  0  0  0  0
  -24.6879  -31.0628   22.0990 N   0  0  0  0  0  0
  -23.4175  -28.8210   23.3031 O   0  0  0  0  0  0
  -28.3389  -26.4863   20.1425 O   0  0  0  0  0  0
  -26.5625  -34.8906   22.4711 O   0  0  0  0  0  0
  -23.5411  -32.1379   23.7393 O   0  0  0  0  0  0
  -28.5398  -21.8249   19.1561 C   0  0  0  0  0  0
  -29.6569  -20.4396   21.2289 C   0  0  0  0  0  0
  -28.4582  -20.4026   19.1496 C   0  0  0  0  0  0
  -29.0425  -19.6550   20.2218 C   0  0  0  0  0  0
  -29.1627  -22.5168   20.2153 C   0  0  0  0  0  0
  -28.6542  -19.5973   16.7514 C   0  0  0  0  0  0
  -27.7343  -19.7658   17.9650 C   0  0  0  0  0  0
  -28.8985  -18.0966   20.4014 C   0  0  0  0  0  0
  -29.3655  -24.0730   20.2167 C   0  0  0  0  0  0
  -30.1638  -17.1580   20.4998 C   0  0  0  0  0  0
  -28.1093  -25.0234   20.1323 C   0  0  0  0  0  0
  -29.7118  -21.8040   21.2326 N   0  0  0  0  0  0
  -29.8367  -15.7021   20.6819 N   0  0  0  0  0  0
  -31.4721  -12.4926   19.1341 H   0  0  0  0  0  0
  -30.3759  -11.3825   19.9045 H   0  0  0  0  0  0
  -29.7538  -11.6837   17.5027 H   0  0  0  0  0  0
  -29.6499  -13.4133   17.7055 H   0  0  0  0  0  0
  -27.8621  -11.2713   18.8936 H   0  0  0  0  0  0
  -27.3663  -12.5283   17.7956 H   0  0  0  0  0  0
  -27.6608  -14.2391   19.4914 H   0  0  0  0  0  0
  -28.6976  -12.0766   21.3935 H   0  0  0  0  0  0
  -28.4487  -13.7496   21.8126 H   0  0  0  0  0  0
  -25.2727   -9.5702   22.4757 H   0  0  0  0  0  0
  -23.9995   -7.4633   22.7457 H   0  0  0  0  0  0
  -21.0836   -8.8735   19.8934 H   0  0  0  0  0  0
  -22.3648  -10.9660   19.6167 H   0  0  0  0  0  0
  -21.1975   -7.6135   23.9694 H   0  0  0  0  0  0
  -21.1485   -6.0525   25.9069 H   0  0  0  0  0  0
  -22.0599   -2.7591   23.2866 H   0  0  0  0  0  0
  -22.4113  -11.9862   22.4830 H   0  0  0  0  0  0
  -21.1072  -13.1174   22.2619 H   0  0  0  0  0  0
  -24.6596  -15.8430   20.5237 H   0  0  0  0  0  0
  -26.2668  -15.6259   20.0578 H   0  0  0  0  0  0
  -26.7156  -32.5452   23.1122 H   0  0  0  0  0  0
  -24.9887  -33.9697   25.0344 H   0  0  0  0  0  0
  -22.7143  -31.3106   21.4050 H   0  0  0  0  0  0
  -23.3718  -35.9695   23.3271 H   0  0  0  0  0  0
  -24.3567  -36.8990   22.2064 H   0  0  0  0  0  0
  -23.7293  -37.6541   23.6694 H   0  0  0  0  0  0
  -26.0712  -31.5604   20.5962 H   0  0  0  0  0  0
  -26.8471  -30.8543   21.9865 H   0  0  0  0  0  0
  -28.1160  -28.9891   21.1711 H   0  0  0  0  0  0
  -25.9351  -25.9419   18.9984 H   0  0  0  0  0  0
  -23.9471  -27.3083   19.0399 H   0  0  0  0  0  0
  -23.7363  -30.5960   19.4034 H   0  0  0  0  0  0
  -22.7488  -29.2468   19.8725 H   0  0  0  0  0  0
  -25.1255  -36.1914   25.0830 H   0  0  0  0  0  0
  -20.9979  -28.3313   24.1413 H   0  0  0  0  0  0
  -20.5732  -26.2332   23.3603 H   0  0  0  0  0  0
  -21.6652  -26.7511   22.1184 H   0  0  0  0  0  0
  -19.6950  -25.6312   21.1262 H   0  0  0  0  0  0
  -19.6695  -27.3218   20.6732 H   0  0  0  0  0  0
  -17.4202  -26.6688   21.4031 H   0  0  0  0  0  0
  -18.0342  -26.0071   22.9028 H   0  0  0  0  0  0
  -19.7955  -30.7249   24.2351 H   0  0  0  0  0  0
  -17.5032  -31.6298   24.5149 H   0  0  0  0  0  0
  -15.5370  -30.3010   23.7656 H   0  0  0  0  0  0
  -15.8657  -28.0819   22.7108 H   0  0  0  0  0  0
  -24.5872  -30.7038   25.7853 H   0  0  0  0  0  0
  -24.8876  -32.2856   26.4912 H   0  0  0  0  0  0
  -25.8042  -30.8910   27.0251 H   0  0  0  0  0  0
  -26.2809  -29.6762   24.1165 H   0  0  0  0  0  0
  -27.3936  -29.7186   25.4619 H   0  0  0  0  0  0
  -27.8687  -30.4230   23.9349 H   0  0  0  0  0  0
  -27.2594  -33.3628   26.2040 H   0  0  0  0  0  0
  -28.3828  -32.6863   25.0326 H   0  0  0  0  0  0
  -28.0644  -31.8448   26.5438 H   0  0  0  0  0  0
  -28.2551  -38.0120   24.7476 H   0  0  0  0  0  0
  -28.1108  -36.2644   24.6288 H   0  0  0  0  0  0
  -27.2288  -37.1465   25.8848 H   0  0  0  0  0  0
  -20.9356  -29.8767   21.6868 H   0  0  0  0  0  0
  -26.0165  -38.2832   24.1392 H   0  0  0  0  0  0
  -28.1254  -22.3883   18.3305 H   0  0  0  0  0  0
  -30.0972  -19.9566   22.0895 H   0  0  0  0  0  0
  -28.1121  -19.1855   15.9000 H   0  0  0  0  0  0
  -29.4818  -18.9256   16.9801 H   0  0  0  0  0  0
  -29.0701  -20.5572   16.4414 H   0  0  0  0  0  0
  -26.8982  -20.4081   17.6865 H   0  0  0  0  0  0
  -27.2647  -18.8193   18.2183 H   0  0  0  0  0  0
  -28.2660  -17.6844   19.6218 H   0  0  0  0  0  0
  -28.3219  -17.9535   21.3165 H   0  0  0  0  0  0
  -30.0210  -24.3028   19.3780 H   0  0  0  0  0  0
  -29.9326  -24.3350   21.1097 H   0  0  0  0  0  0
  -30.7896  -17.4772   21.3335 H   0  0  0  0  0  0
  -30.7696  -17.2741   19.5997 H   0  0  0  0  0  0
  -27.4390  -24.7779   20.9586 H   0  0  0  0  0  0
  -27.5966  -24.7366   19.2162 H   0  0  0  0  0  0
  -28.8756  -15.4842   20.8961 H   0  0  0  0  0  0
  1 25  1  0  0  0
  1 30  2  0  0  0
  1 83  1  0  0  0
  2  3  1  0  0  0
  2 25  1  0  0  0
  2 84  1  0  0  0
  2 85  1  0  0  0
  3  4  1  0  0  0
  3 86  1  0  0  0
  3 87  1  0  0  0
  4  5  1  0  0  0
  4 88  1  0  0  0
  4 89  1  0  0  0
  5  6  1  0  0  0
  5 26  1  0  0  0
  5 90  1  0  0  0
  6 25  1  0  0  0
  6 91  1  0  0  0
  6 92  1  0  0  0
  7  8  2  0  0  0
  7 26  1  0  0  0
  7 29  1  0  0  0
  8  9  1  0  0  0
  8 22  1  0  0  0
  9 10  1  0  0  0
  9 27  2  0  0  0
 10 11  2  0  0  0
 10 15  1  0  0  0
 11 12  1  0  0  0
 11 93  1  0  0  0
 12 13  2  0  0  0
 12 94  1  0  0  0
 13 14  1  0  0  0
 13 31  1  0  0  0
 14 15  2  0  0  0
 14 95  1  0  0  0
 15 96  1  0  0  0
 16 17  2  0  0  0
 16 21  1  0  0  0
 16 31  1  0  0  0
 17 18  1  0  0  0
 17 97  1  0  0  0
 18 19  2  0  0  0
 18 98  1  0  0  0
 19 20  1  0  0  0
 19 24  1  0  0  0
 20 21  2  0  0  0
 20 99  1  0  0  0
 21 23  1  0  0  0
 22 28  1  0  0  0
 22 32  2  0  0  0
 26 27  1  0  0  0
 28100  1  0  0  0
 28101  1  0  0  0
 29102  1  0  0  0
 29103  1  0  0  0
 33 34  1  0  0  0
 33 66  1  0  0  0
 33 70  2  0  0  0
 34 36  1  0  0  0
 34 59  1  0  0  0
 34104  1  0  0  0
 35 44  2  0  0  0
 35 45  1  0  0  0
 35 68  1  0  0  0
 36 56  1  0  0  0
 36105  1  0  0  0
 37 39  1  0  0  0
 37 47  1  0  0  0
 37 66  1  0  0  0
 37106  1  0  0  0
 38 43  2  0  0  0
 38 46  1  0  0  0
 38 47  1  0  0  0
 39 64  1  0  0  0
 39 67  2  0  0  0
 40 52  1  0  0  0
 40 53  2  0  0  0
 40 58  1  0  0  0
 41107  1  0  0  0
 41108  1  0  0  0
 41109  1  0  0  0
 41 48  1  0  0  0
 42 43  1  0  0  0
 42 66  1  0  0  0
 42110  1  0  0  0
 42111  1  0  0  0
 43 44  1  0  0  0
 44112  1  0  0  0
 45 46  2  0  0  0
 45113  1  0  0  0
 46114  1  0  0  0
 47115  1  0  0  0
 47116  1  0  0  0
 48 56  1  0  0  0
 48 65  1  0  0  0
 48117  1  0  0  0
 49 50  1  0  0  0
 49 53  1  0  0  0
 49 64  1  0  0  0
 49118  1  0  0  0
 50 51  1  0  0  0
 50119  1  0  0  0
 50120  1  0  0  0
 51 52  1  0  0  0
 51121  1  0  0  0
 51122  1  0  0  0
 52123  1  0  0  0
 52124  1  0  0  0
 53 54  1  0  0  0
 54 55  2  0  0  0
 54125  1  0  0  0
 55 57  1  0  0  0
 55126  1  0  0  0
 56 69  2  0  0  0
 57 58  2  0  0  0
 57127  1  0  0  0
 58128  1  0  0  0
 59 60  1  0  0  0
 59 61  1  0  0  0
 59 62  1  0  0  0
 60129  1  0  0  0
 60130  1  0  0  0
 60131  1  0  0  0
 61132  1  0  0  0
 61133  1  0  0  0
 61134  1  0  0  0
 62135  1  0  0  0
 62136  1  0  0  0
 62137  1  0  0  0
 63 65  1  0  0  0
 63138  1  0  0  0
 63139  1  0  0  0
 63140  1  0  0  0
 64141  1  0  0  0
 65142  1  0  0  0
 68 81  1  0  0  0
 71 73  2  0  0  0
 71 75  1  0  0  0
 71143  1  0  0  0
 72 74  2  0  0  0
 72 82  1  0  0  0
 72144  1  0  0  0
 73 74  1  0  0  0
 73 77  1  0  0  0
 74 78  1  0  0  0
 75 79  1  0  0  0
 75 82  2  0  0  0
 76 77  1  0  0  0
 76145  1  0  0  0
 76146  1  0  0  0
 76147  1  0  0  0
 77148  1  0  0  0
 77149  1  0  0  0
 78 80  1  0  0  0
 78150  1  0  0  0
 78151  1  0  0  0
 79 81  1  0  0  0
 79152  1  0  0  0
 79153  1  0  0  0
 80 83  1  0  0  0
 80154  1  0  0  0
 80155  1  0  0  0
 81156  1  0  0  0
 81157  1  0  0  0
 83158  1  0  0  0
M  ISO  4   1 100  68 101  81 101  83 100
M  END
> <chiral flag>
0

> <version>
0

> <s_m_source_file>
/data/baiqing/PycharmProjects/Reinvent-master-3.2/result/LINK_invent/BTK/process_docking_weight1_custom_sum_contain_oxygen_bond_distance_aromatic_linkinvent_7_9_3/rearranged_h_0044.sdf

> <i_m_source_file_index>
6

> <r_mmod_Potential_Energy-OPLS-2005>
-167.217147827148

> <r_mmod_Stretch_Energy-OPLS-2005>
70.8541412353516

> <r_mmod_Bend_Energy-OPLS-2005>
124.915298461914

> <r_mmod_Torsional_Energy-OPLS-2005>
202.665557861328

> <r_mmod_Improper_Torsional_Energy-OPLS-2005>
6.31361627578735

> <r_mmod_Van_der_Waal_Energy-OPLS-2005>
145.702896118164

> <r_mmod_Electrostatic_Energy-OPLS-2005>
-535.0244140625

> <r_mmod_Solvation_Energy-OPLS-2005>
-228.718124389648

> <b_mmod_Minimization_Converged-OPLS-2005>
0

> <r_mmod_RMS_Derivative-OPLS-2005>
3.33512353897095

$$$$
6
                    3D
 Structure written by MMmdl.
153161  0  0  1  0            999 V2000
  -30.6531  -14.7109   20.5266 C   0  0  0  0  0  0
  -30.4338  -12.4406   19.4883 C   0  0  0  0  0  0
  -29.5199  -12.5337   18.2434 C   0  0  0  0  0  0
  -28.0391  -12.3619   18.6353 C   0  0  0  0  0  0
  -27.6522  -13.2266   19.8629 C   0  0  2  0  0  0
  -28.6915  -13.1057   20.9978 C   0  0  0  0  0  0
  -25.2537  -13.8137   20.5712 C   0  0  0  0  0  0
  -24.1800  -13.0423   20.9196 C   0  0  0  0  0  0
  -24.6382  -11.6891   20.8757 C   0  0  0  0  0  0
  -23.9046  -10.4291   21.0423 C   0  0  0  0  0  0
  -24.3601   -9.4216   21.9190 C   0  0  0  0  0  0
  -23.6307   -8.2233   22.0753 C   0  0  0  0  0  0
  -22.4276   -8.0265   21.3550 C   0  0  0  0  0  0
  -21.9925   -9.0235   20.4637 C   0  0  0  0  0  0
  -22.7225  -10.2128   20.3068 C   0  0  0  0  0  0
  -21.6874   -6.0736   22.5283 C   0  0  0  0  0  0
  -21.4012   -6.5647   23.8215 C   0  0  0  0  0  0
  -21.3682   -5.6806   24.9182 C   0  0  0  0  0  0
  -21.6071   -4.3065   24.7241 C   0  0  0  0  0  0
  -21.8787   -3.8158   23.4356 C   0  0  0  0  0  0
  -21.9190   -4.6969   22.3411 C   0  0  0  0  0  0
  -22.7833  -13.5247   21.1888 C   0  0  0  0  0  0
  -22.1674   -4.2184   21.0982 F   0  0  0  0  0  0
  -21.5669   -3.4528   25.7744 F   0  0  0  0  0  0
  -30.0028  -13.4920   20.4438 N   0  0  0  0  0  0
  -26.2986  -12.9361   20.3306 N   0  0  0  0  0  0
  -25.9316  -11.6509   20.5744 N   0  0  0  0  0  0
  -22.0476  -12.8230   22.0421 N   0  0  0  0  0  0
  -25.4253  -15.1855   20.4170 N   0  0  0  0  0  0
  -31.7857  -14.8151   20.0419 O   0  0  0  0  0  0
  -21.6656   -6.8849   21.4231 O   0  0  0  0  0  0
  -22.3555  -14.5597   20.6792 O   0  0  0  0  0  0
  -24.6289  -31.8573   23.2029 C   0  0  0  0  0  0
  -25.9128  -32.4751   23.8396 C   0  0  1  0  0  0
  -27.2173  -27.2747   20.1310 C   0  0  0  0  0  0
  -25.5949  -33.8551   24.2321 N   0  0  0  0  0  0
  -23.4269  -30.4821   21.5446 C   0  0  2  0  0  0
  -24.8766  -28.9380   20.1161 C   0  0  0  0  0  0
  -22.7519  -29.4572   22.4891 C   0  0  0  0  0  0
  -18.0307  -28.1325   22.8455 C   0  0  0  0  0  0
  -24.1469  -36.7276   23.2627 C   0  0  0  0  0  0
  -25.9728  -30.7771   21.3817 C   0  0  0  0  0  0
  -26.0483  -29.4019   20.7243 C   0  0  0  0  0  0
  -27.2248  -28.5861   20.7149 C   0  0  0  0  0  0
  -26.0189  -26.8785   19.4941 C   0  0  0  0  0  0
  -24.8673  -27.6838   19.4890 C   0  0  0  0  0  0
  -23.6493  -29.8244   20.1601 C   0  0  0  0  0  0
  -25.4101  -36.3088   24.0308 C   0  0  1  0  0  0
  -20.5909  -28.3630   23.1223 C   0  0  2  0  0  0
  -20.6795  -26.9336   22.5386 C   0  0  0  0  0  0
  -19.5771  -26.6335   21.5161 C   0  0  0  0  0  0
  -18.1941  -26.7881   22.1570 C   0  0  0  0  0  0
  -19.1571  -28.8802   23.2843 C   0  0  0  0  0  0
  -18.9474  -30.1412   23.8840 C   0  0  0  0  0  0
  -17.6472  -30.6523   24.0523 C   0  0  0  0  0  0
  -25.9030  -34.9433   23.5116 C   0  0  0  0  0  0
  -16.5357  -29.9010   23.6318 C   0  0  0  0  0  0
  -16.7301  -28.6441   23.0319 C   0  0  0  0  0  0
  -26.4558  -31.6564   25.0745 C   0  0  0  0  0  0
  -25.3792  -31.3673   26.1461 C   0  0  0  0  0  0
  -27.0403  -30.2967   24.6229 C   0  0  0  0  0  0
  -27.6147  -32.4294   25.7497 C   0  0  0  0  0  0
  -27.5576  -37.1762   24.8444 C   0  0  0  0  0  0
  -21.4217  -29.3008   22.3634 N   0  0  0  0  0  0
  -26.4302  -37.3765   23.9396 N   0  0  0  0  0  0
  -24.6954  -31.0558   22.0996 N   0  0  0  0  0  0
  -23.4210  -28.8065   23.2968 O   0  0  0  0  0  0
  -28.3111  -26.3837   20.1848 O   0  0  0  0  0  0
  -26.5550  -34.8889   22.4653 O   0  0  0  0  0  0
  -23.5448  -32.1424   23.7327 O   0  0  0  0  0  0
  -29.4581  -21.2404   21.0998 C   0  0  0  0  0  0
  -28.9601  -20.3162   19.2258 C   0  0  0  0  0  0
  -29.1396  -22.2859   20.2162 C   0  0  0  0  0  0
  -29.5754  -15.9217   22.3457 C   0  0  0  0  0  0
  -29.2854  -23.8692   20.3375 C   0  0  0  0  0  0
  -29.5519  -18.5785   21.0883 C   0  0  0  0  0  0
  -30.0652  -17.2566   20.2802 C   0  0  0  0  0  0
  -28.0556  -24.8987   20.1683 C   0  0  0  0  0  0
  -28.8302  -21.6401   19.0103 N   0  0  0  0  0  0
  -29.3708  -19.9633   20.4583 N   0  0  0  0  0  0
  -29.9645  -15.8580   20.9337 N   0  0  0  0  0  0
  -31.4799  -12.5443   19.1957 H   0  0  0  0  0  0
  -30.3732  -11.4478   19.9422 H   0  0  0  0  0  0
  -29.8049  -11.7764   17.5138 H   0  0  0  0  0  0
  -29.6612  -13.4951   17.7482 H   0  0  0  0  0  0
  -27.8742  -11.3104   18.8636 H   0  0  0  0  0  0
  -27.3890  -12.5940   17.7935 H   0  0  0  0  0  0
  -27.6660  -14.2603   19.5210 H   0  0  0  0  0  0
  -28.7282  -12.0821   21.3770 H   0  0  0  0  0  0
  -28.3789  -13.7134   21.8421 H   0  0  0  0  0  0
  -25.2733   -9.5756   22.4779 H   0  0  0  0  0  0
  -24.0079   -7.4626   22.7460 H   0  0  0  0  0  0
  -21.0890   -8.8733   19.8897 H   0  0  0  0  0  0
  -22.3685  -10.9685   19.6208 H   0  0  0  0  0  0
  -21.1971   -7.6152   23.9725 H   0  0  0  0  0  0
  -21.1580   -6.0534   25.9094 H   0  0  0  0  0  0
  -22.0545   -2.7632   23.2820 H   0  0  0  0  0  0
  -22.4153  -11.9927   22.4843 H   0  0  0  0  0  0
  -21.1060  -13.1214   22.2551 H   0  0  0  0  0  0
  -24.6592  -15.8365   20.5345 H   0  0  0  0  0  0
  -26.2842  -15.6328   20.1274 H   0  0  0  0  0  0
  -26.7163  -32.5436   23.1145 H   0  0  0  0  0  0
  -25.0185  -33.9716   25.0517 H   0  0  0  0  0  0
  -22.7230  -31.3049   21.4011 H   0  0  0  0  0  0
  -23.3735  -35.9589   23.3275 H   0  0  0  0  0  0
  -24.3584  -36.8947   22.2056 H   0  0  0  0  0  0
  -23.7228  -37.6464   23.6666 H   0  0  0  0  0  0
  -26.1161  -31.5420   20.6173 H   0  0  0  0  0  0
  -26.8490  -30.8259   22.0180 H   0  0  0  0  0  0
  -28.1288  -28.9397   21.1943 H   0  0  0  0  0  0
  -25.9391  -25.9287   18.9883 H   0  0  0  0  0  0
  -23.9697  -27.3307   19.0043 H   0  0  0  0  0  0
  -23.7737  -30.6035   19.4096 H   0  0  0  0  0  0
  -22.7688  -29.2603   19.8480 H   0  0  0  0  0  0
  -25.1283  -36.1952   25.0798 H   0  0  0  0  0  0
  -21.0001  -28.3194   24.1342 H   0  0  0  0  0  0
  -20.5619  -26.2216   23.3575 H   0  0  0  0  0  0
  -21.6656  -26.7303   22.1192 H   0  0  0  0  0  0
  -19.6893  -25.6234   21.1192 H   0  0  0  0  0  0
  -19.6709  -27.3130   20.6670 H   0  0  0  0  0  0
  -17.4202  -26.6584   21.3991 H   0  0  0  0  0  0
  -18.0369  -26.0037   22.8990 H   0  0  0  0  0  0
  -19.7951  -30.7252   24.2147 H   0  0  0  0  0  0
  -17.5009  -31.6181   24.5133 H   0  0  0  0  0  0
  -15.5358  -30.2853   23.7673 H   0  0  0  0  0  0
  -15.8710  -28.0731   22.7019 H   0  0  0  0  0  0
  -24.5964  -30.7042   25.7774 H   0  0  0  0  0  0
  -24.8955  -32.2795   26.4931 H   0  0  0  0  0  0
  -25.8111  -30.8818   27.0225 H   0  0  0  0  0  0
  -26.2966  -29.6652   24.1339 H   0  0  0  0  0  0
  -27.4192  -29.7309   25.4761 H   0  0  0  0  0  0
  -27.8824  -30.4215   23.9416 H   0  0  0  0  0  0
  -27.2813  -33.3622   26.2075 H   0  0  0  0  0  0
  -28.3971  -32.6829   25.0314 H   0  0  0  0  0  0
  -28.0805  -31.8411   26.5427 H   0  0  0  0  0  0
  -28.2554  -38.0104   24.7570 H   0  0  0  0  0  0
  -28.1151  -36.2633   24.6220 H   0  0  0  0  0  0
  -27.2288  -37.1363   25.8852 H   0  0  0  0  0  0
  -20.9358  -29.8879   21.6987 H   0  0  0  0  0  0
  -26.0179  -38.2822   24.1480 H   0  0  0  0  0  0
  -29.7614  -21.2972   22.1385 H   0  0  0  0  0  0
  -28.7444  -19.5820   18.4604 H   0  0  0  0  0  0
  -28.5128  -16.1396   22.4471 H   0  0  0  0  0  0
  -30.1325  -16.6997   22.8636 H   0  0  0  0  0  0
  -29.7791  -14.9993   22.8910 H   0  0  0  0  0  0
  -30.0191  -24.1789   19.5915 H   0  0  0  0  0  0
  -29.7710  -24.1005   21.2874 H   0  0  0  0  0  0
  -30.2289  -18.7388   21.9317 H   0  0  0  0  0  0
  -28.5861  -18.3363   21.5358 H   0  0  0  0  0  0
  -31.1067  -17.4179   19.9998 H   0  0  0  0  0  0
  -29.5215  -17.1916   19.3345 H   0  0  0  0  0  0
  -27.3290  -24.6849   20.9570 H   0  0  0  0  0  0
  -27.5793  -24.6357   19.2220 H   0  0  0  0  0  0
  1 25  1  0  0  0
  1 30  2  0  0  0
  1 81  1  0  0  0
  2  3  1  0  0  0
  2 25  1  0  0  0
  2 82  1  0  0  0
  2 83  1  0  0  0
  3  4  1  0  0  0
  3 84  1  0  0  0
  3 85  1  0  0  0
  4  5  1  0  0  0
  4 86  1  0  0  0
  4 87  1  0  0  0
  5  6  1  0  0  0
  5 26  1  0  0  0
  5 88  1  0  0  0
  6 25  1  0  0  0
  6 89  1  0  0  0
  6 90  1  0  0  0
  7  8  2  0  0  0
  7 26  1  0  0  0
  7 29  1  0  0  0
  8  9  1  0  0  0
  8 22  1  0  0  0
  9 10  1  0  0  0
  9 27  2  0  0  0
 10 11  2  0  0  0
 10 15  1  0  0  0
 11 12  1  0  0  0
 11 91  1  0  0  0
 12 13  2  0  0  0
 12 92  1  0  0  0
 13 14  1  0  0  0
 13 31  1  0  0  0
 14 15  2  0  0  0
 14 93  1  0  0  0
 15 94  1  0  0  0
 16 17  2  0  0  0
 16 21  1  0  0  0
 16 31  1  0  0  0
 17 18  1  0  0  0
 17 95  1  0  0  0
 18 19  2  0  0  0
 18 96  1  0  0  0
 19 20  1  0  0  0
 19 24  1  0  0  0
 20 21  2  0  0  0
 20 97  1  0  0  0
 21 23  1  0  0  0
 22 28  1  0  0  0
 22 32  2  0  0  0
 26 27  1  0  0  0
 28 98  1  0  0  0
 28 99  1  0  0  0
 29100  1  0  0  0
 29101  1  0  0  0
 33 34  1  0  0  0
 33 66  1  0  0  0
 33 70  2  0  0  0
 34 36  1  0  0  0
 34 59  1  0  0  0
 34102  1  0  0  0
 35 44  2  0  0  0
 35 45  1  0  0  0
 35 68  1  0  0  0
 36 56  1  0  0  0
 36103  1  0  0  0
 37 39  1  0  0  0
 37 47  1  0  0  0
 37 66  1  0  0  0
 37104  1  0  0  0
 38 43  2  0  0  0
 38 46  1  0  0  0
 38 47  1  0  0  0
 39 64  1  0  0  0
 39 67  2  0  0  0
 40 52  1  0  0  0
 40 53  2  0  0  0
 40 58  1  0  0  0
 41105  1  0  0  0
 41106  1  0  0  0
 41107  1  0  0  0
 41 48  1  0  0  0
 42 43  1  0  0  0
 42 66  1  0  0  0
 42108  1  0  0  0
 42109  1  0  0  0
 43 44  1  0  0  0
 44110  1  0  0  0
 45 46  2  0  0  0
 45111  1  0  0  0
 46112  1  0  0  0
 47113  1  0  0  0
 47114  1  0  0  0
 48 56  1  0  0  0
 48 65  1  0  0  0
 48115  1  0  0  0
 49 50  1  0  0  0
 49 53  1  0  0  0
 49 64  1  0  0  0
 49116  1  0  0  0
 50 51  1  0  0  0
 50117  1  0  0  0
 50118  1  0  0  0
 51 52  1  0  0  0
 51119  1  0  0  0
 51120  1  0  0  0
 52121  1  0  0  0
 52122  1  0  0  0
 53 54  1  0  0  0
 54 55  2  0  0  0
 54123  1  0  0  0
 55 57  1  0  0  0
 55124  1  0  0  0
 56 69  2  0  0  0
 57 58  2  0  0  0
 57125  1  0  0  0
 58126  1  0  0  0
 59 60  1  0  0  0
 59 61  1  0  0  0
 59 62  1  0  0  0
 60127  1  0  0  0
 60128  1  0  0  0
 60129  1  0  0  0
 61130  1  0  0  0
 61131  1  0  0  0
 61132  1  0  0  0
 62133  1  0  0  0
 62134  1  0  0  0
 62135  1  0  0  0
 63 65  1  0  0  0
 63136  1  0  0  0
 63137  1  0  0  0
 63138  1  0  0  0
 64139  1  0  0  0
 65140  1  0  0  0
 68 78  1  0  0  0
 71 73  2  0  0  0
 71 80  1  0  0  0
 71141  1  0  0  0
 72 79  2  0  0  0
 72 80  1  0  0  0
 72142  1  0  0  0
 73 75  1  0  0  0
 73 79  1  0  0  0
 74 81  1  0  0  0
 74143  1  0  0  0
 74144  1  0  0  0
 74145  1  0  0  0
 75 78  1  0  0  0
 75146  1  0  0  0
 75147  1  0  0  0
 76 77  1  0  0  0
 76 80  1  0  0  0
 76148  1  0  0  0
 76149  1  0  0  0
 77 81  1  0  0  0
 77150  1  0  0  0
 77151  1  0  0  0
 78152  1  0  0  0
 78153  1  0  0  0
M  ISO  4   1 100  68 101  78 101  81 100
M  END
> <chiral flag>
0

> <version>
0

> <s_m_source_file>
/data/baiqing/PycharmProjects/Reinvent-master-3.2/result/LINK_invent/BTK/process_docking_weight1_custom_sum_contain_oxygen_bond_distance_aromatic_linkinvent_7_9_3/rearranged_h_0044.sdf

> <i_m_source_file_index>
7

> <r_mmod_Potential_Energy-OPLS-2005>
291.251281738281

> <r_mmod_Stretch_Energy-OPLS-2005>
129.639053344727

> <r_mmod_Bend_Energy-OPLS-2005>
180.176422119141

> <r_mmod_Torsional_Energy-OPLS-2005>
280.095092773438

> <r_mmod_Improper_Torsional_Energy-OPLS-2005>
8.00396919250488

> <r_mmod_Van_der_Waal_Energy-OPLS-2005>
126.587036132812

> <r_mmod_Electrostatic_Energy-OPLS-2005>
-281.933288574219

> <r_mmod_Solvation_Energy-OPLS-2005>
-221.417572021484

> <b_mmod_Minimization_Converged-OPLS-2005>
0

> <r_mmod_RMS_Derivative-OPLS-2005>
5.84772348403931

$$$$
7
                    3D
 Structure written by MMmdl.
156164  0  0  1  0            999 V2000
  -29.0589  -16.1407   20.6783 C   0  0  0  0  0  0
  -30.1448  -13.6369   19.7409 C   0  0  0  0  0  0
  -29.5151  -12.8842   18.4976 C   0  0  0  0  0  0
  -28.1425  -12.2946   18.8429 C   0  0  0  0  0  0
  -27.4598  -13.2613   19.8206 C   0  0  2  0  0  0
  -28.2770  -13.6184   21.0576 C   0  0  0  0  0  0
  -25.1636  -13.8051   20.5578 C   0  0  0  0  0  0
  -24.1170  -13.0260   20.9327 C   0  0  0  0  0  0
  -24.5866  -11.6760   20.8793 C   0  0  0  0  0  0
  -23.8736  -10.4166   21.0493 C   0  0  0  0  0  0
  -24.3438   -9.4135   21.9229 C   0  0  0  0  0  0
  -23.6199   -8.2134   22.0760 C   0  0  0  0  0  0
  -22.4188   -8.0157   21.3540 C   0  0  0  0  0  0
  -21.9745   -9.0088   20.4647 C   0  0  0  0  0  0
  -22.6978  -10.1999   20.3089 C   0  0  0  0  0  0
  -21.6814   -6.0665   22.5289 C   0  0  0  0  0  0
  -21.3984   -6.5600   23.8211 C   0  0  0  0  0  0
  -21.3649   -5.6770   24.9186 C   0  0  0  0  0  0
  -21.6046   -4.3032   24.7247 C   0  0  0  0  0  0
  -21.8825   -3.8107   23.4375 C   0  0  0  0  0  0
  -21.9183   -4.6906   22.3423 C   0  0  0  0  0  0
  -22.7312  -13.5108   21.2058 C   0  0  0  0  0  0
  -22.1660   -4.2096   21.0999 F   0  0  0  0  0  0
  -21.5636   -3.4527   25.7767 F   0  0  0  0  0  0
  -29.1597  -14.6236   20.5247 N   0  0  0  0  0  0
  -26.1666  -12.9115   20.2639 N   0  0  0  0  0  0
  -25.8641  -11.6301   20.5417 N   0  0  0  0  0  0
  -22.0016  -12.8120   22.0649 N   0  0  0  0  0  0
  -25.3443  -15.1812   20.4073 N   0  0  0  0  0  0
  -30.2987  -16.3358   20.3995 O   0  0  0  0  0  0
  -21.6582   -6.8758   21.4233 O   0  0  0  0  0  0
  -22.3099  -14.5452   20.6896 O   0  0  0  0  0  0
  -24.6694  -31.9312   23.2012 C   0  0  0  0  0  0
  -25.9504  -32.5075   23.8542 C   0  0  1  0  0  0
  -26.9344  -27.2829   20.2783 C   0  0  0  0  0  0
  -25.6309  -33.8807   24.2537 N   0  0  0  0  0  0
  -23.4865  -30.6203   21.5229 C   0  0  2  0  0  0
  -24.8509  -29.0847   20.0256 C   0  0  0  0  0  0
  -23.0037  -29.5500   22.4837 C   0  0  0  0  0  0
  -18.4849  -27.1991   23.2069 C   0  0  0  0  0  0
  -24.1506  -36.7363   23.2610 C   0  0  0  0  0  0
  -26.0055  -30.8522   21.3696 C   0  0  0  0  0  0
  -26.0114  -29.4835   20.7065 C   0  0  0  0  0  0
  -27.0878  -28.5746   20.8391 C   0  0  0  0  0  0
  -25.9198  -27.0296   19.3505 C   0  0  0  0  0  0
  -24.8189  -27.8832   19.3042 C   0  0  0  0  0  0
  -23.6572  -30.0019   20.1092 C   0  0  0  0  0  0
  -25.4125  -36.3203   24.0336 C   0  0  1  0  0  0
  -21.3636  -27.9845   22.8374 C   0  0  2  0  0  0
  -21.9376  -26.8383   21.1042 C   0  0  0  0  0  0
  -20.2343  -25.2905   20.6814 C   0  0  0  0  0  0
  -18.7351  -25.5843   22.2212 C   0  0  0  0  0  0
  -19.6638  -28.1890   23.5129 C   0  0  0  0  0  0
  -19.2837  -29.5549   23.9112 C   0  0  0  0  0  0
  -17.9657  -30.0944   23.9644 C   0  0  0  0  0  0
  -25.9126  -34.9605   23.5154 C   0  0  0  0  0  0
  -16.9053  -29.2631   23.5798 C   0  0  0  0  0  0
  -17.1764  -27.8972   23.2094 C   0  0  0  0  0  0
  -26.4598  -31.6640   25.0839 C   0  0  0  0  0  0
  -25.3717  -31.3749   26.1439 C   0  0  0  0  0  0
  -27.0361  -30.3062   24.6187 C   0  0  0  0  0  0
  -27.6156  -32.4217   25.7759 C   0  0  0  0  0  0
  -27.5598  -37.1878   24.8465 C   0  0  0  0  0  0
  -21.7249  -29.3045   22.4513 N   0  0  0  0  0  0
  -26.4300  -37.3888   23.9426 N   0  0  0  0  0  0
  -24.7418  -31.1811   22.0671 N   0  0  0  0  0  0
  -23.7759  -28.9246   23.2159 O   0  0  0  0  0  0
  -27.4194  -26.1585   20.8911 O   0  0  0  0  0  0
  -26.5518  -34.9025   22.4613 O   0  0  0  0  0  0
  -23.5821  -32.1933   23.7409 O   0  0  0  0  0  0
  -22.9217  -25.5419   24.0516 C   0  0  0  0  0  0
  -23.6872  -25.0707   22.9199 C   0  0  0  0  0  0
  -22.7066  -24.2109   22.3925 C   0  0  0  0  0  0
  -19.8084  -27.3659   21.2464 C   0  0  0  0  0  0
  -25.2536  -25.5203   22.6721 C   0  0  0  0  0  0
  -23.7542  -22.4374   21.6234 C   0  0  0  0  0  0
  -25.2336  -20.6622   21.8018 C   0  0  0  0  0  0
  -26.7244  -19.0877   20.9852 C   0  0  0  0  0  0
  -26.2806  -25.2202   21.4073 C   0  0  0  0  0  0
  -21.5644  -25.5429   23.9947 N   0  0  0  0  0  0
  -21.2423  -25.4263   22.6778 N   0  0  0  0  0  0
  -27.7498  -17.2799   20.9963 N   0  0  0  0  0  0
  -31.0015  -14.2055   19.3777 H   0  0  0  0  0  0
  -30.5899  -12.9136   20.4269 H   0  0  0  0  0  0
  -30.1889  -12.1131   18.1214 H   0  0  0  0  0  0
  -29.3915  -13.6044   17.6876 H   0  0  0  0  0  0
  -28.2778  -11.3231   19.3195 H   0  0  0  0  0  0
  -27.5417  -12.1333   17.9470 H   0  0  0  0  0  0
  -27.3012  -14.1516   19.2073 H   0  0  0  0  0  0
  -28.7500  -12.7567   21.5317 H   0  0  0  0  0  0
  -27.6681  -14.0926   21.8298 H   0  0  0  0  0  0
  -25.2580   -9.5679   22.4789 H   0  0  0  0  0  0
  -23.9943   -7.4526   22.7459 H   0  0  0  0  0  0
  -21.0683   -8.8554   19.8955 H   0  0  0  0  0  0
  -22.3408  -10.9540   19.6213 H   0  0  0  0  0  0
  -21.1961   -7.6107   23.9696 H   0  0  0  0  0  0
  -21.1473   -6.0508   25.9085 H   0  0  0  0  0  0
  -22.0619   -2.7569   23.2891 H   0  0  0  0  0  0
  -22.3649  -11.9764   22.4986 H   0  0  0  0  0  0
  -21.0668  -13.1182   22.2945 H   0  0  0  0  0  0
  -24.5071  -15.7541   20.4330 H   0  0  0  0  0  0
  -25.9989  -15.5050   19.7069 H   0  0  0  0  0  0
  -26.7678  -32.5718   23.1402 H   0  0  0  0  0  0
  -25.0614  -33.9945   25.0794 H   0  0  0  0  0  0
  -22.7349  -31.4098   21.4557 H   0  0  0  0  0  0
  -23.3788  -35.9675   23.3268 H   0  0  0  0  0  0
  -24.3620  -36.8975   22.2027 H   0  0  0  0  0  0
  -23.7230  -37.6562   23.6609 H   0  0  0  0  0  0
  -26.1820  -31.6097   20.6046 H   0  0  0  0  0  0
  -26.8780  -30.8646   22.0116 H   0  0  0  0  0  0
  -27.8950  -28.7825   21.5278 H   0  0  0  0  0  0
  -25.8466  -26.0778   18.8436 H   0  0  0  0  0  0
  -23.9499  -27.6104   18.7215 H   0  0  0  0  0  0
  -23.8108  -30.8050   19.3874 H   0  0  0  0  0  0
  -22.7475  -29.5005   19.7838 H   0  0  0  0  0  0
  -25.1278  -36.2073   25.0824 H   0  0  0  0  0  0
  -21.9019  -27.7945   23.7584 H   0  0  0  0  0  0
  -22.9536  -26.4607   21.1077 H   0  0  0  0  0  0
  -22.0537  -27.4921   20.2397 H   0  0  0  0  0  0
  -20.5767  -24.2526   20.6372 H   0  0  0  0  0  0
  -19.8110  -25.4226   19.6809 H   0  0  0  0  0  0
  -17.7698  -25.3510   21.7694 H   0  0  0  0  0  0
  -18.8358  -24.7969   22.9701 H   0  0  0  0  0  0
  -20.0805  -30.2560   24.1154 H   0  0  0  0  0  0
  -17.7958  -31.1268   24.2380 H   0  0  0  0  0  0
  -15.8946  -29.6473   23.5508 H   0  0  0  0  0  0
  -16.3267  -27.3204   22.8704 H   0  0  0  0  0  0
  -24.5870  -30.7207   25.7620 H   0  0  0  0  0  0
  -24.8964  -32.2915   26.4942 H   0  0  0  0  0  0
  -25.7932  -30.8784   27.0188 H   0  0  0  0  0  0
  -26.2947  -29.6965   24.1016 H   0  0  0  0  0  0
  -27.3873  -29.7160   25.4662 H   0  0  0  0  0  0
  -27.8917  -30.4350   23.9552 H   0  0  0  0  0  0
  -27.2805  -33.3499   26.2403 H   0  0  0  0  0  0
  -28.4056  -32.6775   25.0683 H   0  0  0  0  0  0
  -28.0703  -31.8227   26.5661 H   0  0  0  0  0  0
  -28.2592  -38.0201   24.7558 H   0  0  0  0  0  0
  -28.1124  -36.2740   24.6230 H   0  0  0  0  0  0
  -27.2330  -37.1456   25.8870 H   0  0  0  0  0  0
  -21.0957  -29.8567   21.8863 H   0  0  0  0  0  0
  -26.0188  -38.2957   24.1464 H   0  0  0  0  0  0
  -23.3346  -26.0579   24.9075 H   0  0  0  0  0  0
  -18.7665  -27.2817   20.8859 H   0  0  0  0  0  0
  -20.0209  -27.4707   20.1642 H   0  0  0  0  0  0
  -19.8885  -28.4582   21.2627 H   0  0  0  0  0  0
  -25.8181  -25.2545   23.5665 H   0  0  0  0  0  0
  -25.2449  -26.6098   22.7189 H   0  0  0  0  0  0
  -24.2216  -22.8952   20.7524 H   0  0  0  0  0  0
  -22.9147  -21.9005   21.1818 H   0  0  0  0  0  0
  -24.6095  -20.0011   22.4026 H   0  0  0  0  0  0
  -25.9000  -21.1100   22.5392 H   0  0  0  0  0  0
  -27.5619  -19.7385   20.7324 H   0  0  0  0  0  0
  -26.2373  -18.9206   20.0244 H   0  0  0  0  0  0
  -25.6547  -24.8882   20.5819 H   0  0  0  0  0  0
  -26.7925  -24.2932   21.6659 H   0  0  0  0  0  0
  -27.0169  -16.6231   21.2459 H   0  0  0  0  0  0
  1 25  1  0  0  0
  1 30  2  0  0  0
  1 82  1  0  0  0
  2  3  1  0  0  0
  2 25  1  0  0  0
  2 83  1  0  0  0
  2 84  1  0  0  0
  3  4  1  0  0  0
  3 85  1  0  0  0
  3 86  1  0  0  0
  4  5  1  0  0  0
  4 87  1  0  0  0
  4 88  1  0  0  0
  5  6  1  0  0  0
  5 26  1  0  0  0
  5 89  1  0  0  0
  6 25  1  0  0  0
  6 90  1  0  0  0
  6 91  1  0  0  0
  7  8  2  0  0  0
  7 26  1  0  0  0
  7 29  1  0  0  0
  8  9  1  0  0  0
  8 22  1  0  0  0
  9 10  1  0  0  0
  9 27  2  0  0  0
 10 11  2  0  0  0
 10 15  1  0  0  0
 11 12  1  0  0  0
 11 92  1  0  0  0
 12 13  2  0  0  0
 12 93  1  0  0  0
 13 14  1  0  0  0
 13 31  1  0  0  0
 14 15  2  0  0  0
 14 94  1  0  0  0
 15 95  1  0  0  0
 16 17  2  0  0  0
 16 21  1  0  0  0
 16 31  1  0  0  0
 17 18  1  0  0  0
 17 96  1  0  0  0
 18 19  2  0  0  0
 18 97  1  0  0  0
 19 20  1  0  0  0
 19 24  1  0  0  0
 20 21  2  0  0  0
 20 98  1  0  0  0
 21 23  1  0  0  0
 22 28  1  0  0  0
 22 32  2  0  0  0
 26 27  1  0  0  0
 28 99  1  0  0  0
 28100  1  0  0  0
 29101  1  0  0  0
 29102  1  0  0  0
 33 34  1  0  0  0
 33 66  1  0  0  0
 33 70  2  0  0  0
 34 36  1  0  0  0
 34 59  1  0  0  0
 34103  1  0  0  0
 35 44  2  0  0  0
 35 45  1  0  0  0
 35 68  1  0  0  0
 36 56  1  0  0  0
 36104  1  0  0  0
 37 39  1  0  0  0
 37 47  1  0  0  0
 37 66  1  0  0  0
 37105  1  0  0  0
 38 43  2  0  0  0
 38 46  1  0  0  0
 38 47  1  0  0  0
 39 64  1  0  0  0
 39 67  2  0  0  0
 40 52  1  0  0  0
 40 53  2  0  0  0
 40 58  1  0  0  0
 41106  1  0  0  0
 41107  1  0  0  0
 41108  1  0  0  0
 41 48  1  0  0  0
 42 43  1  0  0  0
 42 66  1  0  0  0
 42109  1  0  0  0
 42110  1  0  0  0
 43 44  1  0  0  0
 44111  1  0  0  0
 45 46  2  0  0  0
 45112  1  0  0  0
 46113  1  0  0  0
 47114  1  0  0  0
 47115  1  0  0  0
 48 56  1  0  0  0
 48 65  1  0  0  0
 48116  1  0  0  0
 49 50  1  0  0  0
 49 53  1  0  0  0
 49 64  1  0  0  0
 49117  1  0  0  0
 50 51  1  0  0  0
 50118  1  0  0  0
 50119  1  0  0  0
 51 52  1  0  0  0
 51120  1  0  0  0
 51121  1  0  0  0
 52122  1  0  0  0
 52123  1  0  0  0
 53 54  1  0  0  0
 54 55  2  0  0  0
 54124  1  0  0  0
 55 57  1  0  0  0
 55125  1  0  0  0
 56 69  2  0  0  0
 57 58  2  0  0  0
 57126  1  0  0  0
 58127  1  0  0  0
 59 60  1  0  0  0
 59 61  1  0  0  0
 59 62  1  0  0  0
 60128  1  0  0  0
 60129  1  0  0  0
 60130  1  0  0  0
 61131  1  0  0  0
 61132  1  0  0  0
 61133  1  0  0  0
 62134  1  0  0  0
 62135  1  0  0  0
 62136  1  0  0  0
 63 65  1  0  0  0
 63137  1  0  0  0
 63138  1  0  0  0
 63139  1  0  0  0
 64140  1  0  0  0
 65141  1  0  0  0
 68 79  1  0  0  0
 71 72  1  0  0  0
 71 80  2  0  0  0
 71142  1  0  0  0
 72 73  2  0  0  0
 72 75  1  0  0  0
 73 76  1  0  0  0
 73 81  1  0  0  0
 74 81  1  0  0  0
 74143  1  0  0  0
 74144  1  0  0  0
 74145  1  0  0  0
 75 79  1  0  0  0
 75146  1  0  0  0
 75147  1  0  0  0
 76 77  1  0  0  0
 76148  1  0  0  0
 76149  1  0  0  0
 77 78  1  0  0  0
 77150  1  0  0  0
 77151  1  0  0  0
 78 82  1  0  0  0
 78152  1  0  0  0
 78153  1  0  0  0
 79154  1  0  0  0
 79155  1  0  0  0
 80 81  1  0  0  0
 82156  1  0  0  0
M  ISO  4   1 100  68 101  79 101  82 100
M  END
> <chiral flag>
0

> <version>
0

> <s_m_source_file>
/data/baiqing/PycharmProjects/Reinvent-master-3.2/result/LINK_invent/BTK/process_docking_weight1_custom_sum_contain_oxygen_bond_distance_aromatic_linkinvent_7_9_3/rearranged_h_0044.sdf

> <i_m_source_file_index>
8

> <r_mmod_Potential_Energy-OPLS-2005>
14991.322265625

> <r_mmod_Stretch_Energy-OPLS-2005>
8264.34375

> <r_mmod_Bend_Energy-OPLS-2005>
1443.43310546875

> <r_mmod_Torsional_Energy-OPLS-2005>
547.562866210938

> <r_mmod_Improper_Torsional_Energy-OPLS-2005>
31.4795265197754

> <r_mmod_Van_der_Waal_Energy-OPLS-2005>
1959.25256347656

> <r_mmod_Electrostatic_Energy-OPLS-2005>
-388.715118408203

> <r_mmod_Solvation_Energy-OPLS-2005>
-228.049606323242

> <b_mmod_Minimization_Converged-OPLS-2005>
0

> <r_mmod_RMS_Derivative-OPLS-2005>
1.30370759963989

$$$$
8
                    3D
 Structure written by MMmdl.
169176  0  0  1  0            999 V2000
  -30.6354  -14.5546   20.4605 C   0  0  0  0  0  0
  -30.4117  -12.3226   19.4568 C   0  0  0  0  0  0
  -29.4835  -12.4583   18.2291 C   0  0  0  0  0  0
  -27.9995  -12.3437   18.6315 C   0  0  0  0  0  0
  -27.6374  -13.2125   19.8659 C   0  0  2  0  0  0
  -28.6829  -13.0602   20.9932 C   0  0  0  0  0  0
  -25.2463  -13.8189   20.5799 C   0  0  0  0  0  0
  -24.1754  -13.0382   20.9266 C   0  0  0  0  0  0
  -24.6364  -11.6881   20.8773 C   0  0  0  0  0  0
  -23.9066  -10.4259   21.0377 C   0  0  0  0  0  0
  -24.3633   -9.4188   21.9149 C   0  0  0  0  0  0
  -23.6322   -8.2214   22.0721 C   0  0  0  0  0  0
  -22.4283   -8.0276   21.3526 C   0  0  0  0  0  0
  -21.9927   -9.0229   20.4604 C   0  0  0  0  0  0
  -22.7243  -10.2113   20.3028 C   0  0  0  0  0  0
  -21.6847   -6.0771   22.5302 C   0  0  0  0  0  0
  -21.3997   -6.5666   23.8242 C   0  0  0  0  0  0
  -21.3659   -5.6821   24.9185 C   0  0  0  0  0  0
  -21.6035   -4.3089   24.7218 C   0  0  0  0  0  0
  -21.8803   -3.8184   23.4340 C   0  0  0  0  0  0
  -21.9178   -4.6994   22.3410 C   0  0  0  0  0  0
  -22.7774  -13.5112   21.1938 C   0  0  0  0  0  0
  -22.1635   -4.2194   21.0980 F   0  0  0  0  0  0
  -21.5617   -3.4580   25.7717 F   0  0  0  0  0  0
  -30.0095  -13.3445   20.4383 N   0  0  0  0  0  0
  -26.2888  -12.9368   20.3415 N   0  0  0  0  0  0
  -25.9289  -11.6514   20.5830 N   0  0  0  0  0  0
  -22.0481  -12.8074   22.0538 N   0  0  0  0  0  0
  -25.4024  -15.1930   20.4265 N   0  0  0  0  0  0
  -31.8291  -14.6477   20.1678 O   0  0  0  0  0  0
  -21.6621   -6.8892   21.4264 O   0  0  0  0  0  0
  -22.3406  -14.5388   20.6785 O   0  0  0  0  0  0
  -24.6141  -31.8691   23.2072 C   0  0  0  0  0  0
  -25.9041  -32.4817   23.8368 C   0  0  1  0  0  0
  -27.2313  -27.4347   20.0660 C   0  0  0  0  0  0
  -25.5903  -33.8616   24.2303 N   0  0  0  0  0  0
  -23.3996  -30.4921   21.5510 C   0  0  2  0  0  0
  -24.8419  -28.9583   20.1099 C   0  0  0  0  0  0
  -22.7391  -29.4690   22.5016 C   0  0  0  0  0  0
  -18.0285  -28.1390   22.8496 C   0  0  0  0  0  0
  -24.1495  -36.7313   23.2632 C   0  0  0  0  0  0
  -25.9285  -30.8294   21.3610 C   0  0  0  0  0  0
  -26.0026  -29.4637   20.7072 C   0  0  0  0  0  0
  -27.1944  -28.7028   20.6932 C   0  0  0  0  0  0
  -26.0432  -26.9410   19.4767 C   0  0  0  0  0  0
  -24.8565  -27.6956   19.4966 C   0  0  0  0  0  0
  -23.6000  -29.8181   20.1678 C   0  0  0  0  0  0
  -25.4116  -36.3110   24.0330 C   0  0  1  0  0  0
  -20.5868  -28.3687   23.1322 C   0  0  2  0  0  0
  -20.6796  -26.9435   22.5413 C   0  0  0  0  0  0
  -19.5771  -26.6408   21.5216 C   0  0  0  0  0  0
  -18.1941  -26.7944   22.1616 C   0  0  0  0  0  0
  -19.1529  -28.8857   23.2903 C   0  0  0  0  0  0
  -18.9448  -30.1467   23.8899 C   0  0  0  0  0  0
  -17.6454  -30.6593   24.0567 C   0  0  0  0  0  0
  -25.9043  -34.9477   23.5114 C   0  0  0  0  0  0
  -16.5347  -29.9087   23.6345 C   0  0  0  0  0  0
  -16.7269  -28.6508   23.0352 C   0  0  0  0  0  0
  -26.4461  -31.6597   25.0704 C   0  0  0  0  0  0
  -25.3713  -31.3699   26.1438 C   0  0  0  0  0  0
  -27.0290  -30.3043   24.6077 C   0  0  0  0  0  0
  -27.6036  -32.4317   25.7463 C   0  0  0  0  0  0
  -27.5594  -37.1795   24.8448 C   0  0  0  0  0  0
  -21.4129  -29.3039   22.3718 N   0  0  0  0  0  0
  -26.4295  -37.3801   23.9410 N   0  0  0  0  0  0
  -24.6662  -31.0778   22.0978 N   0  0  0  0  0  0
  -23.4157  -28.8268   23.3092 O   0  0  0  0  0  0
  -28.4064  -26.7080   20.1047 O   0  0  0  0  0  0
  -26.5607  -34.8932   22.4678 O   0  0  0  0  0  0
  -23.5337  -32.1452   23.7473 O   0  0  0  0  0  0
  -29.5976  -16.2897   18.9807 C   0  0  0  0  0  0
  -30.5135  -19.4193   19.0144 C   0  0  0  0  0  0
  -29.0062  -23.4146   20.0436 C   0  0  0  0  0  0
  -29.6872  -24.6940   19.4867 C   0  0  0  0  0  0
  -31.7424  -17.2001   21.8264 C   0  0  0  0  0  0
  -29.4886  -18.4778   21.1998 C   0  0  0  0  0  0
  -29.9957  -22.2347   20.2588 C   0  0  0  0  0  0
  -28.7296  -25.8208   19.0253 C   0  0  0  0  0  0
  -32.8134  -17.5776   20.7832 C   0  0  0  0  0  0
  -29.7928  -15.8875   20.4595 C   0  0  2  0  0  0
  -30.2544  -17.0996   21.3800 C   0  0  1  0  0  0
  -30.1649  -19.7056   20.4896 C   0  0  2  0  0  0
  -29.3219  -20.9386   20.5727 N   0  3  0  0  0  0
  -34.0963  -17.3789   21.3468 O   0  0  0  0  0  0
  -31.4514  -12.4276   19.1425 H   0  0  0  0  0  0
  -30.3337  -11.3304   19.9031 H   0  0  0  0  0  0
  -29.7211  -11.6935   17.4901 H   0  0  0  0  0  0
  -29.6579  -13.4132   17.7383 H   0  0  0  0  0  0
  -27.7915  -11.2934   18.8365 H   0  0  0  0  0  0
  -27.3575  -12.6102   17.7906 H   0  0  0  0  0  0
  -27.6409  -14.2447   19.5256 H   0  0  0  0  0  0
  -28.6551  -12.0479   21.4000 H   0  0  0  0  0  0
  -28.4574  -13.7168   21.8333 H   0  0  0  0  0  0
  -25.2761   -9.5683   22.4744 H   0  0  0  0  0  0
  -24.0026   -7.4587   22.7434 H   0  0  0  0  0  0
  -21.0868   -8.8768   19.8899 H   0  0  0  0  0  0
  -22.3685  -10.9682   19.6179 H   0  0  0  0  0  0
  -21.1994   -7.6166   23.9767 H   0  0  0  0  0  0
  -21.1480   -6.0534   25.9100 H   0  0  0  0  0  0
  -22.0565   -2.7658   23.2841 H   0  0  0  0  0  0
  -22.4169  -11.9742   22.4880 H   0  0  0  0  0  0
  -21.1088  -13.1010   22.2782 H   0  0  0  0  0  0
  -24.6117  -15.8211   20.5226 H   0  0  0  0  0  0
  -26.2422  -15.6706   20.1235 H   0  0  0  0  0  0
  -26.7106  -32.5526   23.1122 H   0  0  0  0  0  0
  -25.0056  -33.9773   25.0450 H   0  0  0  0  0  0
  -22.6895  -31.3098   21.4102 H   0  0  0  0  0  0
  -23.3769  -35.9629   23.3261 H   0  0  0  0  0  0
  -24.3596  -36.8963   22.2052 H   0  0  0  0  0  0
  -23.7220  -37.6498   23.6666 H   0  0  0  0  0  0
  -26.0394  -31.5950   20.5915 H   0  0  0  0  0  0
  -26.8179  -30.8820   21.9779 H   0  0  0  0  0  0
  -28.0900  -29.0869   21.1606 H   0  0  0  0  0  0
  -25.9909  -25.9657   19.0195 H   0  0  0  0  0  0
  -23.9582  -27.2975   19.0439 H   0  0  0  0  0  0
  -23.6824  -30.5832   19.3945 H   0  0  0  0  0  0
  -22.7274  -29.2208   19.8944 H   0  0  0  0  0  0
  -25.1287  -36.1970   25.0820 H   0  0  0  0  0  0
  -20.9954  -28.3265   24.1445 H   0  0  0  0  0  0
  -20.5769  -26.2281   23.3588 H   0  0  0  0  0  0
  -21.6661  -26.7536   22.1165 H   0  0  0  0  0  0
  -19.6951  -25.6326   21.1232 H   0  0  0  0  0  0
  -19.6716  -27.3233   20.6758 H   0  0  0  0  0  0
  -17.4227  -26.6711   21.3998 H   0  0  0  0  0  0
  -18.0332  -26.0072   22.8994 H   0  0  0  0  0  0
  -19.7923  -30.7301   24.2251 H   0  0  0  0  0  0
  -17.5001  -31.6277   24.5172 H   0  0  0  0  0  0
  -15.5345  -30.2983   23.7676 H   0  0  0  0  0  0
  -15.8669  -28.0831   22.7055 H   0  0  0  0  0  0
  -24.5890  -30.7051   25.7753 H   0  0  0  0  0  0
  -24.8899  -32.2853   26.4888 H   0  0  0  0  0  0
  -25.8056  -30.8853   27.0188 H   0  0  0  0  0  0
  -26.2832  -29.6808   24.1131 H   0  0  0  0  0  0
  -27.4057  -29.7279   25.4533 H   0  0  0  0  0  0
  -27.8663  -30.4363   23.9222 H   0  0  0  0  0  0
  -27.2658  -33.3609   26.2060 H   0  0  0  0  0  0
  -28.3827  -32.6889   25.0277 H   0  0  0  0  0  0
  -28.0715  -31.8426   26.5356 H   0  0  0  0  0  0
  -28.2568  -38.0141   24.7582 H   0  0  0  0  0  0
  -28.1142  -36.2674   24.6173 H   0  0  0  0  0  0
  -27.2316  -37.1319   25.8850 H   0  0  0  0  0  0
  -20.9312  -29.8645   21.6828 H   0  0  0  0  0  0
  -26.0185  -38.2872   24.1446 H   0  0  0  0  0  0
  -28.9749  -17.1722   18.8600 H   0  0  0  0  0  0
  -29.0843  -15.5078   18.4260 H   0  0  0  0  0  0
  -30.5467  -16.4597   18.4723 H   0  0  0  0  0  0
  -31.1161  -18.5245   18.9120 H   0  0  0  0  0  0
  -31.1000  -20.2139   18.5586 H   0  0  0  0  0  0
  -29.6187  -19.2914   18.4065 H   0  0  0  0  0  0
  -28.2345  -23.1020   19.3381 H   0  0  0  0  0  0
  -28.4952  -23.6495   20.9772 H   0  0  0  0  0  0
  -30.2820  -24.4083   18.6185 H   0  0  0  0  0  0
  -30.3986  -25.0881   20.2127 H   0  0  0  0  0  0
  -31.8023  -17.8985   22.6627 H   0  0  0  0  0  0
  -32.0189  -16.2396   22.2603 H   0  0  0  0  0  0
  -29.2347  -18.8190   22.2062 H   0  0  0  0  0  0
  -28.5158  -18.2877   20.7454 H   0  0  0  0  0  0
  -30.7004  -22.4755   21.0561 H   0  0  0  0  0  0
  -30.5924  -22.1439   19.3534 H   0  0  0  0  0  0
  -27.8851  -25.3804   18.4989 H   0  0  0  0  0  0
  -29.2439  -26.4304   18.2802 H   0  0  0  0  0  0
  -32.7433  -18.6205   20.4853 H   0  0  0  0  0  0
  -32.7285  -16.9811   19.8763 H   0  0  0  0  0  0
  -28.7930  -15.6610   20.8253 H   0  0  0  0  0  0
  -29.8080  -16.7675   22.3205 H   0  0  0  0  0  0
  -31.0782  -19.9274   21.0407 H   0  0  0  0  0  0
  -28.5428  -20.8249   19.9459 H   0  0  0  0  0  0
  -28.9464  -21.0141   21.5050 H   0  0  0  0  0  0
  -34.1587  -17.9165   22.1317 H   0  0  0  0  0  0
  1 25  1  0  0  0
  1 30  2  0  0  0
  1 80  1  0  0  0
  2  3  1  0  0  0
  2 25  1  0  0  0
  2 85  1  0  0  0
  2 86  1  0  0  0
  3  4  1  0  0  0
  3 87  1  0  0  0
  3 88  1  0  0  0
  4  5  1  0  0  0
  4 89  1  0  0  0
  4 90  1  0  0  0
  5  6  1  0  0  0
  5 26  1  0  0  0
  5 91  1  0  0  0
  6 25  1  0  0  0
  6 92  1  0  0  0
  6 93  1  0  0  0
  7  8  2  0  0  0
  7 26  1  0  0  0
  7 29  1  0  0  0
  8  9  1  0  0  0
  8 22  1  0  0  0
  9 10  1  0  0  0
  9 27  2  0  0  0
 10 11  2  0  0  0
 10 15  1  0  0  0
 11 12  1  0  0  0
 11 94  1  0  0  0
 12 13  2  0  0  0
 12 95  1  0  0  0
 13 14  1  0  0  0
 13 31  1  0  0  0
 14 15  2  0  0  0
 14 96  1  0  0  0
 15 97  1  0  0  0
 16 17  2  0  0  0
 16 21  1  0  0  0
 16 31  1  0  0  0
 17 18  1  0  0  0
 17 98  1  0  0  0
 18 19  2  0  0  0
 18 99  1  0  0  0
 19 20  1  0  0  0
 19 24  1  0  0  0
 20 21  2  0  0  0
 20100  1  0  0  0
 21 23  1  0  0  0
 22 28  1  0  0  0
 22 32  2  0  0  0
 26 27  1  0  0  0
 28101  1  0  0  0
 28102  1  0  0  0
 29103  1  0  0  0
 29104  1  0  0  0
 33 34  1  0  0  0
 33 66  1  0  0  0
 33 70  2  0  0  0
 34 36  1  0  0  0
 34 59  1  0  0  0
 34105  1  0  0  0
 35 44  2  0  0  0
 35 45  1  0  0  0
 35 68  1  0  0  0
 36 56  1  0  0  0
 36106  1  0  0  0
 37 39  1  0  0  0
 37 47  1  0  0  0
 37 66  1  0  0  0
 37107  1  0  0  0
 38 43  2  0  0  0
 38 46  1  0  0  0
 38 47  1  0  0  0
 39 64  1  0  0  0
 39 67  2  0  0  0
 40 52  1  0  0  0
 40 53  2  0  0  0
 40 58  1  0  0  0
 41108  1  0  0  0
 41109  1  0  0  0
 41110  1  0  0  0
 41 48  1  0  0  0
 42 43  1  0  0  0
 42 66  1  0  0  0
 42111  1  0  0  0
 42112  1  0  0  0
 43 44  1  0  0  0
 44113  1  0  0  0
 45 46  2  0  0  0
 45114  1  0  0  0
 46115  1  0  0  0
 47116  1  0  0  0
 47117  1  0  0  0
 48 56  1  0  0  0
 48 65  1  0  0  0
 48118  1  0  0  0
 49 50  1  0  0  0
 49 53  1  0  0  0
 49 64  1  0  0  0
 49119  1  0  0  0
 50 51  1  0  0  0
 50120  1  0  0  0
 50121  1  0  0  0
 51 52  1  0  0  0
 51122  1  0  0  0
 51123  1  0  0  0
 52124  1  0  0  0
 52125  1  0  0  0
 53 54  1  0  0  0
 54 55  2  0  0  0
 54126  1  0  0  0
 55 57  1  0  0  0
 55127  1  0  0  0
 56 69  2  0  0  0
 57 58  2  0  0  0
 57128  1  0  0  0
 58129  1  0  0  0
 59 60  1  0  0  0
 59 61  1  0  0  0
 59 62  1  0  0  0
 60130  1  0  0  0
 60131  1  0  0  0
 60132  1  0  0  0
 61133  1  0  0  0
 61134  1  0  0  0
 61135  1  0  0  0
 62136  1  0  0  0
 62137  1  0  0  0
 62138  1  0  0  0
 63 65  1  0  0  0
 63139  1  0  0  0
 63140  1  0  0  0
 63141  1  0  0  0
 64142  1  0  0  0
 65143  1  0  0  0
 68 78  1  0  0  0
 71144  1  0  0  0
 71145  1  0  0  0
 71146  1  0  0  0
 71 80  1  0  0  0
 72147  1  0  0  0
 72148  1  0  0  0
 72149  1  0  0  0
 72 82  1  0  0  0
 73 74  1  0  0  0
 73 77  1  0  0  0
 73150  1  0  0  0
 73151  1  0  0  0
 74 78  1  0  0  0
 74152  1  0  0  0
 74153  1  0  0  0
 75 79  1  0  0  0
 75154  1  0  0  0
 75155  1  0  0  0
 75 81  1  0  0  0
 76 81  1  0  0  0
 76 82  1  0  0  0
 76156  1  0  0  0
 76157  1  0  0  0
 77 83  1  0  0  0
 77158  1  0  0  0
 77159  1  0  0  0
 78160  1  0  0  0
 78161  1  0  0  0
 79 84  1  0  0  0
 79162  1  0  0  0
 79163  1  0  0  0
 80 81  1  0  0  0
 80164  1  0  0  0
 81165  1  0  0  0
 82 83  1  0  0  0
 82166  1  0  0  0
 83167  1  0  0  0
 83168  1  0  0  0
 84169  1  0  0  0
M  CHG  1  83   1
M  ISO  4   1 100  68 101  78 101  80 100
M  END
> <chiral flag>
0

> <version>
0

> <s_m_source_file>
/data/baiqing/PycharmProjects/Reinvent-master-3.2/result/LINK_invent/BTK/process_docking_weight1_custom_sum_contain_oxygen_bond_distance_aromatic_linkinvent_7_9_3/rearranged_h_0044.sdf

> <i_m_source_file_index>
9

> <r_mmod_Potential_Energy-OPLS-2005>
-32.7300872802734

> <r_mmod_Stretch_Energy-OPLS-2005>
49.4507751464844

> <r_mmod_Bend_Energy-OPLS-2005>
147.806762695312

> <r_mmod_Torsional_Energy-OPLS-2005>
228.03385925293

> <r_mmod_Improper_Torsional_Energy-OPLS-2005>
9.56787395477295

> <r_mmod_Van_der_Waal_Energy-OPLS-2005>
137.403091430664

> <r_mmod_Electrostatic_Energy-OPLS-2005>
-150.724319458008

> <r_mmod_Solvation_Energy-OPLS-2005>
-479.760162353516

> <b_mmod_Minimization_Converged-OPLS-2005>
0

> <r_mmod_RMS_Derivative-OPLS-2005>
3.70889329910278

$$$$
9
                    3D
 Structure written by MMmdl.
154162  0  0  1  0            999 V2000
  -30.7093  -14.4890   20.5456 C   0  0  0  0  0  0
  -30.4197  -12.3066   19.4365 C   0  0  0  0  0  0
  -29.4987  -12.5063   18.2127 C   0  0  0  0  0  0
  -28.0174  -12.3728   18.6200 C   0  0  0  0  0  0
  -27.6627  -13.2123   19.8775 C   0  0  2  0  0  0
  -28.7064  -13.0148   21.0034 C   0  0  0  0  0  0
  -25.2596  -13.8163   20.5702 C   0  0  0  0  0  0
  -24.1855  -13.0433   20.9160 C   0  0  0  0  0  0
  -24.6417  -11.6902   20.8699 C   0  0  0  0  0  0
  -23.9098  -10.4286   21.0383 C   0  0  0  0  0  0
  -24.3645   -9.4207   21.9170 C   0  0  0  0  0  0
  -23.6307   -8.2251   22.0748 C   0  0  0  0  0  0
  -22.4280   -8.0298   21.3553 C   0  0  0  0  0  0
  -21.9930   -9.0266   20.4651 C   0  0  0  0  0  0
  -22.7260  -10.2137   20.3047 C   0  0  0  0  0  0
  -21.6855   -6.0763   22.5276 C   0  0  0  0  0  0
  -21.4027   -6.5650   23.8222 C   0  0  0  0  0  0
  -21.3654   -5.6793   24.9169 C   0  0  0  0  0  0
  -21.6036   -4.3057   24.7224 C   0  0  0  0  0  0
  -21.8823   -3.8173   23.4341 C   0  0  0  0  0  0
  -21.9204   -4.6986   22.3412 C   0  0  0  0  0  0
  -22.7878  -13.5221   21.1852 C   0  0  0  0  0  0
  -22.1671   -4.2174   21.0987 F   0  0  0  0  0  0
  -21.5620   -3.4542   25.7740 F   0  0  0  0  0  0
  -30.0376  -13.3077   20.4480 N   0  0  0  0  0  0
  -26.3043  -12.9360   20.3380 N   0  0  0  0  0  0
  -25.9347  -11.6513   20.5726 N   0  0  0  0  0  0
  -22.0536  -12.8193   22.0392 N   0  0  0  0  0  0
  -25.4342  -15.1887   20.4161 N   0  0  0  0  0  0
  -31.8468  -14.6451   20.0932 O   0  0  0  0  0  0
  -21.6653   -6.8898   21.4240 O   0  0  0  0  0  0
  -22.3558  -14.5543   20.6729 O   0  0  0  0  0  0
  -24.6168  -31.8652   23.2098 C   0  0  0  0  0  0
  -25.9050  -32.4817   23.8396 C   0  0  1  0  0  0
  -27.2282  -27.4115   20.1050 C   0  0  0  0  0  0
  -25.5891  -33.8613   24.2314 N   0  0  0  0  0  0
  -23.4055  -30.4914   21.5515 C   0  0  2  0  0  0
  -24.8516  -28.9590   20.1168 C   0  0  0  0  0  0
  -22.7429  -29.4638   22.4978 C   0  0  0  0  0  0
  -18.0276  -28.1374   22.8498 C   0  0  0  0  0  0
  -24.1492  -36.7313   23.2637 C   0  0  0  0  0  0
  -25.9386  -30.8294   21.3659 C   0  0  0  0  0  0
  -26.0171  -29.4647   20.7070 C   0  0  0  0  0  0
  -27.2119  -28.7026   20.6899 C   0  0  0  0  0  0
  -26.0425  -26.9323   19.5002 C   0  0  0  0  0  0
  -24.8610  -27.6940   19.5082 C   0  0  0  0  0  0
  -23.6153  -29.8277   20.1661 C   0  0  0  0  0  0
  -25.4119  -36.3106   24.0333 C   0  0  1  0  0  0
  -20.5872  -28.3659   23.1319 C   0  0  2  0  0  0
  -20.6771  -26.9390   22.5419 C   0  0  0  0  0  0
  -19.5747  -26.6374   21.5219 C   0  0  0  0  0  0
  -18.1923  -26.7924   22.1627 C   0  0  0  0  0  0
  -19.1524  -28.8837   23.2904 C   0  0  0  0  0  0
  -18.9451  -30.1447   23.8906 C   0  0  0  0  0  0
  -17.6447  -30.6582   24.0567 C   0  0  0  0  0  0
  -25.9037  -34.9469   23.5114 C   0  0  0  0  0  0
  -16.5342  -29.9079   23.6327 C   0  0  0  0  0  0
  -16.7261  -28.6498   23.0350 C   0  0  0  0  0  0
  -26.4477  -31.6606   25.0728 C   0  0  0  0  0  0
  -25.3747  -31.3719   26.1482 C   0  0  0  0  0  0
  -27.0307  -30.3047   24.6109 C   0  0  0  0  0  0
  -27.6041  -32.4342   25.7487 C   0  0  0  0  0  0
  -27.5591  -37.1813   24.8459 C   0  0  0  0  0  0
  -21.4155  -29.3017   22.3721 N   0  0  0  0  0  0
  -26.4305  -37.3794   23.9398 N   0  0  0  0  0  0
  -24.6722  -31.0751   22.1004 N   0  0  0  0  0  0
  -23.4201  -28.8173   23.3020 O   0  0  0  0  0  0
  -28.3725  -26.6313   20.1515 O   0  0  0  0  0  0
  -26.5599  -34.8919   22.4676 O   0  0  0  0  0  0
  -23.5353  -32.1391   23.7488 O   0  0  0  0  0  0
  -28.5566  -20.6333   22.6057 C   0  0  0  0  0  0
  -28.3367  -22.9299   22.6690 C   0  0  0  0  0  0
  -29.3061  -20.7259   21.4062 C   0  0  0  0  0  0
  -29.0814  -23.0507   21.4719 C   0  0  0  0  0  0
  -29.8645  -19.4857   20.6858 C   0  0  0  0  0  0
  -29.3884  -24.4474   20.9000 C   0  0  0  0  0  0
  -29.6688  -18.0866   21.3559 C   0  0  0  0  0  0
  -30.2864  -16.9383   20.5087 C   0  0  0  0  0  0
  -28.1514  -25.2140   20.3628 C   0  0  0  0  0  0
  -28.0698  -21.7291   23.2369 N   0  0  0  0  0  0
  -29.5623  -21.9421   20.8343 N   0  0  0  0  0  0
  -29.9899  -15.5569   20.9536 N   0  0  0  0  0  0
  -31.4655  -12.3870   19.1382 H   0  0  0  0  0  0
  -30.3044  -11.2983   19.8416 H   0  0  0  0  0  0
  -29.7420  -11.7803   17.4370 H   0  0  0  0  0  0
  -29.6749  -13.4901   17.7729 H   0  0  0  0  0  0
  -27.8210  -11.3180   18.8106 H   0  0  0  0  0  0
  -27.3706  -12.6529   17.7880 H   0  0  0  0  0  0
  -27.7038  -14.2577   19.5749 H   0  0  0  0  0  0
  -28.6786  -11.9864   21.3682 H   0  0  0  0  0  0
  -28.4776  -13.6390   21.8661 H   0  0  0  0  0  0
  -25.2787   -9.5678   22.4740 H   0  0  0  0  0  0
  -24.0032   -7.4622   22.7440 H   0  0  0  0  0  0
  -21.0882   -8.8788   19.8927 H   0  0  0  0  0  0
  -22.3730  -10.9690   19.6168 H   0  0  0  0  0  0
  -21.2034   -7.6149   23.9738 H   0  0  0  0  0  0
  -21.1454   -6.0515   25.9069 H   0  0  0  0  0  0
  -22.0616   -2.7643   23.2835 H   0  0  0  0  0  0
  -22.4211  -11.9869   22.4755 H   0  0  0  0  0  0
  -21.1143  -13.1203   22.2615 H   0  0  0  0  0  0
  -24.6708  -15.8456   20.5308 H   0  0  0  0  0  0
  -26.2916  -15.6292   20.1111 H   0  0  0  0  0  0
  -26.7116  -32.5534   23.1159 H   0  0  0  0  0  0
  -25.0081  -33.9784   25.0486 H   0  0  0  0  0  0
  -22.6954  -31.3096   21.4144 H   0  0  0  0  0  0
  -23.3750  -35.9649   23.3309 H   0  0  0  0  0  0
  -24.3580  -36.8918   22.2046 H   0  0  0  0  0  0
  -23.7252  -37.6521   23.6653 H   0  0  0  0  0  0
  -26.0543  -31.6005   20.6029 H   0  0  0  0  0  0
  -26.8236  -30.8783   21.9875 H   0  0  0  0  0  0
  -28.1134  -29.0843   21.1491 H   0  0  0  0  0  0
  -26.0109  -25.9635   19.0228 H   0  0  0  0  0  0
  -23.9647  -27.2997   19.0493 H   0  0  0  0  0  0
  -23.7293  -30.6042   19.4072 H   0  0  0  0  0  0
  -22.7388  -29.2510   19.8650 H   0  0  0  0  0  0
  -25.1302  -36.1971   25.0832 H   0  0  0  0  0  0
  -20.9965  -28.3219   24.1441 H   0  0  0  0  0  0
  -20.5689  -26.2253   23.3605 H   0  0  0  0  0  0
  -21.6643  -26.7443   22.1202 H   0  0  0  0  0  0
  -19.6901  -25.6284   21.1245 H   0  0  0  0  0  0
  -19.6685  -27.3197   20.6761 H   0  0  0  0  0  0
  -17.4193  -26.6682   21.4020 H   0  0  0  0  0  0
  -18.0306  -26.0063   22.9017 H   0  0  0  0  0  0
  -19.7923  -30.7268   24.2274 H   0  0  0  0  0  0
  -17.4998  -31.6267   24.5161 H   0  0  0  0  0  0
  -15.5339  -30.2984   23.7646 H   0  0  0  0  0  0
  -15.8668  -28.0825   22.7053 H   0  0  0  0  0  0
  -24.5881  -30.7121   25.7809 H   0  0  0  0  0  0
  -24.9002  -32.2892   26.4983 H   0  0  0  0  0  0
  -25.8103  -30.8829   27.0207 H   0  0  0  0  0  0
  -26.2849  -29.6809   24.1171 H   0  0  0  0  0  0
  -27.4077  -29.7288   25.4568 H   0  0  0  0  0  0
  -27.8690  -30.4353   23.9262 H   0  0  0  0  0  0
  -27.2630  -33.3608   26.2122 H   0  0  0  0  0  0
  -28.3821  -32.6969   25.0303 H   0  0  0  0  0  0
  -28.0758  -31.8450   26.5359 H   0  0  0  0  0  0
  -28.2610  -38.0111   24.7517 H   0  0  0  0  0  0
  -28.1091  -36.2640   24.6289 H   0  0  0  0  0  0
  -27.2302  -37.1472   25.8862 H   0  0  0  0  0  0
  -20.9313  -29.8747   21.6954 H   0  0  0  0  0  0
  -26.0191  -38.2869   24.1411 H   0  0  0  0  0  0
  -28.3453  -19.6829   23.0750 H   0  0  0  0  0  0
  -27.9612  -23.8074   23.1767 H   0  0  0  0  0  0
  -30.9292  -19.6516   20.5199 H   0  0  0  0  0  0
  -29.4045  -19.4653   19.6969 H   0  0  0  0  0  0
  -30.1379  -24.3682   20.1143 H   0  0  0  0  0  0
  -29.8468  -25.0305   21.6991 H   0  0  0  0  0  0
  -28.6057  -17.8967   21.4971 H   0  0  0  0  0  0
  -30.1201  -18.0841   22.3498 H   0  0  0  0  0  0
  -31.3657  -17.0985   20.4428 H   0  0  0  0  0  0
  -29.9097  -17.0220   19.4884 H   0  0  0  0  0  0
  -27.3426  -25.0980   21.0867 H   0  0  0  0  0  0
  -27.8142  -24.7368   19.4423 H   0  0  0  0  0  0
  -29.0726  -15.3662   21.3313 H   0  0  0  0  0  0
  1 25  1  0  0  0
  1 30  2  0  0  0
  1 82  1  0  0  0
  2  3  1  0  0  0
  2 25  1  0  0  0
  2 83  1  0  0  0
  2 84  1  0  0  0
  3  4  1  0  0  0
  3 85  1  0  0  0
  3 86  1  0  0  0
  4  5  1  0  0  0
  4 87  1  0  0  0
  4 88  1  0  0  0
  5  6  1  0  0  0
  5 26  1  0  0  0
  5 89  1  0  0  0
  6 25  1  0  0  0
  6 90  1  0  0  0
  6 91  1  0  0  0
  7  8  2  0  0  0
  7 26  1  0  0  0
  7 29  1  0  0  0
  8  9  1  0  0  0
  8 22  1  0  0  0
  9 10  1  0  0  0
  9 27  2  0  0  0
 10 11  2  0  0  0
 10 15  1  0  0  0
 11 12  1  0  0  0
 11 92  1  0  0  0
 12 13  2  0  0  0
 12 93  1  0  0  0
 13 14  1  0  0  0
 13 31  1  0  0  0
 14 15  2  0  0  0
 14 94  1  0  0  0
 15 95  1  0  0  0
 16 17  2  0  0  0
 16 21  1  0  0  0
 16 31  1  0  0  0
 17 18  1  0  0  0
 17 96  1  0  0  0
 18 19  2  0  0  0
 18 97  1  0  0  0
 19 20  1  0  0  0
 19 24  1  0  0  0
 20 21  2  0  0  0
 20 98  1  0  0  0
 21 23  1  0  0  0
 22 28  1  0  0  0
 22 32  2  0  0  0
 26 27  1  0  0  0
 28 99  1  0  0  0
 28100  1  0  0  0
 29101  1  0  0  0
 29102  1  0  0  0
 33 34  1  0  0  0
 33 66  1  0  0  0
 33 70  2  0  0  0
 34 36  1  0  0  0
 34 59  1  0  0  0
 34103  1  0  0  0
 35 44  2  0  0  0
 35 45  1  0  0  0
 35 68  1  0  0  0
 36 56  1  0  0  0
 36104  1  0  0  0
 37 39  1  0  0  0
 37 47  1  0  0  0
 37 66  1  0  0  0
 37105  1  0  0  0
 38 43  2  0  0  0
 38 46  1  0  0  0
 38 47  1  0  0  0
 39 64  1  0  0  0
 39 67  2  0  0  0
 40 52  1  0  0  0
 40 53  2  0  0  0
 40 58  1  0  0  0
 41106  1  0  0  0
 41107  1  0  0  0
 41108  1  0  0  0
 41 48  1  0  0  0
 42 43  1  0  0  0
 42 66  1  0  0  0
 42109  1  0  0  0
 42110  1  0  0  0
 43 44  1  0  0  0
 44111  1  0  0  0
 45 46  2  0  0  0
 45112  1  0  0  0
 46113  1  0  0  0
 47114  1  0  0  0
 47115  1  0  0  0
 48 56  1  0  0  0
 48 65  1  0  0  0
 48116  1  0  0  0
 49 50  1  0  0  0
 49 53  1  0  0  0
 49 64  1  0  0  0
 49117  1  0  0  0
 50 51  1  0  0  0
 50118  1  0  0  0
 50119  1  0  0  0
 51 52  1  0  0  0
 51120  1  0  0  0
 51121  1  0  0  0
 52122  1  0  0  0
 52123  1  0  0  0
 53 54  1  0  0  0
 54 55  2  0  0  0
 54124  1  0  0  0
 55 57  1  0  0  0
 55125  1  0  0  0
 56 69  2  0  0  0
 57 58  2  0  0  0
 57126  1  0  0  0
 58127  1  0  0  0
 59 60  1  0  0  0
 59 61  1  0  0  0
 59 62  1  0  0  0
 60128  1  0  0  0
 60129  1  0  0  0
 60130  1  0  0  0
 61131  1  0  0  0
 61132  1  0  0  0
 61133  1  0  0  0
 62134  1  0  0  0
 62135  1  0  0  0
 62136  1  0  0  0
 63 65  1  0  0  0
 63137  1  0  0  0
 63138  1  0  0  0
 63139  1  0  0  0
 64140  1  0  0  0
 65141  1  0  0  0
 68 79  1  0  0  0
 71 73  2  0  0  0
 71 80  1  0  0  0
 71142  1  0  0  0
 72 74  1  0  0  0
 72 80  2  0  0  0
 72143  1  0  0  0
 73 75  1  0  0  0
 73 81  1  0  0  0
 74 76  1  0  0  0
 74 81  2  0  0  0
 75 77  1  0  0  0
 75144  1  0  0  0
 75145  1  0  0  0
 76 79  1  0  0  0
 76146  1  0  0  0
 76147  1  0  0  0
 77 78  1  0  0  0
 77148  1  0  0  0
 77149  1  0  0  0
 78 82  1  0  0  0
 78150  1  0  0  0
 78151  1  0  0  0
 79152  1  0  0  0
 79153  1  0  0  0
 82154  1  0  0  0
M  ISO  4   1 100  68 101  79 101  82 100
M  END
> <chiral flag>
0

> <version>
0

> <s_m_source_file>
/data/baiqing/PycharmProjects/Reinvent-master-3.2/result/LINK_invent/BTK/process_docking_weight1_custom_sum_contain_oxygen_bond_distance_aromatic_linkinvent_7_9_3/rearranged_h_0044.sdf

> <i_m_source_file_index>
10

> <r_mmod_Potential_Energy-OPLS-2005>
-9.05064296722412

> <r_mmod_Stretch_Energy-OPLS-2005>
45.4437599182129

> <r_mmod_Bend_Energy-OPLS-2005>
97.4254150390625

> <r_mmod_Torsional_Energy-OPLS-2005>
206.564880371094

> <r_mmod_Improper_Torsional_Energy-OPLS-2005>
5.96529054641724

> <r_mmod_Van_der_Waal_Energy-OPLS-2005>
157.774765014648

> <r_mmod_Electrostatic_Energy-OPLS-2005>
-312.076782226562

> <r_mmod_Solvation_Energy-OPLS-2005>
-227.43603515625

> <b_mmod_Minimization_Converged-OPLS-2005>
0

> <r_mmod_RMS_Derivative-OPLS-2005>
2.79357385635376

$$$$
10
                    3D
 Structure written by MMmdl.
172180  0  0  1  0            999 V2000
  -30.6678  -14.5485   20.4882 C   0  0  0  0  0  0
  -30.4351  -12.3350   19.4273 C   0  0  0  0  0  0
  -29.5023  -12.4971   18.2063 C   0  0  0  0  0  0
  -28.0217  -12.3654   18.6177 C   0  0  0  0  0  0
  -27.6621  -13.2127   19.8688 C   0  0  2  0  0  0
  -28.7125  -13.0308   20.9911 C   0  0  0  0  0  0
  -25.2573  -13.8121   20.5646 C   0  0  0  0  0  0
  -24.1851  -13.0396   20.9201 C   0  0  0  0  0  0
  -24.6425  -11.6890   20.8725 C   0  0  0  0  0  0
  -23.9085  -10.4280   21.0380 C   0  0  0  0  0  0
  -24.3617   -9.4214   21.9180 C   0  0  0  0  0  0
  -23.6271   -8.2271   22.0781 C   0  0  0  0  0  0
  -22.4266   -8.0296   21.3545 C   0  0  0  0  0  0
  -21.9889   -9.0284   20.4659 C   0  0  0  0  0  0
  -22.7252  -10.2146   20.3046 C   0  0  0  0  0  0
  -21.6856   -6.0727   22.5274 C   0  0  0  0  0  0
  -21.4036   -6.5644   23.8216 C   0  0  0  0  0  0
  -21.3652   -5.6788   24.9178 C   0  0  0  0  0  0
  -21.6038   -4.3051   24.7224 C   0  0  0  0  0  0
  -21.8837   -3.8147   23.4351 C   0  0  0  0  0  0
  -21.9207   -4.6953   22.3406 C   0  0  0  0  0  0
  -22.7873  -13.5217   21.1804 C   0  0  0  0  0  0
  -22.1670   -4.2135   21.0982 F   0  0  0  0  0  0
  -21.5601   -3.4554   25.7742 F   0  0  0  0  0  0
  -30.0365  -13.3411   20.4248 N   0  0  0  0  0  0
  -26.3040  -12.9336   20.3348 N   0  0  0  0  0  0
  -25.9356  -11.6485   20.5751 N   0  0  0  0  0  0
  -22.0489  -12.8203   22.0339 N   0  0  0  0  0  0
  -25.4078  -15.1829   20.3945 N   0  0  0  0  0  0
  -31.8253  -14.7169   20.0970 O   0  0  0  0  0  0
  -21.6652   -6.8870   21.4235 O   0  0  0  0  0  0
  -22.3571  -14.5510   20.6631 O   0  0  0  0  0  0
  -24.6199  -31.8640   23.2074 C   0  0  0  0  0  0
  -25.9063  -32.4794   23.8390 C   0  0  1  0  0  0
  -27.2347  -27.3933   20.0916 C   0  0  0  0  0  0
  -25.5904  -33.8599   24.2311 N   0  0  0  0  0  0
  -23.4088  -30.4877   21.5502 C   0  0  2  0  0  0
  -24.8524  -28.9434   20.1160 C   0  0  0  0  0  0
  -22.7429  -29.4646   22.4990 C   0  0  0  0  0  0
  -18.0277  -28.1370   22.8502 C   0  0  0  0  0  0
  -24.1482  -36.7313   23.2649 C   0  0  0  0  0  0
  -25.9420  -30.8139   21.3686 C   0  0  0  0  0  0
  -26.0139  -29.4453   20.7140 C   0  0  0  0  0  0
  -27.2044  -28.6765   20.7013 C   0  0  0  0  0  0
  -26.0462  -26.9090   19.4980 C   0  0  0  0  0  0
  -24.8647  -27.6762   19.5075 C   0  0  0  0  0  0
  -23.6182  -29.8178   20.1660 C   0  0  0  0  0  0
  -25.4101  -36.3102   24.0350 C   0  0  1  0  0  0
  -20.5873  -28.3655   23.1301 C   0  0  2  0  0  0
  -20.6779  -26.9377   22.5466 C   0  0  0  0  0  0
  -19.5763  -26.6344   21.5275 C   0  0  0  0  0  0
  -18.1942  -26.7896   22.1687 C   0  0  0  0  0  0
  -19.1528  -28.8828   23.2888 C   0  0  0  0  0  0
  -18.9459  -30.1435   23.8911 C   0  0  0  0  0  0
  -17.6458  -30.6573   24.0549 C   0  0  0  0  0  0
  -25.9027  -34.9461   23.5126 C   0  0  0  0  0  0
  -16.5350  -29.9071   23.6312 C   0  0  0  0  0  0
  -16.7274  -28.6486   23.0349 C   0  0  0  0  0  0
  -26.4463  -31.6597   25.0747 C   0  0  0  0  0  0
  -25.3711  -31.3720   26.1488 C   0  0  0  0  0  0
  -27.0304  -30.3037   24.6160 C   0  0  0  0  0  0
  -27.6024  -32.4330   25.7507 C   0  0  0  0  0  0
  -27.5575  -37.1817   24.8465 C   0  0  0  0  0  0
  -21.4152  -29.3020   22.3701 N   0  0  0  0  0  0
  -26.4285  -37.3791   23.9409 N   0  0  0  0  0  0
  -24.6759  -31.0698   22.0993 N   0  0  0  0  0  0
  -23.4185  -28.8194   23.3047 O   0  0  0  0  0  0
  -28.4132  -26.6592   20.1184 O   0  0  0  0  0  0
  -26.5599  -34.8912   22.4694 O   0  0  0  0  0  0
  -23.5378  -32.1416   23.7431 O   0  0  0  0  0  0
  -28.5335  -22.8180   19.5830 C   0  0  0  0  0  0
  -28.3759  -24.1256   20.0128 C   0  0  0  0  0  0
  -27.8320  -22.7248   21.6802 C   0  0  0  0  0  0
  -26.1396  -25.2631   25.2714 C   0  0  0  0  0  0
  -27.6481  -17.5740   20.8067 C   0  0  0  0  0  0
  -29.2924  -17.9595   22.6277 C   0  0  0  0  0  0
  -28.5863  -25.4647   19.3154 C   0  0  0  0  0  0
  -27.3296  -22.2418   23.0129 C   0  0  0  0  0  0
  -26.1603  -24.3358   24.0485 C   0  0  0  0  0  0
  -27.2865  -23.2887   24.1472 C   0  0  0  0  0  0
  -29.2975  -19.5616   20.6510 C   0  0  0  0  0  0
  -28.0213  -20.4781   20.5826 C   0  0  0  0  0  0
  -30.0936  -17.0340   20.4249 C   0  0  0  0  0  0
  -29.0860  -18.0486   21.1043 C   0  0  0  0  0  0
  -28.1796  -21.9719   20.6158 N   0  0  0  0  0  0
  -27.9499  -24.0093   21.3082 N   0  3  0  0  0  0
  -29.8668  -15.6029   20.7649 N   0  0  0  0  0  0
  -31.4772  -12.4408   19.1180 H   0  0  0  0  0  0
  -30.3569  -11.3293   19.8463 H   0  0  0  0  0  0
  -29.7485  -11.7553   17.4460 H   0  0  0  0  0  0
  -29.6669  -13.4679   17.7412 H   0  0  0  0  0  0
  -27.8312  -11.3102   18.8161 H   0  0  0  0  0  0
  -27.3759  -12.6440   17.7832 H   0  0  0  0  0  0
  -27.6878  -14.2560   19.5558 H   0  0  0  0  0  0
  -28.7026  -12.0041   21.3634 H   0  0  0  0  0  0
  -28.4844  -13.6647   21.8488 H   0  0  0  0  0  0
  -25.2765   -9.5701   22.4759 H   0  0  0  0  0  0
  -23.9989   -7.4688   22.7513 H   0  0  0  0  0  0
  -21.0811   -8.8818   19.8963 H   0  0  0  0  0  0
  -22.3714  -10.9695   19.6164 H   0  0  0  0  0  0
  -21.2053   -7.6154   23.9730 H   0  0  0  0  0  0
  -21.1422   -6.0504   25.9073 H   0  0  0  0  0  0
  -22.0611   -2.7610   23.2865 H   0  0  0  0  0  0
  -22.4090  -11.9862   22.4738 H   0  0  0  0  0  0
  -21.1130  -13.1297   22.2543 H   0  0  0  0  0  0
  -24.6352  -15.8240   20.5411 H   0  0  0  0  0  0
  -26.2320  -15.6406   20.0293 H   0  0  0  0  0  0
  -26.7125  -32.5467   23.1142 H   0  0  0  0  0  0
  -25.0059  -33.9746   25.0459 H   0  0  0  0  0  0
  -22.6993  -31.3063   21.4066 H   0  0  0  0  0  0
  -23.3735  -35.9659   23.3326 H   0  0  0  0  0  0
  -24.3573  -36.8907   22.2059 H   0  0  0  0  0  0
  -23.7228  -37.6523   23.6644 H   0  0  0  0  0  0
  -26.0637  -31.5756   20.5968 H   0  0  0  0  0  0
  -26.8265  -30.8621   21.9942 H   0  0  0  0  0  0
  -28.1008  -29.0644   21.1653 H   0  0  0  0  0  0
  -25.9998  -25.9358   19.0313 H   0  0  0  0  0  0
  -23.9704  -27.2789   19.0473 H   0  0  0  0  0  0
  -23.7312  -30.5889   19.4046 H   0  0  0  0  0  0
  -22.7386  -29.2460   19.8671 H   0  0  0  0  0  0
  -25.1276  -36.1995   25.0849 H   0  0  0  0  0  0
  -20.9952  -28.3313   24.1439 H   0  0  0  0  0  0
  -20.5643  -26.2306   23.3686 H   0  0  0  0  0  0
  -21.6637  -26.7367   22.1272 H   0  0  0  0  0  0
  -19.6687  -27.3150   20.6804 H   0  0  0  0  0  0
  -19.6929  -25.6249   21.1321 H   0  0  0  0  0  0
  -17.4190  -26.6606   21.4118 H   0  0  0  0  0  0
  -18.0357  -26.0089   22.9134 H   0  0  0  0  0  0
  -19.7940  -30.7240   24.2286 H   0  0  0  0  0  0
  -17.4998  -31.6282   24.5119 H   0  0  0  0  0  0
  -15.5338  -30.2940   23.7626 H   0  0  0  0  0  0
  -15.8670  -28.0795   22.7070 H   0  0  0  0  0  0
  -24.5869  -30.7087   25.7823 H   0  0  0  0  0  0
  -24.8928  -32.2882   26.4955 H   0  0  0  0  0  0
  -25.8064  -30.8868   27.0233 H   0  0  0  0  0  0
  -26.2882  -29.6801   24.1174 H   0  0  0  0  0  0
  -27.4001  -29.7276   25.4644 H   0  0  0  0  0  0
  -27.8733  -30.4337   23.9378 H   0  0  0  0  0  0
  -27.2630  -33.3613   26.2110 H   0  0  0  0  0  0
  -28.3823  -32.6924   25.0338 H   0  0  0  0  0  0
  -28.0707  -31.8449   26.5402 H   0  0  0  0  0  0
  -28.2614  -38.0096   24.7492 H   0  0  0  0  0  0
  -28.1050  -36.2625   24.6320 H   0  0  0  0  0  0
  -27.2292  -37.1505   25.8869 H   0  0  0  0  0  0
  -20.9309  -29.8766   21.6943 H   0  0  0  0  0  0
  -26.0188  -38.2887   24.1373 H   0  0  0  0  0  0
  -28.8343  -22.4412   18.6150 H   0  0  0  0  0  0
  -25.3401  -26.0001   25.1993 H   0  0  0  0  0  0
  -27.0792  -25.8068   25.3766 H   0  0  0  0  0  0
  -25.9819  -24.6942   26.1868 H   0  0  0  0  0  0
  -26.8916  -18.1235   21.3657 H   0  0  0  0  0  0
  -27.5053  -16.5418   21.1123 H   0  0  0  0  0  0
  -27.4069  -17.6507   19.7461 H   0  0  0  0  0  0
  -28.6413  -18.6480   23.1667 H   0  0  0  0  0  0
  -30.3216  -18.1893   22.9049 H   0  0  0  0  0  0
  -29.0851  -16.9558   23.0010 H   0  0  0  0  0  0
  -28.0046  -25.4974   18.3964 H   0  0  0  0  0  0
  -29.6203  -25.4882   18.9757 H   0  0  0  0  0  0
  -28.0025  -21.4353   23.3058 H   0  0  0  0  0  0
  -26.3458  -21.8014   22.8428 H   0  0  0  0  0  0
  -26.2614  -24.9487   23.1529 H   0  0  0  0  0  0
  -25.1949  -23.8353   23.9675 H   0  0  0  0  0  0
  -28.2594  -23.7725   24.2418 H   0  0  0  0  0  0
  -27.1398  -22.7471   25.0809 H   0  0  0  0  0  0
  -30.0256  -20.0367   21.3108 H   0  0  0  0  0  0
  -29.7750  -19.5848   19.6720 H   0  0  0  0  0  0
  -27.3372  -20.2193   21.3843 H   0  0  0  0  0  0
  -27.4779  -20.2501   19.6644 H   0  0  0  0  0  0
  -31.1221  -17.3077   20.6660 H   0  0  0  0  0  0
  -30.0057  -17.1155   19.3406 H   0  0  0  0  0  0
  -27.7216  -24.7973   21.9000 H   0  0  0  0  0  0
  -28.9312  -15.3583   21.0485 H   0  0  0  0  0  0
  1 25  1  0  0  0
  1 30  2  0  0  0
  1 87  1  0  0  0
  2  3  1  0  0  0
  2 25  1  0  0  0
  2 88  1  0  0  0
  2 89  1  0  0  0
  3  4  1  0  0  0
  3 90  1  0  0  0
  3 91  1  0  0  0
  4  5  1  0  0  0
  4 92  1  0  0  0
  4 93  1  0  0  0
  5  6  1  0  0  0
  5 26  1  0  0  0
  5 94  1  0  0  0
  6 25  1  0  0  0
  6 95  1  0  0  0
  6 96  1  0  0  0
  7  8  2  0  0  0
  7 26  1  0  0  0
  7 29  1  0  0  0
  8  9  1  0  0  0
  8 22  1  0  0  0
  9 10  1  0  0  0
  9 27  2  0  0  0
 10 11  2  0  0  0
 10 15  1  0  0  0
 11 12  1  0  0  0
 11 97  1  0  0  0
 12 13  2  0  0  0
 12 98  1  0  0  0
 13 14  1  0  0  0
 13 31  1  0  0  0
 14 15  2  0  0  0
 14 99  1  0  0  0
 15100  1  0  0  0
 16 17  2  0  0  0
 16 21  1  0  0  0
 16 31  1  0  0  0
 17 18  1  0  0  0
 17101  1  0  0  0
 18 19  2  0  0  0
 18102  1  0  0  0
 19 20  1  0  0  0
 19 24  1  0  0  0
 20 21  2  0  0  0
 20103  1  0  0  0
 21 23  1  0  0  0
 22 28  1  0  0  0
 22 32  2  0  0  0
 26 27  1  0  0  0
 28104  1  0  0  0
 28105  1  0  0  0
 29106  1  0  0  0
 29107  1  0  0  0
 33 34  1  0  0  0
 33 66  1  0  0  0
 33 70  2  0  0  0
 34 36  1  0  0  0
 34 59  1  0  0  0
 34108  1  0  0  0
 35 44  2  0  0  0
 35 45  1  0  0  0
 35 68  1  0  0  0
 36 56  1  0  0  0
 36109  1  0  0  0
 37 39  1  0  0  0
 37 47  1  0  0  0
 37 66  1  0  0  0
 37110  1  0  0  0
 38 43  2  0  0  0
 38 46  1  0  0  0
 38 47  1  0  0  0
 39 64  1  0  0  0
 39 67  2  0  0  0
 40 52  1  0  0  0
 40 53  2  0  0  0
 40 58  1  0  0  0
 41111  1  0  0  0
 41112  1  0  0  0
 41113  1  0  0  0
 41 48  1  0  0  0
 42 43  1  0  0  0
 42 66  1  0  0  0
 42114  1  0  0  0
 42115  1  0  0  0
 43 44  1  0  0  0
 44116  1  0  0  0
 45 46  2  0  0  0
 45117  1  0  0  0
 46118  1  0  0  0
 47119  1  0  0  0
 47120  1  0  0  0
 48 56  1  0  0  0
 48 65  1  0  0  0
 48121  1  0  0  0
 49 50  1  0  0  0
 49 53  1  0  0  0
 49 64  1  0  0  0
 49122  1  0  0  0
 50 51  1  0  0  0
 50123  1  0  0  0
 50124  1  0  0  0
 51 52  1  0  0  0
 51125  1  0  0  0
 51126  1  0  0  0
 52127  1  0  0  0
 52128  1  0  0  0
 53 54  1  0  0  0
 54 55  2  0  0  0
 54129  1  0  0  0
 55 57  1  0  0  0
 55130  1  0  0  0
 56 69  2  0  0  0
 57 58  2  0  0  0
 57131  1  0  0  0
 58132  1  0  0  0
 59 60  1  0  0  0
 59 61  1  0  0  0
 59 62  1  0  0  0
 60133  1  0  0  0
 60134  1  0  0  0
 60135  1  0  0  0
 61136  1  0  0  0
 61137  1  0  0  0
 61138  1  0  0  0
 62139  1  0  0  0
 62140  1  0  0  0
 62141  1  0  0  0
 63 65  1  0  0  0
 63142  1  0  0  0
 63143  1  0  0  0
 63144  1  0  0  0
 64145  1  0  0  0
 65146  1  0  0  0
 68 77  1  0  0  0
 71 72  2  0  0  0
 71 85  1  0  0  0
 71147  1  0  0  0
 72 77  1  0  0  0
 72 86  1  0  0  0
 73 78  1  0  0  0
 73 85  1  0  0  0
 73 86  2  0  0  0
 74 79  1  0  0  0
 74148  1  0  0  0
 74149  1  0  0  0
 74150  1  0  0  0
 75151  1  0  0  0
 75152  1  0  0  0
 75153  1  0  0  0
 75 84  1  0  0  0
 76 84  1  0  0  0
 76154  1  0  0  0
 76155  1  0  0  0
 76156  1  0  0  0
 77157  1  0  0  0
 77158  1  0  0  0
 78 80  1  0  0  0
 78159  1  0  0  0
 78160  1  0  0  0
 79 80  1  0  0  0
 79161  1  0  0  0
 79162  1  0  0  0
 80163  1  0  0  0
 80164  1  0  0  0
 81 82  1  0  0  0
 81 84  1  0  0  0
 81165  1  0  0  0
 81166  1  0  0  0
 82 85  1  0  0  0
 82167  1  0  0  0
 82168  1  0  0  0
 83 84  1  0  0  0
 83 87  1  0  0  0
 83169  1  0  0  0
 83170  1  0  0  0
 86171  1  0  0  0
 87172  1  0  0  0
M  CHG  1  86   1
M  ISO  4   1 100  68 101  77 101  87 100
M  END
> <chiral flag>
0

> <version>
0

> <s_m_source_file>
/data/baiqing/PycharmProjects/Reinvent-master-3.2/result/LINK_invent/BTK/process_docking_weight1_custom_sum_contain_oxygen_bond_distance_aromatic_linkinvent_7_9_3/rearranged_h_0044.sdf

> <i_m_source_file_index>
11

> <r_mmod_Potential_Energy-OPLS-2005>
-117.625968933105

> <r_mmod_Stretch_Energy-OPLS-2005>
53.661563873291

> <r_mmod_Bend_Energy-OPLS-2005>
124.804168701172

> <r_mmod_Torsional_Energy-OPLS-2005>
248.482696533203

> <r_mmod_Improper_Torsional_Energy-OPLS-2005>
7.28186511993408

> <r_mmod_Van_der_Waal_Energy-OPLS-2005>
122.359931945801

> <r_mmod_Electrostatic_Energy-OPLS-2005>
-304.498443603516

> <r_mmod_Solvation_Energy-OPLS-2005>
-392.905975341797

> <b_mmod_Minimization_Converged-OPLS-2005>
0

> <r_mmod_RMS_Derivative-OPLS-2005>
4.28919696807861

$$$$
11
                    3D
 Structure written by MMmdl.
158166  0  0  1  0            999 V2000
  -30.5018  -14.9994   20.4118 C   0  0  0  0  0  0
  -30.4496  -12.6268   19.4754 C   0  0  0  0  0  0
  -29.5182  -12.5240   18.2436 C   0  0  0  0  0  0
  -28.0539  -12.3036   18.6729 C   0  0  0  0  0  0
  -27.6257  -13.2448   19.8277 C   0  0  2  0  0  0
  -28.6752  -13.2872   20.9561 C   0  0  0  0  0  0
  -25.2463  -13.8203   20.5710 C   0  0  0  0  0  0
  -24.1785  -13.0432   20.9247 C   0  0  0  0  0  0
  -24.6403  -11.6923   20.8782 C   0  0  0  0  0  0
  -23.9084  -10.4291   21.0430 C   0  0  0  0  0  0
  -24.3630   -9.4209   21.9204 C   0  0  0  0  0  0
  -23.6308   -8.2245   22.0759 C   0  0  0  0  0  0
  -22.4289   -8.0288   21.3546 C   0  0  0  0  0  0
  -21.9932   -9.0268   20.4648 C   0  0  0  0  0  0
  -22.7264  -10.2143   20.3073 C   0  0  0  0  0  0
  -21.6850   -6.0753   22.5286 C   0  0  0  0  0  0
  -21.4003   -6.5649   23.8225 C   0  0  0  0  0  0
  -21.3653   -5.6797   24.9181 C   0  0  0  0  0  0
  -21.6045   -4.3063   24.7228 C   0  0  0  0  0  0
  -21.8818   -3.8157   23.4347 C   0  0  0  0  0  0
  -21.9190   -4.6979   22.3403 C   0  0  0  0  0  0
  -22.7806  -13.5209   21.1903 C   0  0  0  0  0  0
  -22.1659   -4.2166   21.0979 F   0  0  0  0  0  0
  -21.5632   -3.4544   25.7736 F   0  0  0  0  0  0
  -29.9333  -13.7262   20.3383 N   0  0  0  0  0  0
  -26.2879  -12.9433   20.3231 N   0  0  0  0  0  0
  -25.9330  -11.6569   20.5756 N   0  0  0  0  0  0
  -22.0450  -12.8190   22.0445 N   0  0  0  0  0  0
  -25.4106  -15.1935   20.4090 N   0  0  0  0  0  0
  -31.7257  -15.0787   20.2603 O   0  0  0  0  0  0
  -21.6639   -6.8898   21.4247 O   0  0  0  0  0  0
  -22.3496  -14.5517   20.6749 O   0  0  0  0  0  0
  -24.6483  -31.8403   23.1820 C   0  0  0  0  0  0
  -25.9230  -32.4670   23.8248 C   0  0  1  0  0  0
  -27.2093  -27.0812   20.1747 C   0  0  0  0  0  0
  -25.5966  -33.8488   24.2170 N   0  0  0  0  0  0
  -23.4537  -30.4561   21.5304 C   0  0  2  0  0  0
  -24.8992  -28.8641   20.1217 C   0  0  0  0  0  0
  -22.7588  -29.4536   22.4861 C   0  0  0  0  0  0
  -18.0320  -28.1404   22.8497 C   0  0  0  0  0  0
  -24.1478  -36.7225   23.2647 C   0  0  0  0  0  0
  -26.0112  -30.6990   21.3835 C   0  0  0  0  0  0
  -26.0799  -29.2990   20.7385 C   0  0  0  0  0  0
  -27.2379  -28.4266   20.7397 C   0  0  0  0  0  0
  -26.0011  -26.7521   19.5291 C   0  0  0  0  0  0
  -24.8744  -27.6046   19.5022 C   0  0  0  0  0  0
  -23.6807  -29.7757   20.1538 C   0  0  0  0  0  0
  -25.4106  -36.3013   24.0329 C   0  0  1  0  0  0
  -20.5935  -28.3726   23.1236 C   0  0  2  0  0  0
  -20.6798  -26.9428   22.5401 C   0  0  0  0  0  0
  -19.5762  -26.6388   21.5228 C   0  0  0  0  0  0
  -18.1940  -26.7957   22.1627 C   0  0  0  0  0  0
  -19.1579  -28.8885   23.2863 C   0  0  0  0  0  0
  -18.9489  -30.1485   23.8878 C   0  0  0  0  0  0
  -17.6479  -30.6601   24.0561 C   0  0  0  0  0  0
  -25.9072  -34.9396   23.5052 C   0  0  0  0  0  0
  -16.5373  -29.9087   23.6338 C   0  0  0  0  0  0
  -16.7297  -28.6504   23.0365 C   0  0  0  0  0  0
  -26.4535  -31.6556   25.0706 C   0  0  0  0  0  0
  -25.3696  -31.3743   26.1381 C   0  0  0  0  0  0
  -27.0413  -30.2962   24.6302 C   0  0  0  0  0  0
  -27.6076  -32.4308   25.7479 C   0  0  0  0  0  0
  -27.5560  -37.1761   24.8471 C   0  0  0  0  0  0
  -21.4275  -29.3051   22.3600 N   0  0  0  0  0  0
  -26.4258  -37.3741   23.9439 N   0  0  0  0  0  0
  -24.7255  -31.0212   22.0869 N   0  0  0  0  0  0
  -23.4210  -28.8092   23.3030 O   0  0  0  0  0  0
  -28.2777  -26.1072   20.0923 O   0  0  0  0  0  0
  -26.5652  -34.8911   22.4630 O   0  0  0  0  0  0
  -23.5582  -32.1289   23.7011 O   0  0  0  0  0  0
  -26.9710  -22.7454   19.7303 C   0  0  0  0  0  0
  -29.1292  -21.9562   20.4229 C   0  0  0  0  0  0
  -28.2206  -23.1399   20.2527 C   0  0  0  0  0  0
  -26.6632  -21.3873   19.4716 C   0  0  0  0  0  0
  -28.7674  -20.5352   20.1232 C   0  0  0  0  0  0
  -25.9125  -19.5097   16.9106 C   0  0  0  0  0  0
  -28.3510  -24.7119   20.8159 C   0  0  0  0  0  0
  -25.2896  -21.0058   18.9352 C   0  0  0  0  0  0
  -29.6668  -19.1299   19.9562 C   0  0  0  0  0  0
  -25.2441  -20.8032   17.4068 C   0  0  0  0  0  0
  -29.6862  -17.6998   20.8847 C   0  0  0  0  0  0
  -27.5098  -20.3468   19.6730 N   0  0  0  0  0  0
  -29.6598  -16.1574   20.4365 N   0  0  0  0  0  0
  -31.4742  -12.8203   19.1518 H   0  0  0  0  0  0
  -30.4778  -11.6845   20.0255 H   0  0  0  0  0  0
  -29.8424  -11.7120   17.5916 H   0  0  0  0  0  0
  -29.5883  -13.4382   17.6524 H   0  0  0  0  0  0
  -27.9603  -11.2651   18.9938 H   0  0  0  0  0  0
  -27.3840  -12.4189   17.8187 H   0  0  0  0  0  0
  -27.5792  -14.2404   19.3861 H   0  0  0  0  0  0
  -28.7873  -12.3117   21.4321 H   0  0  0  0  0  0
  -28.3730  -13.9844   21.7392 H   0  0  0  0  0  0
  -25.2780   -9.5679   22.4783 H   0  0  0  0  0  0
  -24.0020   -7.4624   22.7468 H   0  0  0  0  0  0
  -21.0875   -8.8792   19.8941 H   0  0  0  0  0  0
  -22.3742  -10.9689   19.6182 H   0  0  0  0  0  0
  -21.1988   -7.6162   23.9733 H   0  0  0  0  0  0
  -21.1471   -6.0527   25.9085 H   0  0  0  0  0  0
  -22.0599   -2.7625   23.2838 H   0  0  0  0  0  0
  -22.4065  -11.9836   22.4803 H   0  0  0  0  0  0
  -21.1071  -13.1208   22.2658 H   0  0  0  0  0  0
  -24.6333  -15.8380   20.5074 H   0  0  0  0  0  0
  -26.2438  -15.6363   20.0456 H   0  0  0  0  0  0
  -26.7300  -32.5265   23.0978 H   0  0  0  0  0  0
  -25.0146  -33.9599   25.0338 H   0  0  0  0  0  0
  -22.7606  -31.2844   21.3699 H   0  0  0  0  0  0
  -23.3765  -35.9529   23.3277 H   0  0  0  0  0  0
  -24.3576  -36.8874   22.2068 H   0  0  0  0  0  0
  -23.7186  -37.6398   23.6692 H   0  0  0  0  0  0
  -26.1639  -31.4447   20.6020 H   0  0  0  0  0  0
  -26.8824  -30.7600   22.0234 H   0  0  0  0  0  0
  -28.1484  -28.7693   21.2101 H   0  0  0  0  0  0
  -25.9229  -25.7926   19.0395 H   0  0  0  0  0  0
  -23.9743  -27.2656   19.0069 H   0  0  0  0  0  0
  -23.8232  -30.5447   19.3935 H   0  0  0  0  0  0
  -22.7929  -29.2212   19.8437 H   0  0  0  0  0  0
  -25.1291  -36.1824   25.0817 H   0  0  0  0  0  0
  -21.0041  -28.3308   24.1351 H   0  0  0  0  0  0
  -20.5704  -26.2344   23.3627 H   0  0  0  0  0  0
  -21.6658  -26.7429   22.1188 H   0  0  0  0  0  0
  -19.6915  -25.6293   21.1268 H   0  0  0  0  0  0
  -19.6697  -27.3191   20.6752 H   0  0  0  0  0  0
  -17.4217  -26.6728   21.4021 H   0  0  0  0  0  0
  -18.0312  -26.0113   22.9024 H   0  0  0  0  0  0
  -19.7959  -30.7320   24.2230 H   0  0  0  0  0  0
  -17.5020  -31.6281   24.5160 H   0  0  0  0  0  0
  -15.5365  -30.2963   23.7690 H   0  0  0  0  0  0
  -15.8705  -28.0803   22.7087 H   0  0  0  0  0  0
  -24.5931  -30.7036   25.7681 H   0  0  0  0  0  0
  -24.8818  -32.2918   26.4692 H   0  0  0  0  0  0
  -25.7965  -30.8998   27.0224 H   0  0  0  0  0  0
  -26.3041  -29.6677   24.1305 H   0  0  0  0  0  0
  -27.4039  -29.7272   25.4869 H   0  0  0  0  0  0
  -27.8937  -30.4230   23.9624 H   0  0  0  0  0  0
  -27.2726  -33.3680   26.1940 H   0  0  0  0  0  0
  -28.3954  -32.6740   25.0329 H   0  0  0  0  0  0
  -28.0679  -31.8490   26.5476 H   0  0  0  0  0  0
  -28.2554  -38.0082   24.7557 H   0  0  0  0  0  0
  -28.1074  -36.2618   24.6237 H   0  0  0  0  0  0
  -27.2306  -37.1327   25.8880 H   0  0  0  0  0  0
  -20.9480  -29.8739   21.6766 H   0  0  0  0  0  0
  -26.0116  -38.2797   24.1472 H   0  0  0  0  0  0
  -26.2059  -23.4943   19.5831 H   0  0  0  0  0  0
  -30.1277  -22.1424   20.7964 H   0  0  0  0  0  0
  -25.7392  -19.3675   15.8431 H   0  0  0  0  0  0
  -25.5206  -18.6335   17.4294 H   0  0  0  0  0  0
  -26.9918  -19.5332   17.0661 H   0  0  0  0  0  0
  -29.3054  -24.7361   21.3425 H   0  0  0  0  0  0
  -27.6110  -24.7748   21.6149 H   0  0  0  0  0  0
  -24.5816  -21.7871   19.2115 H   0  0  0  0  0  0
  -24.9356  -20.1047   19.4388 H   0  0  0  0  0  0
  -30.7021  -19.4640   19.8872 H   0  0  0  0  0  0
  -29.4469  -18.7999   18.9403 H   0  0  0  0  0  0
  -24.1982  -20.7749   17.0988 H   0  0  0  0  0  0
  -25.6816  -21.6676   16.9060 H   0  0  0  0  0  0
  -28.7989  -17.7781   21.5132 H   0  0  0  0  0  0
  -30.5084  -17.8013   21.5939 H   0  0  0  0  0  0
  -28.7051  -15.8524   20.3225 H   0  0  0  0  0  0
  1 25  1  0  0  0
  1 30  2  0  0  0
  1 83  1  0  0  0
  2  3  1  0  0  0
  2 25  1  0  0  0
  2 84  1  0  0  0
  2 85  1  0  0  0
  3  4  1  0  0  0
  3 86  1  0  0  0
  3 87  1  0  0  0
  4  5  1  0  0  0
  4 88  1  0  0  0
  4 89  1  0  0  0
  5  6  1  0  0  0
  5 26  1  0  0  0
  5 90  1  0  0  0
  6 25  1  0  0  0
  6 91  1  0  0  0
  6 92  1  0  0  0
  7  8  2  0  0  0
  7 26  1  0  0  0
  7 29  1  0  0  0
  8  9  1  0  0  0
  8 22  1  0  0  0
  9 10  1  0  0  0
  9 27  2  0  0  0
 10 11  2  0  0  0
 10 15  1  0  0  0
 11 12  1  0  0  0
 11 93  1  0  0  0
 12 13  2  0  0  0
 12 94  1  0  0  0
 13 14  1  0  0  0
 13 31  1  0  0  0
 14 15  2  0  0  0
 14 95  1  0  0  0
 15 96  1  0  0  0
 16 17  2  0  0  0
 16 21  1  0  0  0
 16 31  1  0  0  0
 17 18  1  0  0  0
 17 97  1  0  0  0
 18 19  2  0  0  0
 18 98  1  0  0  0
 19 20  1  0  0  0
 19 24  1  0  0  0
 20 21  2  0  0  0
 20 99  1  0  0  0
 21 23  1  0  0  0
 22 28  1  0  0  0
 22 32  2  0  0  0
 26 27  1  0  0  0
 28100  1  0  0  0
 28101  1  0  0  0
 29102  1  0  0  0
 29103  1  0  0  0
 33 34  1  0  0  0
 33 66  1  0  0  0
 33 70  2  0  0  0
 34 36  1  0  0  0
 34 59  1  0  0  0
 34104  1  0  0  0
 35 44  2  0  0  0
 35 45  1  0  0  0
 35 68  1  0  0  0
 36 56  1  0  0  0
 36105  1  0  0  0
 37 39  1  0  0  0
 37 47  1  0  0  0
 37 66  1  0  0  0
 37106  1  0  0  0
 38 43  2  0  0  0
 38 46  1  0  0  0
 38 47  1  0  0  0
 39 64  1  0  0  0
 39 67  2  0  0  0
 40 52  1  0  0  0
 40 53  2  0  0  0
 40 58  1  0  0  0
 41107  1  0  0  0
 41108  1  0  0  0
 41109  1  0  0  0
 41 48  1  0  0  0
 42 43  1  0  0  0
 42 66  1  0  0  0
 42110  1  0  0  0
 42111  1  0  0  0
 43 44  1  0  0  0
 44112  1  0  0  0
 45 46  2  0  0  0
 45113  1  0  0  0
 46114  1  0  0  0
 47115  1  0  0  0
 47116  1  0  0  0
 48 56  1  0  0  0
 48 65  1  0  0  0
 48117  1  0  0  0
 49 50  1  0  0  0
 49 53  1  0  0  0
 49 64  1  0  0  0
 49118  1  0  0  0
 50 51  1  0  0  0
 50119  1  0  0  0
 50120  1  0  0  0
 51 52  1  0  0  0
 51121  1  0  0  0
 51122  1  0  0  0
 52123  1  0  0  0
 52124  1  0  0  0
 53 54  1  0  0  0
 54 55  2  0  0  0
 54125  1  0  0  0
 55 57  1  0  0  0
 55126  1  0  0  0
 56 69  2  0  0  0
 57 58  2  0  0  0
 57127  1  0  0  0
 58128  1  0  0  0
 59 60  1  0  0  0
 59 61  1  0  0  0
 59 62  1  0  0  0
 60129  1  0  0  0
 60130  1  0  0  0
 60131  1  0  0  0
 61132  1  0  0  0
 61133  1  0  0  0
 61134  1  0  0  0
 62135  1  0  0  0
 62136  1  0  0  0
 62137  1  0  0  0
 63 65  1  0  0  0
 63138  1  0  0  0
 63139  1  0  0  0
 63140  1  0  0  0
 64141  1  0  0  0
 65142  1  0  0  0
 68 77  1  0  0  0
 71 73  2  0  0  0
 71 74  1  0  0  0
 71143  1  0  0  0
 72 73  1  0  0  0
 72 75  2  0  0  0
 72144  1  0  0  0
 73 77  1  0  0  0
 74 78  1  0  0  0
 74 82  2  0  0  0
 75 79  1  0  0  0
 75 82  1  0  0  0
 76 80  1  0  0  0
 76145  1  0  0  0
 76146  1  0  0  0
 76147  1  0  0  0
 77148  1  0  0  0
 77149  1  0  0  0
 78 80  1  0  0  0
 78150  1  0  0  0
 78151  1  0  0  0
 79 81  1  0  0  0
 79152  1  0  0  0
 79153  1  0  0  0
 80154  1  0  0  0
 80155  1  0  0  0
 81 83  1  0  0  0
 81156  1  0  0  0
 81157  1  0  0  0
 83158  1  0  0  0
M  ISO  4   1 100  68 101  77 101  83 100
M  END
> <chiral flag>
0

> <version>
0

> <s_m_source_file>
/data/baiqing/PycharmProjects/Reinvent-master-3.2/result/LINK_invent/BTK/process_docking_weight1_custom_sum_contain_oxygen_bond_distance_aromatic_linkinvent_7_9_3/rearranged_h_0044.sdf

> <i_m_source_file_index>
12

> <r_mmod_Potential_Energy-OPLS-2005>
574.804260253906

> <r_mmod_Stretch_Energy-OPLS-2005>
305.184509277344

> <r_mmod_Bend_Energy-OPLS-2005>
343.281616210938

> <r_mmod_Torsional_Energy-OPLS-2005>
261.821014404297

> <r_mmod_Improper_Torsional_Energy-OPLS-2005>
8.39200687408447

> <r_mmod_Van_der_Waal_Energy-OPLS-2005>
119.925971984863

> <r_mmod_Electrostatic_Energy-OPLS-2005>
-476.302978515625

> <r_mmod_Solvation_Energy-OPLS-2005>
-219.968734741211

> <b_mmod_Minimization_Converged-OPLS-2005>
0

> <r_mmod_RMS_Derivative-OPLS-2005>
2.12825846672058

$$$$
12
                    3D
 Structure written by MMmdl.
155163  0  0  1  0            999 V2000
  -30.6097  -14.7138   20.4897 C   0  0  0  0  0  0
  -30.4328  -12.4395   19.4767 C   0  0  0  0  0  0
  -29.5151  -12.5192   18.2370 C   0  0  0  0  0  0
  -28.0392  -12.3388   18.6426 C   0  0  0  0  0  0
  -27.6448  -13.2270   19.8539 C   0  0  2  0  0  0
  -28.6844  -13.1397   20.9927 C   0  0  0  0  0  0
  -25.2514  -13.8188   20.5663 C   0  0  0  0  0  0
  -24.1794  -13.0439   20.9160 C   0  0  0  0  0  0
  -24.6392  -11.6915   20.8735 C   0  0  0  0  0  0
  -23.9064  -10.4288   21.0399 C   0  0  0  0  0  0
  -24.3620   -9.4209   21.9180 C   0  0  0  0  0  0
  -23.6285   -8.2253   22.0767 C   0  0  0  0  0  0
  -22.4272   -8.0288   21.3551 C   0  0  0  0  0  0
  -21.9909   -9.0264   20.4661 C   0  0  0  0  0  0
  -22.7234  -10.2136   20.3059 C   0  0  0  0  0  0
  -21.6856   -6.0725   22.5280 C   0  0  0  0  0  0
  -21.4007   -6.5628   23.8209 C   0  0  0  0  0  0
  -21.3664   -5.6786   24.9170 C   0  0  0  0  0  0
  -21.6049   -4.3050   24.7221 C   0  0  0  0  0  0
  -21.8823   -3.8135   23.4344 C   0  0  0  0  0  0
  -21.9184   -4.6951   22.3395 C   0  0  0  0  0  0
  -22.7817  -13.5236   21.1811 C   0  0  0  0  0  0
  -22.1660   -4.2135   21.0972 F   0  0  0  0  0  0
  -21.5635   -3.4537   25.7736 F   0  0  0  0  0  0
  -29.9894  -13.4893   20.4211 N   0  0  0  0  0  0
  -26.2946  -12.9388   20.3265 N   0  0  0  0  0  0
  -25.9317  -11.6534   20.5731 N   0  0  0  0  0  0
  -22.0460  -12.8244   22.0389 N   0  0  0  0  0  0
  -25.4191  -15.1916   20.4105 N   0  0  0  0  0  0
  -31.7894  -14.8303   20.1468 O   0  0  0  0  0  0
  -21.6643   -6.8878   21.4247 O   0  0  0  0  0  0
  -22.3493  -14.5536   20.6661 O   0  0  0  0  0  0
  -24.6295  -31.8579   23.1992 C   0  0  0  0  0  0
  -25.9125  -32.4769   23.8337 C   0  0  1  0  0  0
  -27.2151  -27.2735   20.1541 C   0  0  0  0  0  0
  -25.5925  -33.8576   24.2260 N   0  0  0  0  0  0
  -23.4257  -30.4781   21.5435 C   0  0  2  0  0  0
  -24.8725  -28.9166   20.1221 C   0  0  0  0  0  0
  -22.7496  -29.4619   22.4952 C   0  0  0  0  0  0
  -18.0317  -28.1363   22.8481 C   0  0  0  0  0  0
  -24.1483  -36.7280   23.2644 C   0  0  0  0  0  0
  -25.9694  -30.7730   21.3775 C   0  0  0  0  0  0
  -26.0411  -29.3920   20.7317 C   0  0  0  0  0  0
  -27.2203  -28.5830   20.7352 C   0  0  0  0  0  0
  -26.0300  -26.8553   19.5191 C   0  0  0  0  0  0
  -24.8685  -27.6533   19.5085 C   0  0  0  0  0  0
  -23.6439  -29.8049   20.1635 C   0  0  0  0  0  0
  -25.4109  -36.3082   24.0336 C   0  0  1  0  0  0
  -20.5897  -28.3717   23.1306 C   0  0  2  0  0  0
  -20.6818  -26.9423   22.5471 C   0  0  0  0  0  0
  -19.5823  -26.6370   21.5245 C   0  0  0  0  0  0
  -18.1991  -26.7902   22.1635 C   0  0  0  0  0  0
  -19.1543  -28.8863   23.2872 C   0  0  0  0  0  0
  -18.9438  -30.1478   23.8865 C   0  0  0  0  0  0
  -17.6429  -30.6585   24.0505 C   0  0  0  0  0  0
  -25.9059  -34.9450   23.5102 C   0  0  0  0  0  0
  -16.5340  -29.9044   23.6291 C   0  0  0  0  0  0
  -16.7287  -28.6449   23.0345 C   0  0  0  0  0  0
  -26.4490  -31.6602   25.0736 C   0  0  0  0  0  0
  -25.3699  -31.3767   26.1452 C   0  0  0  0  0  0
  -27.0338  -30.3023   24.6226 C   0  0  0  0  0  0
  -27.6036  -32.4345   25.7503 C   0  0  0  0  0  0
  -27.5574  -37.1793   24.8466 C   0  0  0  0  0  0
  -21.4205  -29.3045   22.3679 N   0  0  0  0  0  0
  -26.4284  -37.3774   23.9416 N   0  0  0  0  0  0
  -24.6935  -31.0551   22.0964 N   0  0  0  0  0  0
  -23.4197  -28.8188   23.3069 O   0  0  0  0  0  0
  -28.3229  -26.4142   20.0956 O   0  0  0  0  0  0
  -26.5634  -34.8925   22.4680 O   0  0  0  0  0  0
  -23.5449  -32.1404   23.7291 O   0  0  0  0  0  0
  -26.8147  -23.3494   20.4053 C   0  0  0  0  0  0
  -29.0911  -22.6588   20.7349 C   0  0  0  0  0  0
  -28.1440  -23.7521   20.6488 C   0  0  0  0  0  0
  -26.4973  -21.9815   20.2550 C   0  0  0  0  0  0
  -28.6999  -21.2732   20.5738 C   0  0  0  0  0  0
  -25.0567  -21.5555   20.0574 C   0  0  0  0  0  0
  -28.4468  -25.2680   21.0385 C   0  0  0  0  0  0
  -29.6920  -20.0327   20.6409 C   0  0  0  0  0  0
  -29.1706  -18.4963   20.6632 C   0  0  0  0  0  0
  -30.2627  -17.3003   20.7032 C   0  0  0  0  0  0
  -27.4063  -20.9797   20.3237 N   0  0  0  0  0  0
  -29.8401  -15.8339   20.7517 N   0  0  0  0  0  0
  -31.4752  -12.5610   19.1800 H   0  0  0  0  0  0
  -30.3687  -11.4563   19.9450 H   0  0  0  0  0  0
  -29.8014  -11.7648   17.5043 H   0  0  0  0  0  0
  -29.6465  -13.4846   17.7453 H   0  0  0  0  0  0
  -27.8923  -11.2863   18.8893 H   0  0  0  0  0  0
  -27.3881  -12.5436   17.7912 H   0  0  0  0  0  0
  -27.6458  -14.2537   19.4865 H   0  0  0  0  0  0
  -28.7116  -12.1364   21.4198 H   0  0  0  0  0  0
  -28.4176  -13.8118   21.8092 H   0  0  0  0  0  0
  -25.2773   -9.5670   22.4733 H   0  0  0  0  0  0
  -23.9980   -7.4647   22.7502 H   0  0  0  0  0  0
  -21.0833   -8.8785   19.8972 H   0  0  0  0  0  0
  -22.3698  -10.9669   19.6161 H   0  0  0  0  0  0
  -21.2003   -7.6140   23.9704 H   0  0  0  0  0  0
  -21.1489   -6.0520   25.9070 H   0  0  0  0  0  0
  -22.0596   -2.7593   23.2852 H   0  0  0  0  0  0
  -22.4081  -11.9929   22.4813 H   0  0  0  0  0  0
  -21.1093  -13.1306   22.2600 H   0  0  0  0  0  0
  -24.6504  -15.8431   20.5183 H   0  0  0  0  0  0
  -26.2675  -15.6368   20.0862 H   0  0  0  0  0  0
  -26.7197  -32.5421   23.1080 H   0  0  0  0  0  0
  -25.0020  -33.9714   25.0372 H   0  0  0  0  0  0
  -22.7204  -31.2988   21.3957 H   0  0  0  0  0  0
  -23.3752  -35.9604   23.3311 H   0  0  0  0  0  0
  -24.3560  -36.8899   22.2053 H   0  0  0  0  0  0
  -23.7234  -37.6486   23.6660 H   0  0  0  0  0  0
  -26.1053  -31.5269   20.6001 H   0  0  0  0  0  0
  -26.8473  -30.8245   22.0095 H   0  0  0  0  0  0
  -28.1252  -28.9501   21.1997 H   0  0  0  0  0  0
  -26.0021  -25.8937   19.0281 H   0  0  0  0  0  0
  -23.9724  -27.2805   19.0291 H   0  0  0  0  0  0
  -23.7684  -30.5767   19.4036 H   0  0  0  0  0  0
  -22.7615  -29.2375   19.8609 H   0  0  0  0  0  0
  -25.1288  -36.1924   25.0827 H   0  0  0  0  0  0
  -20.9965  -28.3333   24.1434 H   0  0  0  0  0  0
  -20.5695  -26.2343   23.3705 H   0  0  0  0  0  0
  -21.6710  -26.7458   22.1309 H   0  0  0  0  0  0
  -19.7020  -25.6272   21.1309 H   0  0  0  0  0  0
  -19.6780  -27.3173   20.6772 H   0  0  0  0  0  0
  -17.4272  -26.6612   21.4042 H   0  0  0  0  0  0
  -18.0403  -26.0056   22.9040 H   0  0  0  0  0  0
  -19.7898  -30.7326   24.2223 H   0  0  0  0  0  0
  -17.4956  -31.6280   24.5065 H   0  0  0  0  0  0
  -15.5334  -30.2925   23.7606 H   0  0  0  0  0  0
  -15.8696  -28.0743   22.7079 H   0  0  0  0  0  0
  -24.5862  -30.7134   25.7780 H   0  0  0  0  0  0
  -24.8903  -32.2947   26.4860 H   0  0  0  0  0  0
  -25.7997  -30.8954   27.0248 H   0  0  0  0  0  0
  -26.2941  -29.6779   24.1210 H   0  0  0  0  0  0
  -27.3979  -29.7276   25.4752 H   0  0  0  0  0  0
  -27.8826  -30.4304   23.9506 H   0  0  0  0  0  0
  -27.2644  -33.3645   26.2075 H   0  0  0  0  0  0
  -28.3842  -32.6918   25.0329 H   0  0  0  0  0  0
  -28.0713  -31.8489   26.5426 H   0  0  0  0  0  0
  -28.2601  -38.0083   24.7508 H   0  0  0  0  0  0
  -28.1069  -36.2616   24.6291 H   0  0  0  0  0  0
  -27.2297  -37.1439   25.8874 H   0  0  0  0  0  0
  -20.9388  -29.8724   21.6853 H   0  0  0  0  0  0
  -26.0170  -38.2861   24.1402 H   0  0  0  0  0  0
  -26.0212  -24.0822   20.3919 H   0  0  0  0  0  0
  -30.1248  -22.8844   20.9601 H   0  0  0  0  0  0
  -24.5921  -22.1209   19.2496 H   0  0  0  0  0  0
  -24.4848  -21.7292   20.9700 H   0  0  0  0  0  0
  -24.9806  -20.4963   19.8118 H   0  0  0  0  0  0
  -29.4734  -25.2964   21.4029 H   0  0  0  0  0  0
  -27.8405  -25.4883   21.9177 H   0  0  0  0  0  0
  -30.3082  -20.1824   21.5280 H   0  0  0  0  0  0
  -30.3752  -20.1427   19.7972 H   0  0  0  0  0  0
  -28.5440  -18.3475   19.7836 H   0  0  0  0  0  0
  -28.4994  -18.3862   21.5139 H   0  0  0  0  0  0
  -30.9033  -17.4646   21.5707 H   0  0  0  0  0  0
  -30.9158  -17.4205   19.8371 H   0  0  0  0  0  0
  -28.8781  -15.6477   20.9988 H   0  0  0  0  0  0
  1 25  1  0  0  0
  1 30  2  0  0  0
  1 82  1  0  0  0
  2  3  1  0  0  0
  2 25  1  0  0  0
  2 83  1  0  0  0
  2 84  1  0  0  0
  3  4  1  0  0  0
  3 85  1  0  0  0
  3 86  1  0  0  0
  4  5  1  0  0  0
  4 87  1  0  0  0
  4 88  1  0  0  0
  5  6  1  0  0  0
  5 26  1  0  0  0
  5 89  1  0  0  0
  6 25  1  0  0  0
  6 90  1  0  0  0
  6 91  1  0  0  0
  7  8  2  0  0  0
  7 26  1  0  0  0
  7 29  1  0  0  0
  8  9  1  0  0  0
  8 22  1  0  0  0
  9 10  1  0  0  0
  9 27  2  0  0  0
 10 11  2  0  0  0
 10 15  1  0  0  0
 11 12  1  0  0  0
 11 92  1  0  0  0
 12 13  2  0  0  0
 12 93  1  0  0  0
 13 14  1  0  0  0
 13 31  1  0  0  0
 14 15  2  0  0  0
 14 94  1  0  0  0
 15 95  1  0  0  0
 16 17  2  0  0  0
 16 21  1  0  0  0
 16 31  1  0  0  0
 17 18  1  0  0  0
 17 96  1  0  0  0
 18 19  2  0  0  0
 18 97  1  0  0  0
 19 20  1  0  0  0
 19 24  1  0  0  0
 20 21  2  0  0  0
 20 98  1  0  0  0
 21 23  1  0  0  0
 22 28  1  0  0  0
 22 32  2  0  0  0
 26 27  1  0  0  0
 28 99  1  0  0  0
 28100  1  0  0  0
 29101  1  0  0  0
 29102  1  0  0  0
 33 34  1  0  0  0
 33 66  1  0  0  0
 33 70  2  0  0  0
 34 36  1  0  0  0
 34 59  1  0  0  0
 34103  1  0  0  0
 35 44  2  0  0  0
 35 45  1  0  0  0
 35 68  1  0  0  0
 36 56  1  0  0  0
 36104  1  0  0  0
 37 39  1  0  0  0
 37 47  1  0  0  0
 37 66  1  0  0  0
 37105  1  0  0  0
 38 43  2  0  0  0
 38 46  1  0  0  0
 38 47  1  0  0  0
 39 64  1  0  0  0
 39 67  2  0  0  0
 40 52  1  0  0  0
 40 53  2  0  0  0
 40 58  1  0  0  0
 41106  1  0  0  0
 41107  1  0  0  0
 41108  1  0  0  0
 41 48  1  0  0  0
 42 43  1  0  0  0
 42 66  1  0  0  0
 42109  1  0  0  0
 42110  1  0  0  0
 43 44  1  0  0  0
 44111  1  0  0  0
 45 46  2  0  0  0
 45112  1  0  0  0
 46113  1  0  0  0
 47114  1  0  0  0
 47115  1  0  0  0
 48 56  1  0  0  0
 48 65  1  0  0  0
 48116  1  0  0  0
 49 50  1  0  0  0
 49 53  1  0  0  0
 49 64  1  0  0  0
 49117  1  0  0  0
 50 51  1  0  0  0
 50118  1  0  0  0
 50119  1  0  0  0
 51 52  1  0  0  0
 51120  1  0  0  0
 51121  1  0  0  0
 52122  1  0  0  0
 52123  1  0  0  0
 53 54  1  0  0  0
 54 55  2  0  0  0
 54124  1  0  0  0
 55 57  1  0  0  0
 55125  1  0  0  0
 56 69  2  0  0  0
 57 58  2  0  0  0
 57126  1  0  0  0
 58127  1  0  0  0
 59 60  1  0  0  0
 59 61  1  0  0  0
 59 62  1  0  0  0
 60128  1  0  0  0
 60129  1  0  0  0
 60130  1  0  0  0
 61131  1  0  0  0
 61132  1  0  0  0
 61133  1  0  0  0
 62134  1  0  0  0
 62135  1  0  0  0
 62136  1  0  0  0
 63 65  1  0  0  0
 63137  1  0  0  0
 63138  1  0  0  0
 63139  1  0  0  0
 64140  1  0  0  0
 65141  1  0  0  0
 68 77  1  0  0  0
 71 73  2  0  0  0
 71 74  1  0  0  0
 71142  1  0  0  0
 72 73  1  0  0  0
 72 75  2  0  0  0
 72143  1  0  0  0
 73 77  1  0  0  0
 74 76  1  0  0  0
 74 81  2  0  0  0
 75 78  1  0  0  0
 75 81  1  0  0  0
 76144  1  0  0  0
 76145  1  0  0  0
 76146  1  0  0  0
 77147  1  0  0  0
 77148  1  0  0  0
 78 79  1  0  0  0
 78149  1  0  0  0
 78150  1  0  0  0
 79 80  1  0  0  0
 79151  1  0  0  0
 79152  1  0  0  0
 80 82  1  0  0  0
 80153  1  0  0  0
 80154  1  0  0  0
 82155  1  0  0  0
M  ISO  4   1 100  68 101  77 101  82 100
M  END
> <chiral flag>
0

> <version>
0

> <s_m_source_file>
/data/baiqing/PycharmProjects/Reinvent-master-3.2/result/LINK_invent/BTK/process_docking_weight1_custom_sum_contain_oxygen_bond_distance_aromatic_linkinvent_7_9_3/rearranged_h_0044.sdf

> <i_m_source_file_index>
13

> <r_mmod_Potential_Energy-OPLS-2005>
-38.9610862731934

> <r_mmod_Stretch_Energy-OPLS-2005>
108.322128295898

> <r_mmod_Bend_Energy-OPLS-2005>
156.911346435547

> <r_mmod_Torsional_Energy-OPLS-2005>
242.834350585938

> <r_mmod_Improper_Torsional_Energy-OPLS-2005>
5.80468559265137

> <r_mmod_Van_der_Waal_Energy-OPLS-2005>
131.217437744141

> <r_mmod_Electrostatic_Energy-OPLS-2005>
-535.931518554688

> <r_mmod_Solvation_Energy-OPLS-2005>
-219.355194091797

> <b_mmod_Minimization_Converged-OPLS-2005>
0

> <r_mmod_RMS_Derivative-OPLS-2005>
2.53265905380249

$$$$
13
                    3D
 Structure written by MMmdl.
147155  0  0  1  0            999 V2000
  -30.4842  -14.9627   20.4386 C   0  0  0  0  0  0
  -30.4592  -12.5907   19.5004 C   0  0  0  0  0  0
  -29.5326  -12.5395   18.2596 C   0  0  0  0  0  0
  -28.0640  -12.3122   18.6711 C   0  0  0  0  0  0
  -27.6363  -13.2357   19.8392 C   0  0  2  0  0  0
  -28.6781  -13.2409   20.9781 C   0  0  0  0  0  0
  -25.2509  -13.8175   20.5696 C   0  0  0  0  0  0
  -24.1804  -13.0422   20.9206 C   0  0  0  0  0  0
  -24.6398  -11.6900   20.8734 C   0  0  0  0  0  0
  -23.9066  -10.4282   21.0402 C   0  0  0  0  0  0
  -24.3615   -9.4203   21.9184 C   0  0  0  0  0  0
  -23.6291   -8.2238   22.0757 C   0  0  0  0  0  0
  -22.4275   -8.0272   21.3544 C   0  0  0  0  0  0
  -21.9908   -9.0244   20.4646 C   0  0  0  0  0  0
  -22.7235  -10.2124   20.3054 C   0  0  0  0  0  0
  -21.6854   -6.0727   22.5277 C   0  0  0  0  0  0
  -21.4015   -6.5635   23.8209 C   0  0  0  0  0  0
  -21.3663   -5.6792   24.9174 C   0  0  0  0  0  0
  -21.6047   -4.3054   24.7229 C   0  0  0  0  0  0
  -21.8821   -3.8141   23.4351 C   0  0  0  0  0  0
  -21.9195   -4.6953   22.3405 C   0  0  0  0  0  0
  -22.7826  -13.5207   21.1871 C   0  0  0  0  0  0
  -22.1664   -4.2136   21.0984 F   0  0  0  0  0  0
  -21.5630   -3.4542   25.7744 F   0  0  0  0  0  0
  -29.9631  -13.6665   20.4047 N   0  0  0  0  0  0
  -26.2920  -12.9379   20.3220 N   0  0  0  0  0  0
  -25.9327  -11.6523   20.5708 N   0  0  0  0  0  0
  -22.0476  -12.8194   22.0426 N   0  0  0  0  0  0
  -25.4210  -15.1903   20.4143 N   0  0  0  0  0  0
  -31.6709  -15.0883   20.1071 O   0  0  0  0  0  0
  -21.6642   -6.8867   21.4238 O   0  0  0  0  0  0
  -22.3509  -14.5515   20.6724 O   0  0  0  0  0  0
  -24.6456  -31.8420   23.1868 C   0  0  0  0  0  0
  -25.9221  -32.4680   23.8262 C   0  0  1  0  0  0
  -27.2225  -27.1218   20.1522 C   0  0  0  0  0  0
  -25.5962  -33.8487   24.2179 N   0  0  0  0  0  0
  -23.4498  -30.4610   21.5328 C   0  0  2  0  0  0
  -24.9007  -28.8851   20.1122 C   0  0  0  0  0  0
  -22.7580  -29.4534   22.4855 C   0  0  0  0  0  0
  -18.0307  -28.1394   22.8474 C   0  0  0  0  0  0
  -24.1495  -36.7252   23.2643 C   0  0  0  0  0  0
  -26.0076  -30.7119   21.3877 C   0  0  0  0  0  0
  -26.0797  -29.3217   20.7292 C   0  0  0  0  0  0
  -27.2418  -28.4583   20.7284 C   0  0  0  0  0  0
  -26.0130  -26.7900   19.5001 C   0  0  0  0  0  0
  -24.8815  -27.6331   19.4817 C   0  0  0  0  0  0
  -23.6777  -29.7886   20.1533 C   0  0  0  0  0  0
  -25.4126  -36.3020   24.0314 C   0  0  1  0  0  0
  -20.5921  -28.3720   23.1231 C   0  0  2  0  0  0
  -20.6791  -26.9421   22.5402 C   0  0  0  0  0  0
  -19.5765  -26.6379   21.5209 C   0  0  0  0  0  0
  -18.1946  -26.7932   22.1619 C   0  0  0  0  0  0
  -19.1564  -28.8875   23.2844 C   0  0  0  0  0  0
  -18.9477  -30.1471   23.8868 C   0  0  0  0  0  0
  -17.6472  -30.6589   24.0554 C   0  0  0  0  0  0
  -25.9078  -34.9397   23.5055 C   0  0  0  0  0  0
  -16.5364  -29.9077   23.6337 C   0  0  0  0  0  0
  -16.7290  -28.6498   23.0355 C   0  0  0  0  0  0
  -26.4538  -31.6555   25.0712 C   0  0  0  0  0  0
  -25.3716  -31.3747   26.1401 C   0  0  0  0  0  0
  -27.0408  -30.2946   24.6313 C   0  0  0  0  0  0
  -27.6060  -32.4326   25.7504 C   0  0  0  0  0  0
  -27.5576  -37.1782   24.8464 C   0  0  0  0  0  0
  -21.4269  -29.3043   22.3602 N   0  0  0  0  0  0
  -26.4286  -37.3735   23.9406 N   0  0  0  0  0  0
  -24.7209  -31.0264   22.0907 N   0  0  0  0  0  0
  -23.4215  -28.8087   23.3015 O   0  0  0  0  0  0
  -28.2774  -26.1308   20.2119 O   0  0  0  0  0  0
  -26.5662  -34.8897   22.4634 O   0  0  0  0  0  0
  -23.5572  -32.1299   23.7081 O   0  0  0  0  0  0
  -28.8029  -18.8855   20.1256 C   0  0  0  0  0  0
  -29.2544  -20.1952   20.4231 C   0  0  0  0  0  0
  -28.4642  -21.6542   20.4090 C   0  0  0  0  0  0
  -29.5391  -16.2951   20.7800 C   0  0  0  0  0  0
  -29.0134  -23.2502   20.2892 C   0  0  0  0  0  0
  -27.9802  -24.5933   20.1593 C   0  0  0  0  0  0
  -30.4870  -19.8997   21.0426 N   0  0  0  0  0  0
  -30.7527  -18.5880   21.0955 N   0  0  0  0  0  0
  -29.7323  -17.8603   20.5446 N   0  0  0  0  0  0
  -31.4895  -12.7694   19.1899 H   0  0  0  0  0  0
  -30.4661  -11.6301   20.0181 H   0  0  0  0  0  0
  -29.8567  -11.7534   17.5766 H   0  0  0  0  0  0
  -29.6144  -13.4769   17.7076 H   0  0  0  0  0  0
  -27.9619  -11.2688   18.9718 H   0  0  0  0  0  0
  -27.4025  -12.4492   17.8146 H   0  0  0  0  0  0
  -27.6024  -14.2373   19.4135 H   0  0  0  0  0  0
  -28.7629  -12.2535   21.4340 H   0  0  0  0  0  0
  -28.3697  -13.9185   21.7755 H   0  0  0  0  0  0
  -25.2761   -9.5682   22.4755 H   0  0  0  0  0  0
  -24.0000   -7.4633   22.7482 H   0  0  0  0  0  0
  -21.0837   -8.8758   19.8953 H   0  0  0  0  0  0
  -22.3690  -10.9658   19.6160 H   0  0  0  0  0  0
  -21.2005   -7.6144   23.9704 H   0  0  0  0  0  0
  -21.1486   -6.0527   25.9075 H   0  0  0  0  0  0
  -22.0597   -2.7600   23.2860 H   0  0  0  0  0  0
  -22.4103  -11.9853   22.4801 H   0  0  0  0  0  0
  -21.1094  -13.1213   22.2641 H   0  0  0  0  0  0
  -24.6546  -15.8446   20.5290 H   0  0  0  0  0  0
  -26.2693  -15.6294   20.0821 H   0  0  0  0  0  0
  -26.7287  -32.5282   23.0989 H   0  0  0  0  0  0
  -25.0084  -33.9600   25.0309 H   0  0  0  0  0  0
  -22.7528  -31.2870   21.3765 H   0  0  0  0  0  0
  -23.3758  -35.9582   23.3287 H   0  0  0  0  0  0
  -24.3578  -36.8905   22.2060 H   0  0  0  0  0  0
  -23.7257  -37.6444   23.6694 H   0  0  0  0  0  0
  -26.1652  -31.4658   20.6151 H   0  0  0  0  0  0
  -26.8773  -30.7619   22.0313 H   0  0  0  0  0  0
  -28.1409  -28.7906   21.2281 H   0  0  0  0  0  0
  -25.9024  -25.8362   19.0087 H   0  0  0  0  0  0
  -23.9821  -27.2936   18.9864 H   0  0  0  0  0  0
  -23.8150  -30.5616   19.3963 H   0  0  0  0  0  0
  -22.7926  -29.2305   19.8432 H   0  0  0  0  0  0
  -25.1317  -36.1839   25.0806 H   0  0  0  0  0  0
  -21.0008  -28.3308   24.1353 H   0  0  0  0  0  0
  -20.5681  -26.2332   23.3621 H   0  0  0  0  0  0
  -21.6657  -26.7425   22.1199 H   0  0  0  0  0  0
  -19.6925  -25.6283   21.1256 H   0  0  0  0  0  0
  -19.6704  -27.3174   20.6726 H   0  0  0  0  0  0
  -17.4215  -26.6675   21.4023 H   0  0  0  0  0  0
  -18.0344  -26.0080   22.9021 H   0  0  0  0  0  0
  -19.7951  -30.7297   24.2227 H   0  0  0  0  0  0
  -17.5022  -31.6266   24.5157 H   0  0  0  0  0  0
  -15.5362  -30.2964   23.7682 H   0  0  0  0  0  0
  -15.8693  -28.0807   22.7083 H   0  0  0  0  0  0
  -24.5907  -30.7084   25.7719 H   0  0  0  0  0  0
  -24.8894  -32.2930   26.4761 H   0  0  0  0  0  0
  -25.7996  -30.8964   27.0221 H   0  0  0  0  0  0
  -26.3033  -29.6655   24.1317 H   0  0  0  0  0  0
  -27.4005  -29.7259   25.4899 H   0  0  0  0  0  0
  -27.8946  -30.4168   23.9646 H   0  0  0  0  0  0
  -27.2648  -33.3647   26.2018 H   0  0  0  0  0  0
  -28.3910  -32.6853   25.0364 H   0  0  0  0  0  0
  -28.0686  -31.8493   26.5476 H   0  0  0  0  0  0
  -28.2579  -38.0090   24.7506 H   0  0  0  0  0  0
  -28.1087  -36.2618   24.6296 H   0  0  0  0  0  0
  -27.2292  -37.1431   25.8866 H   0  0  0  0  0  0
  -20.9485  -29.8752   21.6773 H   0  0  0  0  0  0
  -26.0149  -38.2802   24.1402 H   0  0  0  0  0  0
  -27.8364  -18.5927   19.7338 H   0  0  0  0  0  0
  -27.8386  -21.6552   21.3018 H   0  0  0  0  0  0
  -27.7343  -21.5740   19.6032 H   0  0  0  0  0  0
  -28.5822  -16.0715   20.3150 H   0  0  0  0  0  0
  -29.3405  -16.2010   21.8471 H   0  0  0  0  0  0
  -29.6886  -23.2912   19.4346 H   0  0  0  0  0  0
  -29.6513  -23.4221   21.1561 H   0  0  0  0  0  0
  -27.2104  -24.4409   20.9165 H   0  0  0  0  0  0
  -27.4743  -24.4277   19.2097 H   0  0  0  0  0  0
  1 25  1  0  0  0
  1 30  2  0  0  0
  1 74  1  0  0  0
  2  3  1  0  0  0
  2 25  1  0  0  0
  2 80  1  0  0  0
  2 81  1  0  0  0
  3  4  1  0  0  0
  3 82  1  0  0  0
  3 83  1  0  0  0
  4  5  1  0  0  0
  4 84  1  0  0  0
  4 85  1  0  0  0
  5  6  1  0  0  0
  5 26  1  0  0  0
  5 86  1  0  0  0
  6 25  1  0  0  0
  6 87  1  0  0  0
  6 88  1  0  0  0
  7  8  2  0  0  0
  7 26  1  0  0  0
  7 29  1  0  0  0
  8  9  1  0  0  0
  8 22  1  0  0  0
  9 10  1  0  0  0
  9 27  2  0  0  0
 10 11  2  0  0  0
 10 15  1  0  0  0
 11 12  1  0  0  0
 11 89  1  0  0  0
 12 13  2  0  0  0
 12 90  1  0  0  0
 13 14  1  0  0  0
 13 31  1  0  0  0
 14 15  2  0  0  0
 14 91  1  0  0  0
 15 92  1  0  0  0
 16 17  2  0  0  0
 16 21  1  0  0  0
 16 31  1  0  0  0
 17 18  1  0  0  0
 17 93  1  0  0  0
 18 19  2  0  0  0
 18 94  1  0  0  0
 19 20  1  0  0  0
 19 24  1  0  0  0
 20 21  2  0  0  0
 20 95  1  0  0  0
 21 23  1  0  0  0
 22 28  1  0  0  0
 22 32  2  0  0  0
 26 27  1  0  0  0
 28 96  1  0  0  0
 28 97  1  0  0  0
 29 98  1  0  0  0
 29 99  1  0  0  0
 33 34  1  0  0  0
 33 66  1  0  0  0
 33 70  2  0  0  0
 34 36  1  0  0  0
 34 59  1  0  0  0
 34100  1  0  0  0
 35 44  2  0  0  0
 35 45  1  0  0  0
 35 68  1  0  0  0
 36 56  1  0  0  0
 36101  1  0  0  0
 37 39  1  0  0  0
 37 47  1  0  0  0
 37 66  1  0  0  0
 37102  1  0  0  0
 38 43  2  0  0  0
 38 46  1  0  0  0
 38 47  1  0  0  0
 39 64  1  0  0  0
 39 67  2  0  0  0
 40 52  1  0  0  0
 40 53  2  0  0  0
 40 58  1  0  0  0
 41103  1  0  0  0
 41104  1  0  0  0
 41105  1  0  0  0
 41 48  1  0  0  0
 42 43  1  0  0  0
 42 66  1  0  0  0
 42106  1  0  0  0
 42107  1  0  0  0
 43 44  1  0  0  0
 44108  1  0  0  0
 45 46  2  0  0  0
 45109  1  0  0  0
 46110  1  0  0  0
 47111  1  0  0  0
 47112  1  0  0  0
 48 56  1  0  0  0
 48 65  1  0  0  0
 48113  1  0  0  0
 49 50  1  0  0  0
 49 53  1  0  0  0
 49 64  1  0  0  0
 49114  1  0  0  0
 50 51  1  0  0  0
 50115  1  0  0  0
 50116  1  0  0  0
 51 52  1  0  0  0
 51117  1  0  0  0
 51118  1  0  0  0
 52119  1  0  0  0
 52120  1  0  0  0
 53 54  1  0  0  0
 54 55  2  0  0  0
 54121  1  0  0  0
 55 57  1  0  0  0
 55122  1  0  0  0
 56 69  2  0  0  0
 57 58  2  0  0  0
 57123  1  0  0  0
 58124  1  0  0  0
 59 60  1  0  0  0
 59 61  1  0  0  0
 59 62  1  0  0  0
 60125  1  0  0  0
 60126  1  0  0  0
 60127  1  0  0  0
 61128  1  0  0  0
 61129  1  0  0  0
 61130  1  0  0  0
 62131  1  0  0  0
 62132  1  0  0  0
 62133  1  0  0  0
 63 65  1  0  0  0
 63134  1  0  0  0
 63135  1  0  0  0
 63136  1  0  0  0
 64137  1  0  0  0
 65138  1  0  0  0
 68 76  1  0  0  0
 71 72  2  0  0  0
 71 79  1  0  0  0
 71139  1  0  0  0
 72 73  1  0  0  0
 72 77  1  0  0  0
 73 75  1  0  0  0
 73140  1  0  0  0
 73141  1  0  0  0
 74 79  1  0  0  0
 74142  1  0  0  0
 74143  1  0  0  0
 75 76  1  0  0  0
 75144  1  0  0  0
 75145  1  0  0  0
 76146  1  0  0  0
 76147  1  0  0  0
 77 78  2  0  0  0
 78 79  1  0  0  0
M  ISO  4   1 100  68 101  74 100  76 101
M  END
> <chiral flag>
0

> <version>
0

> <s_m_source_file>
/data/baiqing/PycharmProjects/Reinvent-master-3.2/result/LINK_invent/BTK/process_docking_weight1_custom_sum_contain_oxygen_bond_distance_aromatic_linkinvent_7_9_3/rearranged_h_0044.sdf

> <i_m_source_file_index>
14

> <r_mmod_Potential_Energy-OPLS-2005>
521.787475585938

> <r_mmod_Stretch_Energy-OPLS-2005>
271.570617675781

> <r_mmod_Bend_Energy-OPLS-2005>
293.396881103516

> <r_mmod_Torsional_Energy-OPLS-2005>
194.052551269531

> <r_mmod_Improper_Torsional_Energy-OPLS-2005>
6.84536504745483

> <r_mmod_Van_der_Waal_Energy-OPLS-2005>
109.153686523438

> <r_mmod_Electrostatic_Energy-OPLS-2005>
-323.347991943359

> <r_mmod_Solvation_Energy-OPLS-2005>
-233.163299560547

> <b_mmod_Minimization_Converged-OPLS-2005>
0

> <r_mmod_RMS_Derivative-OPLS-2005>
0.471777647733688

$$$$
14
                    3D
 Structure written by MMmdl.
153161  0  0  1  0            999 V2000
  -30.6474  -14.8005   20.4128 C   0  0  0  0  0  0
  -30.4172  -12.4784   19.5215 C   0  0  0  0  0  0
  -29.5186  -12.4945   18.2659 C   0  0  0  0  0  0
  -28.0472  -12.3088   18.6744 C   0  0  0  0  0  0
  -27.6335  -13.2473   19.8389 C   0  0  2  0  0  0
  -28.6673  -13.2614   20.9835 C   0  0  0  0  0  0
  -25.2489  -13.8238   20.5703 C   0  0  0  0  0  0
  -24.1800  -13.0467   20.9204 C   0  0  0  0  0  0
  -24.6410  -11.6945   20.8756 C   0  0  0  0  0  0
  -23.9095  -10.4309   21.0429 C   0  0  0  0  0  0
  -24.3634   -9.4214   21.9208 C   0  0  0  0  0  0
  -23.6295   -8.2256   22.0769 C   0  0  0  0  0  0
  -22.4277   -8.0298   21.3559 C   0  0  0  0  0  0
  -21.9922   -9.0278   20.4665 C   0  0  0  0  0  0
  -22.7265  -10.2149   20.3078 C   0  0  0  0  0  0
  -21.6843   -6.0753   22.5297 C   0  0  0  0  0  0
  -21.4012   -6.5655   23.8233 C   0  0  0  0  0  0
  -21.3652   -5.6806   24.9193 C   0  0  0  0  0  0
  -21.6033   -4.3069   24.7238 C   0  0  0  0  0  0
  -21.8806   -3.8159   23.4362 C   0  0  0  0  0  0
  -21.9184   -4.6979   22.3418 C   0  0  0  0  0  0
  -22.7819  -13.5239   21.1859 C   0  0  0  0  0  0
  -22.1649   -4.2165   21.0995 F   0  0  0  0  0  0
  -21.5621   -3.4547   25.7748 F   0  0  0  0  0  0
  -29.9734  -13.5904   20.4078 N   0  0  0  0  0  0
  -26.2909  -12.9471   20.3235 N   0  0  0  0  0  0
  -25.9336  -11.6599   20.5748 N   0  0  0  0  0  0
  -22.0452  -12.8249   22.0415 N   0  0  0  0  0  0
  -25.4202  -15.1971   20.4168 N   0  0  0  0  0  0
  -31.8443  -14.7750   20.1188 O   0  0  0  0  0  0
  -21.6629   -6.8902   21.4260 O   0  0  0  0  0  0
  -22.3506  -14.5545   20.6695 O   0  0  0  0  0  0
  -24.6376  -31.8515   23.1979 C   0  0  0  0  0  0
  -25.9187  -32.4727   23.8334 C   0  0  1  0  0  0
  -27.2052  -27.2117   20.1393 C   0  0  0  0  0  0
  -25.5962  -33.8532   24.2253 N   0  0  0  0  0  0
  -23.4350  -30.4753   21.5424 C   0  0  2  0  0  0
  -24.8809  -28.9198   20.1077 C   0  0  0  0  0  0
  -22.7532  -29.4582   22.4907 C   0  0  0  0  0  0
  -18.0294  -28.1388   22.8485 C   0  0  0  0  0  0
  -24.1475  -36.7259   23.2641 C   0  0  0  0  0  0
  -25.9858  -30.7484   21.3869 C   0  0  0  0  0  0
  -26.0551  -29.3683   20.7258 C   0  0  0  0  0  0
  -27.2202  -28.5273   20.7309 C   0  0  0  0  0  0
  -26.0115  -26.8531   19.4741 C   0  0  0  0  0  0
  -24.8672  -27.6722   19.4688 C   0  0  0  0  0  0
  -23.6563  -29.8152   20.1567 C   0  0  0  0  0  0
  -25.4101  -36.3046   24.0329 C   0  0  1  0  0  0
  -20.5904  -28.3702   23.1259 C   0  0  2  0  0  0
  -20.6780  -26.9413   22.5409 C   0  0  0  0  0  0
  -19.5749  -26.6383   21.5218 C   0  0  0  0  0  0
  -18.1930  -26.7929   22.1631 C   0  0  0  0  0  0
  -19.1548  -28.8866   23.2863 C   0  0  0  0  0  0
  -18.9471  -30.1468   23.8883 C   0  0  0  0  0  0
  -17.6467  -30.6590   24.0563 C   0  0  0  0  0  0
  -25.9060  -34.9422   23.5092 C   0  0  0  0  0  0
  -16.5358  -29.9086   23.6339 C   0  0  0  0  0  0
  -16.7282  -28.6503   23.0362 C   0  0  0  0  0  0
  -26.4534  -31.6574   25.0750 C   0  0  0  0  0  0
  -25.3755  -31.3753   26.1476 C   0  0  0  0  0  0
  -27.0413  -30.2985   24.6294 C   0  0  0  0  0  0
  -27.6071  -32.4329   25.7531 C   0  0  0  0  0  0
  -27.5560  -37.1776   24.8466 C   0  0  0  0  0  0
  -21.4236  -29.3033   22.3636 N   0  0  0  0  0  0
  -26.4269  -37.3754   23.9418 N   0  0  0  0  0  0
  -24.7052  -31.0438   22.0979 N   0  0  0  0  0  0
  -23.4210  -28.8135   23.3034 O   0  0  0  0  0  0
  -28.2637  -26.2614   20.2256 O   0  0  0  0  0  0
  -26.5627  -34.8905   22.4657 O   0  0  0  0  0  0
  -23.5513  -32.1369   23.7233 O   0  0  0  0  0  0
  -29.2488  -16.8164   21.5373 C   0  0  0  0  0  0
  -30.4368  -17.2576   19.5520 C   0  0  0  0  0  0
  -30.0356  -16.2565   20.4897 C   0  0  0  0  0  0
  -28.9859  -18.2405   21.6196 C   0  0  0  0  0  0
  -29.4808  -19.1691   20.6438 C   0  0  0  0  0  0
  -28.2319  -18.7690   22.8277 C   0  0  0  0  0  0
  -29.5691  -20.7792   20.8557 C   0  0  0  0  0  0
  -28.5925  -21.9475   20.2501 C   0  0  0  0  0  0
  -28.9291  -23.5441   20.5261 C   0  0  0  0  0  0
  -27.9666  -24.7765   20.0319 C   0  0  0  0  0  0
  -30.1759  -18.6148   19.6107 N   0  0  0  0  0  0
  -31.4639  -12.5581   19.2257 H   0  0  0  0  0  0
  -30.3359  -11.5224   20.0423 H   0  0  0  0  0  0
  -29.8196  -11.7060   17.5745 H   0  0  0  0  0  0
  -29.6426  -13.4375   17.7325 H   0  0  0  0  0  0
  -27.9292  -11.2693   18.9845 H   0  0  0  0  0  0
  -27.3888  -12.4467   17.8169 H   0  0  0  0  0  0
  -27.6099  -14.2527   19.4178 H   0  0  0  0  0  0
  -28.7032  -12.2970   21.4918 H   0  0  0  0  0  0
  -28.3889  -13.9949   21.7397 H   0  0  0  0  0  0
  -25.2779   -9.5665   22.4794 H   0  0  0  0  0  0
  -23.9982   -7.4642   22.7498 H   0  0  0  0  0  0
  -21.0843   -8.8823   19.8980 H   0  0  0  0  0  0
  -22.3744  -10.9696   19.6192 H   0  0  0  0  0  0
  -21.2014   -7.6163   23.9741 H   0  0  0  0  0  0
  -21.1479   -6.0541   25.9098 H   0  0  0  0  0  0
  -22.0586   -2.7620   23.2865 H   0  0  0  0  0  0
  -22.4012  -11.9905   22.4833 H   0  0  0  0  0  0
  -21.1087  -13.1331   22.2617 H   0  0  0  0  0  0
  -24.6605  -15.8559   20.5464 H   0  0  0  0  0  0
  -26.2817  -15.6386   20.1189 H   0  0  0  0  0  0
  -26.7258  -32.5363   23.1074 H   0  0  0  0  0  0
  -25.0112  -33.9659   25.0401 H   0  0  0  0  0  0
  -22.7343  -31.2998   21.3976 H   0  0  0  0  0  0
  -23.3740  -35.9587   23.3301 H   0  0  0  0  0  0
  -24.3561  -36.8884   22.2055 H   0  0  0  0  0  0
  -23.7224  -37.6454   23.6674 H   0  0  0  0  0  0
  -26.1370  -31.5083   20.6188 H   0  0  0  0  0  0
  -26.8586  -30.7926   22.0274 H   0  0  0  0  0  0
  -28.1121  -28.8603   21.2429 H   0  0  0  0  0  0
  -25.9261  -25.9050   18.9648 H   0  0  0  0  0  0
  -23.9702  -27.3265   18.9729 H   0  0  0  0  0  0
  -23.7899  -30.5967   19.4079 H   0  0  0  0  0  0
  -22.7721  -29.2577   19.8433 H   0  0  0  0  0  0
  -25.1273  -36.1879   25.0820 H   0  0  0  0  0  0
  -20.9995  -28.3278   24.1380 H   0  0  0  0  0  0
  -20.5679  -26.2306   23.3612 H   0  0  0  0  0  0
  -21.6644  -26.7425   22.1193 H   0  0  0  0  0  0
  -19.6902  -25.6296   21.1238 H   0  0  0  0  0  0
  -19.6682  -27.3204   20.6753 H   0  0  0  0  0  0
  -17.4194  -26.6687   21.4035 H   0  0  0  0  0  0
  -18.0324  -26.0072   22.9028 H   0  0  0  0  0  0
  -19.7949  -30.7288   24.2240 H   0  0  0  0  0  0
  -17.5025  -31.6270   24.5164 H   0  0  0  0  0  0
  -15.5359  -30.2985   23.7675 H   0  0  0  0  0  0
  -15.8680  -28.0820   22.7089 H   0  0  0  0  0  0
  -24.5922  -30.7097   25.7824 H   0  0  0  0  0  0
  -24.8970  -32.2947   26.4870 H   0  0  0  0  0  0
  -25.8081  -30.8962   27.0275 H   0  0  0  0  0  0
  -26.3050  -29.6701   24.1278 H   0  0  0  0  0  0
  -27.4036  -29.7269   25.4850 H   0  0  0  0  0  0
  -27.8941  -30.4239   23.9618 H   0  0  0  0  0  0
  -27.2660  -33.3627   26.2095 H   0  0  0  0  0  0
  -28.3902  -32.6891   25.0383 H   0  0  0  0  0  0
  -28.0733  -31.8477   26.5470 H   0  0  0  0  0  0
  -28.2570  -38.0077   24.7507 H   0  0  0  0  0  0
  -28.1062  -36.2608   24.6292 H   0  0  0  0  0  0
  -27.2288  -37.1419   25.8873 H   0  0  0  0  0  0
  -20.9438  -29.8736   21.6811 H   0  0  0  0  0  0
  -26.0137  -38.2819   24.1446 H   0  0  0  0  0  0
  -28.9118  -16.1712   22.3352 H   0  0  0  0  0  0
  -31.0599  -16.9718   18.7175 H   0  0  0  0  0  0
  -27.6642  -17.9802   23.3233 H   0  0  0  0  0  0
  -27.5312  -19.5511   22.5338 H   0  0  0  0  0  0
  -28.9280  -19.1881   23.5552 H   0  0  0  0  0  0
  -30.5765  -21.0432   20.5313 H   0  0  0  0  0  0
  -29.6031  -20.9401   21.9326 H   0  0  0  0  0  0
  -27.5852  -21.7483   20.6183 H   0  0  0  0  0  0
  -28.5343  -21.8053   19.1707 H   0  0  0  0  0  0
  -29.9196  -23.7357   20.1135 H   0  0  0  0  0  0
  -29.0500  -23.6607   21.6033 H   0  0  0  0  0  0
  -27.8185  -24.6360   18.9602 H   0  0  0  0  0  0
  -26.9969  -24.5809   20.4913 H   0  0  0  0  0  0
  1 25  1  0  0  0
  1 30  2  0  0  0
  1 73  1  0  0  0
  2  3  1  0  0  0
  2 25  1  0  0  0
  2 82  1  0  0  0
  2 83  1  0  0  0
  3  4  1  0  0  0
  3 84  1  0  0  0
  3 85  1  0  0  0
  4  5  1  0  0  0
  4 86  1  0  0  0
  4 87  1  0  0  0
  5  6  1  0  0  0
  5 26  1  0  0  0
  5 88  1  0  0  0
  6 25  1  0  0  0
  6 89  1  0  0  0
  6 90  1  0  0  0
  7  8  2  0  0  0
  7 26  1  0  0  0
  7 29  1  0  0  0
  8  9  1  0  0  0
  8 22  1  0  0  0
  9 10  1  0  0  0
  9 27  2  0  0  0
 10 11  2  0  0  0
 10 15  1  0  0  0
 11 12  1  0  0  0
 11 91  1  0  0  0
 12 13  2  0  0  0
 12 92  1  0  0  0
 13 14  1  0  0  0
 13 31  1  0  0  0
 14 15  2  0  0  0
 14 93  1  0  0  0
 15 94  1  0  0  0
 16 17  2  0  0  0
 16 21  1  0  0  0
 16 31  1  0  0  0
 17 18  1  0  0  0
 17 95  1  0  0  0
 18 19  2  0  0  0
 18 96  1  0  0  0
 19 20  1  0  0  0
 19 24  1  0  0  0
 20 21  2  0  0  0
 20 97  1  0  0  0
 21 23  1  0  0  0
 22 28  1  0  0  0
 22 32  2  0  0  0
 26 27  1  0  0  0
 28 98  1  0  0  0
 28 99  1  0  0  0
 29100  1  0  0  0
 29101  1  0  0  0
 33 34  1  0  0  0
 33 66  1  0  0  0
 33 70  2  0  0  0
 34 36  1  0  0  0
 34 59  1  0  0  0
 34102  1  0  0  0
 35 44  2  0  0  0
 35 45  1  0  0  0
 35 68  1  0  0  0
 36 56  1  0  0  0
 36103  1  0  0  0
 37 39  1  0  0  0
 37 47  1  0  0  0
 37 66  1  0  0  0
 37104  1  0  0  0
 38 43  2  0  0  0
 38 46  1  0  0  0
 38 47  1  0  0  0
 39 64  1  0  0  0
 39 67  2  0  0  0
 40 52  1  0  0  0
 40 53  2  0  0  0
 40 58  1  0  0  0
 41105  1  0  0  0
 41106  1  0  0  0
 41107  1  0  0  0
 41 48  1  0  0  0
 42 43  1  0  0  0
 42 66  1  0  0  0
 42108  1  0  0  0
 42109  1  0  0  0
 43 44  1  0  0  0
 44110  1  0  0  0
 45 46  2  0  0  0
 45111  1  0  0  0
 46112  1  0  0  0
 47113  1  0  0  0
 47114  1  0  0  0
 48 56  1  0  0  0
 48 65  1  0  0  0
 48115  1  0  0  0
 49 50  1  0  0  0
 49 53  1  0  0  0
 49 64  1  0  0  0
 49116  1  0  0  0
 50 51  1  0  0  0
 50117  1  0  0  0
 50118  1  0  0  0
 51 52  1  0  0  0
 51119  1  0  0  0
 51120  1  0  0  0
 52121  1  0  0  0
 52122  1  0  0  0
 53 54  1  0  0  0
 54 55  2  0  0  0
 54123  1  0  0  0
 55 57  1  0  0  0
 55124  1  0  0  0
 56 69  2  0  0  0
 57 58  2  0  0  0
 57125  1  0  0  0
 58126  1  0  0  0
 59 60  1  0  0  0
 59 61  1  0  0  0
 59 62  1  0  0  0
 60127  1  0  0  0
 60128  1  0  0  0
 60129  1  0  0  0
 61130  1  0  0  0
 61131  1  0  0  0
 61132  1  0  0  0
 62133  1  0  0  0
 62134  1  0  0  0
 62135  1  0  0  0
 63 65  1  0  0  0
 63136  1  0  0  0
 63137  1  0  0  0
 63138  1  0  0  0
 64139  1  0  0  0
 65140  1  0  0  0
 68 80  1  0  0  0
 71 73  2  0  0  0
 71 74  1  0  0  0
 71141  1  0  0  0
 72 73  1  0  0  0
 72 81  2  0  0  0
 72142  1  0  0  0
 74 75  2  0  0  0
 74 76  1  0  0  0
 75 77  1  0  0  0
 75 81  1  0  0  0
 76143  1  0  0  0
 76144  1  0  0  0
 76145  1  0  0  0
 77 78  1  0  0  0
 77146  1  0  0  0
 77147  1  0  0  0
 78 79  1  0  0  0
 78148  1  0  0  0
 78149  1  0  0  0
 79 80  1  0  0  0
 79150  1  0  0  0
 79151  1  0  0  0
 80152  1  0  0  0
 80153  1  0  0  0
M  ISO  4   1 100  68 101  73 100  80 101
M  END
> <chiral flag>
0

> <version>
0

> <s_m_source_file>
/data/baiqing/PycharmProjects/Reinvent-master-3.2/result/LINK_invent/BTK/process_docking_weight1_custom_sum_contain_oxygen_bond_distance_aromatic_linkinvent_7_9_3/rearranged_h_0044.sdf

> <i_m_source_file_index>
15

> <r_mmod_Potential_Energy-OPLS-2005>
190.110824584961

> <r_mmod_Stretch_Energy-OPLS-2005>
159.789596557617

> <r_mmod_Bend_Energy-OPLS-2005>
213.801208496094

> <r_mmod_Torsional_Energy-OPLS-2005>
200.384338378906

> <r_mmod_Improper_Torsional_Energy-OPLS-2005>
8.38895416259766

> <r_mmod_Van_der_Waal_Energy-OPLS-2005>
138.179382324219

> <r_mmod_Electrostatic_Energy-OPLS-2005>
-448.335357666016

> <r_mmod_Solvation_Energy-OPLS-2005>
-204.407089233398

> <b_mmod_Minimization_Converged-OPLS-2005>
0

> <r_mmod_RMS_Derivative-OPLS-2005>
1.80144643783569

$$$$
15
                    3D
 Structure written by MMmdl.
154162  0  0  1  0            999 V2000
  -30.6363  -14.6464   20.5073 C   0  0  0  0  0  0
  -30.4341  -12.4018   19.4489 C   0  0  0  0  0  0
  -29.5020  -12.4985   18.2213 C   0  0  0  0  0  0
  -28.0286  -12.3273   18.6412 C   0  0  0  0  0  0
  -27.6483  -13.2158   19.8556 C   0  0  2  0  0  0
  -28.6935  -13.0945   20.9855 C   0  0  0  0  0  0
  -25.2548  -13.8169   20.5681 C   0  0  0  0  0  0
  -24.1811  -13.0433   20.9182 C   0  0  0  0  0  0
  -24.6382  -11.6910   20.8745 C   0  0  0  0  0  0
  -23.9056  -10.4287   21.0414 C   0  0  0  0  0  0
  -24.3610   -9.4202   21.9193 C   0  0  0  0  0  0
  -23.6284   -8.2237   22.0768 C   0  0  0  0  0  0
  -22.4271   -8.0274   21.3556 C   0  0  0  0  0  0
  -21.9903   -9.0244   20.4661 C   0  0  0  0  0  0
  -22.7228  -10.2123   20.3067 C   0  0  0  0  0  0
  -21.6844   -6.0728   22.5283 C   0  0  0  0  0  0
  -21.4007   -6.5642   23.8215 C   0  0  0  0  0  0
  -21.3660   -5.6799   24.9182 C   0  0  0  0  0  0
  -21.6044   -4.3060   24.7237 C   0  0  0  0  0  0
  -21.8818   -3.8146   23.4360 C   0  0  0  0  0  0
  -21.9190   -4.6957   22.3409 C   0  0  0  0  0  0
  -22.7842  -13.5238   21.1843 C   0  0  0  0  0  0
  -22.1659   -4.2142   21.0986 F   0  0  0  0  0  0
  -21.5630   -3.4546   25.7750 F   0  0  0  0  0  0
  -30.0022  -13.4353   20.4111 N   0  0  0  0  0  0
  -26.2963  -12.9344   20.3298 N   0  0  0  0  0  0
  -25.9308  -11.6509   20.5759 N   0  0  0  0  0  0
  -22.0487  -12.8234   22.0405 N   0  0  0  0  0  0
  -25.4267  -15.1882   20.4087 N   0  0  0  0  0  0
  -31.8159  -14.7762   20.1700 O   0  0  0  0  0  0
  -21.6639   -6.8870   21.4247 O   0  0  0  0  0  0
  -22.3539  -14.5544   20.6685 O   0  0  0  0  0  0
  -24.6257  -31.8571   23.2024 C   0  0  0  0  0  0
  -25.9088  -32.4761   23.8353 C   0  0  1  0  0  0
  -27.2297  -27.3192   20.0962 C   0  0  0  0  0  0
  -25.5893  -33.8564   24.2279 N   0  0  0  0  0  0
  -23.4189  -30.4805   21.5465 C   0  0  2  0  0  0
  -24.8658  -28.9379   20.1094 C   0  0  0  0  0  0
  -22.7460  -29.4597   22.4946 C   0  0  0  0  0  0
  -18.0270  -28.1377   22.8497 C   0  0  0  0  0  0
  -24.1490  -36.7311   23.2643 C   0  0  0  0  0  0
  -25.9603  -30.7871   21.3727 C   0  0  0  0  0  0
  -26.0344  -29.4143   20.7154 C   0  0  0  0  0  0
  -27.2138  -28.6126   20.7064 C   0  0  0  0  0  0
  -26.0268  -26.8869   19.4900 C   0  0  0  0  0  0
  -24.8640  -27.6799   19.4912 C   0  0  0  0  0  0
  -23.6328  -29.8155   20.1623 C   0  0  0  0  0  0
  -25.4105  -36.3079   24.0333 C   0  0  1  0  0  0
  -20.5874  -28.3671   23.1305 C   0  0  2  0  0  0
  -20.6762  -26.9399   22.5421 C   0  0  0  0  0  0
  -19.5736  -26.6378   21.5221 C   0  0  0  0  0  0
  -18.1912  -26.7926   22.1624 C   0  0  0  0  0  0
  -19.1525  -28.8837   23.2896 C   0  0  0  0  0  0
  -18.9443  -30.1445   23.8905 C   0  0  0  0  0  0
  -17.6445  -30.6585   24.0561 C   0  0  0  0  0  0
  -25.9027  -34.9442   23.5107 C   0  0  0  0  0  0
  -16.5332  -29.9081   23.6341 C   0  0  0  0  0  0
  -16.7255  -28.6499   23.0368 C   0  0  0  0  0  0
  -26.4486  -31.6571   25.0712 C   0  0  0  0  0  0
  -25.3721  -31.3701   26.1442 C   0  0  0  0  0  0
  -27.0331  -30.2999   24.6144 C   0  0  0  0  0  0
  -27.6036  -32.4315   25.7475 C   0  0  0  0  0  0
  -27.5578  -37.1798   24.8457 C   0  0  0  0  0  0
  -21.4169  -29.3028   22.3696 N   0  0  0  0  0  0
  -26.4289  -37.3764   23.9403 N   0  0  0  0  0  0
  -24.6878  -31.0574   22.0986 N   0  0  0  0  0  0
  -23.4183  -28.8126   23.3016 O   0  0  0  0  0  0
  -28.3659  -26.4949   20.1617 O   0  0  0  0  0  0
  -26.5605  -34.8905   22.4678 O   0  0  0  0  0  0
  -23.5427  -32.1378   23.7357 O   0  0  0  0  0  0
  -30.1243  -23.2736   19.7336 C   0  0  0  0  0  0
  -28.8486  -23.8814   19.9083 C   0  0  0  0  0  0
  -28.1170  -21.8125   20.7723 C   0  0  0  0  0  0
  -29.4028  -21.2076   20.5978 C   0  0  0  0  0  0
  -26.9760  -21.0424   21.4044 C   0  0  0  0  0  0
  -29.8258  -19.8063   21.1931 C   0  0  0  0  0  0
  -28.5329  -25.3034   19.3005 C   0  0  0  0  0  0
  -29.5454  -18.4074   20.4778 C   0  0  0  0  0  0
  -30.2975  -17.1526   21.1341 C   0  0  0  0  0  0
  -30.3971  -21.9717   20.0641 N   0  0  0  0  0  0
  -27.8406  -23.1149   20.4221 N   0  0  0  0  0  0
  -29.8661  -15.7381   20.8247 N   0  0  0  0  0  0
  -31.4734  -12.5293   19.1409 H   0  0  0  0  0  0
  -30.3740  -11.4110   19.9036 H   0  0  0  0  0  0
  -29.7702  -11.7425   17.4821 H   0  0  0  0  0  0
  -29.6334  -13.4650   17.7324 H   0  0  0  0  0  0
  -27.8812  -11.2769   18.8972 H   0  0  0  0  0  0
  -27.3661  -12.5298   17.7990 H   0  0  0  0  0  0
  -27.6613  -14.2450   19.4978 H   0  0  0  0  0  0
  -28.7101  -12.0788   21.3844 H   0  0  0  0  0  0
  -28.4382  -13.7422   21.8252 H   0  0  0  0  0  0
  -25.2754   -9.5675   22.4771 H   0  0  0  0  0  0
  -23.9985   -7.4639   22.7500 H   0  0  0  0  0  0
  -21.0833   -8.8765   19.8979 H   0  0  0  0  0  0
  -22.3685  -10.9661   19.6180 H   0  0  0  0  0  0
  -21.1996   -7.6155   23.9708 H   0  0  0  0  0  0
  -21.1487   -6.0539   25.9080 H   0  0  0  0  0  0
  -22.0595   -2.7605   23.2868 H   0  0  0  0  0  0
  -22.4093  -11.9881   22.4779 H   0  0  0  0  0  0
  -21.1124  -13.1297   22.2653 H   0  0  0  0  0  0
  -24.6584  -15.8418   20.5132 H   0  0  0  0  0  0
  -26.2734  -15.6262   20.0681 H   0  0  0  0  0  0
  -26.7138  -32.5440   23.1098 H   0  0  0  0  0  0
  -25.0008  -33.9686   25.0400 H   0  0  0  0  0  0
  -22.7147  -31.3029   21.4048 H   0  0  0  0  0  0
  -23.3740  -35.9654   23.3279 H   0  0  0  0  0  0
  -24.3595  -36.8984   22.2066 H   0  0  0  0  0  0
  -23.7261  -37.6507   23.6690 H   0  0  0  0  0  0
  -26.0827  -31.5480   20.6006 H   0  0  0  0  0  0
  -26.8452  -30.8452   21.9944 H   0  0  0  0  0  0
  -28.1113  -28.9713   21.1916 H   0  0  0  0  0  0
  -25.9284  -25.9129   19.0402 H   0  0  0  0  0  0
  -23.9646  -27.3045   19.0238 H   0  0  0  0  0  0
  -23.7468  -30.5908   19.4047 H   0  0  0  0  0  0
  -22.7554  -29.2395   19.8616 H   0  0  0  0  0  0
  -25.1299  -36.1935   25.0833 H   0  0  0  0  0  0
  -20.9951  -28.3244   24.1434 H   0  0  0  0  0  0
  -20.5691  -26.2266   23.3606 H   0  0  0  0  0  0
  -21.6626  -26.7434   22.1204 H   0  0  0  0  0  0
  -19.6891  -25.6288   21.1254 H   0  0  0  0  0  0
  -19.6691  -27.3180   20.6746 H   0  0  0  0  0  0
  -17.4187  -26.6678   21.4017 H   0  0  0  0  0  0
  -18.0303  -26.0065   22.9016 H   0  0  0  0  0  0
  -19.7910  -30.7263   24.2284 H   0  0  0  0  0  0
  -17.4992  -31.6279   24.5144 H   0  0  0  0  0  0
  -15.5332  -30.2988   23.7656 H   0  0  0  0  0  0
  -15.8653  -28.0816   22.7095 H   0  0  0  0  0  0
  -24.5876  -30.7082   25.7776 H   0  0  0  0  0  0
  -24.8913  -32.2859   26.4878 H   0  0  0  0  0  0
  -25.8042  -30.8863   27.0209 H   0  0  0  0  0  0
  -26.2891  -29.6732   24.1201 H   0  0  0  0  0  0
  -27.4106  -29.7277   25.4629 H   0  0  0  0  0  0
  -27.8740  -30.4331   23.9328 H   0  0  0  0  0  0
  -27.2642  -33.3645   26.1997 H   0  0  0  0  0  0
  -28.3843  -32.6829   25.0277 H   0  0  0  0  0  0
  -28.0685  -31.8468   26.5425 H   0  0  0  0  0  0
  -28.2567  -38.0118   24.7520 H   0  0  0  0  0  0
  -28.1112  -36.2646   24.6280 H   0  0  0  0  0  0
  -27.2297  -37.1451   25.8861 H   0  0  0  0  0  0
  -20.9321  -29.8796   21.6961 H   0  0  0  0  0  0
  -26.0183  -38.2849   24.1400 H   0  0  0  0  0  0
  -30.9351  -23.8329   19.2898 H   0  0  0  0  0  0
  -27.1853  -20.8599   22.4588 H   0  0  0  0  0  0
  -26.8450  -20.0788   20.9106 H   0  0  0  0  0  0
  -26.0338  -21.5866   21.3335 H   0  0  0  0  0  0
  -29.4150  -19.7581   22.2018 H   0  0  0  0  0  0
  -30.9031  -19.8626   21.3496 H   0  0  0  0  0  0
  -27.7553  -25.1798   18.5523 H   0  0  0  0  0  0
  -29.3970  -25.5558   18.6849 H   0  0  0  0  0  0
  -29.8435  -18.4824   19.4323 H   0  0  0  0  0  0
  -28.4698  -18.2314   20.4723 H   0  0  0  0  0  0
  -30.1969  -17.2463   22.2163 H   0  0  0  0  0  0
  -31.3670  -17.2511   20.9423 H   0  0  0  0  0  0
  -28.8979  -15.5222   21.0128 H   0  0  0  0  0  0
  1 25  1  0  0  0
  1 30  2  0  0  0
  1 82  1  0  0  0
  2  3  1  0  0  0
  2 25  1  0  0  0
  2 83  1  0  0  0
  2 84  1  0  0  0
  3  4  1  0  0  0
  3 85  1  0  0  0
  3 86  1  0  0  0
  4  5  1  0  0  0
  4 87  1  0  0  0
  4 88  1  0  0  0
  5  6  1  0  0  0
  5 26  1  0  0  0
  5 89  1  0  0  0
  6 25  1  0  0  0
  6 90  1  0  0  0
  6 91  1  0  0  0
  7  8  2  0  0  0
  7 26  1  0  0  0
  7 29  1  0  0  0
  8  9  1  0  0  0
  8 22  1  0  0  0
  9 10  1  0  0  0
  9 27  2  0  0  0
 10 11  2  0  0  0
 10 15  1  0  0  0
 11 12  1  0  0  0
 11 92  1  0  0  0
 12 13  2  0  0  0
 12 93  1  0  0  0
 13 14  1  0  0  0
 13 31  1  0  0  0
 14 15  2  0  0  0
 14 94  1  0  0  0
 15 95  1  0  0  0
 16 17  2  0  0  0
 16 21  1  0  0  0
 16 31  1  0  0  0
 17 18  1  0  0  0
 17 96  1  0  0  0
 18 19  2  0  0  0
 18 97  1  0  0  0
 19 20  1  0  0  0
 19 24  1  0  0  0
 20 21  2  0  0  0
 20 98  1  0  0  0
 21 23  1  0  0  0
 22 28  1  0  0  0
 22 32  2  0  0  0
 26 27  1  0  0  0
 28 99  1  0  0  0
 28100  1  0  0  0
 29101  1  0  0  0
 29102  1  0  0  0
 33 34  1  0  0  0
 33 66  1  0  0  0
 33 70  2  0  0  0
 34 36  1  0  0  0
 34 59  1  0  0  0
 34103  1  0  0  0
 35 44  2  0  0  0
 35 45  1  0  0  0
 35 68  1  0  0  0
 36 56  1  0  0  0
 36104  1  0  0  0
 37 39  1  0  0  0
 37 47  1  0  0  0
 37 66  1  0  0  0
 37105  1  0  0  0
 38 43  2  0  0  0
 38 46  1  0  0  0
 38 47  1  0  0  0
 39 64  1  0  0  0
 39 67  2  0  0  0
 40 52  1  0  0  0
 40 53  2  0  0  0
 40 58  1  0  0  0
 41106  1  0  0  0
 41107  1  0  0  0
 41108  1  0  0  0
 41 48  1  0  0  0
 42 43  1  0  0  0
 42 66  1  0  0  0
 42109  1  0  0  0
 42110  1  0  0  0
 43 44  1  0  0  0
 44111  1  0  0  0
 45 46  2  0  0  0
 45112  1  0  0  0
 46113  1  0  0  0
 47114  1  0  0  0
 47115  1  0  0  0
 48 56  1  0  0  0
 48 65  1  0  0  0
 48116  1  0  0  0
 49 50  1  0  0  0
 49 53  1  0  0  0
 49 64  1  0  0  0
 49117  1  0  0  0
 50 51  1  0  0  0
 50118  1  0  0  0
 50119  1  0  0  0
 51 52  1  0  0  0
 51120  1  0  0  0
 51121  1  0  0  0
 52122  1  0  0  0
 52123  1  0  0  0
 53 54  1  0  0  0
 54 55  2  0  0  0
 54124  1  0  0  0
 55 57  1  0  0  0
 55125  1  0  0  0
 56 69  2  0  0  0
 57 58  2  0  0  0
 57126  1  0  0  0
 58127  1  0  0  0
 59 60  1  0  0  0
 59 61  1  0  0  0
 59 62  1  0  0  0
 60128  1  0  0  0
 60129  1  0  0  0
 60130  1  0  0  0
 61131  1  0  0  0
 61132  1  0  0  0
 61133  1  0  0  0
 62134  1  0  0  0
 62135  1  0  0  0
 62136  1  0  0  0
 63 65  1  0  0  0
 63137  1  0  0  0
 63138  1  0  0  0
 63139  1  0  0  0
 64140  1  0  0  0
 65141  1  0  0  0
 68 77  1  0  0  0
 71 72  2  0  0  0
 71 80  1  0  0  0
 71142  1  0  0  0
 72 77  1  0  0  0
 72 81  1  0  0  0
 73 74  1  0  0  0
 73 75  1  0  0  0
 73 81  2  0  0  0
 74 76  1  0  0  0
 74 80  2  0  0  0
 75143  1  0  0  0
 75144  1  0  0  0
 75145  1  0  0  0
 76 78  1  0  0  0
 76146  1  0  0  0
 76147  1  0  0  0
 77148  1  0  0  0
 77149  1  0  0  0
 78 79  1  0  0  0
 78150  1  0  0  0
 78151  1  0  0  0
 79 82  1  0  0  0
 79152  1  0  0  0
 79153  1  0  0  0
 82154  1  0  0  0
M  ISO  4   1 100  68 101  77 101  82 100
M  END
> <chiral flag>
0

> <version>
0

> <s_m_source_file>
/data/baiqing/PycharmProjects/Reinvent-master-3.2/result/LINK_invent/BTK/process_docking_weight1_custom_sum_contain_oxygen_bond_distance_aromatic_linkinvent_7_9_3/rearranged_h_0044.sdf

> <i_m_source_file_index>
16

> <r_mmod_Potential_Energy-OPLS-2005>
115.74626159668

> <r_mmod_Stretch_Energy-OPLS-2005>
86.7920150756836

> <r_mmod_Bend_Energy-OPLS-2005>
154.914474487305

> <r_mmod_Torsional_Energy-OPLS-2005>
207.060653686523

> <r_mmod_Improper_Torsional_Energy-OPLS-2005>
6.10212755203247

> <r_mmod_Van_der_Waal_Energy-OPLS-2005>
146.113616943359

> <r_mmod_Electrostatic_Energy-OPLS-2005>
-303.426574707031

> <r_mmod_Solvation_Energy-OPLS-2005>
-231.705520629883

> <b_mmod_Minimization_Converged-OPLS-2005>
0

> <r_mmod_RMS_Derivative-OPLS-2005>
1.94964790344238

$$$$
16
                    3D
 Structure written by MMmdl.
157165  0  0  1  0            999 V2000
  -30.6945  -14.4718   20.6013 C   0  0  0  0  0  0
  -30.4238  -12.3253   19.3991 C   0  0  0  0  0  0
  -29.4809  -12.5104   18.1934 C   0  0  0  0  0  0
  -28.0056  -12.3668   18.6154 C   0  0  0  0  0  0
  -27.6587  -13.2045   19.8737 C   0  0  2  0  0  0
  -28.7037  -12.9714   20.9852 C   0  0  0  0  0  0
  -25.2584  -13.8163   20.5689 C   0  0  0  0  0  0
  -24.1835  -13.0434   20.9191 C   0  0  0  0  0  0
  -24.6395  -11.6908   20.8765 C   0  0  0  0  0  0
  -23.9071  -10.4290   21.0433 C   0  0  0  0  0  0
  -24.3621   -9.4198   21.9206 C   0  0  0  0  0  0
  -23.6292   -8.2235   22.0765 C   0  0  0  0  0  0
  -22.4274   -8.0287   21.3551 C   0  0  0  0  0  0
  -21.9916   -9.0264   20.4657 C   0  0  0  0  0  0
  -22.7247  -10.2146   20.3073 C   0  0  0  0  0  0
  -21.6849   -6.0743   22.5277 C   0  0  0  0  0  0
  -21.4010   -6.5644   23.8214 C   0  0  0  0  0  0
  -21.3667   -5.6796   24.9180 C   0  0  0  0  0  0
  -21.6040   -4.3056   24.7223 C   0  0  0  0  0  0
  -21.8820   -3.8155   23.4341 C   0  0  0  0  0  0
  -21.9188   -4.6971   22.3397 C   0  0  0  0  0  0
  -22.7861  -13.5239   21.1840 C   0  0  0  0  0  0
  -22.1658   -4.2156   21.0972 F   0  0  0  0  0  0
  -21.5632   -3.4541   25.7738 F   0  0  0  0  0  0
  -30.0270  -13.2989   20.4273 N   0  0  0  0  0  0
  -26.3014  -12.9327   20.3377 N   0  0  0  0  0  0
  -25.9319  -11.6493   20.5788 N   0  0  0  0  0  0
  -22.0511  -12.8227   22.0406 N   0  0  0  0  0  0
  -25.4311  -15.1880   20.4122 N   0  0  0  0  0  0
  -31.8187  -14.6838   20.1370 O   0  0  0  0  0  0
  -21.6634   -6.8889   21.4240 O   0  0  0  0  0  0
  -22.3539  -14.5542   20.6692 O   0  0  0  0  0  0
  -24.6178  -31.8660   23.2085 C   0  0  0  0  0  0
  -25.9041  -32.4821   23.8399 C   0  0  1  0  0  0
  -27.2259  -27.3987   20.0940 C   0  0  0  0  0  0
  -25.5867  -33.8622   24.2310 N   0  0  0  0  0  0
  -23.4078  -30.4895   21.5509 C   0  0  2  0  0  0
  -24.8508  -28.9566   20.1126 C   0  0  0  0  0  0
  -22.7454  -29.4639   22.4984 C   0  0  0  0  0  0
  -18.0284  -28.1381   22.8479 C   0  0  0  0  0  0
  -24.1484  -36.7337   23.2635 C   0  0  0  0  0  0
  -25.9402  -30.8207   21.3674 C   0  0  0  0  0  0
  -26.0155  -29.4547   20.7081 C   0  0  0  0  0  0
  -27.2065  -28.6851   20.6912 C   0  0  0  0  0  0
  -26.0334  -26.9222   19.4973 C   0  0  0  0  0  0
  -24.8556  -27.6906   19.5052 C   0  0  0  0  0  0
  -23.6173  -29.8297   20.1634 C   0  0  0  0  0  0
  -25.4103  -36.3118   24.0332 C   0  0  1  0  0  0
  -20.5872  -28.3676   23.1310 C   0  0  2  0  0  0
  -20.6782  -26.9415   22.5409 C   0  0  0  0  0  0
  -19.5762  -26.6389   21.5204 C   0  0  0  0  0  0
  -18.1939  -26.7918   22.1616 C   0  0  0  0  0  0
  -19.1529  -28.8842   23.2887 C   0  0  0  0  0  0
  -18.9456  -30.1440   23.8922 C   0  0  0  0  0  0
  -17.6459  -30.6586   24.0555 C   0  0  0  0  0  0
  -25.9032  -34.9482   23.5131 C   0  0  0  0  0  0
  -16.5352  -29.9091   23.6301 C   0  0  0  0  0  0
  -16.7271  -28.6497   23.0331 C   0  0  0  0  0  0
  -26.4462  -31.6610   25.0731 C   0  0  0  0  0  0
  -25.3720  -31.3673   26.1466 C   0  0  0  0  0  0
  -27.0303  -30.3059   24.6110 C   0  0  0  0  0  0
  -27.6061  -32.4327   25.7480 C   0  0  0  0  0  0
  -27.5605  -37.1806   24.8462 C   0  0  0  0  0  0
  -21.4179  -29.3027   22.3723 N   0  0  0  0  0  0
  -26.4307  -37.3794   23.9406 N   0  0  0  0  0  0
  -24.6735  -31.0742   22.0999 N   0  0  0  0  0  0
  -23.4226  -28.8174   23.3021 O   0  0  0  0  0  0
  -28.3891  -26.6417   20.1062 O   0  0  0  0  0  0
  -26.5631  -34.8943   22.4717 O   0  0  0  0  0  0
  -23.5357  -32.1422   23.7459 O   0  0  0  0  0  0
  -29.6195  -20.8512   19.3511 C   0  0  0  0  0  0
  -29.3942  -20.1802   20.5798 C   0  0  0  0  0  0
  -29.2382  -22.2424   21.6422 C   0  0  0  0  0  0
  -29.4709  -22.9193   20.4111 C   0  0  0  0  0  0
  -28.9876  -22.9834   22.9435 C   0  0  0  0  0  0
  -29.2939  -18.6480   20.6842 C   0  0  0  0  0  0
  -29.5794  -24.4553   20.3120 C   0  0  0  0  0  0
  -30.6283  -17.9265   21.0091 C   0  0  0  0  0  0
  -30.5521  -16.6411   21.8858 C   0  0  0  0  0  0
  -28.2565  -25.2012   20.0013 C   0  0  0  0  0  0
  -29.6595  -22.2098   19.2650 N   0  0  0  0  0  0
  -29.2122  -20.8860   21.7256 N   0  0  0  0  0  0
  -30.0090  -15.4257   21.2604 N   0  0  0  0  0  0
  -31.4625  -12.4490   19.0878 H   0  0  0  0  0  0
  -30.3483  -11.3122   19.7955 H   0  0  0  0  0  0
  -29.7154  -11.7851   17.4134 H   0  0  0  0  0  0
  -29.6370  -13.4955   17.7519 H   0  0  0  0  0  0
  -27.8174  -11.3107   18.8123 H   0  0  0  0  0  0
  -27.3475  -12.6424   17.7900 H   0  0  0  0  0  0
  -27.7062  -14.2530   19.5800 H   0  0  0  0  0  0
  -28.6916  -11.9277   21.3017 H   0  0  0  0  0  0
  -28.4598  -13.5443   21.8803 H   0  0  0  0  0  0
  -25.2776   -9.5665   22.4776 H   0  0  0  0  0  0
  -24.0000   -7.4628   22.7492 H   0  0  0  0  0  0
  -21.0845   -8.8803   19.8969 H   0  0  0  0  0  0
  -22.3724  -10.9693   19.6187 H   0  0  0  0  0  0
  -21.2009   -7.6156   23.9721 H   0  0  0  0  0  0
  -21.1484   -6.0529   25.9083 H   0  0  0  0  0  0
  -22.0593   -2.7615   23.2840 H   0  0  0  0  0  0
  -22.4135  -11.9871   22.4751 H   0  0  0  0  0  0
  -21.1154  -13.1267   22.2673 H   0  0  0  0  0  0
  -24.6680  -15.8459   20.5311 H   0  0  0  0  0  0
  -26.2855  -15.6277   20.0933 H   0  0  0  0  0  0
  -26.7115  -32.5527   23.1170 H   0  0  0  0  0  0
  -24.9934  -33.9783   25.0400 H   0  0  0  0  0  0
  -22.6944  -31.3049   21.4177 H   0  0  0  0  0  0
  -23.3748  -35.9668   23.3281 H   0  0  0  0  0  0
  -24.3581  -36.8976   22.2051 H   0  0  0  0  0  0
  -23.7248  -37.6534   23.6686 H   0  0  0  0  0  0
  -26.0555  -31.5905   20.6034 H   0  0  0  0  0  0
  -26.8256  -30.8696   21.9895 H   0  0  0  0  0  0
  -28.1071  -29.0639   21.1550 H   0  0  0  0  0  0
  -25.9847  -25.9556   19.0189 H   0  0  0  0  0  0
  -23.9564  -27.2993   19.0471 H   0  0  0  0  0  0
  -23.7332  -30.6105   19.4105 H   0  0  0  0  0  0
  -22.7377  -29.2576   19.8628 H   0  0  0  0  0  0
  -25.1282  -36.1979   25.0825 H   0  0  0  0  0  0
  -20.9941  -28.3263   24.1437 H   0  0  0  0  0  0
  -20.5683  -26.2301   23.3598 H   0  0  0  0  0  0
  -21.6663  -26.7474   22.1211 H   0  0  0  0  0  0
  -19.6931  -25.6297   21.1250 H   0  0  0  0  0  0
  -19.6701  -27.3189   20.6725 H   0  0  0  0  0  0
  -17.4202  -26.6629   21.4027 H   0  0  0  0  0  0
  -18.0349  -26.0075   22.9029 H   0  0  0  0  0  0
  -19.7941  -30.7213   24.2353 H   0  0  0  0  0  0
  -17.5023  -31.6271   24.5150 H   0  0  0  0  0  0
  -15.5350  -30.2997   23.7620 H   0  0  0  0  0  0
  -15.8668  -28.0826   22.7045 H   0  0  0  0  0  0
  -24.5924  -30.7005   25.7757 H   0  0  0  0  0  0
  -24.8871  -32.2796   26.4955 H   0  0  0  0  0  0
  -25.8076  -30.8807   27.0205 H   0  0  0  0  0  0
  -26.2843  -29.6790   24.1208 H   0  0  0  0  0  0
  -27.4104  -29.7334   25.4578 H   0  0  0  0  0  0
  -27.8676  -30.4369   23.9251 H   0  0  0  0  0  0
  -27.2727  -33.3642   26.2079 H   0  0  0  0  0  0
  -28.3862  -32.6845   25.0279 H   0  0  0  0  0  0
  -28.0741  -31.8416   26.5359 H   0  0  0  0  0  0
  -28.2591  -38.0138   24.7559 H   0  0  0  0  0  0
  -28.1148  -36.2674   24.6245 H   0  0  0  0  0  0
  -27.2340  -37.1386   25.8869 H   0  0  0  0  0  0
  -20.9362  -29.8765   21.6944 H   0  0  0  0  0  0
  -26.0209  -38.2884   24.1401 H   0  0  0  0  0  0
  -29.7651  -20.2990   18.4326 H   0  0  0  0  0  0
  -28.1168  -23.6346   22.8583 H   0  0  0  0  0  0
  -29.8472  -23.5942   23.2187 H   0  0  0  0  0  0
  -28.7999  -22.2871   23.7620 H   0  0  0  0  0  0
  -28.8785  -18.2445   19.7601 H   0  0  0  0  0  0
  -28.5589  -18.4179   21.4568 H   0  0  0  0  0  0
  -30.3054  -24.6952   19.5366 H   0  0  0  0  0  0
  -30.0058  -24.8471   21.2357 H   0  0  0  0  0  0
  -31.2355  -18.6312   21.5780 H   0  0  0  0  0  0
  -31.1911  -17.7409   20.0931 H   0  0  0  0  0  0
  -29.9552  -16.8469   22.7756 H   0  0  0  0  0  0
  -31.5494  -16.4091   22.2639 H   0  0  0  0  0  0
  -27.4959  -24.8611   20.7058 H   0  0  0  0  0  0
  -27.9254  -24.9152   19.0022 H   0  0  0  0  0  0
  -29.0695  -15.1701   21.5260 H   0  0  0  0  0  0
  1 25  1  0  0  0
  1 30  2  0  0  0
  1 83  1  0  0  0
  2  3  1  0  0  0
  2 25  1  0  0  0
  2 84  1  0  0  0
  2 85  1  0  0  0
  3  4  1  0  0  0
  3 86  1  0  0  0
  3 87  1  0  0  0
  4  5  1  0  0  0
  4 88  1  0  0  0
  4 89  1  0  0  0
  5  6  1  0  0  0
  5 26  1  0  0  0
  5 90  1  0  0  0
  6 25  1  0  0  0
  6 91  1  0  0  0
  6 92  1  0  0  0
  7  8  2  0  0  0
  7 26  1  0  0  0
  7 29  1  0  0  0
  8  9  1  0  0  0
  8 22  1  0  0  0
  9 10  1  0  0  0
  9 27  2  0  0  0
 10 11  2  0  0  0
 10 15  1  0  0  0
 11 12  1  0  0  0
 11 93  1  0  0  0
 12 13  2  0  0  0
 12 94  1  0  0  0
 13 14  1  0  0  0
 13 31  1  0  0  0
 14 15  2  0  0  0
 14 95  1  0  0  0
 15 96  1  0  0  0
 16 17  2  0  0  0
 16 21  1  0  0  0
 16 31  1  0  0  0
 17 18  1  0  0  0
 17 97  1  0  0  0
 18 19  2  0  0  0
 18 98  1  0  0  0
 19 20  1  0  0  0
 19 24  1  0  0  0
 20 21  2  0  0  0
 20 99  1  0  0  0
 21 23  1  0  0  0
 22 28  1  0  0  0
 22 32  2  0  0  0
 26 27  1  0  0  0
 28100  1  0  0  0
 28101  1  0  0  0
 29102  1  0  0  0
 29103  1  0  0  0
 33 34  1  0  0  0
 33 66  1  0  0  0
 33 70  2  0  0  0
 34 36  1  0  0  0
 34 59  1  0  0  0
 34104  1  0  0  0
 35 44  2  0  0  0
 35 45  1  0  0  0
 35 68  1  0  0  0
 36 56  1  0  0  0
 36105  1  0  0  0
 37 39  1  0  0  0
 37 47  1  0  0  0
 37 66  1  0  0  0
 37106  1  0  0  0
 38 43  2  0  0  0
 38 46  1  0  0  0
 38 47  1  0  0  0
 39 64  1  0  0  0
 39 67  2  0  0  0
 40 52  1  0  0  0
 40 53  2  0  0  0
 40 58  1  0  0  0
 41107  1  0  0  0
 41108  1  0  0  0
 41109  1  0  0  0
 41 48  1  0  0  0
 42 43  1  0  0  0
 42 66  1  0  0  0
 42110  1  0  0  0
 42111  1  0  0  0
 43 44  1  0  0  0
 44112  1  0  0  0
 45 46  2  0  0  0
 45113  1  0  0  0
 46114  1  0  0  0
 47115  1  0  0  0
 47116  1  0  0  0
 48 56  1  0  0  0
 48 65  1  0  0  0
 48117  1  0  0  0
 49 50  1  0  0  0
 49 53  1  0  0  0
 49 64  1  0  0  0
 49118  1  0  0  0
 50 51  1  0  0  0
 50119  1  0  0  0
 50120  1  0  0  0
 51 52  1  0  0  0
 51121  1  0  0  0
 51122  1  0  0  0
 52123  1  0  0  0
 52124  1  0  0  0
 53 54  1  0  0  0
 54 55  2  0  0  0
 54125  1  0  0  0
 55 57  1  0  0  0
 55126  1  0  0  0
 56 69  2  0  0  0
 57 58  2  0  0  0
 57127  1  0  0  0
 58128  1  0  0  0
 59 60  1  0  0  0
 59 61  1  0  0  0
 59 62  1  0  0  0
 60129  1  0  0  0
 60130  1  0  0  0
 60131  1  0  0  0
 61132  1  0  0  0
 61133  1  0  0  0
 61134  1  0  0  0
 62135  1  0  0  0
 62136  1  0  0  0
 62137  1  0  0  0
 63 65  1  0  0  0
 63138  1  0  0  0
 63139  1  0  0  0
 63140  1  0  0  0
 64141  1  0  0  0
 65142  1  0  0  0
 68 80  1  0  0  0
 71 72  2  0  0  0
 71 81  1  0  0  0
 71143  1  0  0  0
 72 76  1  0  0  0
 72 82  1  0  0  0
 73 74  1  0  0  0
 73 75  1  0  0  0
 73 82  2  0  0  0
 74 77  1  0  0  0
 74 81  2  0  0  0
 75144  1  0  0  0
 75145  1  0  0  0
 75146  1  0  0  0
 76 78  1  0  0  0
 76147  1  0  0  0
 76148  1  0  0  0
 77 80  1  0  0  0
 77149  1  0  0  0
 77150  1  0  0  0
 78 79  1  0  0  0
 78151  1  0  0  0
 78152  1  0  0  0
 79 83  1  0  0  0
 79153  1  0  0  0
 79154  1  0  0  0
 80155  1  0  0  0
 80156  1  0  0  0
 83157  1  0  0  0
M  ISO  4   1 100  68 101  80 101  83 100
M  END
> <chiral flag>
0

> <version>
0

> <s_m_source_file>
/data/baiqing/PycharmProjects/Reinvent-master-3.2/result/LINK_invent/BTK/process_docking_weight1_custom_sum_contain_oxygen_bond_distance_aromatic_linkinvent_7_9_3/rearranged_h_0044.sdf

> <i_m_source_file_index>
17

> <r_mmod_Potential_Energy-OPLS-2005>
-52.2802467346191

> <r_mmod_Stretch_Energy-OPLS-2005>
43.9238395690918

> <r_mmod_Bend_Energy-OPLS-2005>
103.020957946777

> <r_mmod_Torsional_Energy-OPLS-2005>
192.534652709961

> <r_mmod_Improper_Torsional_Energy-OPLS-2005>
2.65548205375671

> <r_mmod_Van_der_Waal_Energy-OPLS-2005>
153.46044921875

> <r_mmod_Electrostatic_Energy-OPLS-2005>
-340.136383056641

> <r_mmod_Solvation_Energy-OPLS-2005>
-223.224716186523

> <b_mmod_Minimization_Converged-OPLS-2005>
0

> <r_mmod_RMS_Derivative-OPLS-2005>
2.36673736572266

$$$$
17
                    3D
 Structure written by MMmdl.
160168  0  0  1  0            999 V2000
  -30.6403  -14.5752   20.5404 C   0  0  0  0  0  0
  -30.4356  -12.3676   19.4249 C   0  0  0  0  0  0
  -29.5005  -12.5102   18.2047 C   0  0  0  0  0  0
  -28.0212  -12.3529   18.6166 C   0  0  0  0  0  0
  -27.6509  -13.2102   19.8582 C   0  0  2  0  0  0
  -28.6963  -13.0263   20.9793 C   0  0  0  0  0  0
  -25.2544  -13.8151   20.5666 C   0  0  0  0  0  0
  -24.1811  -13.0416   20.9190 C   0  0  0  0  0  0
  -24.6366  -11.6889   20.8711 C   0  0  0  0  0  0
  -23.9035  -10.4272   21.0387 C   0  0  0  0  0  0
  -24.3599   -9.4194   21.9168 C   0  0  0  0  0  0
  -23.6287   -8.2226   22.0743 C   0  0  0  0  0  0
  -22.4273   -8.0252   21.3535 C   0  0  0  0  0  0
  -21.9888   -9.0218   20.4636 C   0  0  0  0  0  0
  -22.7202  -10.2102   20.3038 C   0  0  0  0  0  0
  -21.6841   -6.0710   22.5270 C   0  0  0  0  0  0
  -21.4008   -6.5617   23.8208 C   0  0  0  0  0  0
  -21.3667   -5.6782   24.9177 C   0  0  0  0  0  0
  -21.6053   -4.3049   24.7231 C   0  0  0  0  0  0
  -21.8816   -3.8128   23.4357 C   0  0  0  0  0  0
  -21.9198   -4.6936   22.3408 C   0  0  0  0  0  0
  -22.7834  -13.5210   21.1873 C   0  0  0  0  0  0
  -22.1653   -4.2114   21.0987 F   0  0  0  0  0  0
  -21.5650   -3.4538   25.7750 F   0  0  0  0  0  0
  -30.0140  -13.3683   20.4188 N   0  0  0  0  0  0
  -26.2967  -12.9319   20.3278 N   0  0  0  0  0  0
  -25.9291  -11.6475   20.5710 N   0  0  0  0  0  0
  -22.0483  -12.8203   22.0436 N   0  0  0  0  0  0
  -25.4279  -15.1880   20.4099 N   0  0  0  0  0  0
  -31.8046  -14.7575   20.1776 O   0  0  0  0  0  0
  -21.6643   -6.8843   21.4232 O   0  0  0  0  0  0
  -22.3505  -14.5506   20.6709 O   0  0  0  0  0  0
  -24.6207  -31.8616   23.2045 C   0  0  0  0  0  0
  -25.9080  -32.4788   23.8363 C   0  0  1  0  0  0
  -27.2350  -27.3763   20.1118 C   0  0  0  0  0  0
  -25.5920  -33.8587   24.2301 N   0  0  0  0  0  0
  -23.4125  -30.4846   21.5456 C   0  0  2  0  0  0
  -24.8608  -28.9429   20.1149 C   0  0  0  0  0  0
  -22.7451  -29.4633   22.4958 C   0  0  0  0  0  0
  -18.0287  -28.1368   22.8496 C   0  0  0  0  0  0
  -24.1496  -36.7310   23.2642 C   0  0  0  0  0  0
  -25.9473  -30.8116   21.3663 C   0  0  0  0  0  0
  -26.0251  -29.4413   20.7153 C   0  0  0  0  0  0
  -27.2160  -28.6687   20.7046 C   0  0  0  0  0  0
  -26.0539  -26.9157   19.4897 C   0  0  0  0  0  0
  -24.8734  -27.6822   19.4976 C   0  0  0  0  0  0
  -23.6241  -29.8133   20.1628 C   0  0  0  0  0  0
  -25.4115  -36.3088   24.0336 C   0  0  1  0  0  0
  -20.5885  -28.3657   23.1311 C   0  0  2  0  0  0
  -20.6774  -26.9384   22.5421 C   0  0  0  0  0  0
  -19.5750  -26.6372   21.5221 C   0  0  0  0  0  0
  -18.1928  -26.7923   22.1621 C   0  0  0  0  0  0
  -19.1536  -28.8826   23.2904 C   0  0  0  0  0  0
  -18.9462  -30.1444   23.8902 C   0  0  0  0  0  0
  -17.6461  -30.6573   24.0565 C   0  0  0  0  0  0
  -25.9040  -34.9457   23.5112 C   0  0  0  0  0  0
  -16.5347  -29.9074   23.6326 C   0  0  0  0  0  0
  -16.7274  -28.6492   23.0346 C   0  0  0  0  0  0
  -26.4490  -31.6578   25.0705 C   0  0  0  0  0  0
  -25.3745  -31.3683   26.1444 C   0  0  0  0  0  0
  -27.0341  -30.3020   24.6110 C   0  0  0  0  0  0
  -27.6073  -32.4286   25.7464 C   0  0  0  0  0  0
  -27.5585  -37.1807   24.8463 C   0  0  0  0  0  0
  -21.4164  -29.3027   22.3710 N   0  0  0  0  0  0
  -26.4296  -37.3777   23.9407 N   0  0  0  0  0  0
  -24.6787  -31.0674   22.0966 N   0  0  0  0  0  0
  -23.4192  -28.8160   23.3015 O   0  0  0  0  0  0
  -28.3802  -26.5867   20.1154 O   0  0  0  0  0  0
  -26.5600  -34.8915   22.4674 O   0  0  0  0  0  0
  -23.5386  -32.1382   23.7417 O   0  0  0  0  0  0
  -30.1534  -20.8054   23.5525 C   0  0  0  0  0  0
  -29.9091  -22.1868   23.4207 C   0  0  0  0  0  0
  -29.6150  -20.4770   21.3166 C   0  0  0  0  0  0
  -29.3930  -21.9036   21.1770 C   0  0  0  0  0  0
  -30.0003  -23.1175   24.6121 C   0  0  0  0  0  0
  -29.2337  -19.3959   20.2756 C   0  0  0  0  0  0
  -28.8390  -22.6209   19.9241 C   0  0  0  0  0  0
  -30.1130  -18.0860   20.1199 C   0  0  0  0  0  0
  -29.1430  -24.1655   19.7473 C   0  0  0  0  0  0
  -30.1355  -17.0203   21.2767 C   0  0  0  0  0  0
  -28.2288  -25.1854   20.5094 C   0  0  0  0  0  0
  -29.9956  -19.9574   22.5109 N   0  0  0  0  0  0
  -29.5372  -22.7315   22.2425 N   0  0  0  0  0  0
  -29.8376  -15.6011   20.9293 N   0  0  0  0  0  0
  -31.4748  -12.5027   19.1220 H   0  0  0  0  0  0
  -30.3700  -11.3634   19.8467 H   0  0  0  0  0  0
  -29.7590  -11.7753   17.4409 H   0  0  0  0  0  0
  -29.6475  -13.4888   17.7448 H   0  0  0  0  0  0
  -27.8499  -11.2974   18.8307 H   0  0  0  0  0  0
  -27.3689  -12.6000   17.7781 H   0  0  0  0  0  0
  -27.6772  -14.2517   19.5370 H   0  0  0  0  0  0
  -28.7000  -11.9905   21.3215 H   0  0  0  0  0  0
  -28.4494  -13.6274   21.8554 H   0  0  0  0  0  0
  -25.2743   -9.5686   22.4748 H   0  0  0  0  0  0
  -24.0000   -7.4616   22.7450 H   0  0  0  0  0  0
  -21.0823   -8.8707   19.8948 H   0  0  0  0  0  0
  -22.3635  -10.9632   19.6145 H   0  0  0  0  0  0
  -21.1970   -7.6117   23.9693 H   0  0  0  0  0  0
  -21.1511   -6.0520   25.9080 H   0  0  0  0  0  0
  -22.0596   -2.7584   23.2877 H   0  0  0  0  0  0
  -22.4098  -11.9862   22.4831 H   0  0  0  0  0  0
  -21.1087  -13.1195   22.2613 H   0  0  0  0  0  0
  -24.6651  -15.8478   20.5217 H   0  0  0  0  0  0
  -26.2812  -15.6262   20.0886 H   0  0  0  0  0  0
  -26.7153  -32.5471   23.1120 H   0  0  0  0  0  0
  -25.0091  -33.9741   25.0460 H   0  0  0  0  0  0
  -22.7043  -31.3033   21.4004 H   0  0  0  0  0  0
  -23.3751  -35.9647   23.3285 H   0  0  0  0  0  0
  -24.3601  -36.8930   22.2060 H   0  0  0  0  0  0
  -23.7256  -37.6515   23.6666 H   0  0  0  0  0  0
  -26.0663  -31.5722   20.5938 H   0  0  0  0  0  0
  -26.8348  -30.8662   21.9858 H   0  0  0  0  0  0
  -28.1136  -29.0472   21.1742 H   0  0  0  0  0  0
  -26.0350  -25.9584   18.9888 H   0  0  0  0  0  0
  -23.9824  -27.2926   19.0235 H   0  0  0  0  0  0
  -23.7328  -30.5849   19.4004 H   0  0  0  0  0  0
  -22.7482  -29.2321   19.8671 H   0  0  0  0  0  0
  -25.1288  -36.1946   25.0829 H   0  0  0  0  0  0
  -20.9989  -28.3219   24.1425 H   0  0  0  0  0  0
  -20.5673  -26.2258   23.3608 H   0  0  0  0  0  0
  -21.6640  -26.7410   22.1200 H   0  0  0  0  0  0
  -19.6897  -25.6283   21.1238 H   0  0  0  0  0  0
  -19.6698  -27.3199   20.6769 H   0  0  0  0  0  0
  -17.4202  -26.6694   21.4017 H   0  0  0  0  0  0
  -18.0305  -26.0056   22.9002 H   0  0  0  0  0  0
  -19.7941  -30.7276   24.2252 H   0  0  0  0  0  0
  -17.5011  -31.6260   24.5162 H   0  0  0  0  0  0
  -15.5351  -30.2976   23.7651 H   0  0  0  0  0  0
  -15.8680  -28.0827   22.7041 H   0  0  0  0  0  0
  -24.5936  -30.7007   25.7776 H   0  0  0  0  0  0
  -24.8922  -32.2836   26.4876 H   0  0  0  0  0  0
  -25.8086  -30.8862   27.0208 H   0  0  0  0  0  0
  -26.2896  -29.6757   24.1177 H   0  0  0  0  0  0
  -27.4129  -29.7271   25.4571 H   0  0  0  0  0  0
  -27.8715  -30.4338   23.9252 H   0  0  0  0  0  0
  -27.2716  -33.3584   26.2055 H   0  0  0  0  0  0
  -28.3879  -32.6831   25.0287 H   0  0  0  0  0  0
  -28.0745  -31.8391   26.5355 H   0  0  0  0  0  0
  -28.2591  -38.0116   24.7509 H   0  0  0  0  0  0
  -28.1082  -36.2644   24.6269 H   0  0  0  0  0  0
  -27.2298  -37.1423   25.8861 H   0  0  0  0  0  0
  -20.9313  -29.8783   21.6967 H   0  0  0  0  0  0
  -26.0176  -38.2845   24.1399 H   0  0  0  0  0  0
  -30.4430  -20.3771   24.5012 H   0  0  0  0  0  0
  -30.9515  -22.9946   25.1299 H   0  0  0  0  0  0
  -29.1996  -22.9001   25.3206 H   0  0  0  0  0  0
  -29.9065  -24.1623   24.3148 H   0  0  0  0  0  0
  -29.2148  -19.8807   19.3007 H   0  0  0  0  0  0
  -28.1998  -19.1102   20.4697 H   0  0  0  0  0  0
  -27.7658  -22.4428   19.8568 H   0  0  0  0  0  0
  -29.2732  -22.1154   19.0618 H   0  0  0  0  0  0
  -31.1391  -18.3836   19.9022 H   0  0  0  0  0  0
  -29.7705  -17.5839   19.2150 H   0  0  0  0  0  0
  -29.0139  -24.3869   18.6872 H   0  0  0  0  0  0
  -30.1938  -24.3664   19.9552 H   0  0  0  0  0  0
  -29.3908  -17.3043   22.0215 H   0  0  0  0  0  0
  -31.0945  -17.0643   21.7942 H   0  0  0  0  0  0
  -28.4623  -25.1354   21.5723 H   0  0  0  0  0  0
  -27.1999  -24.8382   20.4368 H   0  0  0  0  0  0
  -28.8878  -15.3151   21.1143 H   0  0  0  0  0  0
  1 25  1  0  0  0
  1 30  2  0  0  0
  1 84  1  0  0  0
  2  3  1  0  0  0
  2 25  1  0  0  0
  2 85  1  0  0  0
  2 86  1  0  0  0
  3  4  1  0  0  0
  3 87  1  0  0  0
  3 88  1  0  0  0
  4  5  1  0  0  0
  4 89  1  0  0  0
  4 90  1  0  0  0
  5  6  1  0  0  0
  5 26  1  0  0  0
  5 91  1  0  0  0
  6 25  1  0  0  0
  6 92  1  0  0  0
  6 93  1  0  0  0
  7  8  2  0  0  0
  7 26  1  0  0  0
  7 29  1  0  0  0
  8  9  1  0  0  0
  8 22  1  0  0  0
  9 10  1  0  0  0
  9 27  2  0  0  0
 10 11  2  0  0  0
 10 15  1  0  0  0
 11 12  1  0  0  0
 11 94  1  0  0  0
 12 13  2  0  0  0
 12 95  1  0  0  0
 13 14  1  0  0  0
 13 31  1  0  0  0
 14 15  2  0  0  0
 14 96  1  0  0  0
 15 97  1  0  0  0
 16 17  2  0  0  0
 16 21  1  0  0  0
 16 31  1  0  0  0
 17 18  1  0  0  0
 17 98  1  0  0  0
 18 19  2  0  0  0
 18 99  1  0  0  0
 19 20  1  0  0  0
 19 24  1  0  0  0
 20 21  2  0  0  0
 20100  1  0  0  0
 21 23  1  0  0  0
 22 28  1  0  0  0
 22 32  2  0  0  0
 26 27  1  0  0  0
 28101  1  0  0  0
 28102  1  0  0  0
 29103  1  0  0  0
 29104  1  0  0  0
 33 34  1  0  0  0
 33 66  1  0  0  0
 33 70  2  0  0  0
 34 36  1  0  0  0
 34 59  1  0  0  0
 34105  1  0  0  0
 35 44  2  0  0  0
 35 45  1  0  0  0
 35 68  1  0  0  0
 36 56  1  0  0  0
 36106  1  0  0  0
 37 39  1  0  0  0
 37 47  1  0  0  0
 37 66  1  0  0  0
 37107  1  0  0  0
 38 43  2  0  0  0
 38 46  1  0  0  0
 38 47  1  0  0  0
 39 64  1  0  0  0
 39 67  2  0  0  0
 40 52  1  0  0  0
 40 53  2  0  0  0
 40 58  1  0  0  0
 41108  1  0  0  0
 41109  1  0  0  0
 41110  1  0  0  0
 41 48  1  0  0  0
 42 43  1  0  0  0
 42 66  1  0  0  0
 42111  1  0  0  0
 42112  1  0  0  0
 43 44  1  0  0  0
 44113  1  0  0  0
 45 46  2  0  0  0
 45114  1  0  0  0
 46115  1  0  0  0
 47116  1  0  0  0
 47117  1  0  0  0
 48 56  1  0  0  0
 48 65  1  0  0  0
 48118  1  0  0  0
 49 50  1  0  0  0
 49 53  1  0  0  0
 49 64  1  0  0  0
 49119  1  0  0  0
 50 51  1  0  0  0
 50120  1  0  0  0
 50121  1  0  0  0
 51 52  1  0  0  0
 51122  1  0  0  0
 51123  1  0  0  0
 52124  1  0  0  0
 52125  1  0  0  0
 53 54  1  0  0  0
 54 55  2  0  0  0
 54126  1  0  0  0
 55 57  1  0  0  0
 55127  1  0  0  0
 56 69  2  0  0  0
 57 58  2  0  0  0
 57128  1  0  0  0
 58129  1  0  0  0
 59 60  1  0  0  0
 59 61  1  0  0  0
 59 62  1  0  0  0
 60130  1  0  0  0
 60131  1  0  0  0
 60132  1  0  0  0
 61133  1  0  0  0
 61134  1  0  0  0
 61135  1  0  0  0
 62136  1  0  0  0
 62137  1  0  0  0
 62138  1  0  0  0
 63 65  1  0  0  0
 63139  1  0  0  0
 63140  1  0  0  0
 63141  1  0  0  0
 64142  1  0  0  0
 65143  1  0  0  0
 68 81  1  0  0  0
 71 72  2  0  0  0
 71 82  1  0  0  0
 71144  1  0  0  0
 72 75  1  0  0  0
 72 83  1  0  0  0
 73 74  1  0  0  0
 73 76  1  0  0  0
 73 82  2  0  0  0
 74 77  1  0  0  0
 74 83  2  0  0  0
 75145  1  0  0  0
 75146  1  0  0  0
 75147  1  0  0  0
 76 78  1  0  0  0
 76148  1  0  0  0
 76149  1  0  0  0
 77 79  1  0  0  0
 77150  1  0  0  0
 77151  1  0  0  0
 78 80  1  0  0  0
 78152  1  0  0  0
 78153  1  0  0  0
 79 81  1  0  0  0
 79154  1  0  0  0
 79155  1  0  0  0
 80 84  1  0  0  0
 80156  1  0  0  0
 80157  1  0  0  0
 81158  1  0  0  0
 81159  1  0  0  0
 84160  1  0  0  0
M  ISO  4   1 100  68 101  81 101  84 100
M  END
> <chiral flag>
0

> <version>
0

> <s_m_source_file>
/data/baiqing/PycharmProjects/Reinvent-master-3.2/result/LINK_invent/BTK/process_docking_weight1_custom_sum_contain_oxygen_bond_distance_aromatic_linkinvent_7_9_3/rearranged_h_0044.sdf

> <i_m_source_file_index>
18

> <r_mmod_Potential_Energy-OPLS-2005>
36.6739120483398

> <r_mmod_Stretch_Energy-OPLS-2005>
61.8655319213867

> <r_mmod_Bend_Energy-OPLS-2005>
134.003448486328

> <r_mmod_Torsional_Energy-OPLS-2005>
234.43359375

> <r_mmod_Improper_Torsional_Energy-OPLS-2005>
5.0734281539917

> <r_mmod_Van_der_Waal_Energy-OPLS-2005>
148.945831298828

> <r_mmod_Electrostatic_Energy-OPLS-2005>
-352.602172851562

> <r_mmod_Solvation_Energy-OPLS-2005>
-223.947113037109

> <b_mmod_Minimization_Converged-OPLS-2005>
0

> <r_mmod_RMS_Derivative-OPLS-2005>
2.3139283657074

$$$$
18
                    3D
 Structure written by MMmdl.
155163  0  0  1  0            999 V2000
  -30.7532  -14.4426   20.5252 C   0  0  0  0  0  0
  -30.4074  -12.2787   19.4262 C   0  0  0  0  0  0
  -29.4978  -12.5080   18.2046 C   0  0  0  0  0  0
  -28.0161  -12.3885   18.6125 C   0  0  0  0  0  0
  -27.6636  -13.2210   19.8787 C   0  0  2  0  0  0
  -28.7110  -13.0274   20.9998 C   0  0  0  0  0  0
  -25.2599  -13.8169   20.5714 C   0  0  0  0  0  0
  -24.1861  -13.0441   20.9185 C   0  0  0  0  0  0
  -24.6436  -11.6907   20.8726 C   0  0  0  0  0  0
  -23.9100  -10.4291   21.0378 C   0  0  0  0  0  0
  -24.3632   -9.4203   21.9153 C   0  0  0  0  0  0
  -23.6294   -8.2251   22.0725 C   0  0  0  0  0  0
  -22.4279   -8.0277   21.3520 C   0  0  0  0  0  0
  -21.9922   -9.0259   20.4631 C   0  0  0  0  0  0
  -22.7263  -10.2137   20.3043 C   0  0  0  0  0  0
  -21.6853   -6.0746   22.5268 C   0  0  0  0  0  0
  -21.4010   -6.5642   23.8206 C   0  0  0  0  0  0
  -21.3684   -5.6791   24.9161 C   0  0  0  0  0  0
  -21.6062   -4.3055   24.7206 C   0  0  0  0  0  0
  -21.8825   -3.8154   23.4324 C   0  0  0  0  0  0
  -21.9192   -4.6973   22.3388 C   0  0  0  0  0  0
  -22.7889  -13.5228   21.1856 C   0  0  0  0  0  0
  -22.1656   -4.2170   21.0962 F   0  0  0  0  0  0
  -21.5657   -3.4537   25.7721 F   0  0  0  0  0  0
  -30.0388  -13.2896   20.4284 N   0  0  0  0  0  0
  -26.3060  -12.9376   20.3425 N   0  0  0  0  0  0
  -25.9372  -11.6518   20.5779 N   0  0  0  0  0  0
  -22.0538  -12.8191   22.0392 N   0  0  0  0  0  0
  -25.4319  -15.1880   20.4149 N   0  0  0  0  0  0
  -31.9098  -14.5428   20.1150 O   0  0  0  0  0  0
  -21.6630   -6.8885   21.4226 O   0  0  0  0  0  0
  -22.3589  -14.5561   20.6738 O   0  0  0  0  0  0
  -24.6092  -31.8683   23.2120 C   0  0  0  0  0  0
  -25.8998  -32.4832   23.8388 C   0  0  1  0  0  0
  -27.2270  -27.4469   20.1050 C   0  0  0  0  0  0
  -25.5859  -33.8640   24.2308 N   0  0  0  0  0  0
  -23.3961  -30.4926   21.5517 C   0  0  2  0  0  0
  -24.8403  -28.9665   20.1119 C   0  0  0  0  0  0
  -22.7371  -29.4652   22.5000 C   0  0  0  0  0  0
  -18.0269  -28.1394   22.8501 C   0  0  0  0  0  0
  -24.1482  -36.7321   23.2643 C   0  0  0  0  0  0
  -25.9220  -30.8422   21.3606 C   0  0  0  0  0  0
  -26.0000  -29.4787   20.7088 C   0  0  0  0  0  0
  -27.1932  -28.7241   20.7064 C   0  0  0  0  0  0
  -26.0492  -26.9526   19.4958 C   0  0  0  0  0  0
  -24.8593  -27.7009   19.5080 C   0  0  0  0  0  0
  -23.6023  -29.8308   20.1638 C   0  0  0  0  0  0
  -25.4111  -36.3129   24.0341 C   0  0  1  0  0  0
  -20.5851  -28.3655   23.1373 C   0  0  2  0  0  0
  -20.6773  -26.9404   22.5460 C   0  0  0  0  0  0
  -19.5757  -26.6410   21.5251 C   0  0  0  0  0  0
  -18.1924  -26.7945   22.1632 C   0  0  0  0  0  0
  -19.1511  -28.8833   23.2925 C   0  0  0  0  0  0
  -18.9449  -30.1448   23.8920 C   0  0  0  0  0  0
  -17.6458  -30.6601   24.0586 C   0  0  0  0  0  0
  -25.9032  -34.9496   23.5128 C   0  0  0  0  0  0
  -16.5344  -29.9115   23.6356 C   0  0  0  0  0  0
  -16.7257  -28.6535   23.0355 C   0  0  0  0  0  0
  -26.4451  -31.6612   25.0698 C   0  0  0  0  0  0
  -25.3745  -31.3769   26.1473 C   0  0  0  0  0  0
  -27.0267  -30.3057   24.6063 C   0  0  0  0  0  0
  -27.6020  -32.4337   25.7452 C   0  0  0  0  0  0
  -27.5594  -37.1805   24.8462 C   0  0  0  0  0  0
  -21.4097  -29.3015   22.3759 N   0  0  0  0  0  0
  -26.4295  -37.3812   23.9422 N   0  0  0  0  0  0
  -24.6607  -31.0809   22.1006 N   0  0  0  0  0  0
  -23.4157  -28.8209   23.3040 O   0  0  0  0  0  0
  -28.4056  -26.7267   20.1464 O   0  0  0  0  0  0
  -26.5623  -34.8936   22.4704 O   0  0  0  0  0  0
  -23.5290  -32.1427   23.7526 O   0  0  0  0  0  0
  -28.5158  -21.3014   20.3337 C   0  0  0  0  0  0
  -29.5663  -20.6129   20.8736 C   0  0  0  0  0  0
  -30.3010  -19.4029   20.3679 C   0  0  0  0  0  0
  -29.6997  -18.0690   20.8690 C   0  0  0  0  0  0
  -27.6479  -24.7359   21.4075 C   0  0  0  0  0  0
  -27.1774  -23.2687   21.2954 C   0  0  0  0  0  0
  -30.6569  -16.8866   20.6326 C   0  0  0  0  0  0
  -28.3286  -25.2933   20.1350 C   0  0  0  0  0  0
  -29.8931  -21.1989   22.0954 N   0  0  0  0  0  0
  -29.1001  -22.1996   22.3209 N   0  0  0  0  0  0
  -28.2542  -22.2893   21.2672 N   0  0  0  0  0  0
  -30.0813  -15.5532   20.8760 N   0  0  0  0  0  0
  -31.4579  -12.3315   19.1344 H   0  0  0  0  0  0
  -30.2585  -11.2752   19.8300 H   0  0  0  0  0  0
  -29.7269  -11.7884   17.4182 H   0  0  0  0  0  0
  -29.6919  -13.4957   17.7811 H   0  0  0  0  0  0
  -27.8099  -11.3321   18.7900 H   0  0  0  0  0  0
  -27.3769  -12.6825   17.7795 H   0  0  0  0  0  0
  -27.7022  -14.2702   19.5838 H   0  0  0  0  0  0
  -28.6753  -12.0116   21.3966 H   0  0  0  0  0  0
  -28.5051  -13.6857   21.8444 H   0  0  0  0  0  0
  -25.2786   -9.5669   22.4712 H   0  0  0  0  0  0
  -24.0015   -7.4647   22.7435 H   0  0  0  0  0  0
  -21.0872   -8.8794   19.8920 H   0  0  0  0  0  0
  -22.3736  -10.9671   19.6158 H   0  0  0  0  0  0
  -21.1969   -7.6146   23.9713 H   0  0  0  0  0  0
  -21.1521   -6.0510   25.9072 H   0  0  0  0  0  0
  -22.0575   -2.7617   23.2807 H   0  0  0  0  0  0
  -22.4182  -11.9855   22.4768 H   0  0  0  0  0  0
  -21.1148  -13.1201   22.2625 H   0  0  0  0  0  0
  -24.6701  -15.8444   20.5384 H   0  0  0  0  0  0
  -26.2924  -15.6264   20.1121 H   0  0  0  0  0  0
  -26.7036  -32.5571   23.1122 H   0  0  0  0  0  0
  -25.0012  -33.9816   25.0446 H   0  0  0  0  0  0
  -22.6864  -31.3090   21.4124 H   0  0  0  0  0  0
  -23.3759  -35.9641   23.3324 H   0  0  0  0  0  0
  -24.3563  -36.8942   22.2053 H   0  0  0  0  0  0
  -23.7220  -37.6529   23.6644 H   0  0  0  0  0  0
  -26.0335  -31.6084   20.5935 H   0  0  0  0  0  0
  -26.8094  -30.8920   21.9795 H   0  0  0  0  0  0
  -28.0816  -29.1109   21.1857 H   0  0  0  0  0  0
  -26.0239  -25.9891   19.0117 H   0  0  0  0  0  0
  -23.9685  -27.2956   19.0487 H   0  0  0  0  0  0
  -23.7098  -30.6077   19.4054 H   0  0  0  0  0  0
  -22.7268  -29.2505   19.8676 H   0  0  0  0  0  0
  -25.1280  -36.2010   25.0840 H   0  0  0  0  0  0
  -20.9909  -28.3209   24.1504 H   0  0  0  0  0  0
  -20.5763  -26.2214   23.3612 H   0  0  0  0  0  0
  -21.6638  -26.7525   22.1191 H   0  0  0  0  0  0
  -19.6938  -25.6340   21.1253 H   0  0  0  0  0  0
  -19.6740  -27.3242   20.6801 H   0  0  0  0  0  0
  -17.4214  -26.6724   21.4014 H   0  0  0  0  0  0
  -18.0284  -26.0090   22.9014 H   0  0  0  0  0  0
  -19.7927  -30.7279   24.2272 H   0  0  0  0  0  0
  -17.5020  -31.6287   24.5184 H   0  0  0  0  0  0
  -15.5341  -30.3031   23.7680 H   0  0  0  0  0  0
  -15.8644  -28.0888   22.7030 H   0  0  0  0  0  0
  -24.5795  -30.7242   25.7842 H   0  0  0  0  0  0
  -24.9070  -32.2962   26.5009 H   0  0  0  0  0  0
  -25.8081  -30.8852   27.0184 H   0  0  0  0  0  0
  -26.2781  -29.6816   24.1148 H   0  0  0  0  0  0
  -27.4093  -29.7303   25.4508 H   0  0  0  0  0  0
  -27.8597  -30.4403   23.9157 H   0  0  0  0  0  0
  -27.2620  -33.3627   26.2053 H   0  0  0  0  0  0
  -28.3813  -32.6926   25.0268 H   0  0  0  0  0  0
  -28.0683  -31.8445   26.5368 H   0  0  0  0  0  0
  -28.2606  -38.0106   24.7552 H   0  0  0  0  0  0
  -28.1094  -36.2649   24.6226 H   0  0  0  0  0  0
  -27.2316  -37.1402   25.8863 H   0  0  0  0  0  0
  -20.9202  -29.8713   21.7002 H   0  0  0  0  0  0
  -26.0204  -38.2904   24.1445 H   0  0  0  0  0  0
  -27.9476  -21.1651   19.4213 H   0  0  0  0  0  0
  -31.3466  -19.4680   20.6753 H   0  0  0  0  0  0
  -30.3261  -19.4077   19.2761 H   0  0  0  0  0  0
  -28.7443  -17.9025   20.3701 H   0  0  0  0  0  0
  -29.4910  -18.1427   21.9377 H   0  0  0  0  0  0
  -28.3157  -24.8598   22.2604 H   0  0  0  0  0  0
  -26.7676  -25.3307   21.6489 H   0  0  0  0  0  0
  -26.5531  -23.1337   20.4114 H   0  0  0  0  0  0
  -26.5421  -23.0267   22.1492 H   0  0  0  0  0  0
  -31.0103  -16.9309   19.5991 H   0  0  0  0  0  0
  -31.5425  -17.0031   21.2592 H   0  0  0  0  0  0
  -27.8432  -24.9410   19.2267 H   0  0  0  0  0  0
  -29.3472  -24.9058   20.0826 H   0  0  0  0  0  0
  -29.1187  -15.4776   21.1637 H   0  0  0  0  0  0
  1 25  1  0  0  0
  1 30  2  0  0  0
  1 82  1  0  0  0
  2  3  1  0  0  0
  2 25  1  0  0  0
  2 83  1  0  0  0
  2 84  1  0  0  0
  3  4  1  0  0  0
  3 85  1  0  0  0
  3 86  1  0  0  0
  4  5  1  0  0  0
  4 87  1  0  0  0
  4 88  1  0  0  0
  5  6  1  0  0  0
  5 26  1  0  0  0
  5 89  1  0  0  0
  6 25  1  0  0  0
  6 90  1  0  0  0
  6 91  1  0  0  0
  7  8  2  0  0  0
  7 26  1  0  0  0
  7 29  1  0  0  0
  8  9  1  0  0  0
  8 22  1  0  0  0
  9 10  1  0  0  0
  9 27  2  0  0  0
 10 11  2  0  0  0
 10 15  1  0  0  0
 11 12  1  0  0  0
 11 92  1  0  0  0
 12 13  2  0  0  0
 12 93  1  0  0  0
 13 14  1  0  0  0
 13 31  1  0  0  0
 14 15  2  0  0  0
 14 94  1  0  0  0
 15 95  1  0  0  0
 16 17  2  0  0  0
 16 21  1  0  0  0
 16 31  1  0  0  0
 17 18  1  0  0  0
 17 96  1  0  0  0
 18 19  2  0  0  0
 18 97  1  0  0  0
 19 20  1  0  0  0
 19 24  1  0  0  0
 20 21  2  0  0  0
 20 98  1  0  0  0
 21 23  1  0  0  0
 22 28  1  0  0  0
 22 32  2  0  0  0
 26 27  1  0  0  0
 28 99  1  0  0  0
 28100  1  0  0  0
 29101  1  0  0  0
 29102  1  0  0  0
 33 34  1  0  0  0
 33 66  1  0  0  0
 33 70  2  0  0  0
 34 36  1  0  0  0
 34 59  1  0  0  0
 34103  1  0  0  0
 35 44  2  0  0  0
 35 45  1  0  0  0
 35 68  1  0  0  0
 36 56  1  0  0  0
 36104  1  0  0  0
 37 39  1  0  0  0
 37 47  1  0  0  0
 37 66  1  0  0  0
 37105  1  0  0  0
 38 43  2  0  0  0
 38 46  1  0  0  0
 38 47  1  0  0  0
 39 64  1  0  0  0
 39 67  2  0  0  0
 40 52  1  0  0  0
 40 53  2  0  0  0
 40 58  1  0  0  0
 41106  1  0  0  0
 41107  1  0  0  0
 41108  1  0  0  0
 41 48  1  0  0  0
 42 43  1  0  0  0
 42 66  1  0  0  0
 42109  1  0  0  0
 42110  1  0  0  0
 43 44  1  0  0  0
 44111  1  0  0  0
 45 46  2  0  0  0
 45112  1  0  0  0
 46113  1  0  0  0
 47114  1  0  0  0
 47115  1  0  0  0
 48 56  1  0  0  0
 48 65  1  0  0  0
 48116  1  0  0  0
 49 50  1  0  0  0
 49 53  1  0  0  0
 49 64  1  0  0  0
 49117  1  0  0  0
 50 51  1  0  0  0
 50118  1  0  0  0
 50119  1  0  0  0
 51 52  1  0  0  0
 51120  1  0  0  0
 51121  1  0  0  0
 52122  1  0  0  0
 52123  1  0  0  0
 53 54  1  0  0  0
 54 55  2  0  0  0
 54124  1  0  0  0
 55 57  1  0  0  0
 55125  1  0  0  0
 56 69  2  0  0  0
 57 58  2  0  0  0
 57126  1  0  0  0
 58127  1  0  0  0
 59 60  1  0  0  0
 59 61  1  0  0  0
 59 62  1  0  0  0
 60128  1  0  0  0
 60129  1  0  0  0
 60130  1  0  0  0
 61131  1  0  0  0
 61132  1  0  0  0
 61133  1  0  0  0
 62134  1  0  0  0
 62135  1  0  0  0
 62136  1  0  0  0
 63 65  1  0  0  0
 63137  1  0  0  0
 63138  1  0  0  0
 63139  1  0  0  0
 64140  1  0  0  0
 65141  1  0  0  0
 68 78  1  0  0  0
 71 72  2  0  0  0
 71 81  1  0  0  0
 71142  1  0  0  0
 72 73  1  0  0  0
 72 79  1  0  0  0
 73 74  1  0  0  0
 73143  1  0  0  0
 73144  1  0  0  0
 74 77  1  0  0  0
 74145  1  0  0  0
 74146  1  0  0  0
 75 76  1  0  0  0
 75 78  1  0  0  0
 75147  1  0  0  0
 75148  1  0  0  0
 76 81  1  0  0  0
 76149  1  0  0  0
 76150  1  0  0  0
 77 82  1  0  0  0
 77151  1  0  0  0
 77152  1  0  0  0
 78153  1  0  0  0
 78154  1  0  0  0
 79 80  2  0  0  0
 80 81  1  0  0  0
 82155  1  0  0  0
M  ISO  4   1 100  68 101  78 101  82 100
M  END
> <chiral flag>
0

> <version>
0

> <s_m_source_file>
/data/baiqing/PycharmProjects/Reinvent-master-3.2/result/LINK_invent/BTK/process_docking_weight1_custom_sum_contain_oxygen_bond_distance_aromatic_linkinvent_7_9_3/rearranged_h_0044.sdf

> <i_m_source_file_index>
19

> <r_mmod_Potential_Energy-OPLS-2005>
-146.884063720703

> <r_mmod_Stretch_Energy-OPLS-2005>
32.2897758483887

> <r_mmod_Bend_Energy-OPLS-2005>
96.0587997436523

> <r_mmod_Torsional_Energy-OPLS-2005>
202.407150268555

> <r_mmod_Improper_Torsional_Energy-OPLS-2005>
5.4475302696228

> <r_mmod_Van_der_Waal_Energy-OPLS-2005>
132.960144042969

> <r_mmod_Electrostatic_Energy-OPLS-2005>
-403.792572021484

> <r_mmod_Solvation_Energy-OPLS-2005>
-228.558624267578

> <b_mmod_Minimization_Converged-OPLS-2005>
0

> <r_mmod_RMS_Derivative-OPLS-2005>
3.56122970581055

$$$$
19
                    3D
 Structure written by MMmdl.
162170  0  0  1  0            999 V2000
  -30.7122  -14.4703   20.5569 C   0  0  0  0  0  0
  -30.4124  -12.3034   19.4309 C   0  0  0  0  0  0
  -29.4955  -12.5108   18.2097 C   0  0  0  0  0  0
  -28.0177  -12.3645   18.6233 C   0  0  0  0  0  0
  -27.6569  -13.2142   19.8704 C   0  0  2  0  0  0
  -28.6961  -13.0168   20.9973 C   0  0  0  0  0  0
  -25.2555  -13.8178   20.5686 C   0  0  0  0  0  0
  -24.1837  -13.0437   20.9200 C   0  0  0  0  0  0
  -24.6412  -11.6923   20.8756 C   0  0  0  0  0  0
  -23.9072  -10.4304   21.0417 C   0  0  0  0  0  0
  -24.3629   -9.4216   21.9178 C   0  0  0  0  0  0
  -23.6319   -8.2246   22.0745 C   0  0  0  0  0  0
  -22.4291   -8.0295   21.3552 C   0  0  0  0  0  0
  -21.9933   -9.0257   20.4641 C   0  0  0  0  0  0
  -22.7252  -10.2137   20.3055 C   0  0  0  0  0  0
  -21.6849   -6.0764   22.5309 C   0  0  0  0  0  0
  -21.4008   -6.5651   23.8247 C   0  0  0  0  0  0
  -21.3670   -5.6796   24.9205 C   0  0  0  0  0  0
  -21.6043   -4.3051   24.7248 C   0  0  0  0  0  0
  -21.8814   -3.8170   23.4360 C   0  0  0  0  0  0
  -21.9193   -4.6992   22.3425 C   0  0  0  0  0  0
  -22.7857  -13.5218   21.1906 C   0  0  0  0  0  0
  -22.1656   -4.2189   21.0996 F   0  0  0  0  0  0
  -21.5640   -3.4525   25.7747 F   0  0  0  0  0  0
  -30.0273  -13.3014   20.4415 N   0  0  0  0  0  0
  -26.3000  -12.9373   20.3333 N   0  0  0  0  0  0
  -25.9336  -11.6535   20.5761 N   0  0  0  0  0  0
  -22.0487  -12.8181   22.0445 N   0  0  0  0  0  0
  -25.4247  -15.1896   20.4149 N   0  0  0  0  0  0
  -31.8466  -14.6210   20.0990 O   0  0  0  0  0  0
  -21.6651   -6.8897   21.4269 O   0  0  0  0  0  0
  -22.3545  -14.5548   20.6787 O   0  0  0  0  0  0
  -24.6115  -31.8693   23.2117 C   0  0  0  0  0  0
  -25.9013  -32.4834   23.8414 C   0  0  1  0  0  0
  -27.2434  -27.4594   20.0962 C   0  0  0  0  0  0
  -25.5868  -33.8635   24.2349 N   0  0  0  0  0  0
  -23.4014  -30.4893   21.5496 C   0  0  2  0  0  0
  -24.8514  -28.9529   20.1199 C   0  0  0  0  0  0
  -22.7404  -29.4663   22.4995 C   0  0  0  0  0  0
  -18.0271  -28.1397   22.8484 C   0  0  0  0  0  0
  -24.1482  -36.7331   23.2638 C   0  0  0  0  0  0
  -25.9260  -30.8399   21.3616 C   0  0  0  0  0  0
  -26.0062  -29.4710   20.7204 C   0  0  0  0  0  0
  -27.2063  -28.7279   20.7142 C   0  0  0  0  0  0
  -26.0789  -26.9466   19.4923 C   0  0  0  0  0  0
  -24.8799  -27.6863   19.5072 C   0  0  0  0  0  0
  -23.6111  -29.8161   20.1658 C   0  0  0  0  0  0
  -25.4099  -36.3130   24.0347 C   0  0  1  0  0  0
  -20.5864  -28.3684   23.1321 C   0  0  2  0  0  0
  -20.6778  -26.9422   22.5415 C   0  0  0  0  0  0
  -19.5757  -26.6404   21.5214 C   0  0  0  0  0  0
  -18.1930  -26.7942   22.1615 C   0  0  0  0  0  0
  -19.1520  -28.8853   23.2902 C   0  0  0  0  0  0
  -18.9445  -30.1455   23.8921 C   0  0  0  0  0  0
  -17.6449  -30.6592   24.0577 C   0  0  0  0  0  0
  -25.9018  -34.9486   23.5149 C   0  0  0  0  0  0
  -16.5340  -29.9099   23.6323 C   0  0  0  0  0  0
  -16.7262  -28.6522   23.0329 C   0  0  0  0  0  0
  -26.4456  -31.6601   25.0731 C   0  0  0  0  0  0
  -25.3753  -31.3676   26.1503 C   0  0  0  0  0  0
  -27.0268  -30.3049   24.6065 C   0  0  0  0  0  0
  -27.6042  -32.4322   25.7481 C   0  0  0  0  0  0
  -27.5580  -37.1819   24.8461 C   0  0  0  0  0  0
  -21.4138  -29.3040   22.3724 N   0  0  0  0  0  0
  -26.4293  -37.3805   23.9406 N   0  0  0  0  0  0
  -24.6645  -31.0798   22.0997 N   0  0  0  0  0  0
  -23.4166  -28.8209   23.3048 O   0  0  0  0  0  0
  -28.4108  -26.7430   20.0192 O   0  0  0  0  0  0
  -26.5583  -34.8932   22.4711 O   0  0  0  0  0  0
  -23.5317  -32.1434   23.7510 O   0  0  0  0  0  0
  -28.0312  -21.9801   18.9980 C   0  0  0  0  0  0
  -28.1920  -20.6232   18.9024 C   0  0  0  0  0  0
  -29.4428  -20.3776   19.5518 C   0  0  0  0  0  0
  -27.0857  -19.9403   16.7433 C   0  0  0  0  0  0
  -27.2492  -19.6527   18.2408 C   0  0  0  0  0  0
  -30.2223  -19.0866   19.7136 C   0  0  0  0  0  0
  -29.5220  -17.9626   20.5201 C   0  0  0  0  0  0
  -28.5153  -24.5098   20.9948 C   0  0  0  0  0  0
  -29.4374  -23.8853   19.9279 C   0  0  0  0  0  0
  -30.5248  -16.9100   21.0638 C   0  0  0  0  0  0
  -28.7630  -26.0177   21.1956 C   0  0  0  0  0  0
  -29.9769  -21.5040   20.0195 N   0  0  0  0  0  0
  -29.1232  -22.4885   19.6597 N   0  0  0  0  0  0
  -30.0274  -15.5200   21.0529 N   0  0  0  0  0  0
  -31.4628  -12.3748   19.1433 H   0  0  0  0  0  0
  -30.2834  -11.2975   19.8347 H   0  0  0  0  0  0
  -29.7415  -11.7903   17.4294 H   0  0  0  0  0  0
  -29.6649  -13.5001   17.7800 H   0  0  0  0  0  0
  -27.8392  -11.3079   18.8271 H   0  0  0  0  0  0
  -27.3660  -12.6250   17.7892 H   0  0  0  0  0  0
  -27.6918  -14.2593   19.5630 H   0  0  0  0  0  0
  -28.6696  -11.9899   21.3631 H   0  0  0  0  0  0
  -28.4598  -13.6427   21.8594 H   0  0  0  0  0  0
  -25.2769   -9.5703   22.4764 H   0  0  0  0  0  0
  -24.0050   -7.4637   22.7436 H   0  0  0  0  0  0
  -21.0882   -8.8759   19.8932 H   0  0  0  0  0  0
  -22.3703  -10.9685   19.6176 H   0  0  0  0  0  0
  -21.1975   -7.6155   23.9760 H   0  0  0  0  0  0
  -21.1499   -6.0518   25.9098 H   0  0  0  0  0  0
  -22.0579   -2.7638   23.2848 H   0  0  0  0  0  0
  -22.4062  -11.9811   22.4812 H   0  0  0  0  0  0
  -21.1111  -13.1232   22.2673 H   0  0  0  0  0  0
  -24.6504  -15.8372   20.5134 H   0  0  0  0  0  0
  -26.2804  -15.6380   20.1147 H   0  0  0  0  0  0
  -26.7089  -32.5567   23.1191 H   0  0  0  0  0  0
  -25.0038  -33.9814   25.0507 H   0  0  0  0  0  0
  -22.6910  -31.3050   21.4069 H   0  0  0  0  0  0
  -23.3740  -35.9669   23.3317 H   0  0  0  0  0  0
  -24.3579  -36.8925   22.2050 H   0  0  0  0  0  0
  -23.7243  -37.6547   23.6634 H   0  0  0  0  0  0
  -26.0314  -31.5975   20.5839 H   0  0  0  0  0  0
  -26.8176  -30.9042   21.9726 H   0  0  0  0  0  0
  -28.1044  -29.1276   21.1646 H   0  0  0  0  0  0
  -26.1049  -25.9810   19.0056 H   0  0  0  0  0  0
  -23.9937  -27.2843   19.0372 H   0  0  0  0  0  0
  -23.7178  -30.5877   19.4031 H   0  0  0  0  0  0
  -22.7375  -29.2297   19.8740 H   0  0  0  0  0  0
  -25.1277  -36.2010   25.0841 H   0  0  0  0  0  0
  -20.9956  -28.3257   24.1445 H   0  0  0  0  0  0
  -20.5718  -26.2283   23.3602 H   0  0  0  0  0  0
  -21.6643  -26.7495   22.1185 H   0  0  0  0  0  0
  -19.6926  -25.6321   21.1232 H   0  0  0  0  0  0
  -19.6707  -27.3240   20.6766 H   0  0  0  0  0  0
  -17.4206  -26.6693   21.4008 H   0  0  0  0  0  0
  -18.0321  -26.0085   22.9017 H   0  0  0  0  0  0
  -19.7917  -30.7264   24.2307 H   0  0  0  0  0  0
  -17.5001  -31.6277   24.5182 H   0  0  0  0  0  0
  -15.5346  -30.3016   23.7636 H   0  0  0  0  0  0
  -15.8656  -28.0867   22.7016 H   0  0  0  0  0  0
  -24.5924  -30.7019   25.7850 H   0  0  0  0  0  0
  -24.8950  -32.2816   26.5011 H   0  0  0  0  0  0
  -25.8150  -30.8818   27.0226 H   0  0  0  0  0  0
  -26.2778  -29.6825   24.1154 H   0  0  0  0  0  0
  -27.4083  -29.7272   25.4493 H   0  0  0  0  0  0
  -27.8601  -30.4377   23.9162 H   0  0  0  0  0  0
  -27.2666  -33.3620   26.2076 H   0  0  0  0  0  0
  -28.3833  -32.6889   25.0290 H   0  0  0  0  0  0
  -28.0725  -31.8439   26.5383 H   0  0  0  0  0  0
  -28.2603  -38.0112   24.7509 H   0  0  0  0  0  0
  -28.1073  -36.2647   24.6286 H   0  0  0  0  0  0
  -27.2301  -37.1471   25.8866 H   0  0  0  0  0  0
  -20.9307  -29.8719   21.6906 H   0  0  0  0  0  0
  -26.0192  -38.2887   24.1412 H   0  0  0  0  0  0
  -27.2448  -22.6278   18.6361 H   0  0  0  0  0  0
  -26.3682  -19.2566   16.2865 H   0  0  0  0  0  0
  -28.0337  -19.8186   16.2197 H   0  0  0  0  0  0
  -26.7274  -20.9553   16.5652 H   0  0  0  0  0  0
  -26.2706  -19.6992   18.7180 H   0  0  0  0  0  0
  -27.5865  -18.6249   18.3617 H   0  0  0  0  0  0
  -31.1754  -19.3143   20.1941 H   0  0  0  0  0  0
  -30.4810  -18.7022   18.7270 H   0  0  0  0  0  0
  -28.7567  -17.4916   19.9032 H   0  0  0  0  0  0
  -28.9961  -18.4160   21.3617 H   0  0  0  0  0  0
  -28.6740  -23.9925   21.9430 H   0  0  0  0  0  0
  -27.4686  -24.3456   20.7361 H   0  0  0  0  0  0
  -30.4812  -23.9656   20.2352 H   0  0  0  0  0  0
  -29.3487  -24.4299   18.9864 H   0  0  0  0  0  0
  -30.7997  -17.1696   22.0863 H   0  0  0  0  0  0
  -31.4535  -16.9891   20.4958 H   0  0  0  0  0  0
  -29.8179  -26.1981   21.4088 H   0  0  0  0  0  0
  -28.2134  -26.3725   22.0694 H   0  0  0  0  0  0
  -29.1060  -15.3419   21.4261 H   0  0  0  0  0  0
  1 25  1  0  0  0
  1 30  2  0  0  0
  1 84  1  0  0  0
  2  3  1  0  0  0
  2 25  1  0  0  0
  2 85  1  0  0  0
  2 86  1  0  0  0
  3  4  1  0  0  0
  3 87  1  0  0  0
  3 88  1  0  0  0
  4  5  1  0  0  0
  4 89  1  0  0  0
  4 90  1  0  0  0
  5  6  1  0  0  0
  5 26  1  0  0  0
  5 91  1  0  0  0
  6 25  1  0  0  0
  6 92  1  0  0  0
  6 93  1  0  0  0
  7  8  2  0  0  0
  7 26  1  0  0  0
  7 29  1  0  0  0
  8  9  1  0  0  0
  8 22  1  0  0  0
  9 10  1  0  0  0
  9 27  2  0  0  0
 10 11  2  0  0  0
 10 15  1  0  0  0
 11 12  1  0  0  0
 11 94  1  0  0  0
 12 13  2  0  0  0
 12 95  1  0  0  0
 13 14  1  0  0  0
 13 31  1  0  0  0
 14 15  2  0  0  0
 14 96  1  0  0  0
 15 97  1  0  0  0
 16 17  2  0  0  0
 16 21  1  0  0  0
 16 31  1  0  0  0
 17 18  1  0  0  0
 17 98  1  0  0  0
 18 19  2  0  0  0
 18 99  1  0  0  0
 19 20  1  0  0  0
 19 24  1  0  0  0
 20 21  2  0  0  0
 20100  1  0  0  0
 21 23  1  0  0  0
 22 28  1  0  0  0
 22 32  2  0  0  0
 26 27  1  0  0  0
 28101  1  0  0  0
 28102  1  0  0  0
 29103  1  0  0  0
 29104  1  0  0  0
 33 34  1  0  0  0
 33 66  1  0  0  0
 33 70  2  0  0  0
 34 36  1  0  0  0
 34 59  1  0  0  0
 34105  1  0  0  0
 35 44  2  0  0  0
 35 45  1  0  0  0
 35 68  1  0  0  0
 36 56  1  0  0  0
 36106  1  0  0  0
 37 39  1  0  0  0
 37 47  1  0  0  0
 37 66  1  0  0  0
 37107  1  0  0  0
 38 43  2  0  0  0
 38 46  1  0  0  0
 38 47  1  0  0  0
 39 64  1  0  0  0
 39 67  2  0  0  0
 40 52  1  0  0  0
 40 53  2  0  0  0
 40 58  1  0  0  0
 41108  1  0  0  0
 41109  1  0  0  0
 41110  1  0  0  0
 41 48  1  0  0  0
 42 43  1  0  0  0
 42 66  1  0  0  0
 42111  1  0  0  0
 42112  1  0  0  0
 43 44  1  0  0  0
 44113  1  0  0  0
 45 46  2  0  0  0
 45114  1  0  0  0
 46115  1  0  0  0
 47116  1  0  0  0
 47117  1  0  0  0
 48 56  1  0  0  0
 48 65  1  0  0  0
 48118  1  0  0  0
 49 50  1  0  0  0
 49 53  1  0  0  0
 49 64  1  0  0  0
 49119  1  0  0  0
 50 51  1  0  0  0
 50120  1  0  0  0
 50121  1  0  0  0
 51 52  1  0  0  0
 51122  1  0  0  0
 51123  1  0  0  0
 52124  1  0  0  0
 52125  1  0  0  0
 53 54  1  0  0  0
 54 55  2  0  0  0
 54126  1  0  0  0
 55 57  1  0  0  0
 55127  1  0  0  0
 56 69  2  0  0  0
 57 58  2  0  0  0
 57128  1  0  0  0
 58129  1  0  0  0
 59 60  1  0  0  0
 59 61  1  0  0  0
 59 62  1  0  0  0
 60130  1  0  0  0
 60131  1  0  0  0
 60132  1  0  0  0
 61133  1  0  0  0
 61134  1  0  0  0
 61135  1  0  0  0
 62136  1  0  0  0
 62137  1  0  0  0
 62138  1  0  0  0
 63 65  1  0  0  0
 63139  1  0  0  0
 63140  1  0  0  0
 63141  1  0  0  0
 64142  1  0  0  0
 65143  1  0  0  0
 68 81  1  0  0  0
 71 72  2  0  0  0
 71 83  1  0  0  0
 71144  1  0  0  0
 72 73  1  0  0  0
 72 75  1  0  0  0
 73 76  1  0  0  0
 73 82  2  0  0  0
 74 75  1  0  0  0
 74145  1  0  0  0
 74146  1  0  0  0
 74147  1  0  0  0
 75148  1  0  0  0
 75149  1  0  0  0
 76 77  1  0  0  0
 76150  1  0  0  0
 76151  1  0  0  0
 77 80  1  0  0  0
 77152  1  0  0  0
 77153  1  0  0  0
 78 79  1  0  0  0
 78 81  1  0  0  0
 78154  1  0  0  0
 78155  1  0  0  0
 79 83  1  0  0  0
 79156  1  0  0  0
 79157  1  0  0  0
 80 84  1  0  0  0
 80158  1  0  0  0
 80159  1  0  0  0
 81160  1  0  0  0
 81161  1  0  0  0
 82 83  1  0  0  0
 84162  1  0  0  0
M  ISO  4   1 100  68 101  81 101  84 100
M  END
> <chiral flag>
0

> <version>
0

> <s_m_source_file>
/data/baiqing/PycharmProjects/Reinvent-master-3.2/result/LINK_invent/BTK/process_docking_weight1_custom_sum_contain_oxygen_bond_distance_aromatic_linkinvent_7_9_3/rearranged_h_0044.sdf

> <i_m_source_file_index>
20

> <r_mmod_Potential_Energy-OPLS-2005>
-125.630012512207

> <r_mmod_Stretch_Energy-OPLS-2005>
32.9173545837402

> <r_mmod_Bend_Energy-OPLS-2005>
89.826171875

> <r_mmod_Torsional_Energy-OPLS-2005>
243.399612426758

> <r_mmod_Improper_Torsional_Energy-OPLS-2005>
3.71612882614136

> <r_mmod_Van_der_Waal_Energy-OPLS-2005>
122.106956481934

> <r_mmod_Electrostatic_Energy-OPLS-2005>
-410.180419921875

> <r_mmod_Solvation_Energy-OPLS-2005>
-218.954238891602

> <b_mmod_Minimization_Converged-OPLS-2005>
0

> <r_mmod_RMS_Derivative-OPLS-2005>
2.88331437110901

$$$$
20
                    3D
 Structure written by MMmdl.
158166  0  0  1  0            999 V2000
  -30.6302  -14.6049   20.4883 C   0  0  0  0  0  0
  -30.4298  -12.3596   19.4414 C   0  0  0  0  0  0
  -29.5000  -12.4923   18.2154 C   0  0  0  0  0  0
  -28.0217  -12.3482   18.6275 C   0  0  0  0  0  0
  -27.6574  -13.2104   19.8648 C   0  0  2  0  0  0
  -28.7023  -13.0463   20.9926 C   0  0  0  0  0  0
  -25.2565  -13.8152   20.5663 C   0  0  0  0  0  0
  -24.1810  -13.0438   20.9204 C   0  0  0  0  0  0
  -24.6376  -11.6919   20.8737 C   0  0  0  0  0  0
  -23.9038  -10.4312   21.0422 C   0  0  0  0  0  0
  -24.3599   -9.4215   21.9192 C   0  0  0  0  0  0
  -23.6276   -8.2252   22.0763 C   0  0  0  0  0  0
  -22.4255   -8.0283   21.3561 C   0  0  0  0  0  0
  -21.9884   -9.0252   20.4655 C   0  0  0  0  0  0
  -22.7209  -10.2143   20.3060 C   0  0  0  0  0  0
  -21.6866   -6.0713   22.5262 C   0  0  0  0  0  0
  -21.4018   -6.5629   23.8197 C   0  0  0  0  0  0
  -21.3649   -5.6780   24.9163 C   0  0  0  0  0  0
  -21.6058   -4.3053   24.7222 C   0  0  0  0  0  0
  -21.8802   -3.8139   23.4358 C   0  0  0  0  0  0
  -21.9191   -4.6940   22.3404 C   0  0  0  0  0  0
  -22.7838  -13.5259   21.1815 C   0  0  0  0  0  0
  -22.1662   -4.2144   21.0981 F   0  0  0  0  0  0
  -21.5627   -3.4525   25.7736 F   0  0  0  0  0  0
  -30.0228  -13.3771   20.4338 N   0  0  0  0  0  0
  -26.3000  -12.9322   20.3330 N   0  0  0  0  0  0
  -25.9306  -11.6520   20.5771 N   0  0  0  0  0  0
  -22.0449  -12.8311   22.0395 N   0  0  0  0  0  0
  -25.4319  -15.1848   20.4022 N   0  0  0  0  0  0
  -31.7780  -14.7823   20.0746 O   0  0  0  0  0  0
  -21.6634   -6.8864   21.4248 O   0  0  0  0  0  0
  -22.3580  -14.5574   20.6651 O   0  0  0  0  0  0
  -24.6273  -31.8586   23.2000 C   0  0  0  0  0  0
  -25.9123  -32.4772   23.8335 C   0  0  1  0  0  0
  -27.2330  -27.3107   20.1192 C   0  0  0  0  0  0
  -25.5939  -33.8574   24.2269 N   0  0  0  0  0  0
  -23.4194  -30.4795   21.5427 C   0  0  2  0  0  0
  -24.8670  -28.9258   20.1098 C   0  0  0  0  0  0
  -22.7470  -29.4600   22.4910 C   0  0  0  0  0  0
  -18.0283  -28.1397   22.8503 C   0  0  0  0  0  0
  -24.1478  -36.7284   23.2633 C   0  0  0  0  0  0
  -25.9587  -30.7897   21.3643 C   0  0  0  0  0  0
  -26.0338  -29.4116   20.7132 C   0  0  0  0  0  0
  -27.2140  -28.6152   20.7060 C   0  0  0  0  0  0
  -26.0400  -26.8663   19.5081 C   0  0  0  0  0  0
  -24.8710  -27.6593   19.4999 C   0  0  0  0  0  0
  -23.6340  -29.8089   20.1588 C   0  0  0  0  0  0
  -25.4109  -36.3082   24.0331 C   0  0  1  0  0  0
  -20.5893  -28.3698   23.1282 C   0  0  2  0  0  0
  -20.6772  -26.9412   22.5407 C   0  0  0  0  0  0
  -19.5736  -26.6399   21.5215 C   0  0  0  0  0  0
  -18.1922  -26.7943   22.1634 C   0  0  0  0  0  0
  -19.1546  -28.8861   23.2894 C   0  0  0  0  0  0
  -18.9459  -30.1471   23.8910 C   0  0  0  0  0  0
  -17.6454  -30.6598   24.0569 C   0  0  0  0  0  0
  -25.9065  -34.9455   23.5098 C   0  0  0  0  0  0
  -16.5350  -29.9096   23.6323 C   0  0  0  0  0  0
  -16.7278  -28.6519   23.0349 C   0  0  0  0  0  0
  -26.4497  -31.6594   25.0709 C   0  0  0  0  0  0
  -25.3733  -31.3724   26.1429 C   0  0  0  0  0  0
  -27.0317  -30.3023   24.6140 C   0  0  0  0  0  0
  -27.6069  -32.4301   25.7487 C   0  0  0  0  0  0
  -27.5575  -37.1795   24.8468 C   0  0  0  0  0  0
  -21.4179  -29.3063   22.3689 N   0  0  0  0  0  0
  -26.4291  -37.3780   23.9413 N   0  0  0  0  0  0
  -24.6882  -31.0598   22.0940 N   0  0  0  0  0  0
  -23.4174  -28.8171   23.3018 O   0  0  0  0  0  0
  -28.3895  -26.5202   20.1737 O   0  0  0  0  0  0
  -26.5619  -34.8927   22.4651 O   0  0  0  0  0  0
  -23.5442  -32.1386   23.7334 O   0  0  0  0  0  0
  -28.5310  -20.0796   19.9552 C   0  0  0  0  0  0
  -30.3319  -20.8329   21.3086 C   0  0  0  0  0  0
  -29.6669  -19.7305   20.7229 C   0  0  0  0  0  0
  -28.0667  -21.4326   19.9017 C   0  0  0  0  0  0
  -28.7857  -22.4699   20.5674 C   0  0  0  0  0  0
  -25.5635  -21.0968   19.9775 C   0  0  0  0  0  0
  -30.1234  -18.2616   21.0693 C   0  0  0  0  0  0
  -26.7425  -21.6910   19.1968 C   0  0  0  0  0  0
  -28.2510  -23.9422   20.8103 C   0  0  0  0  0  0
  -29.7405  -17.0244   20.1641 C   0  0  0  0  0  0
  -28.4670  -25.0994   19.7399 C   0  0  0  0  0  0
  -29.9292  -22.1345   21.2208 N   0  0  0  0  0  0
  -29.8070  -15.6518   20.7790 N   0  0  0  0  0  0
  -31.4703  -12.4767   19.1343 H   0  0  0  0  0  0
  -30.3543  -11.3582   19.8674 H   0  0  0  0  0  0
  -29.7490  -11.7323   17.4742 H   0  0  0  0  0  0
  -29.6560  -13.4581   17.7273 H   0  0  0  0  0  0
  -27.8385  -11.2934   18.8435 H   0  0  0  0  0  0
  -27.3678  -12.6024   17.7916 H   0  0  0  0  0  0
  -27.6822  -14.2484   19.5364 H   0  0  0  0  0  0
  -28.6997  -12.0201   21.3647 H   0  0  0  0  0  0
  -28.4587  -13.6731   21.8492 H   0  0  0  0  0  0
  -25.2735   -9.5707   22.4781 H   0  0  0  0  0  0
  -23.9970   -7.4654   22.7495 H   0  0  0  0  0  0
  -21.0797   -8.8786   19.8987 H   0  0  0  0  0  0
  -22.3643  -10.9698   19.6185 H   0  0  0  0  0  0
  -21.2014   -7.6142   23.9711 H   0  0  0  0  0  0
  -21.1490   -6.0511   25.9069 H   0  0  0  0  0  0
  -22.0596   -2.7607   23.2849 H   0  0  0  0  0  0
  -22.4003  -11.9955   22.4819 H   0  0  0  0  0  0
  -21.1085  -13.1425   22.2563 H   0  0  0  0  0  0
  -24.6659  -15.8415   20.4948 H   0  0  0  0  0  0
  -26.2655  -15.6157   20.0287 H   0  0  0  0  0  0
  -26.7192  -32.5434   23.1083 H   0  0  0  0  0  0
  -25.0107  -33.9721   25.0433 H   0  0  0  0  0  0
  -22.7162  -31.3012   21.3971 H   0  0  0  0  0  0
  -23.3748  -35.9606   23.3305 H   0  0  0  0  0  0
  -24.3564  -36.8899   22.2046 H   0  0  0  0  0  0
  -23.7239  -37.6492   23.6650 H   0  0  0  0  0  0
  -26.0790  -31.5477   20.5894 H   0  0  0  0  0  0
  -26.8440  -30.8471   21.9884 H   0  0  0  0  0  0
  -28.1120  -28.9918   21.1736 H   0  0  0  0  0  0
  -25.9803  -25.8938   19.0464 H   0  0  0  0  0  0
  -23.9747  -27.2768   19.0303 H   0  0  0  0  0  0
  -23.7560  -30.5829   19.4009 H   0  0  0  0  0  0
  -22.7534  -29.2392   19.8542 H   0  0  0  0  0  0
  -25.1283  -36.1923   25.0830 H   0  0  0  0  0  0
  -20.9991  -28.3278   24.1401 H   0  0  0  0  0  0
  -20.5679  -26.2309   23.3607 H   0  0  0  0  0  0
  -21.6640  -26.7457   22.1201 H   0  0  0  0  0  0
  -19.6911  -25.6319   21.1238 H   0  0  0  0  0  0
  -19.6682  -27.3210   20.6744 H   0  0  0  0  0  0
  -17.4195  -26.6703   21.4032 H   0  0  0  0  0  0
  -18.0334  -26.0072   22.9025 H   0  0  0  0  0  0
  -19.7928  -30.7291   24.2278 H   0  0  0  0  0  0
  -17.5006  -31.6274   24.5166 H   0  0  0  0  0  0
  -15.5349  -30.3001   23.7641 H   0  0  0  0  0  0
  -15.8676  -28.0839   22.7043 H   0  0  0  0  0  0
  -24.5940  -30.7029   25.7764 H   0  0  0  0  0  0
  -24.8878  -32.2884   26.4816 H   0  0  0  0  0  0
  -25.8072  -30.8947   27.0229 H   0  0  0  0  0  0
  -26.2879  -29.6802   24.1140 H   0  0  0  0  0  0
  -27.4002  -29.7242   25.4631 H   0  0  0  0  0  0
  -27.8760  -30.4308   23.9354 H   0  0  0  0  0  0
  -27.2705  -33.3613   26.2050 H   0  0  0  0  0  0
  -28.3902  -32.6831   25.0330 H   0  0  0  0  0  0
  -28.0702  -31.8420   26.5419 H   0  0  0  0  0  0
  -28.2589  -38.0092   24.7502 H   0  0  0  0  0  0
  -28.1067  -36.2621   24.6298 H   0  0  0  0  0  0
  -27.2285  -37.1456   25.8870 H   0  0  0  0  0  0
  -20.9367  -29.8766   21.6884 H   0  0  0  0  0  0
  -26.0159  -38.2849   24.1432 H   0  0  0  0  0  0
  -27.9570  -19.3057   19.4667 H   0  0  0  0  0  0
  -31.1988  -20.6611   21.9279 H   0  0  0  0  0  0
  -24.6408  -21.1506   19.3996 H   0  0  0  0  0  0
  -25.4064  -21.6367   20.9102 H   0  0  0  0  0  0
  -25.7269  -20.0477   20.2281 H   0  0  0  0  0  0
  -29.7490  -18.0667   22.0757 H   0  0  0  0  0  0
  -31.2092  -18.2707   21.1589 H   0  0  0  0  0  0
  -26.7834  -21.2532   18.1979 H   0  0  0  0  0  0
  -26.5733  -22.7578   19.0442 H   0  0  0  0  0  0
  -28.7272  -24.2830   21.7303 H   0  0  0  0  0  0
  -27.1913  -23.8752   21.0593 H   0  0  0  0  0  0
  -28.6992  -17.1237   19.8687 H   0  0  0  0  0  0
  -30.3065  -17.0478   19.2326 H   0  0  0  0  0  0
  -27.8663  -24.9123   18.8493 H   0  0  0  0  0  0
  -29.4951  -24.9875   19.3930 H   0  0  0  0  0  0
  -28.9421  -15.3535   21.2011 H   0  0  0  0  0  0
  1 25  1  0  0  0
  1 30  2  0  0  0
  1 83  1  0  0  0
  2  3  1  0  0  0
  2 25  1  0  0  0
  2 84  1  0  0  0
  2 85  1  0  0  0
  3  4  1  0  0  0
  3 86  1  0  0  0
  3 87  1  0  0  0
  4  5  1  0  0  0
  4 88  1  0  0  0
  4 89  1  0  0  0
  5  6  1  0  0  0
  5 26  1  0  0  0
  5 90  1  0  0  0
  6 25  1  0  0  0
  6 91  1  0  0  0
  6 92  1  0  0  0
  7  8  2  0  0  0
  7 26  1  0  0  0
  7 29  1  0  0  0
  8  9  1  0  0  0
  8 22  1  0  0  0
  9 10  1  0  0  0
  9 27  2  0  0  0
 10 11  2  0  0  0
 10 15  1  0  0  0
 11 12  1  0  0  0
 11 93  1  0  0  0
 12 13  2  0  0  0
 12 94  1  0  0  0
 13 14  1  0  0  0
 13 31  1  0  0  0
 14 15  2  0  0  0
 14 95  1  0  0  0
 15 96  1  0  0  0
 16 17  2  0  0  0
 16 21  1  0  0  0
 16 31  1  0  0  0
 17 18  1  0  0  0
 17 97  1  0  0  0
 18 19  2  0  0  0
 18 98  1  0  0  0
 19 20  1  0  0  0
 19 24  1  0  0  0
 20 21  2  0  0  0
 20 99  1  0  0  0
 21 23  1  0  0  0
 22 28  1  0  0  0
 22 32  2  0  0  0
 26 27  1  0  0  0
 28100  1  0  0  0
 28101  1  0  0  0
 29102  1  0  0  0
 29103  1  0  0  0
 33 34  1  0  0  0
 33 66  1  0  0  0
 33 70  2  0  0  0
 34 36  1  0  0  0
 34 59  1  0  0  0
 34104  1  0  0  0
 35 44  2  0  0  0
 35 45  1  0  0  0
 35 68  1  0  0  0
 36 56  1  0  0  0
 36105  1  0  0  0
 37 39  1  0  0  0
 37 47  1  0  0  0
 37 66  1  0  0  0
 37106  1  0  0  0
 38 43  2  0  0  0
 38 46  1  0  0  0
 38 47  1  0  0  0
 39 64  1  0  0  0
 39 67  2  0  0  0
 40 52  1  0  0  0
 40 53  2  0  0  0
 40 58  1  0  0  0
 41107  1  0  0  0
 41108  1  0  0  0
 41109  1  0  0  0
 41 48  1  0  0  0
 42 43  1  0  0  0
 42 66  1  0  0  0
 42110  1  0  0  0
 42111  1  0  0  0
 43 44  1  0  0  0
 44112  1  0  0  0
 45 46  2  0  0  0
 45113  1  0  0  0
 46114  1  0  0  0
 47115  1  0  0  0
 47116  1  0  0  0
 48 56  1  0  0  0
 48 65  1  0  0  0
 48117  1  0  0  0
 49 50  1  0  0  0
 49 53  1  0  0  0
 49 64  1  0  0  0
 49118  1  0  0  0
 50 51  1  0  0  0
 50119  1  0  0  0
 50120  1  0  0  0
 51 52  1  0  0  0
 51121  1  0  0  0
 51122  1  0  0  0
 52123  1  0  0  0
 52124  1  0  0  0
 53 54  1  0  0  0
 54 55  2  0  0  0
 54125  1  0  0  0
 55 57  1  0  0  0
 55126  1  0  0  0
 56 69  2  0  0  0
 57 58  2  0  0  0
 57127  1  0  0  0
 58128  1  0  0  0
 59 60  1  0  0  0
 59 61  1  0  0  0
 59 62  1  0  0  0
 60129  1  0  0  0
 60130  1  0  0  0
 60131  1  0  0  0
 61132  1  0  0  0
 61133  1  0  0  0
 61134  1  0  0  0
 62135  1  0  0  0
 62136  1  0  0  0
 62137  1  0  0  0
 63 65  1  0  0  0
 63138  1  0  0  0
 63139  1  0  0  0
 63140  1  0  0  0
 64141  1  0  0  0
 65142  1  0  0  0
 68 81  1  0  0  0
 71 73  2  0  0  0
 71 74  1  0  0  0
 71143  1  0  0  0
 72 73  1  0  0  0
 72 82  2  0  0  0
 72144  1  0  0  0
 73 77  1  0  0  0
 74 75  2  0  0  0
 74 78  1  0  0  0
 75 79  1  0  0  0
 75 82  1  0  0  0
 76 78  1  0  0  0
 76145  1  0  0  0
 76146  1  0  0  0
 76147  1  0  0  0
 77 80  1  0  0  0
 77148  1  0  0  0
 77149  1  0  0  0
 78150  1  0  0  0
 78151  1  0  0  0
 79 81  1  0  0  0
 79152  1  0  0  0
 79153  1  0  0  0
 80 83  1  0  0  0
 80154  1  0  0  0
 80155  1  0  0  0
 81156  1  0  0  0
 81157  1  0  0  0
 83158  1  0  0  0
M  ISO  4   1 100  68 101  81 101  83 100
M  END
> <chiral flag>
0

> <version>
0

> <s_m_source_file>
/data/baiqing/PycharmProjects/Reinvent-master-3.2/result/LINK_invent/BTK/process_docking_weight1_custom_sum_contain_oxygen_bond_distance_aromatic_linkinvent_7_9_3/rearranged_h_0044.sdf

> <i_m_source_file_index>
21

> <r_mmod_Potential_Energy-OPLS-2005>
-117.65258026123

> <r_mmod_Stretch_Energy-OPLS-2005>
79.1845092773438

> <r_mmod_Bend_Energy-OPLS-2005>
156.749725341797

> <r_mmod_Torsional_Energy-OPLS-2005>
211.991149902344

> <r_mmod_Improper_Torsional_Energy-OPLS-2005>
9.50694370269775

> <r_mmod_Van_der_Waal_Energy-OPLS-2005>
136.432891845703

> <r_mmod_Electrostatic_Energy-OPLS-2005>
-522.968994140625

> <r_mmod_Solvation_Energy-OPLS-2005>
-230.161529541016

> <b_mmod_Minimization_Converged-OPLS-2005>
0

> <r_mmod_RMS_Derivative-OPLS-2005>
5.30937385559082

$$$$
21
                    3D
 Structure written by MMmdl.
157165  0  0  1  0            999 V2000
  -30.6958  -14.4508   20.5943 C   0  0  0  0  0  0
  -30.4281  -12.3021   19.4123 C   0  0  0  0  0  0
  -29.4929  -12.5127   18.2028 C   0  0  0  0  0  0
  -28.0141  -12.3710   18.6155 C   0  0  0  0  0  0
  -27.6643  -13.2012   19.8793 C   0  0  2  0  0  0
  -28.7053  -12.9562   20.9954 C   0  0  0  0  0  0
  -25.2598  -13.8151   20.5677 C   0  0  0  0  0  0
  -24.1841  -13.0435   20.9165 C   0  0  0  0  0  0
  -24.6383  -11.6897   20.8726 C   0  0  0  0  0  0
  -23.9046  -10.4287   21.0405 C   0  0  0  0  0  0
  -24.3603   -9.4208   21.9183 C   0  0  0  0  0  0
  -23.6283   -8.2240   22.0754 C   0  0  0  0  0  0
  -22.4267   -8.0273   21.3541 C   0  0  0  0  0  0
  -21.9897   -9.0244   20.4646 C   0  0  0  0  0  0
  -22.7219  -10.2127   20.3058 C   0  0  0  0  0  0
  -21.6848   -6.0729   22.5278 C   0  0  0  0  0  0
  -21.4011   -6.5637   23.8211 C   0  0  0  0  0  0
  -21.3662   -5.6794   24.9174 C   0  0  0  0  0  0
  -21.6045   -4.3055   24.7230 C   0  0  0  0  0  0
  -21.8817   -3.8143   23.4351 C   0  0  0  0  0  0
  -21.9193   -4.6955   22.3406 C   0  0  0  0  0  0
  -22.7865  -13.5239   21.1837 C   0  0  0  0  0  0
  -22.1659   -4.2142   21.0981 F   0  0  0  0  0  0
  -21.5633   -3.4540   25.7745 F   0  0  0  0  0  0
  -30.0393  -13.2692   20.4490 N   0  0  0  0  0  0
  -26.3033  -12.9308   20.3378 N   0  0  0  0  0  0
  -25.9309  -11.6470   20.5757 N   0  0  0  0  0  0
  -22.0514  -12.8232   22.0399 N   0  0  0  0  0  0
  -25.4341  -15.1867   20.4093 N   0  0  0  0  0  0
  -31.8058  -14.6775   20.1045 O   0  0  0  0  0  0
  -21.6634   -6.8868   21.4237 O   0  0  0  0  0  0
  -22.3548  -14.5547   20.6690 O   0  0  0  0  0  0
  -24.6135  -31.8685   23.2101 C   0  0  0  0  0  0
  -25.9030  -32.4828   23.8396 C   0  0  1  0  0  0
  -27.2383  -27.4404   20.0994 C   0  0  0  0  0  0
  -25.5890  -33.8626   24.2331 N   0  0  0  0  0  0
  -23.4016  -30.4909   21.5509 C   0  0  2  0  0  0
  -24.8489  -28.9543   20.1198 C   0  0  0  0  0  0
  -22.7402  -29.4661   22.4998 C   0  0  0  0  0  0
  -18.0270  -28.1375   22.8492 C   0  0  0  0  0  0
  -24.1488  -36.7319   23.2639 C   0  0  0  0  0  0
  -25.9294  -30.8358   21.3623 C   0  0  0  0  0  0
  -26.0084  -29.4692   20.7130 C   0  0  0  0  0  0
  -27.2074  -28.7211   20.6964 C   0  0  0  0  0  0
  -26.0632  -26.9415   19.4941 C   0  0  0  0  0  0
  -24.8704  -27.6888   19.5082 C   0  0  0  0  0  0
  -23.6104  -29.8201   20.1669 C   0  0  0  0  0  0
  -25.4109  -36.3118   24.0340 C   0  0  1  0  0  0
  -20.5859  -28.3659   23.1324 C   0  0  2  0  0  0
  -20.6762  -26.9398   22.5417 C   0  0  0  0  0  0
  -19.5743  -26.6385   21.5211 C   0  0  0  0  0  0
  -18.1921  -26.7923   22.1622 C   0  0  0  0  0  0
  -19.1518  -28.8833   23.2906 C   0  0  0  0  0  0
  -18.9447  -30.1440   23.8917 C   0  0  0  0  0  0
  -17.6449  -30.6582   24.0566 C   0  0  0  0  0  0
  -25.9031  -34.9480   23.5134 C   0  0  0  0  0  0
  -16.5342  -29.9084   23.6325 C   0  0  0  0  0  0
  -16.7260  -28.6502   23.0347 C   0  0  0  0  0  0
  -26.4465  -31.6601   25.0717 C   0  0  0  0  0  0
  -25.3736  -31.3696   26.1468 C   0  0  0  0  0  0
  -27.0294  -30.3049   24.6077 C   0  0  0  0  0  0
  -27.6048  -32.4313   25.7475 C   0  0  0  0  0  0
  -27.5584  -37.1815   24.8465 C   0  0  0  0  0  0
  -21.4133  -29.3029   22.3735 N   0  0  0  0  0  0
  -26.4300  -37.3796   23.9405 N   0  0  0  0  0  0
  -24.6664  -31.0791   22.0999 N   0  0  0  0  0  0
  -23.4179  -28.8204   23.3036 O   0  0  0  0  0  0
  -28.4158  -26.7265   20.0654 O   0  0  0  0  0  0
  -26.5594  -34.8930   22.4694 O   0  0  0  0  0  0
  -23.5329  -32.1433   23.7502 O   0  0  0  0  0  0
  -31.3511  -24.2077   18.7136 C   0  0  0  0  0  0
  -31.0125  -22.9059   18.3124 C   0  0  0  0  0  0
  -29.7785  -22.4110   18.7844 C   0  0  0  0  0  0
  -29.3586  -24.4408   19.8074 C   0  0  0  0  0  0
  -29.1921  -21.0632   18.3514 C   0  0  0  0  0  0
  -28.3644  -25.3608   20.5238 C   0  0  0  0  0  0
  -30.0037  -19.7646   18.6134 C   0  0  0  0  0  0
  -29.8888  -19.1019   20.0045 C   0  0  0  0  0  0
  -30.0953  -17.5691   19.9177 C   0  0  0  0  0  0
  -30.2737  -16.8508   21.2748 C   0  0  0  0  0  0
  -30.5252  -24.9735   19.4531 N   0  0  0  0  0  0
  -28.9652  -23.1932   19.5329 N   0  0  0  0  0  0
  -29.9783  -15.4155   21.1941 N   0  0  0  0  0  0
  -32.0534  -22.0361   17.2387 Cl  0  0  0  0  0  0
  -31.4707  -12.4152   19.1094 H   0  0  0  0  0  0
  -30.3388  -11.2851   19.7976 H   0  0  0  0  0  0
  -29.7299  -11.7978   17.4140 H   0  0  0  0  0  0
  -29.6590  -13.5036   17.7763 H   0  0  0  0  0  0
  -27.8201  -11.3137   18.8007 H   0  0  0  0  0  0
  -27.3636  -12.6578   17.7884 H   0  0  0  0  0  0
  -27.7163  -14.2523   19.5938 H   0  0  0  0  0  0
  -28.6799  -11.9119   21.3110 H   0  0  0  0  0  0
  -28.4634  -13.5297   21.8910 H   0  0  0  0  0  0
  -25.2754   -9.5683   22.4744 H   0  0  0  0  0  0
  -23.9994   -7.4637   22.7475 H   0  0  0  0  0  0
  -21.0825   -8.8756   19.8954 H   0  0  0  0  0  0
  -22.3678  -10.9656   19.6162 H   0  0  0  0  0  0
  -21.1999   -7.6146   23.9709 H   0  0  0  0  0  0
  -21.1488   -6.0528   25.9077 H   0  0  0  0  0  0
  -22.0596   -2.7605   23.2857 H   0  0  0  0  0  0
  -22.4126  -11.9883   22.4771 H   0  0  0  0  0  0
  -21.1137  -13.1257   22.2620 H   0  0  0  0  0  0
  -24.6705  -15.8454   20.5180 H   0  0  0  0  0  0
  -26.2916  -15.6238   20.0952 H   0  0  0  0  0  0
  -26.7102  -32.5549   23.1165 H   0  0  0  0  0  0
  -25.0052  -33.9789   25.0484 H   0  0  0  0  0  0
  -22.6902  -31.3070   21.4099 H   0  0  0  0  0  0
  -23.3747  -35.9657   23.3316 H   0  0  0  0  0  0
  -24.3583  -36.8916   22.2050 H   0  0  0  0  0  0
  -23.7246  -37.6533   23.6639 H   0  0  0  0  0  0
  -26.0383  -31.6008   20.5919 H   0  0  0  0  0  0
  -26.8183  -30.8923   21.9787 H   0  0  0  0  0  0
  -28.1057  -29.1197   21.1475 H   0  0  0  0  0  0
  -26.0650  -25.9839   18.9930 H   0  0  0  0  0  0
  -23.9811  -27.2891   19.0410 H   0  0  0  0  0  0
  -23.7186  -30.5926   19.4045 H   0  0  0  0  0  0
  -22.7352  -29.2379   19.8729 H   0  0  0  0  0  0
  -25.1287  -36.1992   25.0835 H   0  0  0  0  0  0
  -20.9950  -28.3220   24.1444 H   0  0  0  0  0  0
  -20.5667  -26.2265   23.3598 H   0  0  0  0  0  0
  -21.6634  -26.7446   22.1210 H   0  0  0  0  0  0
  -19.6905  -25.6301   21.1227 H   0  0  0  0  0  0
  -19.6684  -27.3207   20.6751 H   0  0  0  0  0  0
  -17.4192  -26.6673   21.4023 H   0  0  0  0  0  0
  -18.0324  -26.0059   22.9013 H   0  0  0  0  0  0
  -19.7923  -30.7248   24.2298 H   0  0  0  0  0  0
  -17.5006  -31.6265   24.5160 H   0  0  0  0  0  0
  -15.5343  -30.2993   23.7635 H   0  0  0  0  0  0
  -15.8661  -28.0826   22.7049 H   0  0  0  0  0  0
  -24.5907  -30.7048   25.7800 H   0  0  0  0  0  0
  -24.8929  -32.2846   26.4939 H   0  0  0  0  0  0
  -25.8093  -30.8846   27.0211 H   0  0  0  0  0  0
  -26.2830  -29.6811   24.1145 H   0  0  0  0  0  0
  -27.4089  -29.7284   25.4525 H   0  0  0  0  0  0
  -27.8655  -30.4379   23.9206 H   0  0  0  0  0  0
  -27.2676  -33.3599   26.2094 H   0  0  0  0  0  0
  -28.3836  -32.6894   25.0285 H   0  0  0  0  0  0
  -28.0742  -31.8409   26.5356 H   0  0  0  0  0  0
  -28.2614  -38.0101   24.7509 H   0  0  0  0  0  0
  -28.1069  -36.2634   24.6301 H   0  0  0  0  0  0
  -27.2300  -37.1481   25.8869 H   0  0  0  0  0  0
  -20.9289  -29.8754   21.6961 H   0  0  0  0  0  0
  -26.0197  -38.2881   24.1392 H   0  0  0  0  0  0
  -32.2795  -24.6606   18.3979 H   0  0  0  0  0  0
  -29.0411  -21.1485   17.2751 H   0  0  0  0  0  0
  -28.1900  -20.9496   18.7658 H   0  0  0  0  0  0
  -28.6091  -25.3571   21.5861 H   0  0  0  0  0  0
  -27.3690  -24.9234   20.4505 H   0  0  0  0  0  0
  -31.0520  -19.8748   18.3471 H   0  0  0  0  0  0
  -29.6155  -19.0436   17.8929 H   0  0  0  0  0  0
  -28.9060  -19.2982   20.4367 H   0  0  0  0  0  0
  -30.6172  -19.5508   20.6812 H   0  0  0  0  0  0
  -30.9656  -17.3521   19.2954 H   0  0  0  0  0  0
  -29.2391  -17.1439   19.3920 H   0  0  0  0  0  0
  -29.5916  -17.2821   22.0088 H   0  0  0  0  0  0
  -31.2829  -17.0071   21.6593 H   0  0  0  0  0  0
  -29.0856  -15.1232   21.5635 H   0  0  0  0  0  0
  1 25  1  0  0  0
  1 30  2  0  0  0
  1 83  1  0  0  0
  2  3  1  0  0  0
  2 25  1  0  0  0
  2 85  1  0  0  0
  2 86  1  0  0  0
  3  4  1  0  0  0
  3 87  1  0  0  0
  3 88  1  0  0  0
  4  5  1  0  0  0
  4 89  1  0  0  0
  4 90  1  0  0  0
  5  6  1  0  0  0
  5 26  1  0  0  0
  5 91  1  0  0  0
  6 25  1  0  0  0
  6 92  1  0  0  0
  6 93  1  0  0  0
  7  8  2  0  0  0
  7 26  1  0  0  0
  7 29  1  0  0  0
  8  9  1  0  0  0
  8 22  1  0  0  0
  9 10  1  0  0  0
  9 27  2  0  0  0
 10 11  2  0  0  0
 10 15  1  0  0  0
 11 12  1  0  0  0
 11 94  1  0  0  0
 12 13  2  0  0  0
 12 95  1  0  0  0
 13 14  1  0  0  0
 13 31  1  0  0  0
 14 15  2  0  0  0
 14 96  1  0  0  0
 15 97  1  0  0  0
 16 17  2  0  0  0
 16 21  1  0  0  0
 16 31  1  0  0  0
 17 18  1  0  0  0
 17 98  1  0  0  0
 18 19  2  0  0  0
 18 99  1  0  0  0
 19 20  1  0  0  0
 19 24  1  0  0  0
 20 21  2  0  0  0
 20100  1  0  0  0
 21 23  1  0  0  0
 22 28  1  0  0  0
 22 32  2  0  0  0
 26 27  1  0  0  0
 28101  1  0  0  0
 28102  1  0  0  0
 29103  1  0  0  0
 29104  1  0  0  0
 33 34  1  0  0  0
 33 66  1  0  0  0
 33 70  2  0  0  0
 34 36  1  0  0  0
 34 59  1  0  0  0
 34105  1  0  0  0
 35 44  2  0  0  0
 35 45  1  0  0  0
 35 68  1  0  0  0
 36 56  1  0  0  0
 36106  1  0  0  0
 37 39  1  0  0  0
 37 47  1  0  0  0
 37 66  1  0  0  0
 37107  1  0  0  0
 38 43  2  0  0  0
 38 46  1  0  0  0
 38 47  1  0  0  0
 39 64  1  0  0  0
 39 67  2  0  0  0
 40 52  1  0  0  0
 40 53  2  0  0  0
 40 58  1  0  0  0
 41108  1  0  0  0
 41109  1  0  0  0
 41110  1  0  0  0
 41 48  1  0  0  0
 42 43  1  0  0  0
 42 66  1  0  0  0
 42111  1  0  0  0
 42112  1  0  0  0
 43 44  1  0  0  0
 44113  1  0  0  0
 45 46  2  0  0  0
 45114  1  0  0  0
 46115  1  0  0  0
 47116  1  0  0  0
 47117  1  0  0  0
 48 56  1  0  0  0
 48 65  1  0  0  0
 48118  1  0  0  0
 49 50  1  0  0  0
 49 53  1  0  0  0
 49 64  1  0  0  0
 49119  1  0  0  0
 50 51  1  0  0  0
 50120  1  0  0  0
 50121  1  0  0  0
 51 52  1  0  0  0
 51122  1  0  0  0
 51123  1  0  0  0
 52124  1  0  0  0
 52125  1  0  0  0
 53 54  1  0  0  0
 54 55  2  0  0  0
 54126  1  0  0  0
 55 57  1  0  0  0
 55127  1  0  0  0
 56 69  2  0  0  0
 57 58  2  0  0  0
 57128  1  0  0  0
 58129  1  0  0  0
 59 60  1  0  0  0
 59 61  1  0  0  0
 59 62  1  0  0  0
 60130  1  0  0  0
 60131  1  0  0  0
 60132  1  0  0  0
 61133  1  0  0  0
 61134  1  0  0  0
 61135  1  0  0  0
 62136  1  0  0  0
 62137  1  0  0  0
 62138  1  0  0  0
 63 65  1  0  0  0
 63139  1  0  0  0
 63140  1  0  0  0
 63141  1  0  0  0
 64142  1  0  0  0
 65143  1  0  0  0
 68 76  1  0  0  0
 71 72  2  0  0  0
 71 81  1  0  0  0
 71144  1  0  0  0
 72 73  1  0  0  0
 72 84  1  0  0  0
 73 75  1  0  0  0
 73 82  2  0  0  0
 74 76  1  0  0  0
 74 81  2  0  0  0
 74 82  1  0  0  0
 75 77  1  0  0  0
 75145  1  0  0  0
 75146  1  0  0  0
 76147  1  0  0  0
 76148  1  0  0  0
 77 78  1  0  0  0
 77149  1  0  0  0
 77150  1  0  0  0
 78 79  1  0  0  0
 78151  1  0  0  0
 78152  1  0  0  0
 79 80  1  0  0  0
 79153  1  0  0  0
 79154  1  0  0  0
 80 83  1  0  0  0
 80155  1  0  0  0
 80156  1  0  0  0
 83157  1  0  0  0
M  ISO  4   1 100  68 101  76 101  83 100
M  END
> <chiral flag>
0

> <version>
0

> <s_m_source_file>
/data/baiqing/PycharmProjects/Reinvent-master-3.2/result/LINK_invent/BTK/process_docking_weight1_custom_sum_contain_oxygen_bond_distance_aromatic_linkinvent_7_9_3/rearranged_h_0044.sdf

> <i_m_source_file_index>
22

> <r_mmod_Potential_Energy-OPLS-2005>
-319.573516845703

> <r_mmod_Stretch_Energy-OPLS-2005>
35.7289161682129

> <r_mmod_Bend_Energy-OPLS-2005>
104.537483215332

> <r_mmod_Torsional_Energy-OPLS-2005>
220.926071166992

> <r_mmod_Improper_Torsional_Energy-OPLS-2005>
4.12226295471191

> <r_mmod_Van_der_Waal_Energy-OPLS-2005>
159.445114135742

> <r_mmod_Electrostatic_Energy-OPLS-2005>
-625.8154296875

> <r_mmod_Solvation_Energy-OPLS-2005>
-228.422439575195

> <b_mmod_Minimization_Converged-OPLS-2005>
0

> <r_mmod_RMS_Derivative-OPLS-2005>
0.737407982349396

$$$$
22
                    3D
 Structure written by MMmdl.
156164  0  0  1  0            999 V2000
  -30.5558  -14.9475   20.4141 C   0  0  0  0  0  0
  -30.4390  -12.5950   19.4769 C   0  0  0  0  0  0
  -29.5129  -12.5224   18.2421 C   0  0  0  0  0  0
  -28.0453  -12.3184   18.6654 C   0  0  0  0  0  0
  -27.6255  -13.2507   19.8313 C   0  0  2  0  0  0
  -28.6744  -13.2885   20.9602 C   0  0  0  0  0  0
  -25.2454  -13.8221   20.5728 C   0  0  0  0  0  0
  -24.1773  -13.0435   20.9250 C   0  0  0  0  0  0
  -24.6395  -11.6927   20.8767 C   0  0  0  0  0  0
  -23.9079  -10.4295   21.0413 C   0  0  0  0  0  0
  -24.3631   -9.4207   21.9184 C   0  0  0  0  0  0
  -23.6308   -8.2239   22.0741 C   0  0  0  0  0  0
  -22.4290   -8.0285   21.3533 C   0  0  0  0  0  0
  -21.9929   -9.0260   20.4636 C   0  0  0  0  0  0
  -22.7254  -10.2141   20.3056 C   0  0  0  0  0  0
  -21.6853   -6.0745   22.5275 C   0  0  0  0  0  0
  -21.4010   -6.5647   23.8207 C   0  0  0  0  0  0
  -21.3657   -5.6799   24.9170 C   0  0  0  0  0  0
  -21.6040   -4.3061   24.7221 C   0  0  0  0  0  0
  -21.8824   -3.8157   23.4342 C   0  0  0  0  0  0
  -21.9198   -4.6975   22.3398 C   0  0  0  0  0  0
  -22.7797  -13.5208   21.1908 C   0  0  0  0  0  0
  -22.1669   -4.2163   21.0976 F   0  0  0  0  0  0
  -21.5630   -3.4541   25.7734 F   0  0  0  0  0  0
  -29.9437  -13.6984   20.3443 N   0  0  0  0  0  0
  -26.2876  -12.9454   20.3247 N   0  0  0  0  0  0
  -25.9326  -11.6580   20.5743 N   0  0  0  0  0  0
  -22.0455  -12.8167   22.0455 N   0  0  0  0  0  0
  -25.4097  -15.1943   20.4145 N   0  0  0  0  0  0
  -31.7746  -14.9928   20.2211 O   0  0  0  0  0  0
  -21.6643   -6.8889   21.4235 O   0  0  0  0  0  0
  -22.3472  -14.5511   20.6767 O   0  0  0  0  0  0
  -24.6461  -31.8417   23.1892 C   0  0  0  0  0  0
  -25.9222  -32.4674   23.8294 C   0  0  1  0  0  0
  -27.2184  -27.1229   20.1487 C   0  0  0  0  0  0
  -25.5969  -33.8488   24.2196 N   0  0  0  0  0  0
  -23.4509  -30.4629   21.5337 C   0  0  2  0  0  0
  -24.9011  -28.8885   20.1122 C   0  0  0  0  0  0
  -22.7577  -29.4542   22.4837 C   0  0  0  0  0  0
  -18.0304  -28.1381   22.8464 C   0  0  0  0  0  0
  -24.1486  -36.7256   23.2641 C   0  0  0  0  0  0
  -26.0094  -30.7070   21.3946 C   0  0  0  0  0  0
  -26.0792  -29.3191   20.7353 C   0  0  0  0  0  0
  -27.2393  -28.4534   20.7365 C   0  0  0  0  0  0
  -26.0154  -26.8036   19.4798 C   0  0  0  0  0  0
  -24.8824  -27.6435   19.4696 C   0  0  0  0  0  0
  -23.6799  -29.7932   20.1540 C   0  0  0  0  0  0
  -25.4117  -36.3015   24.0305 C   0  0  1  0  0  0
  -20.5922  -28.3726   23.1198 C   0  0  2  0  0  0
  -20.6788  -26.9426   22.5382 C   0  0  0  0  0  0
  -19.5766  -26.6373   21.5186 C   0  0  0  0  0  0
  -18.1944  -26.7918   22.1606 C   0  0  0  0  0  0
  -19.1563  -28.8868   23.2822 C   0  0  0  0  0  0
  -18.9486  -30.1462   23.8854 C   0  0  0  0  0  0
  -17.6484  -30.6578   24.0554 C   0  0  0  0  0  0
  -25.9075  -34.9392   23.5056 C   0  0  0  0  0  0
  -16.5372  -29.9074   23.6340 C   0  0  0  0  0  0
  -16.7289  -28.6492   23.0356 C   0  0  0  0  0  0
  -26.4537  -31.6551   25.0751 C   0  0  0  0  0  0
  -25.3708  -31.3766   26.1442 C   0  0  0  0  0  0
  -27.0402  -30.2921   24.6390 C   0  0  0  0  0  0
  -27.6058  -32.4345   25.7530 C   0  0  0  0  0  0
  -27.5572  -37.1782   24.8463 C   0  0  0  0  0  0
  -21.4266  -29.3055   22.3575 N   0  0  0  0  0  0
  -26.4276  -37.3731   23.9408 N   0  0  0  0  0  0
  -24.7219  -31.0255   22.0937 N   0  0  0  0  0  0
  -23.4206  -28.8082   23.2995 O   0  0  0  0  0  0
  -28.2663  -26.1248   20.1961 O   0  0  0  0  0  0
  -26.5662  -34.8892   22.4639 O   0  0  0  0  0  0
  -23.5573  -32.1330   23.7078 O   0  0  0  0  0  0
  -28.2507  -21.6651   20.6954 C   0  0  0  0  0  0
  -28.6308  -20.1720   20.6009 C   0  0  0  0  0  0
  -26.9887  -21.5597   21.2693 C   0  0  0  0  0  0
  -25.9984  -22.5878   21.7346 C   0  0  0  0  0  0
  -25.4208  -19.6229   21.8966 C   0  0  0  0  0  0
  -28.8584  -23.1859   20.3660 C   0  0  0  0  0  0
  -29.7373  -19.1023   20.0704 C   0  0  0  0  0  0
  -30.1509  -17.6470   20.8470 C   0  0  0  0  0  0
  -27.9186  -24.6080   20.3407 C   0  0  0  0  0  0
  -27.6177  -19.4266   20.9976 N   0  0  0  0  0  0
  -26.6446  -20.2320   21.3982 N   0  0  0  0  0  0
  -29.7900  -16.1441   20.4958 N   0  0  0  0  0  0
  -31.4668  -12.7651   19.1529 H   0  0  0  0  0  0
  -30.4457  -11.6487   20.0202 H   0  0  0  0  0  0
  -29.8252  -11.7128   17.5811 H   0  0  0  0  0  0
  -29.6000  -13.4425   17.6624 H   0  0  0  0  0  0
  -27.9322  -11.2767   18.9674 H   0  0  0  0  0  0
  -27.3814  -12.4607   17.8113 H   0  0  0  0  0  0
  -27.5832  -14.2515   19.4007 H   0  0  0  0  0  0
  -28.7645  -12.3184   21.4503 H   0  0  0  0  0  0
  -28.3780  -14.0016   21.7315 H   0  0  0  0  0  0
  -25.2770   -9.5686   22.4765 H   0  0  0  0  0  0
  -24.0024   -7.4623   22.7444 H   0  0  0  0  0  0
  -21.0868   -8.8783   19.8928 H   0  0  0  0  0  0
  -22.3712  -10.9692   19.6177 H   0  0  0  0  0  0
  -21.1991   -7.6153   23.9715 H   0  0  0  0  0  0
  -21.1472   -6.0525   25.9072 H   0  0  0  0  0  0
  -22.0603   -2.7620   23.2834 H   0  0  0  0  0  0
  -22.4108  -11.9844   22.4841 H   0  0  0  0  0  0
  -21.1054  -13.1139   22.2650 H   0  0  0  0  0  0
  -24.6389  -15.8434   20.5287 H   0  0  0  0  0  0
  -26.2509  -15.6381   20.0698 H   0  0  0  0  0  0
  -26.7291  -32.5261   23.1030 H   0  0  0  0  0  0
  -25.0083  -33.9611   25.0319 H   0  0  0  0  0  0
  -22.7546  -31.2892   21.3765 H   0  0  0  0  0  0
  -23.3741  -35.9590   23.3277 H   0  0  0  0  0  0
  -24.3568  -36.8935   22.2064 H   0  0  0  0  0  0
  -23.7271  -37.6450   23.6708 H   0  0  0  0  0  0
  -26.1760  -31.4573   20.6212 H   0  0  0  0  0  0
  -26.8762  -30.7528   22.0427 H   0  0  0  0  0  0
  -28.1357  -28.7775   21.2453 H   0  0  0  0  0  0
  -25.9105  -25.8685   18.9529 H   0  0  0  0  0  0
  -23.9870  -27.3096   18.9644 H   0  0  0  0  0  0
  -23.8249  -30.5693   19.4021 H   0  0  0  0  0  0
  -22.7945  -29.2402   19.8362 H   0  0  0  0  0  0
  -25.1304  -36.1833   25.0794 H   0  0  0  0  0  0
  -21.0003  -28.3318   24.1324 H   0  0  0  0  0  0
  -20.5663  -26.2344   23.3611 H   0  0  0  0  0  0
  -21.6652  -26.7414   22.1197 H   0  0  0  0  0  0
  -19.6934  -25.6275   21.1242 H   0  0  0  0  0  0
  -19.6695  -27.3150   20.6687 H   0  0  0  0  0  0
  -17.4215  -26.6648   21.4013 H   0  0  0  0  0  0
  -18.0360  -26.0051   22.9000 H   0  0  0  0  0  0
  -19.7963  -30.7278   24.2203 H   0  0  0  0  0  0
  -17.5045  -31.6250   24.5167 H   0  0  0  0  0  0
  -15.5375  -30.2970   23.7680 H   0  0  0  0  0  0
  -15.8687  -28.0801   22.7096 H   0  0  0  0  0  0
  -24.5861  -30.7148   25.7771 H   0  0  0  0  0  0
  -24.8931  -32.2957   26.4838 H   0  0  0  0  0  0
  -25.7968  -30.8957   27.0257 H   0  0  0  0  0  0
  -26.3030  -29.6628   24.1389 H   0  0  0  0  0  0
  -27.3954  -29.7254   25.5014 H   0  0  0  0  0  0
  -27.8976  -30.4114   23.9759 H   0  0  0  0  0  0
  -27.2634  -33.3677   26.2014 H   0  0  0  0  0  0
  -28.3902  -32.6864   25.0379 H   0  0  0  0  0  0
  -28.0679  -31.8546   26.5532 H   0  0  0  0  0  0
  -28.2560  -38.0102   24.7502 H   0  0  0  0  0  0
  -28.1094  -36.2630   24.6277 H   0  0  0  0  0  0
  -27.2296  -37.1424   25.8868 H   0  0  0  0  0  0
  -20.9471  -29.8807   21.6788 H   0  0  0  0  0  0
  -26.0131  -38.2795   24.1404 H   0  0  0  0  0  0
  -25.6182  -23.1809   20.9032 H   0  0  0  0  0  0
  -26.4365  -23.2344   22.4922 H   0  0  0  0  0  0
  -25.1278  -22.1484   22.2162 H   0  0  0  0  0  0
  -24.5515  -20.1002   21.4431 H   0  0  0  0  0  0
  -25.3702  -19.7299   22.9808 H   0  0  0  0  0  0
  -25.3854  -18.5604   21.6498 H   0  0  0  0  0  0
  -29.3751  -23.1478   19.4072 H   0  0  0  0  0  0
  -29.6587  -23.3816   21.0799 H   0  0  0  0  0  0
  -30.6714  -19.6635   20.0081 H   0  0  0  0  0  0
  -29.5200  -18.8745   19.0268 H   0  0  0  0  0  0
  -29.9212  -17.7763   21.9047 H   0  0  0  0  0  0
  -31.2414  -17.6371   20.8298 H   0  0  0  0  0  0
  -27.4232  -24.6496   21.3030 H   0  0  0  0  0  0
  -27.1558  -24.3795   19.6023 H   0  0  0  0  0  0
  -28.7958  -15.9705   20.4809 H   0  0  0  0  0  0
  1 25  1  0  0  0
  1 30  2  0  0  0
  1 82  1  0  0  0
  2  3  1  0  0  0
  2 25  1  0  0  0
  2 83  1  0  0  0
  2 84  1  0  0  0
  3  4  1  0  0  0
  3 85  1  0  0  0
  3 86  1  0  0  0
  4  5  1  0  0  0
  4 87  1  0  0  0
  4 88  1  0  0  0
  5  6  1  0  0  0
  5 26  1  0  0  0
  5 89  1  0  0  0
  6 25  1  0  0  0
  6 90  1  0  0  0
  6 91  1  0  0  0
  7  8  2  0  0  0
  7 26  1  0  0  0
  7 29  1  0  0  0
  8  9  1  0  0  0
  8 22  1  0  0  0
  9 10  1  0  0  0
  9 27  2  0  0  0
 10 11  2  0  0  0
 10 15  1  0  0  0
 11 12  1  0  0  0
 11 92  1  0  0  0
 12 13  2  0  0  0
 12 93  1  0  0  0
 13 14  1  0  0  0
 13 31  1  0  0  0
 14 15  2  0  0  0
 14 94  1  0  0  0
 15 95  1  0  0  0
 16 17  2  0  0  0
 16 21  1  0  0  0
 16 31  1  0  0  0
 17 18  1  0  0  0
 17 96  1  0  0  0
 18 19  2  0  0  0
 18 97  1  0  0  0
 19 20  1  0  0  0
 19 24  1  0  0  0
 20 21  2  0  0  0
 20 98  1  0  0  0
 21 23  1  0  0  0
 22 28  1  0  0  0
 22 32  2  0  0  0
 26 27  1  0  0  0
 28 99  1  0  0  0
 28100  1  0  0  0
 29101  1  0  0  0
 29102  1  0  0  0
 33 34  1  0  0  0
 33 66  1  0  0  0
 33 70  2  0  0  0
 34 36  1  0  0  0
 34 59  1  0  0  0
 34103  1  0  0  0
 35 44  2  0  0  0
 35 45  1  0  0  0
 35 68  1  0  0  0
 36 56  1  0  0  0
 36104  1  0  0  0
 37 39  1  0  0  0
 37 47  1  0  0  0
 37 66  1  0  0  0
 37105  1  0  0  0
 38 43  2  0  0  0
 38 46  1  0  0  0
 38 47  1  0  0  0
 39 64  1  0  0  0
 39 67  2  0  0  0
 40 52  1  0  0  0
 40 53  2  0  0  0
 40 58  1  0  0  0
 41106  1  0  0  0
 41107  1  0  0  0
 41108  1  0  0  0
 41 48  1  0  0  0
 42 43  1  0  0  0
 42 66  1  0  0  0
 42109  1  0  0  0
 42110  1  0  0  0
 43 44  1  0  0  0
 44111  1  0  0  0
 45 46  2  0  0  0
 45112  1  0  0  0
 46113  1  0  0  0
 47114  1  0  0  0
 47115  1  0  0  0
 48 56  1  0  0  0
 48 65  1  0  0  0
 48116  1  0  0  0
 49 50  1  0  0  0
 49 53  1  0  0  0
 49 64  1  0  0  0
 49117  1  0  0  0
 50 51  1  0  0  0
 50118  1  0  0  0
 50119  1  0  0  0
 51 52  1  0  0  0
 51120  1  0  0  0
 51121  1  0  0  0
 52122  1  0  0  0
 52123  1  0  0  0
 53 54  1  0  0  0
 54 55  2  0  0  0
 54124  1  0  0  0
 55 57  1  0  0  0
 55125  1  0  0  0
 56 69  2  0  0  0
 57 58  2  0  0  0
 57126  1  0  0  0
 58127  1  0  0  0
 59 60  1  0  0  0
 59 61  1  0  0  0
 59 62  1  0  0  0
 60128  1  0  0  0
 60129  1  0  0  0
 60130  1  0  0  0
 61131  1  0  0  0
 61132  1  0  0  0
 61133  1  0  0  0
 62134  1  0  0  0
 62135  1  0  0  0
 62136  1  0  0  0
 63 65  1  0  0  0
 63137  1  0  0  0
 63138  1  0  0  0
 63139  1  0  0  0
 64140  1  0  0  0
 65141  1  0  0  0
 68 79  1  0  0  0
 71 72  1  0  0  0
 71 73  2  0  0  0
 71 76  1  0  0  0
 72 77  1  0  0  0
 72 80  2  0  0  0
 73 74  1  0  0  0
 73 81  1  0  0  0
 74142  1  0  0  0
 74143  1  0  0  0
 74144  1  0  0  0
 75 81  1  0  0  0
 75145  1  0  0  0
 75146  1  0  0  0
 75147  1  0  0  0
 76 79  1  0  0  0
 76148  1  0  0  0
 76149  1  0  0  0
 77 78  1  0  0  0
 77150  1  0  0  0
 77151  1  0  0  0
 78 82  1  0  0  0
 78152  1  0  0  0
 78153  1  0  0  0
 79154  1  0  0  0
 79155  1  0  0  0
 80 81  1  0  0  0
 82156  1  0  0  0
M  ISO  4   1 100  68 101  79 101  82 100
M  END
> <chiral flag>
0

> <version>
0

> <s_m_source_file>
/data/baiqing/PycharmProjects/Reinvent-master-3.2/result/LINK_invent/BTK/process_docking_weight1_custom_sum_contain_oxygen_bond_distance_aromatic_linkinvent_7_9_3/rearranged_h_0044.sdf

> <i_m_source_file_index>
23

> <r_mmod_Potential_Energy-OPLS-2005>
546.358215332031

> <r_mmod_Stretch_Energy-OPLS-2005>
291.534332275391

> <r_mmod_Bend_Energy-OPLS-2005>
322.041046142578

> <r_mmod_Torsional_Energy-OPLS-2005>
231.084625244141

> <r_mmod_Improper_Torsional_Energy-OPLS-2005>
4.68978834152222

> <r_mmod_Van_der_Waal_Energy-OPLS-2005>
122.025260925293

> <r_mmod_Electrostatic_Energy-OPLS-2005>
-406.656097412109

> <r_mmod_Solvation_Energy-OPLS-2005>
-218.988845825195

> <b_mmod_Minimization_Converged-OPLS-2005>
0

> <r_mmod_RMS_Derivative-OPLS-2005>
1.88095307350159

$$$$
23
                    3D
 Structure written by MMmdl.
176184  0  0  1  0            999 V2000
  -30.8040  -14.3751   20.7066 C   0  0  0  0  0  0
  -30.4262  -12.3134   19.4031 C   0  0  0  0  0  0
  -29.4941  -12.5300   18.1987 C   0  0  0  0  0  0
  -28.0189  -12.3822   18.6170 C   0  0  0  0  0  0
  -27.6694  -13.2117   19.8796 C   0  0  2  0  0  0
  -28.7117  -12.9851   20.9980 C   0  0  0  0  0  0
  -25.2613  -13.8173   20.5694 C   0  0  0  0  0  0
  -24.1875  -13.0458   20.9167 C   0  0  0  0  0  0
  -24.6448  -11.6922   20.8758 C   0  0  0  0  0  0
  -23.9111  -10.4306   21.0416 C   0  0  0  0  0  0
  -24.3648   -9.4203   21.9195 C   0  0  0  0  0  0
  -23.6306   -8.2255   22.0757 C   0  0  0  0  0  0
  -22.4284   -8.0306   21.3554 C   0  0  0  0  0  0
  -21.9936   -9.0286   20.4652 C   0  0  0  0  0  0
  -22.7283  -10.2157   20.3059 C   0  0  0  0  0  0
  -21.6849   -6.0752   22.5291 C   0  0  0  0  0  0
  -21.4011   -6.5647   23.8229 C   0  0  0  0  0  0
  -21.3653   -5.6791   24.9181 C   0  0  0  0  0  0
  -21.6036   -4.3055   24.7223 C   0  0  0  0  0  0
  -21.8815   -3.8157   23.4345 C   0  0  0  0  0  0
  -21.9193   -4.6980   22.3404 C   0  0  0  0  0  0
  -22.7886  -13.5236   21.1814 C   0  0  0  0  0  0
  -22.1659   -4.2168   21.0980 F   0  0  0  0  0  0
  -21.5621   -3.4532   25.7733 F   0  0  0  0  0  0
  -30.0545  -13.2686   20.4563 N   0  0  0  0  0  0
  -26.3093  -12.9375   20.3412 N   0  0  0  0  0  0
  -25.9383  -11.6522   20.5786 N   0  0  0  0  0  0
  -22.0508  -12.8262   22.0362 N   0  0  0  0  0  0
  -25.4279  -15.1911   20.4112 N   0  0  0  0  0  0
  -31.8347  -14.6452   20.0838 O   0  0  0  0  0  0
  -21.6642   -6.8910   21.4262 O   0  0  0  0  0  0
  -22.3587  -14.5542   20.6631 O   0  0  0  0  0  0
  -24.6095  -31.8739   23.2091 C   0  0  0  0  0  0
  -25.9000  -32.4859   23.8370 C   0  0  1  0  0  0
  -27.2361  -27.4632   20.1069 C   0  0  0  0  0  0
  -25.5842  -33.8644   24.2314 N   0  0  0  0  0  0
  -23.3949  -30.4922   21.5531 C   0  0  2  0  0  0
  -24.8407  -28.9493   20.1180 C   0  0  0  0  0  0
  -22.7393  -29.4692   22.5060 C   0  0  0  0  0  0
  -18.0298  -28.1368   22.8484 C   0  0  0  0  0  0
  -24.1454  -36.7344   23.2625 C   0  0  0  0  0  0
  -25.9139  -30.8442   21.3519 C   0  0  0  0  0  0
  -25.9928  -29.4741   20.7159 C   0  0  0  0  0  0
  -27.1912  -28.7371   20.7114 C   0  0  0  0  0  0
  -26.0805  -26.9512   19.4848 C   0  0  0  0  0  0
  -24.8777  -27.6866   19.4949 C   0  0  0  0  0  0
  -23.5988  -29.8120   20.1713 C   0  0  0  0  0  0
  -25.4081  -36.3140   24.0343 C   0  0  1  0  0  0
  -20.5854  -28.3645   23.1316 C   0  0  2  0  0  0
  -20.6755  -26.9393   22.5389 C   0  0  0  0  0  0
  -19.5729  -26.6385   21.5177 C   0  0  0  0  0  0
  -18.1925  -26.7922   22.1614 C   0  0  0  0  0  0
  -19.1542  -28.8832   23.2887 C   0  0  0  0  0  0
  -18.9463  -30.1462   23.8859 C   0  0  0  0  0  0
  -17.6456  -30.6570   24.0586 C   0  0  0  0  0  0
  -25.8997  -34.9501   23.5123 C   0  0  0  0  0  0
  -16.5354  -29.9043   23.6349 C   0  0  0  0  0  0
  -16.7277  -28.6479   23.0312 C   0  0  0  0  0  0
  -26.4426  -31.6622   25.0703 C   0  0  0  0  0  0
  -25.3739  -31.3713   26.1486 C   0  0  0  0  0  0
  -27.0194  -30.3077   24.6003 C   0  0  0  0  0  0
  -27.6012  -32.4299   25.7463 C   0  0  0  0  0  0
  -27.5601  -37.1825   24.8465 C   0  0  0  0  0  0
  -21.4135  -29.3049   22.3766 N   0  0  0  0  0  0
  -26.4294  -37.3818   23.9426 N   0  0  0  0  0  0
  -24.6593  -31.0831   22.0990 N   0  0  0  0  0  0
  -23.4182  -28.8263   23.3106 O   0  0  0  0  0  0
  -28.3889  -26.7225   20.0928 O   0  0  0  0  0  0
  -26.5581  -34.8962   22.4703 O   0  0  0  0  0  0
  -23.5314  -32.1488   23.7513 O   0  0  0  0  0  0
  -28.5355  -23.6380   19.0184 C   0  0  0  0  0  0
  -28.7196  -22.8813   20.1904 C   0  0  0  0  0  0
  -28.5570  -21.4651   20.0922 C   0  0  0  0  0  0
  -28.1619  -23.0162   17.8226 C   0  0  0  0  0  0
  -28.1109  -20.9392   18.8511 C   0  0  0  0  0  0
  -27.7094  -19.4820   18.6787 C   0  0  0  0  0  0
  -30.0934  -25.2549   16.1571 C   0  0  0  0  0  0
  -29.0817  -23.6390   21.4715 C   0  0  0  0  0  0
  -28.8128  -20.4853   21.2482 C   0  0  0  0  0  0
  -27.9903  -23.8272   16.5470 C   0  0  0  0  0  0
  -29.2959  -24.0011   15.7485 C   0  0  0  0  0  0
  -28.2103  -24.8974   21.7609 C   0  0  0  0  0  0
  -30.1223  -19.6623   21.1020 C   0  0  0  0  0  0
  -30.0507  -18.3056   21.8383 C   0  0  0  0  0  0
  -31.3412  -17.4678   21.7574 C   0  0  0  0  0  0
  -31.2283  -16.0973   22.4654 C   0  0  0  0  0  0
  -28.8243  -26.2666   21.3744 C   0  0  0  0  0  0
  -27.9425  -21.6919   17.7429 N   0  0  0  0  0  0
  -30.4065  -15.1178   21.7476 N   0  0  0  0  0  0
  -31.4665  -12.4213   19.0920 H   0  0  0  0  0  0
  -30.3398  -11.2960   19.7857 H   0  0  0  0  0  0
  -29.7332  -11.8191   17.4067 H   0  0  0  0  0  0
  -29.6627  -13.5239   17.7803 H   0  0  0  0  0  0
  -27.8341  -11.3244   18.8083 H   0  0  0  0  0  0
  -27.3662  -12.6641   17.7911 H   0  0  0  0  0  0
  -27.7190  -14.2621   19.5913 H   0  0  0  0  0  0
  -28.6853  -11.9525   21.3510 H   0  0  0  0  0  0
  -28.4571  -13.5937   21.8664 H   0  0  0  0  0  0
  -25.2796   -9.5671   22.4773 H   0  0  0  0  0  0
  -24.0003   -7.4647   22.7480 H   0  0  0  0  0  0
  -21.0862   -8.8833   19.8967 H   0  0  0  0  0  0
  -22.3764  -10.9704   19.6168 H   0  0  0  0  0  0
  -21.2009   -7.6152   23.9744 H   0  0  0  0  0  0
  -21.1461   -6.0509   25.9085 H   0  0  0  0  0  0
  -22.0597   -2.7621   23.2837 H   0  0  0  0  0  0
  -22.4069  -11.9929   22.4798 H   0  0  0  0  0  0
  -21.1128  -13.1338   22.2520 H   0  0  0  0  0  0
  -24.6574  -15.8398   20.5250 H   0  0  0  0  0  0
  -26.2811  -15.6426   20.1076 H   0  0  0  0  0  0
  -26.7103  -32.5613   23.1154 H   0  0  0  0  0  0
  -24.9995  -33.9732   25.0460 H   0  0  0  0  0  0
  -22.6861  -31.3106   21.4157 H   0  0  0  0  0  0
  -23.3705  -35.9680   23.3270 H   0  0  0  0  0  0
  -24.3566  -36.8972   22.2044 H   0  0  0  0  0  0
  -23.7203  -37.6555   23.6620 H   0  0  0  0  0  0
  -26.0037  -31.5982   20.5648 H   0  0  0  0  0  0
  -26.8085  -30.9159   21.9555 H   0  0  0  0  0  0
  -28.0819  -29.1443   21.1683 H   0  0  0  0  0  0
  -26.1101  -25.9808   19.0070 H   0  0  0  0  0  0
  -23.9973  -27.2770   19.0175 H   0  0  0  0  0  0
  -23.7085  -30.5809   19.4087 H   0  0  0  0  0  0
  -22.7194  -29.2282   19.8871 H   0  0  0  0  0  0
  -25.1275  -36.1998   25.0847 H   0  0  0  0  0  0
  -20.9953  -28.3180   24.1426 H   0  0  0  0  0  0
  -20.5564  -26.2284   23.3580 H   0  0  0  0  0  0
  -21.6637  -26.7411   22.1228 H   0  0  0  0  0  0
  -19.6861  -25.6280   21.1221 H   0  0  0  0  0  0
  -19.6618  -27.3171   20.6679 H   0  0  0  0  0  0
  -17.4178  -26.6682   21.4030 H   0  0  0  0  0  0
  -18.0335  -26.0075   22.9028 H   0  0  0  0  0  0
  -19.7938  -30.7338   24.2131 H   0  0  0  0  0  0
  -17.4997  -31.6224   24.5221 H   0  0  0  0  0  0
  -15.5325  -30.2905   23.7687 H   0  0  0  0  0  0
  -15.8716  -28.0803   22.6945 H   0  0  0  0  0  0
  -24.5835  -30.7146   25.7833 H   0  0  0  0  0  0
  -24.9013  -32.2865   26.5076 H   0  0  0  0  0  0
  -25.8143  -30.8789   27.0169 H   0  0  0  0  0  0
  -26.2698  -29.6913   24.1043 H   0  0  0  0  0  0
  -27.3976  -29.7240   25.4401 H   0  0  0  0  0  0
  -27.8501  -30.4403   23.9075 H   0  0  0  0  0  0
  -27.2644  -33.3556   26.2132 H   0  0  0  0  0  0
  -28.3768  -32.6955   25.0269 H   0  0  0  0  0  0
  -28.0724  -31.8393   26.5322 H   0  0  0  0  0  0
  -28.2616  -38.0129   24.7581 H   0  0  0  0  0  0
  -28.1127  -36.2695   24.6206 H   0  0  0  0  0  0
  -27.2381  -37.1397   25.8883 H   0  0  0  0  0  0
  -20.9286  -29.8783   21.7001 H   0  0  0  0  0  0
  -26.0205  -38.2914   24.1398 H   0  0  0  0  0  0
  -28.6928  -24.7027   19.0147 H   0  0  0  0  0  0
  -26.8635  -19.2482   19.3275 H   0  0  0  0  0  0
  -28.5215  -18.8023   18.9328 H   0  0  0  0  0  0
  -27.4018  -19.2628   17.6548 H   0  0  0  0  0  0
  -30.3860  -25.2161   17.2084 H   0  0  0  0  0  0
  -29.5128  -26.1654   15.9998 H   0  0  0  0  0  0
  -31.0116  -25.3311   15.5720 H   0  0  0  0  0  0
  -30.1375  -23.9065   21.4262 H   0  0  0  0  0  0
  -28.9871  -22.9944   22.3399 H   0  0  0  0  0  0
  -27.9546  -19.8157   21.2874 H   0  0  0  0  0  0
  -28.7962  -20.9617   22.2233 H   0  0  0  0  0  0
  -27.5676  -24.8044   16.7809 H   0  0  0  0  0  0
  -27.2479  -23.3350   15.9196 H   0  0  0  0  0  0
  -29.9104  -23.1038   15.8404 H   0  0  0  0  0  0
  -29.0492  -24.0775   14.6886 H   0  0  0  0  0  0
  -28.0857  -24.9293   22.8427 H   0  0  0  0  0  0
  -27.1943  -24.7914   21.3741 H   0  0  0  0  0  0
  -30.9723  -20.2485   21.4561 H   0  0  0  0  0  0
  -30.3332  -19.4633   20.0498 H   0  0  0  0  0  0
  -29.2264  -17.7215   21.4302 H   0  0  0  0  0  0
  -29.8134  -18.4840   22.8884 H   0  0  0  0  0  0
  -32.1602  -18.0282   22.2143 H   0  0  0  0  0  0
  -31.6248  -17.3234   20.7129 H   0  0  0  0  0  0
  -30.8074  -16.2256   23.4632 H   0  0  0  0  0  0
  -32.2231  -15.6739   22.6228 H   0  0  0  0  0  0
  -29.9130  -26.2261   21.3783 H   0  0  0  0  0  0
  -28.5688  -26.9967   22.1445 H   0  0  0  0  0  0
  -29.5317  -14.8550   22.1743 H   0  0  0  0  0  0
  1 25  1  0  0  0
  1 30  2  0  0  0
  1 89  1  0  0  0
  2  3  1  0  0  0
  2 25  1  0  0  0
  2 90  1  0  0  0
  2 91  1  0  0  0
  3  4  1  0  0  0
  3 92  1  0  0  0
  3 93  1  0  0  0
  4  5  1  0  0  0
  4 94  1  0  0  0
  4 95  1  0  0  0
  5  6  1  0  0  0
  5 26  1  0  0  0
  5 96  1  0  0  0
  6 25  1  0  0  0
  6 97  1  0  0  0
  6 98  1  0  0  0
  7  8  2  0  0  0
  7 26  1  0  0  0
  7 29  1  0  0  0
  8  9  1  0  0  0
  8 22  1  0  0  0
  9 10  1  0  0  0
  9 27  2  0  0  0
 10 11  2  0  0  0
 10 15  1  0  0  0
 11 12  1  0  0  0
 11 99  1  0  0  0
 12 13  2  0  0  0
 12100  1  0  0  0
 13 14  1  0  0  0
 13 31  1  0  0  0
 14 15  2  0  0  0
 14101  1  0  0  0
 15102  1  0  0  0
 16 17  2  0  0  0
 16 21  1  0  0  0
 16 31  1  0  0  0
 17 18  1  0  0  0
 17103  1  0  0  0
 18 19  2  0  0  0
 18104  1  0  0  0
 19 20  1  0  0  0
 19 24  1  0  0  0
 20 21  2  0  0  0
 20105  1  0  0  0
 21 23  1  0  0  0
 22 28  1  0  0  0
 22 32  2  0  0  0
 26 27  1  0  0  0
 28106  1  0  0  0
 28107  1  0  0  0
 29108  1  0  0  0
 29109  1  0  0  0
 33 34  1  0  0  0
 33 66  1  0  0  0
 33 70  2  0  0  0
 34 36  1  0  0  0
 34 59  1  0  0  0
 34110  1  0  0  0
 35 44  2  0  0  0
 35 45  1  0  0  0
 35 68  1  0  0  0
 36 56  1  0  0  0
 36111  1  0  0  0
 37 39  1  0  0  0
 37 47  1  0  0  0
 37 66  1  0  0  0
 37112  1  0  0  0
 38 43  2  0  0  0
 38 46  1  0  0  0
 38 47  1  0  0  0
 39 64  1  0  0  0
 39 67  2  0  0  0
 40 52  1  0  0  0
 40 53  2  0  0  0
 40 58  1  0  0  0
 41113  1  0  0  0
 41114  1  0  0  0
 41115  1  0  0  0
 41 48  1  0  0  0
 42 43  1  0  0  0
 42 66  1  0  0  0
 42116  1  0  0  0
 42117  1  0  0  0
 43 44  1  0  0  0
 44118  1  0  0  0
 45 46  2  0  0  0
 45119  1  0  0  0
 46120  1  0  0  0
 47121  1  0  0  0
 47122  1  0  0  0
 48 56  1  0  0  0
 48 65  1  0  0  0
 48123  1  0  0  0
 49 50  1  0  0  0
 49 53  1  0  0  0
 49 64  1  0  0  0
 49124  1  0  0  0
 50 51  1  0  0  0
 50125  1  0  0  0
 50126  1  0  0  0
 51 52  1  0  0  0
 51127  1  0  0  0
 51128  1  0  0  0
 52129  1  0  0  0
 52130  1  0  0  0
 53 54  1  0  0  0
 54 55  2  0  0  0
 54131  1  0  0  0
 55 57  1  0  0  0
 55132  1  0  0  0
 56 69  2  0  0  0
 57 58  2  0  0  0
 57133  1  0  0  0
 58134  1  0  0  0
 59 60  1  0  0  0
 59 61  1  0  0  0
 59 62  1  0  0  0
 60135  1  0  0  0
 60136  1  0  0  0
 60137  1  0  0  0
 61138  1  0  0  0
 61139  1  0  0  0
 61140  1  0  0  0
 62141  1  0  0  0
 62142  1  0  0  0
 62143  1  0  0  0
 63 65  1  0  0  0
 63144  1  0  0  0
 63145  1  0  0  0
 63146  1  0  0  0
 64147  1  0  0  0
 65148  1  0  0  0
 68 87  1  0  0  0
 71 72  2  0  0  0
 71 74  1  0  0  0
 71149  1  0  0  0
 72 73  1  0  0  0
 72 78  1  0  0  0
 73 75  2  0  0  0
 73 79  1  0  0  0
 74 80  1  0  0  0
 74 88  2  0  0  0
 75 76  1  0  0  0
 75 88  1  0  0  0
 76150  1  0  0  0
 76151  1  0  0  0
 76152  1  0  0  0
 77 81  1  0  0  0
 77153  1  0  0  0
 77154  1  0  0  0
 77155  1  0  0  0
 78 82  1  0  0  0
 78156  1  0  0  0
 78157  1  0  0  0
 79 83  1  0  0  0
 79158  1  0  0  0
 79159  1  0  0  0
 80 81  1  0  0  0
 80160  1  0  0  0
 80161  1  0  0  0
 81162  1  0  0  0
 81163  1  0  0  0
 82 87  1  0  0  0
 82164  1  0  0  0
 82165  1  0  0  0
 83 84  1  0  0  0
 83166  1  0  0  0
 83167  1  0  0  0
 84 85  1  0  0  0
 84168  1  0  0  0
 84169  1  0  0  0
 85 86  1  0  0  0
 85170  1  0  0  0
 85171  1  0  0  0
 86 89  1  0  0  0
 86172  1  0  0  0
 86173  1  0  0  0
 87174  1  0  0  0
 87175  1  0  0  0
 89176  1  0  0  0
M  ISO  4   1 100  68 101  87 101  89 100
M  END
> <chiral flag>
0

> <version>
0

> <s_m_source_file>
/data/baiqing/PycharmProjects/Reinvent-master-3.2/result/LINK_invent/BTK/process_docking_weight1_custom_sum_contain_oxygen_bond_distance_aromatic_linkinvent_7_9_3/rearranged_h_0044.sdf

> <i_m_source_file_index>
24

> <r_mmod_Potential_Energy-OPLS-2005>
-213.853820800781

> <r_mmod_Stretch_Energy-OPLS-2005>
37.3652191162109

> <r_mmod_Bend_Energy-OPLS-2005>
102.410095214844

> <r_mmod_Torsional_Energy-OPLS-2005>
240.795272827148

> <r_mmod_Improper_Torsional_Energy-OPLS-2005>
2.49515175819397

> <r_mmod_Van_der_Waal_Energy-OPLS-2005>
152.475830078125

> <r_mmod_Electrostatic_Energy-OPLS-2005>
-542.092041015625

> <r_mmod_Solvation_Energy-OPLS-2005>
-215.513305664062

> <b_mmod_Minimization_Converged-OPLS-2005>
0

> <r_mmod_RMS_Derivative-OPLS-2005>
5.04502964019775

$$$$
24
                    3D
 Structure written by MMmdl.
164172  0  0  1  0            999 V2000
  -30.6251  -14.7109   20.5349 C   0  0  0  0  0  0
  -30.4220  -12.4541   19.4543 C   0  0  0  0  0  0
  -29.5054  -12.5353   18.2130 C   0  0  0  0  0  0
  -28.0248  -12.3703   18.6124 C   0  0  0  0  0  0
  -27.6420  -13.2317   19.8464 C   0  0  2  0  0  0
  -28.6777  -13.0989   20.9771 C   0  0  0  0  0  0
  -25.2514  -13.8181   20.5663 C   0  0  0  0  0  0
  -24.1796  -13.0409   20.9169 C   0  0  0  0  0  0
  -24.6382  -11.6894   20.8675 C   0  0  0  0  0  0
  -23.9054  -10.4265   21.0354 C   0  0  0  0  0  0
  -24.3608   -9.4195   21.9153 C   0  0  0  0  0  0
  -23.6280   -8.2232   22.0722 C   0  0  0  0  0  0
  -22.4266   -8.0262   21.3510 C   0  0  0  0  0  0
  -21.9885   -9.0236   20.4625 C   0  0  0  0  0  0
  -22.7205  -10.2113   20.3030 C   0  0  0  0  0  0
  -21.6850   -6.0718   22.5280 C   0  0  0  0  0  0
  -21.4017   -6.5630   23.8213 C   0  0  0  0  0  0
  -21.3668   -5.6784   24.9174 C   0  0  0  0  0  0
  -21.6033   -4.3049   24.7222 C   0  0  0  0  0  0
  -21.8824   -3.8136   23.4353 C   0  0  0  0  0  0
  -21.9181   -4.6942   22.3403 C   0  0  0  0  0  0
  -22.7826  -13.5223   21.1822 C   0  0  0  0  0  0
  -22.1647   -4.2126   21.0979 F   0  0  0  0  0  0
  -21.5610   -3.4542   25.7741 F   0  0  0  0  0  0
  -29.9835  -13.4902   20.4252 N   0  0  0  0  0  0
  -26.2921  -12.9388   20.3198 N   0  0  0  0  0  0
  -25.9296  -11.6525   20.5622 N   0  0  0  0  0  0
  -22.0474  -12.8237   22.0410 N   0  0  0  0  0  0
  -25.4188  -15.1895   20.4151 N   0  0  0  0  0  0
  -31.7552  -14.8344   20.0496 O   0  0  0  0  0  0
  -21.6619   -6.8862   21.4239 O   0  0  0  0  0  0
  -22.3526  -14.5532   20.6672 O   0  0  0  0  0  0
  -24.6306  -31.8549   23.2019 C   0  0  0  0  0  0
  -25.9130  -32.4762   23.8363 C   0  0  1  0  0  0
  -27.2085  -27.2633   20.1296 C   0  0  0  0  0  0
  -25.5901  -33.8553   24.2283 N   0  0  0  0  0  0
  -23.4294  -30.4830   21.5394 C   0  0  2  0  0  0
  -24.8791  -28.9344   20.1089 C   0  0  0  0  0  0
  -22.7496  -29.4618   22.4853 C   0  0  0  0  0  0
  -18.0291  -28.1393   22.8470 C   0  0  0  0  0  0
  -24.1481  -36.7284   23.2643 C   0  0  0  0  0  0
  -25.9771  -30.7732   21.3816 C   0  0  0  0  0  0
  -26.0511  -29.3946   20.7238 C   0  0  0  0  0  0
  -27.2246  -28.5715   20.7218 C   0  0  0  0  0  0
  -26.0262  -26.8867   19.4604 C   0  0  0  0  0  0
  -24.8716  -27.6896   19.4640 C   0  0  0  0  0  0
  -23.6512  -29.8201   20.1558 C   0  0  0  0  0  0
  -25.4106  -36.3076   24.0336 C   0  0  1  0  0  0
  -20.5894  -28.3704   23.1230 C   0  0  2  0  0  0
  -20.6743  -26.9404   22.5390 C   0  0  0  0  0  0
  -19.5726  -26.6382   21.5179 C   0  0  0  0  0  0
  -18.1917  -26.7940   22.1619 C   0  0  0  0  0  0
  -19.1547  -28.8858   23.2861 C   0  0  0  0  0  0
  -18.9477  -30.1447   23.8901 C   0  0  0  0  0  0
  -17.6476  -30.6581   24.0555 C   0  0  0  0  0  0
  -25.9040  -34.9435   23.5110 C   0  0  0  0  0  0
  -16.5361  -29.9081   23.6312 C   0  0  0  0  0  0
  -16.7281  -28.6496   23.0337 C   0  0  0  0  0  0
  -26.4480  -31.6590   25.0760 C   0  0  0  0  0  0
  -25.3716  -31.3736   26.1497 C   0  0  0  0  0  0
  -27.0290  -30.2998   24.6248 C   0  0  0  0  0  0
  -27.6045  -32.4301   25.7526 C   0  0  0  0  0  0
  -27.5577  -37.1802   24.8465 C   0  0  0  0  0  0
  -21.4195  -29.3079   22.3620 N   0  0  0  0  0  0
  -26.4288  -37.3774   23.9414 N   0  0  0  0  0  0
  -24.6980  -31.0554   22.0970 N   0  0  0  0  0  0
  -23.4194  -28.8093   23.2905 O   0  0  0  0  0  0
  -28.2705  -26.3360   20.1676 O   0  0  0  0  0  0
  -26.5600  -34.8894   22.4685 O   0  0  0  0  0  0
  -23.5456  -32.1315   23.7330 O   0  0  0  0  0  0
  -30.2547  -22.7225   18.4056 C   0  0  0  0  0  0
  -29.5726  -23.8310   18.9326 C   0  0  0  0  0  0
  -30.1435  -21.4537   19.0149 C   0  0  0  0  0  0
  -28.7689  -23.6731   20.0697 C   0  0  0  0  0  0
  -29.3333  -21.2955   20.1650 C   0  0  0  0  0  0
  -30.9581  -20.3059   18.4404 C   0  0  0  0  0  0
  -28.7034  -16.4013   24.6576 C   0  0  0  0  0  0
  -29.3697  -19.9331   20.9984 C   0  0  0  0  0  0
  -27.9383  -24.9225   20.5922 C   0  0  0  0  0  0
  -28.5925  -16.3488   23.1308 C   0  0  0  0  0  0
  -29.1540  -18.4377   20.3892 C   0  0  0  0  0  0
  -29.8853  -15.7852   22.5270 C   0  0  0  0  0  0
  -30.2771  -17.2836   20.6324 C   0  0  0  0  0  0
  -28.6587  -22.4107   20.6578 N   0  0  0  0  0  0
  -29.9519  -15.8291   21.0515 N   0  0  0  0  0  0
  -31.4616  -12.5764   19.1506 H   0  0  0  0  0  0
  -30.3631  -11.4612   19.9028 H   0  0  0  0  0  0
  -29.7888  -11.7776   17.4793 H   0  0  0  0  0  0
  -29.6464  -13.4942   17.7101 H   0  0  0  0  0  0
  -27.8488  -11.3166   18.8212 H   0  0  0  0  0  0
  -27.3828  -12.6191   17.7643 H   0  0  0  0  0  0
  -27.6564  -14.2703   19.5145 H   0  0  0  0  0  0
  -28.7116  -12.0711   21.3440 H   0  0  0  0  0  0
  -28.3758  -13.7055   21.8278 H   0  0  0  0  0  0
  -25.2761   -9.5653   22.4717 H   0  0  0  0  0  0
  -23.9964   -7.4627   22.7458 H   0  0  0  0  0  0
  -21.0791   -8.8771   19.8963 H   0  0  0  0  0  0
  -22.3667  -10.9639   19.6138 H   0  0  0  0  0  0
  -21.2048   -7.6151   23.9714 H   0  0  0  0  0  0
  -21.1462   -6.0517   25.9071 H   0  0  0  0  0  0
  -22.0594   -2.7594   23.2863 H   0  0  0  0  0  0
  -22.4112  -11.9968   22.4906 H   0  0  0  0  0  0
  -21.1057  -13.1198   22.2538 H   0  0  0  0  0  0
  -24.6546  -15.8446   20.5376 H   0  0  0  0  0  0
  -26.2842  -15.6319   20.1335 H   0  0  0  0  0  0
  -26.7210  -32.5432   23.1123 H   0  0  0  0  0  0
  -25.0053  -33.9667   25.0427 H   0  0  0  0  0  0
  -22.7273  -31.3066   21.3901 H   0  0  0  0  0  0
  -23.3750  -35.9616   23.3295 H   0  0  0  0  0  0
  -24.3590  -36.8893   22.2065 H   0  0  0  0  0  0
  -23.7204  -37.6475   23.6657 H   0  0  0  0  0  0
  -26.1146  -31.5342   20.6116 H   0  0  0  0  0  0
  -26.8562  -30.8275   22.0126 H   0  0  0  0  0  0
  -28.1260  -28.9158   21.2104 H   0  0  0  0  0  0
  -25.9797  -25.9498   18.9233 H   0  0  0  0  0  0
  -23.9791  -27.3425   18.9607 H   0  0  0  0  0  0
  -23.7786  -30.5938   19.3986 H   0  0  0  0  0  0
  -22.7709  -29.2530   19.8475 H   0  0  0  0  0  0
  -25.1285  -36.1948   25.0829 H   0  0  0  0  0  0
  -21.0020  -28.3298   24.1337 H   0  0  0  0  0  0
  -20.5543  -26.2331   23.3613 H   0  0  0  0  0  0
  -21.6615  -26.7337   22.1236 H   0  0  0  0  0  0
  -19.6860  -25.6281   21.1216 H   0  0  0  0  0  0
  -19.6658  -27.3172   20.6689 H   0  0  0  0  0  0
  -17.4153  -26.6650   21.4055 H   0  0  0  0  0  0
  -18.0353  -26.0104   22.9046 H   0  0  0  0  0  0
  -19.7954  -30.7243   24.2292 H   0  0  0  0  0  0
  -17.5031  -31.6267   24.5160 H   0  0  0  0  0  0
  -15.5356  -30.2980   23.7637 H   0  0  0  0  0  0
  -15.8684  -28.0808   22.7053 H   0  0  0  0  0  0
  -24.5974  -30.6951   25.7882 H   0  0  0  0  0  0
  -24.8807  -32.2881   26.4838 H   0  0  0  0  0  0
  -25.8093  -30.9052   27.0325 H   0  0  0  0  0  0
  -26.2857  -29.6804   24.1224 H   0  0  0  0  0  0
  -27.3872  -29.7220   25.4774 H   0  0  0  0  0  0
  -27.8784  -30.4220   23.9531 H   0  0  0  0  0  0
  -27.2707  -33.3657   26.2016 H   0  0  0  0  0  0
  -28.3942  -32.6738   25.0410 H   0  0  0  0  0  0
  -28.0622  -31.8473   26.5527 H   0  0  0  0  0  0
  -28.2585  -38.0106   24.7517 H   0  0  0  0  0  0
  -28.1073  -36.2630   24.6289 H   0  0  0  0  0  0
  -27.2294  -37.1451   25.8865 H   0  0  0  0  0  0
  -20.9350  -29.8913   21.6930 H   0  0  0  0  0  0
  -26.0172  -38.2850   24.1433 H   0  0  0  0  0  0
  -30.8821  -22.8538   17.5352 H   0  0  0  0  0  0
  -29.6529  -24.8002   18.4607 H   0  0  0  0  0  0
  -30.3193  -19.5868   17.9255 H   0  0  0  0  0  0
  -31.5162  -19.7984   19.2284 H   0  0  0  0  0  0
  -31.6833  -20.6615   17.7088 H   0  0  0  0  0  0
  -27.7685  -16.7252   25.1136 H   0  0  0  0  0  0
  -29.4852  -17.0958   24.9694 H   0  0  0  0  0  0
  -28.9522  -15.4193   25.0608 H   0  0  0  0  0  0
  -30.3308  -19.9464   21.5153 H   0  0  0  0  0  0
  -28.6448  -20.0523   21.8048 H   0  0  0  0  0  0
  -27.9835  -24.9092   21.6794 H   0  0  0  0  0  0
  -26.9060  -24.6675   20.3588 H   0  0  0  0  0  0
  -28.4009  -17.3606   22.7789 H   0  0  0  0  0  0
  -27.7348  -15.7420   22.8381 H   0  0  0  0  0  0
  -28.9712  -18.5137   19.3186 H   0  0  0  0  0  0
  -28.1859  -18.0860   20.7469 H   0  0  0  0  0  0
  -30.7388  -16.3220   22.9422 H   0  0  0  0  0  0
  -30.0172  -14.7701   22.9150 H   0  0  0  0  0  0
  -30.8530  -17.2334   19.7070 H   0  0  0  0  0  0
  -30.9974  -17.6918   21.3415 H   0  0  0  0  0  0
  1 25  1  0  0  0
  1 30  2  0  0  0
  1 85  1  0  0  0
  2  3  1  0  0  0
  2 25  1  0  0  0
  2 86  1  0  0  0
  2 87  1  0  0  0
  3  4  1  0  0  0
  3 88  1  0  0  0
  3 89  1  0  0  0
  4  5  1  0  0  0
  4 90  1  0  0  0
  4 91  1  0  0  0
  5  6  1  0  0  0
  5 26  1  0  0  0
  5 92  1  0  0  0
  6 25  1  0  0  0
  6 93  1  0  0  0
  6 94  1  0  0  0
  7  8  2  0  0  0
  7 26  1  0  0  0
  7 29  1  0  0  0
  8  9  1  0  0  0
  8 22  1  0  0  0
  9 10  1  0  0  0
  9 27  2  0  0  0
 10 11  2  0  0  0
 10 15  1  0  0  0
 11 12  1  0  0  0
 11 95  1  0  0  0
 12 13  2  0  0  0
 12 96  1  0  0  0
 13 14  1  0  0  0
 13 31  1  0  0  0
 14 15  2  0  0  0
 14 97  1  0  0  0
 15 98  1  0  0  0
 16 17  2  0  0  0
 16 21  1  0  0  0
 16 31  1  0  0  0
 17 18  1  0  0  0
 17 99  1  0  0  0
 18 19  2  0  0  0
 18100  1  0  0  0
 19 20  1  0  0  0
 19 24  1  0  0  0
 20 21  2  0  0  0
 20101  1  0  0  0
 21 23  1  0  0  0
 22 28  1  0  0  0
 22 32  2  0  0  0
 26 27  1  0  0  0
 28102  1  0  0  0
 28103  1  0  0  0
 29104  1  0  0  0
 29105  1  0  0  0
 33 34  1  0  0  0
 33 66  1  0  0  0
 33 70  2  0  0  0
 34 36  1  0  0  0
 34 59  1  0  0  0
 34106  1  0  0  0
 35 44  2  0  0  0
 35 45  1  0  0  0
 35 68  1  0  0  0
 36 56  1  0  0  0
 36107  1  0  0  0
 37 39  1  0  0  0
 37 47  1  0  0  0
 37 66  1  0  0  0
 37108  1  0  0  0
 38 43  2  0  0  0
 38 46  1  0  0  0
 38 47  1  0  0  0
 39 64  1  0  0  0
 39 67  2  0  0  0
 40 52  1  0  0  0
 40 53  2  0  0  0
 40 58  1  0  0  0
 41109  1  0  0  0
 41110  1  0  0  0
 41111  1  0  0  0
 41 48  1  0  0  0
 42 43  1  0  0  0
 42 66  1  0  0  0
 42112  1  0  0  0
 42113  1  0  0  0
 43 44  1  0  0  0
 44114  1  0  0  0
 45 46  2  0  0  0
 45115  1  0  0  0
 46116  1  0  0  0
 47117  1  0  0  0
 47118  1  0  0  0
 48 56  1  0  0  0
 48 65  1  0  0  0
 48119  1  0  0  0
 49 50  1  0  0  0
 49 53  1  0  0  0
 49 64  1  0  0  0
 49120  1  0  0  0
 50 51  1  0  0  0
 50121  1  0  0  0
 50122  1  0  0  0
 51 52  1  0  0  0
 51123  1  0  0  0
 51124  1  0  0  0
 52125  1  0  0  0
 52126  1  0  0  0
 53 54  1  0  0  0
 54 55  2  0  0  0
 54127  1  0  0  0
 55 57  1  0  0  0
 55128  1  0  0  0
 56 69  2  0  0  0
 57 58  2  0  0  0
 57129  1  0  0  0
 58130  1  0  0  0
 59 60  1  0  0  0
 59 61  1  0  0  0
 59 62  1  0  0  0
 60131  1  0  0  0
 60132  1  0  0  0
 60133  1  0  0  0
 61134  1  0  0  0
 61135  1  0  0  0
 61136  1  0  0  0
 62137  1  0  0  0
 62138  1  0  0  0
 62139  1  0  0  0
 63 65  1  0  0  0
 63140  1  0  0  0
 63141  1  0  0  0
 63142  1  0  0  0
 64143  1  0  0  0
 65144  1  0  0  0
 68 79  1  0  0  0
 71 72  2  0  0  0
 71 73  1  0  0  0
 71145  1  0  0  0
 72 74  1  0  0  0
 72146  1  0  0  0
 73 75  2  0  0  0
 73 76  1  0  0  0
 74 79  1  0  0  0
 74 84  2  0  0  0
 75 78  1  0  0  0
 75 84  1  0  0  0
 76147  1  0  0  0
 76148  1  0  0  0
 76149  1  0  0  0
 77 80  1  0  0  0
 77150  1  0  0  0
 77151  1  0  0  0
 77152  1  0  0  0
 78 81  1  0  0  0
 78153  1  0  0  0
 78154  1  0  0  0
 79155  1  0  0  0
 79156  1  0  0  0
 80 82  1  0  0  0
 80157  1  0  0  0
 80158  1  0  0  0
 81 83  1  0  0  0
 81159  1  0  0  0
 81160  1  0  0  0
 82 85  1  0  0  0
 82161  1  0  0  0
 82162  1  0  0  0
 83 85  1  0  0  0
 83163  1  0  0  0
 83164  1  0  0  0
M  ISO  4   1 100  68 101  79 101  85 100
M  END
> <chiral flag>
0

> <version>
0

> <s_m_source_file>
/data/baiqing/PycharmProjects/Reinvent-master-3.2/result/LINK_invent/BTK/process_docking_weight1_custom_sum_contain_oxygen_bond_distance_aromatic_linkinvent_7_9_3/rearranged_h_0044.sdf

> <i_m_source_file_index>
25

> <r_mmod_Potential_Energy-OPLS-2005>
269.81640625

> <r_mmod_Stretch_Energy-OPLS-2005>
137.02424621582

> <r_mmod_Bend_Energy-OPLS-2005>
191.61328125

> <r_mmod_Torsional_Energy-OPLS-2005>
318.550415039062

> <r_mmod_Improper_Torsional_Energy-OPLS-2005>
8.87819194793701

> <r_mmod_Van_der_Waal_Energy-OPLS-2005>
148.591918945312

> <r_mmod_Electrostatic_Energy-OPLS-2005>
-410.827880859375

> <r_mmod_Solvation_Energy-OPLS-2005>
-200.529556274414

> <b_mmod_Minimization_Converged-OPLS-2005>
0

> <r_mmod_RMS_Derivative-OPLS-2005>
4.1085729598999

$$$$
25
                    3D
 Structure written by MMmdl.
153161  0  0  1  0            999 V2000
  -30.5125  -14.9829   20.4442 C   0  0  0  0  0  0
  -30.4370  -12.6273   19.5077 C   0  0  0  0  0  0
  -29.5261  -12.5692   18.2567 C   0  0  0  0  0  0
  -28.0531  -12.3625   18.6525 C   0  0  0  0  0  0
  -27.6293  -13.2648   19.8424 C   0  0  2  0  0  0
  -28.6608  -13.2901   20.9877 C   0  0  0  0  0  0
  -25.2469  -13.8245   20.5776 C   0  0  0  0  0  0
  -24.1785  -13.0402   20.9243 C   0  0  0  0  0  0
  -24.6441  -11.6927   20.8703 C   0  0  0  0  0  0
  -23.9126  -10.4291   21.0371 C   0  0  0  0  0  0
  -24.3669   -9.4207   21.9172 C   0  0  0  0  0  0
  -23.6334   -8.2237   22.0758 C   0  0  0  0  0  0
  -22.4312   -8.0298   21.3534 C   0  0  0  0  0  0
  -21.9937   -9.0279   20.4647 C   0  0  0  0  0  0
  -22.7284  -10.2152   20.3041 C   0  0  0  0  0  0
  -21.6877   -6.0766   22.5295 C   0  0  0  0  0  0
  -21.4008   -6.5659   23.8232 C   0  0  0  0  0  0
  -21.3661   -5.6802   24.9180 C   0  0  0  0  0  0
  -21.6039   -4.3076   24.7236 C   0  0  0  0  0  0
  -21.8814   -3.8170   23.4352 C   0  0  0  0  0  0
  -21.9202   -4.6971   22.3394 C   0  0  0  0  0  0
  -22.7827  -13.5200   21.1843 C   0  0  0  0  0  0
  -22.1673   -4.2161   21.0963 F   0  0  0  0  0  0
  -21.5628   -3.4544   25.7749 F   0  0  0  0  0  0
  -29.9441  -13.7091   20.4094 N   0  0  0  0  0  0
  -26.2891  -12.9510   20.3241 N   0  0  0  0  0  0
  -25.9387  -11.6621   20.5687 N   0  0  0  0  0  0
  -22.0484  -12.8157   22.0425 N   0  0  0  0  0  0
  -25.4074  -15.1985   20.4296 N   0  0  0  0  0  0
  -31.6923  -15.0833   20.0950 O   0  0  0  0  0  0
  -21.6652   -6.8910   21.4263 O   0  0  0  0  0  0
  -22.3510  -14.5515   20.6745 O   0  0  0  0  0  0
  -24.6434  -31.8426   23.1876 C   0  0  0  0  0  0
  -25.9206  -32.4696   23.8294 C   0  0  1  0  0  0
  -27.2059  -27.1087   20.1940 C   0  0  0  0  0  0
  -25.5956  -33.8527   24.2213 N   0  0  0  0  0  0
  -23.4451  -30.4664   21.5280 C   0  0  2  0  0  0
  -24.9009  -28.8857   20.1096 C   0  0  0  0  0  0
  -22.7561  -29.4571   22.4798 C   0  0  0  0  0  0
  -18.0296  -28.1388   22.8487 C   0  0  0  0  0  0
  -24.1475  -36.7281   23.2643 C   0  0  0  0  0  0
  -26.0012  -30.7135   21.3836 C   0  0  0  0  0  0
  -26.0736  -29.3182   20.7378 C   0  0  0  0  0  0
  -27.2285  -28.4461   20.7636 C   0  0  0  0  0  0
  -26.0099  -26.7814   19.5197 C   0  0  0  0  0  0
  -24.8863  -27.6350   19.4783 C   0  0  0  0  0  0
  -23.6764  -29.7918   20.1481 C   0  0  0  0  0  0
  -25.4100  -36.3051   24.0331 C   0  0  1  0  0  0
  -20.5924  -28.3745   23.1219 C   0  0  2  0  0  0
  -20.6786  -26.9419   22.5430 C   0  0  0  0  0  0
  -19.5764  -26.6363   21.5218 C   0  0  0  0  0  0
  -18.1938  -26.7931   22.1623 C   0  0  0  0  0  0
  -19.1568  -28.8864   23.2853 C   0  0  0  0  0  0
  -18.9476  -30.1454   23.8900 C   0  0  0  0  0  0
  -17.6484  -30.6585   24.0561 C   0  0  0  0  0  0
  -25.9056  -34.9430   23.5066 C   0  0  0  0  0  0
  -16.5370  -29.9090   23.6313 C   0  0  0  0  0  0
  -16.7297  -28.6489   23.0366 C   0  0  0  0  0  0
  -26.4530  -31.6596   25.0745 C   0  0  0  0  0  0
  -25.3728  -31.3806   26.1455 C   0  0  0  0  0  0
  -27.0368  -30.2990   24.6305 C   0  0  0  0  0  0
  -27.6040  -32.4358   25.7558 C   0  0  0  0  0  0
  -27.5553  -37.1805   24.8452 C   0  0  0  0  0  0
  -21.4253  -29.3094   22.3599 N   0  0  0  0  0  0
  -26.4263  -37.3762   23.9403 N   0  0  0  0  0  0
  -24.7163  -31.0297   22.0904 N   0  0  0  0  0  0
  -23.4203  -28.8078   23.2901 O   0  0  0  0  0  0
  -28.2543  -26.1179   20.2502 O   0  0  0  0  0  0
  -26.5622  -34.8915   22.4631 O   0  0  0  0  0  0
  -23.5583  -32.1305   23.7140 O   0  0  0  0  0  0
  -30.2929  -22.9724   18.2980 C   0  0  0  0  0  0
  -28.9228  -23.4048   19.9286 C   0  0  0  0  0  0
  -29.1927  -21.9372   19.9250 C   0  0  0  0  0  0
  -30.6323  -20.5503   18.2798 C   0  0  0  0  0  0
  -28.0061  -24.5994   20.5794 C   0  0  0  0  0  0
  -28.7014  -20.5184   20.5919 C   0  0  0  0  0  0
  -29.5783  -19.0961   20.9772 C   0  0  0  0  0  0
  -29.6206  -17.6287   20.1290 C   0  0  0  0  0  0
  -29.6930  -23.9683   18.9122 N   0  0  0  0  0  0
  -30.0636  -21.7716   18.8280 N   0  0  0  0  0  0
  -29.7002  -16.1331   20.6807 N   0  0  0  0  0  0
  -31.4726  -12.7917   19.2009 H   0  0  0  0  0  0
  -30.4238  -11.6691   20.0317 H   0  0  0  0  0  0
  -29.8483  -11.7740   17.5829 H   0  0  0  0  0  0
  -29.6196  -13.5021   17.6937 H   0  0  0  0  0  0
  -27.9078  -11.3130   18.9025 H   0  0  0  0  0  0
  -27.4051  -12.5650   17.7962 H   0  0  0  0  0  0
  -27.5840  -14.2724   19.4334 H   0  0  0  0  0  0
  -28.7512  -12.3224   21.4743 H   0  0  0  0  0  0
  -28.3519  -13.9975   21.7607 H   0  0  0  0  0  0
  -25.2826   -9.5677   22.4738 H   0  0  0  0  0  0
  -24.0060   -7.4632   22.7471 H   0  0  0  0  0  0
  -21.0895   -8.8822   19.8964 H   0  0  0  0  0  0
  -22.3797  -10.9679   19.6157 H   0  0  0  0  0  0
  -21.1997   -7.6174   23.9728 H   0  0  0  0  0  0
  -21.1484   -6.0530   25.9077 H   0  0  0  0  0  0
  -22.0599   -2.7630   23.2828 H   0  0  0  0  0  0
  -22.4158  -11.9835   22.4780 H   0  0  0  0  0  0
  -21.1117  -13.1144   22.2608 H   0  0  0  0  0  0
  -24.6361  -15.8408   20.5632 H   0  0  0  0  0  0
  -26.2540  -15.6528   20.1081 H   0  0  0  0  0  0
  -26.7283  -32.5291   23.1038 H   0  0  0  0  0  0
  -25.0170  -33.9647   25.0395 H   0  0  0  0  0  0
  -22.7500  -31.2941   21.3742 H   0  0  0  0  0  0
  -23.3723  -35.9612   23.3280 H   0  0  0  0  0  0
  -24.3568  -36.8932   22.2058 H   0  0  0  0  0  0
  -23.7225  -37.6483   23.6687 H   0  0  0  0  0  0
  -26.1416  -31.4546   20.5965 H   0  0  0  0  0  0
  -26.8788  -30.7867   22.0158 H   0  0  0  0  0  0
  -28.1177  -28.7697   21.2890 H   0  0  0  0  0  0
  -25.9091  -25.8173   19.0473 H   0  0  0  0  0  0
  -23.9963  -27.2975   18.9697 H   0  0  0  0  0  0
  -23.8213  -30.5635   19.3943 H   0  0  0  0  0  0
  -22.7857  -29.2470   19.8296 H   0  0  0  0  0  0
  -25.1274  -36.1884   25.0830 H   0  0  0  0  0  0
  -21.0056  -28.3319   24.1319 H   0  0  0  0  0  0
  -20.5659  -26.2326   23.3645 H   0  0  0  0  0  0
  -21.6643  -26.7399   22.1211 H   0  0  0  0  0  0
  -19.6911  -25.6249   21.1257 H   0  0  0  0  0  0
  -19.6689  -27.3150   20.6729 H   0  0  0  0  0  0
  -17.4211  -26.6690   21.4031 H   0  0  0  0  0  0
  -18.0335  -26.0061   22.9024 H   0  0  0  0  0  0
  -19.7979  -30.7261   24.2273 H   0  0  0  0  0  0
  -17.5055  -31.6282   24.5163 H   0  0  0  0  0  0
  -15.5386  -30.3019   23.7622 H   0  0  0  0  0  0
  -15.8692  -28.0817   22.7105 H   0  0  0  0  0  0
  -24.5870  -30.7190   25.7797 H   0  0  0  0  0  0
  -24.8995  -32.3045   26.4850 H   0  0  0  0  0  0
  -25.8063  -30.9010   27.0257 H   0  0  0  0  0  0
  -26.2995  -29.6745   24.1280 H   0  0  0  0  0  0
  -27.3932  -29.7264   25.4883 H   0  0  0  0  0  0
  -27.8925  -30.4189   23.9643 H   0  0  0  0  0  0
  -27.2588  -33.3647   26.2117 H   0  0  0  0  0  0
  -28.3922  -32.6952   25.0474 H   0  0  0  0  0  0
  -28.0645  -31.8512   26.5541 H   0  0  0  0  0  0
  -28.2563  -38.0108   24.7496 H   0  0  0  0  0  0
  -28.1065  -36.2656   24.6272 H   0  0  0  0  0  0
  -27.2301  -37.1435   25.8864 H   0  0  0  0  0  0
  -20.9406  -29.8873   21.6867 H   0  0  0  0  0  0
  -26.0126  -38.2824   24.1440 H   0  0  0  0  0  0
  -30.9125  -23.1212   17.4276 H   0  0  0  0  0  0
  -31.1841  -20.7727   17.3642 H   0  0  0  0  0  0
  -29.8406  -19.8491   18.0166 H   0  0  0  0  0  0
  -31.3156  -20.1014   19.0033 H   0  0  0  0  0  0
  -28.0763  -24.5253   21.6669 H   0  0  0  0  0  0
  -26.9581  -24.3676   20.3813 H   0  0  0  0  0  0
  -27.8713  -20.1641   19.9844 H   0  0  0  0  0  0
  -28.1936  -20.7939   21.5222 H   0  0  0  0  0  0
  -29.1534  -18.8125   21.9456 H   0  0  0  0  0  0
  -30.6008  -19.3811   21.2545 H   0  0  0  0  0  0
  -30.3553  -17.7211   19.3310 H   0  0  0  0  0  0
  -28.6678  -17.6102   19.5933 H   0  0  0  0  0  0
  -28.8027  -15.8350   21.0367 H   0  0  0  0  0  0
  1 25  1  0  0  0
  1 30  2  0  0  0
  1 81  1  0  0  0
  2  3  1  0  0  0
  2 25  1  0  0  0
  2 82  1  0  0  0
  2 83  1  0  0  0
  3  4  1  0  0  0
  3 84  1  0  0  0
  3 85  1  0  0  0
  4  5  1  0  0  0
  4 86  1  0  0  0
  4 87  1  0  0  0
  5  6  1  0  0  0
  5 26  1  0  0  0
  5 88  1  0  0  0
  6 25  1  0  0  0
  6 89  1  0  0  0
  6 90  1  0  0  0
  7  8  2  0  0  0
  7 26  1  0  0  0
  7 29  1  0  0  0
  8  9  1  0  0  0
  8 22  1  0  0  0
  9 10  1  0  0  0
  9 27  2  0  0  0
 10 11  2  0  0  0
 10 15  1  0  0  0
 11 12  1  0  0  0
 11 91  1  0  0  0
 12 13  2  0  0  0
 12 92  1  0  0  0
 13 14  1  0  0  0
 13 31  1  0  0  0
 14 15  2  0  0  0
 14 93  1  0  0  0
 15 94  1  0  0  0
 16 17  2  0  0  0
 16 21  1  0  0  0
 16 31  1  0  0  0
 17 18  1  0  0  0
 17 95  1  0  0  0
 18 19  2  0  0  0
 18 96  1  0  0  0
 19 20  1  0  0  0
 19 24  1  0  0  0
 20 21  2  0  0  0
 20 97  1  0  0  0
 21 23  1  0  0  0
 22 28  1  0  0  0
 22 32  2  0  0  0
 26 27  1  0  0  0
 28 98  1  0  0  0
 28 99  1  0  0  0
 29100  1  0  0  0
 29101  1  0  0  0
 33 34  1  0  0  0
 33 66  1  0  0  0
 33 70  2  0  0  0
 34 36  1  0  0  0
 34 59  1  0  0  0
 34102  1  0  0  0
 35 44  2  0  0  0
 35 45  1  0  0  0
 35 68  1  0  0  0
 36 56  1  0  0  0
 36103  1  0  0  0
 37 39  1  0  0  0
 37 47  1  0  0  0
 37 66  1  0  0  0
 37104  1  0  0  0
 38 43  2  0  0  0
 38 46  1  0  0  0
 38 47  1  0  0  0
 39 64  1  0  0  0
 39 67  2  0  0  0
 40 52  1  0  0  0
 40 53  2  0  0  0
 40 58  1  0  0  0
 41105  1  0  0  0
 41106  1  0  0  0
 41107  1  0  0  0
 41 48  1  0  0  0
 42 43  1  0  0  0
 42 66  1  0  0  0
 42108  1  0  0  0
 42109  1  0  0  0
 43 44  1  0  0  0
 44110  1  0  0  0
 45 46  2  0  0  0
 45111  1  0  0  0
 46112  1  0  0  0
 47113  1  0  0  0
 47114  1  0  0  0
 48 56  1  0  0  0
 48 65  1  0  0  0
 48115  1  0  0  0
 49 50  1  0  0  0
 49 53  1  0  0  0
 49 64  1  0  0  0
 49116  1  0  0  0
 50 51  1  0  0  0
 50117  1  0  0  0
 50118  1  0  0  0
 51 52  1  0  0  0
 51119  1  0  0  0
 51120  1  0  0  0
 52121  1  0  0  0
 52122  1  0  0  0
 53 54  1  0  0  0
 54 55  2  0  0  0
 54123  1  0  0  0
 55 57  1  0  0  0
 55124  1  0  0  0
 56 69  2  0  0  0
 57 58  2  0  0  0
 57125  1  0  0  0
 58126  1  0  0  0
 59 60  1  0  0  0
 59 61  1  0  0  0
 59 62  1  0  0  0
 60127  1  0  0  0
 60128  1  0  0  0
 60129  1  0  0  0
 61130  1  0  0  0
 61131  1  0  0  0
 61132  1  0  0  0
 62133  1  0  0  0
 62134  1  0  0  0
 62135  1  0  0  0
 63 65  1  0  0  0
 63136  1  0  0  0
 63137  1  0  0  0
 63138  1  0  0  0
 64139  1  0  0  0
 65140  1  0  0  0
 68 75  1  0  0  0
 71 79  2  0  0  0
 71 80  1  0  0  0
 71141  1  0  0  0
 72 73  2  0  0  0
 72 75  1  0  0  0
 72 79  1  0  0  0
 73 76  1  0  0  0
 73 80  1  0  0  0
 74 80  1  0  0  0
 74142  1  0  0  0
 74143  1  0  0  0
 74144  1  0  0  0
 75145  1  0  0  0
 75146  1  0  0  0
 76 77  1  0  0  0
 76147  1  0  0  0
 76148  1  0  0  0
 77 78  1  0  0  0
 77149  1  0  0  0
 77150  1  0  0  0
 78 81  1  0  0  0
 78151  1  0  0  0
 78152  1  0  0  0
 81153  1  0  0  0
M  ISO  4   1 100  68 101  75 101  81 100
M  END
> <chiral flag>
0

> <version>
0

> <s_m_source_file>
/data/baiqing/PycharmProjects/Reinvent-master-3.2/result/LINK_invent/BTK/process_docking_weight1_custom_sum_contain_oxygen_bond_distance_aromatic_linkinvent_7_9_3/rearranged_h_0044.sdf

> <i_m_source_file_index>
26

> <r_mmod_Potential_Energy-OPLS-2005>
631.537658691406

> <r_mmod_Stretch_Energy-OPLS-2005>
308.251800537109

> <r_mmod_Bend_Energy-OPLS-2005>
313.924926757812

> <r_mmod_Torsional_Energy-OPLS-2005>
246.297256469727

> <r_mmod_Improper_Torsional_Energy-OPLS-2005>
6.36104249954224

> <r_mmod_Van_der_Waal_Energy-OPLS-2005>
108.613906860352

> <r_mmod_Electrostatic_Energy-OPLS-2005>
-327.850799560547

> <r_mmod_Solvation_Energy-OPLS-2005>
-242.649215698242

> <b_mmod_Minimization_Converged-OPLS-2005>
0

> <r_mmod_RMS_Derivative-OPLS-2005>
8.72077560424805

$$$$
26
                    3D
 Structure written by MMmdl.
155163  0  0  1  0            999 V2000
  -30.7041  -14.4886   20.5661 C   0  0  0  0  0  0
  -30.4016  -12.3146   19.4428 C   0  0  0  0  0  0
  -29.4870  -12.5276   18.2182 C   0  0  0  0  0  0
  -28.0040  -12.4035   18.6099 C   0  0  0  0  0  0
  -27.6479  -13.2240   19.8775 C   0  0  2  0  0  0
  -28.6834  -13.0128   21.0023 C   0  0  0  0  0  0
  -25.2467  -13.8197   20.5625 C   0  0  0  0  0  0
  -24.1730  -13.0450   20.9114 C   0  0  0  0  0  0
  -24.6311  -11.6919   20.8630 C   0  0  0  0  0  0
  -23.8994  -10.4298   21.0314 C   0  0  0  0  0  0
  -24.3594   -9.4228   21.9096 C   0  0  0  0  0  0
  -23.6296   -8.2241   22.0704 C   0  0  0  0  0  0
  -22.4265   -8.0259   21.3507 C   0  0  0  0  0  0
  -21.9873   -9.0189   20.4580 C   0  0  0  0  0  0
  -22.7157  -10.2091   20.2975 C   0  0  0  0  0  0
  -21.6875   -6.0698   22.5249 C   0  0  0  0  0  0
  -21.4027   -6.5609   23.8175 C   0  0  0  0  0  0
  -21.3658   -5.6771   24.9143 C   0  0  0  0  0  0
  -21.6064   -4.3039   24.7198 C   0  0  0  0  0  0
  -21.8839   -3.8119   23.4325 C   0  0  0  0  0  0
  -21.9195   -4.6924   22.3370 C   0  0  0  0  0  0
  -22.7760  -13.5210   21.1847 C   0  0  0  0  0  0
  -22.1672   -4.2119   21.0951 F   0  0  0  0  0  0
  -21.5629   -3.4520   25.7714 F   0  0  0  0  0  0
  -30.0167  -13.3131   20.4570 N   0  0  0  0  0  0
  -26.2904  -12.9382   20.3339 N   0  0  0  0  0  0
  -25.9228  -11.6531   20.5680 N   0  0  0  0  0  0
  -22.0509  -12.8098   22.0426 N   0  0  0  0  0  0
  -25.4263  -15.1907   20.4011 N   0  0  0  0  0  0
  -31.8390  -14.6265   20.1025 O   0  0  0  0  0  0
  -21.6672   -6.8827   21.4212 O   0  0  0  0  0  0
  -22.3360  -14.5480   20.6717 O   0  0  0  0  0  0
  -24.6132  -31.8646   23.2136 C   0  0  0  0  0  0
  -25.9030  -32.4773   23.8396 C   0  0  1  0  0  0
  -27.2275  -27.4075   20.1249 C   0  0  0  0  0  0
  -25.5868  -33.8579   24.2305 N   0  0  0  0  0  0
  -23.3999  -30.4899   21.5557 C   0  0  2  0  0  0
  -24.8501  -28.9619   20.1138 C   0  0  0  0  0  0
  -22.7354  -29.4606   22.5009 C   0  0  0  0  0  0
  -18.0225  -28.1296   22.8522 C   0  0  0  0  0  0
  -24.1481  -36.7312   23.2644 C   0  0  0  0  0  0
  -25.9344  -30.8270   21.3716 C   0  0  0  0  0  0
  -26.0142  -29.4641   20.7134 C   0  0  0  0  0  0
  -27.2064  -28.6970   20.7100 C   0  0  0  0  0  0
  -26.0531  -26.9392   19.4935 C   0  0  0  0  0  0
  -24.8698  -27.6983   19.4995 C   0  0  0  0  0  0
  -23.6107  -29.8281   20.1690 C   0  0  0  0  0  0
  -25.4090  -36.3079   24.0325 C   0  0  1  0  0  0
  -20.5812  -28.3563   23.1346 C   0  0  2  0  0  0
  -20.6739  -26.9292   22.5442 C   0  0  0  0  0  0
  -19.5731  -26.6318   21.5212 C   0  0  0  0  0  0
  -18.1888  -26.7850   22.1616 C   0  0  0  0  0  0
  -19.1473  -28.8749   23.2921 C   0  0  0  0  0  0
  -18.9419  -30.1365   23.8908 C   0  0  0  0  0  0
  -17.6439  -30.6549   24.0535 C   0  0  0  0  0  0
  -25.9013  -34.9437   23.5104 C   0  0  0  0  0  0
  -16.5325  -29.9036   23.6329 C   0  0  0  0  0  0
  -16.7212  -28.6423   23.0390 C   0  0  0  0  0  0
  -26.4488  -31.6540   25.0704 C   0  0  0  0  0  0
  -25.3784  -31.3630   26.1475 C   0  0  0  0  0  0
  -27.0297  -30.2960   24.6087 C   0  0  0  0  0  0
  -27.6044  -32.4260   25.7477 C   0  0  0  0  0  0
  -27.5556  -37.1776   24.8435 C   0  0  0  0  0  0
  -21.4075  -29.2963   22.3780 N   0  0  0  0  0  0
  -26.4259  -37.3772   23.9410 N   0  0  0  0  0  0
  -24.6678  -31.0710   22.1060 N   0  0  0  0  0  0
  -23.4135  -28.8137   23.3040 O   0  0  0  0  0  0
  -28.3709  -26.6298   20.1580 O   0  0  0  0  0  0
  -26.5590  -34.8904   22.4668 O   0  0  0  0  0  0
  -23.5321  -32.1413   23.7523 O   0  0  0  0  0  0
  -28.8493  -22.7812   19.9727 C   0  0  0  0  0  0
  -27.8589  -22.0608   19.3418 C   0  0  0  0  0  0
  -29.4088  -20.6321   20.6502 C   0  0  0  0  0  0
  -26.8045  -22.5760   18.4172 C   0  0  0  0  0  0
  -29.1227  -24.2731   19.7957 C   0  0  0  0  0  0
  -30.3061  -19.5465   21.2204 C   0  0  0  0  0  0
  -29.7263  -18.1100   21.4820 C   0  0  0  0  0  0
  -30.5106  -16.9564   20.7780 C   0  0  0  0  0  0
  -28.2171  -25.2495   20.5932 C   0  0  0  0  0  0
  -29.6939  -21.9467   20.7377 N   0  0  0  0  0  0
  -30.0332  -15.5691   21.0297 N   0  0  0  0  0  0
  -27.9707  -20.3442   19.6774 S   0  0  0  0  0  0
  -31.4479  -12.4004   19.1481 H   0  0  0  0  0  0
  -30.2855  -11.3048   19.8415 H   0  0  0  0  0  0
  -29.7287  -11.8129   17.4282 H   0  0  0  0  0  0
  -29.6641  -13.5210   17.8015 H   0  0  0  0  0  0
  -27.7746  -11.3489   18.7585 H   0  0  0  0  0  0
  -27.3789  -12.7262   17.7762 H   0  0  0  0  0  0
  -27.6848  -14.2757   19.5903 H   0  0  0  0  0  0
  -28.6448  -11.9770   21.3438 H   0  0  0  0  0  0
  -28.4412  -13.6187   21.8768 H   0  0  0  0  0  0
  -25.2746   -9.5728   22.4634 H   0  0  0  0  0  0
  -24.0023   -7.4642   22.7403 H   0  0  0  0  0  0
  -21.0817   -8.8609   19.8872 H   0  0  0  0  0  0
  -22.3548  -10.9577   19.6054 H   0  0  0  0  0  0
  -21.2056   -7.6128   23.9644 H   0  0  0  0  0  0
  -21.1465   -6.0523   25.9038 H   0  0  0  0  0  0
  -22.0636   -2.7586   23.2822 H   0  0  0  0  0  0
  -22.4268  -11.9793   22.4737 H   0  0  0  0  0  0
  -21.1074  -13.0922   22.2680 H   0  0  0  0  0  0
  -24.6936  -15.8786   20.5279 H   0  0  0  0  0  0
  -26.3055  -15.6007   20.1133 H   0  0  0  0  0  0
  -26.7067  -32.5498   23.1143 H   0  0  0  0  0  0
  -25.0017  -33.9751   25.0443 H   0  0  0  0  0  0
  -22.6912  -31.3066   21.4153 H   0  0  0  0  0  0
  -23.3719  -35.9652   23.3281 H   0  0  0  0  0  0
  -24.3645  -36.8979   22.2072 H   0  0  0  0  0  0
  -23.7254  -37.6516   23.6702 H   0  0  0  0  0  0
  -26.0489  -31.5964   20.6063 H   0  0  0  0  0  0
  -26.8235  -30.8785   21.9882 H   0  0  0  0  0  0
  -28.1020  -29.0767   21.1837 H   0  0  0  0  0  0
  -26.0355  -25.9780   18.9998 H   0  0  0  0  0  0
  -23.9790  -27.3033   19.0298 H   0  0  0  0  0  0
  -23.7201  -30.6133   19.4192 H   0  0  0  0  0  0
  -22.7345  -29.2528   19.8644 H   0  0  0  0  0  0
  -25.1249  -36.1957   25.0810 H   0  0  0  0  0  0
  -20.9877  -28.3098   24.1473 H   0  0  0  0  0  0
  -20.5610  -26.2119   23.3596 H   0  0  0  0  0  0
  -21.6612  -26.7346   22.1228 H   0  0  0  0  0  0
  -19.6913  -25.6232   21.1211 H   0  0  0  0  0  0
  -19.6708  -27.3164   20.6774 H   0  0  0  0  0  0
  -17.4159  -26.6553   21.4026 H   0  0  0  0  0  0
  -18.0314  -25.9957   22.8981 H   0  0  0  0  0  0
  -19.7903  -30.7146   24.2291 H   0  0  0  0  0  0
  -17.5005  -31.6266   24.5060 H   0  0  0  0  0  0
  -15.5323  -30.2966   23.7651 H   0  0  0  0  0  0
  -15.8584  -28.0754   22.7159 H   0  0  0  0  0  0
  -24.6012  -30.6873   25.7911 H   0  0  0  0  0  0
  -24.8901  -32.2754   26.4892 H   0  0  0  0  0  0
  -25.8217  -30.8917   27.0257 H   0  0  0  0  0  0
  -26.2843  -29.6716   24.1154 H   0  0  0  0  0  0
  -27.4071  -29.7205   25.4563 H   0  0  0  0  0  0
  -27.8677  -30.4240   23.9224 H   0  0  0  0  0  0
  -27.2649  -33.3582   26.2019 H   0  0  0  0  0  0
  -28.3907  -32.6779   25.0331 H   0  0  0  0  0  0
  -28.0625  -31.8377   26.5450 H   0  0  0  0  0  0
  -28.2489  -38.0154   24.7564 H   0  0  0  0  0  0
  -28.1143  -36.2682   24.6157 H   0  0  0  0  0  0
  -27.2303  -37.1307   25.8846 H   0  0  0  0  0  0
  -20.9176  -29.8718   21.7075 H   0  0  0  0  0  0
  -26.0131  -38.2817   24.1528 H   0  0  0  0  0  0
  -25.9909  -23.0352   18.9777 H   0  0  0  0  0  0
  -26.3853  -21.7734   17.8090 H   0  0  0  0  0  0
  -27.2086  -23.3215   17.7295 H   0  0  0  0  0  0
  -29.0313  -24.5164   18.7375 H   0  0  0  0  0  0
  -30.1608  -24.4972   20.0430 H   0  0  0  0  0  0
  -30.6869  -19.9286   22.1687 H   0  0  0  0  0  0
  -31.1860  -19.4874   20.5797 H   0  0  0  0  0  0
  -28.6650  -18.0660   21.2289 H   0  0  0  0  0  0
  -29.7834  -17.9368   22.5580 H   0  0  0  0  0  0
  -31.5680  -17.0186   21.0562 H   0  0  0  0  0  0
  -30.4798  -17.1164   19.6987 H   0  0  0  0  0  0
  -28.4825  -25.1882   21.6495 H   0  0  0  0  0  0
  -27.1836  -24.9028   20.5502 H   0  0  0  0  0  0
  -29.1085  -15.4292   21.4096 H   0  0  0  0  0  0
  1 25  1  0  0  0
  1 30  2  0  0  0
  1 81  1  0  0  0
  2  3  1  0  0  0
  2 25  1  0  0  0
  2 83  1  0  0  0
  2 84  1  0  0  0
  3  4  1  0  0  0
  3 85  1  0  0  0
  3 86  1  0  0  0
  4  5  1  0  0  0
  4 87  1  0  0  0
  4 88  1  0  0  0
  5  6  1  0  0  0
  5 26  1  0  0  0
  5 89  1  0  0  0
  6 25  1  0  0  0
  6 90  1  0  0  0
  6 91  1  0  0  0
  7  8  2  0  0  0
  7 26  1  0  0  0
  7 29  1  0  0  0
  8  9  1  0  0  0
  8 22  1  0  0  0
  9 10  1  0  0  0
  9 27  2  0  0  0
 10 11  2  0  0  0
 10 15  1  0  0  0
 11 12  1  0  0  0
 11 92  1  0  0  0
 12 13  2  0  0  0
 12 93  1  0  0  0
 13 14  1  0  0  0
 13 31  1  0  0  0
 14 15  2  0  0  0
 14 94  1  0  0  0
 15 95  1  0  0  0
 16 17  2  0  0  0
 16 21  1  0  0  0
 16 31  1  0  0  0
 17 18  1  0  0  0
 17 96  1  0  0  0
 18 19  2  0  0  0
 18 97  1  0  0  0
 19 20  1  0  0  0
 19 24  1  0  0  0
 20 21  2  0  0  0
 20 98  1  0  0  0
 21 23  1  0  0  0
 22 28  1  0  0  0
 22 32  2  0  0  0
 26 27  1  0  0  0
 28 99  1  0  0  0
 28100  1  0  0  0
 29101  1  0  0  0
 29102  1  0  0  0
 33 34  1  0  0  0
 33 66  1  0  0  0
 33 70  2  0  0  0
 34 36  1  0  0  0
 34 59  1  0  0  0
 34103  1  0  0  0
 35 44  2  0  0  0
 35 45  1  0  0  0
 35 68  1  0  0  0
 36 56  1  0  0  0
 36104  1  0  0  0
 37 39  1  0  0  0
 37 47  1  0  0  0
 37 66  1  0  0  0
 37105  1  0  0  0
 38 43  2  0  0  0
 38 46  1  0  0  0
 38 47  1  0  0  0
 39 64  1  0  0  0
 39 67  2  0  0  0
 40 52  1  0  0  0
 40 53  2  0  0  0
 40 58  1  0  0  0
 41106  1  0  0  0
 41107  1  0  0  0
 41108  1  0  0  0
 41 48  1  0  0  0
 42 43  1  0  0  0
 42 66  1  0  0  0
 42109  1  0  0  0
 42110  1  0  0  0
 43 44  1  0  0  0
 44111  1  0  0  0
 45 46  2  0  0  0
 45112  1  0  0  0
 46113  1  0  0  0
 47114  1  0  0  0
 47115  1  0  0  0
 48 56  1  0  0  0
 48 65  1  0  0  0
 48116  1  0  0  0
 49 50  1  0  0  0
 49 53  1  0  0  0
 49 64  1  0  0  0
 49117  1  0  0  0
 50 51  1  0  0  0
 50118  1  0  0  0
 50119  1  0  0  0
 51 52  1  0  0  0
 51120  1  0  0  0
 51121  1  0  0  0
 52122  1  0  0  0
 52123  1  0  0  0
 53 54  1  0  0  0
 54 55  2  0  0  0
 54124  1  0  0  0
 55 57  1  0  0  0
 55125  1  0  0  0
 56 69  2  0  0  0
 57 58  2  0  0  0
 57126  1  0  0  0
 58127  1  0  0  0
 59 60  1  0  0  0
 59 61  1  0  0  0
 59 62  1  0  0  0
 60128  1  0  0  0
 60129  1  0  0  0
 60130  1  0  0  0
 61131  1  0  0  0
 61132  1  0  0  0
 61133  1  0  0  0
 62134  1  0  0  0
 62135  1  0  0  0
 62136  1  0  0  0
 63 65  1  0  0  0
 63137  1  0  0  0
 63138  1  0  0  0
 63139  1  0  0  0
 64140  1  0  0  0
 65141  1  0  0  0
 68 79  1  0  0  0
 71 72  2  0  0  0
 71 75  1  0  0  0
 71 80  1  0  0  0
 72 74  1  0  0  0
 72 82  1  0  0  0
 73 76  1  0  0  0
 73 80  2  0  0  0
 73 82  1  0  0  0
 74142  1  0  0  0
 74143  1  0  0  0
 74144  1  0  0  0
 75 79  1  0  0  0
 75145  1  0  0  0
 75146  1  0  0  0
 76 77  1  0  0  0
 76147  1  0  0  0
 76148  1  0  0  0
 77 78  1  0  0  0
 77149  1  0  0  0
 77150  1  0  0  0
 78 81  1  0  0  0
 78151  1  0  0  0
 78152  1  0  0  0
 79153  1  0  0  0
 79154  1  0  0  0
 81155  1  0  0  0
M  ISO  4   1 100  68 101  79 101  81 100
M  END
> <chiral flag>
0

> <version>
0

> <s_m_source_file>
/data/baiqing/PycharmProjects/Reinvent-master-3.2/result/LINK_invent/BTK/process_docking_weight1_custom_sum_contain_oxygen_bond_distance_aromatic_linkinvent_7_9_3/rearranged_h_0044.sdf

> <i_m_source_file_index>
27

> <r_mmod_Potential_Energy-OPLS-2005>
-78.663200378418

> <r_mmod_Stretch_Energy-OPLS-2005>
44.2859687805176

> <r_mmod_Bend_Energy-OPLS-2005>
107.446647644043

> <r_mmod_Torsional_Energy-OPLS-2005>
214.93489074707

> <r_mmod_Improper_Torsional_Energy-OPLS-2005>
4.90630149841309

> <r_mmod_Van_der_Waal_Energy-OPLS-2005>
124.691352844238

> <r_mmod_Electrostatic_Energy-OPLS-2005>
-376.053527832031

> <r_mmod_Solvation_Energy-OPLS-2005>
-216.414093017578

> <b_mmod_Minimization_Converged-OPLS-2005>
0

> <r_mmod_RMS_Derivative-OPLS-2005>
5.0841064453125

$$$$
27
                    3D
 Structure written by MMmdl.
156164  0  0  1  0            999 V2000
  -30.6304  -14.5586   20.5529 C   0  0  0  0  0  0
  -30.4356  -12.3582   19.4147 C   0  0  0  0  0  0
  -29.4961  -12.5011   18.1976 C   0  0  0  0  0  0
  -28.0212  -12.3410   18.6201 C   0  0  0  0  0  0
  -27.6559  -13.1995   19.8606 C   0  0  2  0  0  0
  -28.6998  -13.0025   20.9811 C   0  0  0  0  0  0
  -25.2597  -13.8129   20.5657 C   0  0  0  0  0  0
  -24.1847  -13.0415   20.9179 C   0  0  0  0  0  0
  -24.6388  -11.6885   20.8736 C   0  0  0  0  0  0
  -23.9057  -10.4282   21.0413 C   0  0  0  0  0  0
  -24.3612   -9.4205   21.9197 C   0  0  0  0  0  0
  -23.6288   -8.2239   22.0767 C   0  0  0  0  0  0
  -22.4276   -8.0278   21.3546 C   0  0  0  0  0  0
  -21.9905   -9.0255   20.4653 C   0  0  0  0  0  0
  -22.7232  -10.2131   20.3061 C   0  0  0  0  0  0
  -21.6858   -6.0739   22.5278 C   0  0  0  0  0  0
  -21.4007   -6.5642   23.8213 C   0  0  0  0  0  0
  -21.3660   -5.6795   24.9180 C   0  0  0  0  0  0
  -21.6044   -4.3059   24.7231 C   0  0  0  0  0  0
  -21.8817   -3.8150   23.4356 C   0  0  0  0  0  0
  -21.9190   -4.6964   22.3408 C   0  0  0  0  0  0
  -22.7881  -13.5234   21.1843 C   0  0  0  0  0  0
  -22.1665   -4.2149   21.0989 F   0  0  0  0  0  0
  -21.5632   -3.4543   25.7749 F   0  0  0  0  0  0
  -30.0142  -13.3490   20.4191 N   0  0  0  0  0  0
  -26.3001  -12.9268   20.3282 N   0  0  0  0  0  0
  -25.9296  -11.6442   20.5727 N   0  0  0  0  0  0
  -22.0519  -12.8225   22.0401 N   0  0  0  0  0  0
  -25.4327  -15.1847   20.4083 N   0  0  0  0  0  0
  -31.7870  -14.7608   20.1709 O   0  0  0  0  0  0
  -21.6637   -6.8880   21.4244 O   0  0  0  0  0  0
  -22.3582  -14.5562   20.6728 O   0  0  0  0  0  0
  -24.6158  -31.8638   23.2061 C   0  0  0  0  0  0
  -25.9033  -32.4810   23.8371 C   0  0  1  0  0  0
  -27.2336  -27.3698   20.1258 C   0  0  0  0  0  0
  -25.5889  -33.8616   24.2296 N   0  0  0  0  0  0
  -23.4115  -30.4836   21.5473 C   0  0  2  0  0  0
  -24.8635  -28.9340   20.1253 C   0  0  0  0  0  0
  -22.7429  -29.4633   22.4969 C   0  0  0  0  0  0
  -18.0271  -28.1334   22.8482 C   0  0  0  0  0  0
  -24.1488  -36.7321   23.2644 C   0  0  0  0  0  0
  -25.9483  -30.8010   21.3800 C   0  0  0  0  0  0
  -26.0249  -29.4263   20.7379 C   0  0  0  0  0  0
  -27.2137  -28.6500   20.7418 C   0  0  0  0  0  0
  -26.0624  -26.9099   19.4945 C   0  0  0  0  0  0
  -24.8785  -27.6728   19.5036 C   0  0  0  0  0  0
  -23.6280  -29.8088   20.1663 C   0  0  0  0  0  0
  -25.4113  -36.3108   24.0320 C   0  0  1  0  0  0
  -20.5873  -28.3656   23.1292 C   0  0  2  0  0  0
  -20.6781  -26.9393   22.5396 C   0  0  0  0  0  0
  -19.5768  -26.6357   21.5191 C   0  0  0  0  0  0
  -18.1935  -26.7889   22.1590 C   0  0  0  0  0  0
  -19.1523  -28.8806   23.2882 C   0  0  0  0  0  0
  -18.9455  -30.1407   23.8905 C   0  0  0  0  0  0
  -17.6462  -30.6566   24.0538 C   0  0  0  0  0  0
  -25.9033  -34.9475   23.5107 C   0  0  0  0  0  0
  -16.5350  -29.9061   23.6329 C   0  0  0  0  0  0
  -16.7258  -28.6461   23.0379 C   0  0  0  0  0  0
  -26.4442  -31.6613   25.0724 C   0  0  0  0  0  0
  -25.3692  -31.3705   26.1460 C   0  0  0  0  0  0
  -27.0308  -30.3059   24.6149 C   0  0  0  0  0  0
  -27.6015  -32.4363   25.7475 C   0  0  0  0  0  0
  -27.5584  -37.1798   24.8462 C   0  0  0  0  0  0
  -21.4152  -29.3028   22.3698 N   0  0  0  0  0  0
  -26.4304  -37.3788   23.9394 N   0  0  0  0  0  0
  -24.6769  -31.0662   22.1016 N   0  0  0  0  0  0
  -23.4176  -28.8169   23.3023 O   0  0  0  0  0  0
  -28.3743  -26.5941   20.0019 O   0  0  0  0  0  0
  -26.5614  -34.8931   22.4682 O   0  0  0  0  0  0
  -23.5335  -32.1437   23.7398 O   0  0  0  0  0  0
  -29.0413  -23.1633   20.7322 C   0  0  0  0  0  0
  -26.6869  -22.6203   21.9945 C   0  0  0  0  0  0
  -28.2651  -24.2813   21.1735 C   0  0  0  0  0  0
  -27.0429  -23.9720   21.8225 C   0  0  0  0  0  0
  -28.6185  -21.8269   20.9861 C   0  0  0  0  0  0
  -26.0979  -25.0321   22.3738 C   0  0  0  0  0  0
  -28.8047  -25.7424   21.0931 C   0  0  0  0  0  0
  -29.6318  -18.1417   20.5762 C   0  0  0  0  0  0
  -30.1390  -16.9393   21.4614 C   0  0  0  0  0  0
  -29.3389  -19.4763   21.3636 C   0  0  0  0  0  0
  -27.4488  -21.5795   21.6050 N   0  0  0  0  0  0
  -29.8269  -15.5583   21.0018 N   0  0  0  0  0  0
  -29.3716  -20.7138   20.5863 O   0  0  0  0  0  0
  -31.4752  -12.4923   19.1105 H   0  0  0  0  0  0
  -30.3693  -11.3513   19.8279 H   0  0  0  0  0  0
  -29.7470  -11.7574   17.4392 H   0  0  0  0  0  0
  -29.6420  -13.4754   17.7264 H   0  0  0  0  0  0
  -27.8589  -11.2864   18.8462 H   0  0  0  0  0  0
  -27.3586  -12.5745   17.7863 H   0  0  0  0  0  0
  -27.6898  -14.2417   19.5414 H   0  0  0  0  0  0
  -28.7028  -11.9654   21.3206 H   0  0  0  0  0  0
  -28.4506  -13.5965   21.8619 H   0  0  0  0  0  0
  -25.2761   -9.5686   22.4766 H   0  0  0  0  0  0
  -24.0003   -7.4638   22.7488 H   0  0  0  0  0  0
  -21.0836   -8.8779   19.8958 H   0  0  0  0  0  0
  -22.3704  -10.9674   19.6170 H   0  0  0  0  0  0
  -21.1996   -7.6146   23.9717 H   0  0  0  0  0  0
  -21.1482   -6.0529   25.9085 H   0  0  0  0  0  0
  -22.0591   -2.7604   23.2859 H   0  0  0  0  0  0
  -22.4137  -11.9871   22.4763 H   0  0  0  0  0  0
  -21.1137  -13.1248   22.2613 H   0  0  0  0  0  0
  -24.6628  -15.8357   20.5201 H   0  0  0  0  0  0
  -26.2799  -15.6254   20.0726 H   0  0  0  0  0  0
  -26.7112  -32.5491   23.1130 H   0  0  0  0  0  0
  -25.0044  -33.9784   25.0446 H   0  0  0  0  0  0
  -22.7015  -31.3000   21.3983 H   0  0  0  0  0  0
  -23.3758  -35.9650   23.3324 H   0  0  0  0  0  0
  -24.3582  -36.8943   22.2063 H   0  0  0  0  0  0
  -23.7239  -37.6518   23.6673 H   0  0  0  0  0  0
  -26.0746  -31.5586   20.6053 H   0  0  0  0  0  0
  -26.8313  -30.8568   22.0052 H   0  0  0  0  0  0
  -28.1146  -29.0282   21.2079 H   0  0  0  0  0  0
  -26.0705  -25.9529   18.9916 H   0  0  0  0  0  0
  -23.9915  -27.2884   19.0199 H   0  0  0  0  0  0
  -23.7386  -30.5787   19.4004 H   0  0  0  0  0  0
  -22.7514  -29.2280   19.8734 H   0  0  0  0  0  0
  -25.1294  -36.1976   25.0812 H   0  0  0  0  0  0
  -20.9947  -28.3225   24.1420 H   0  0  0  0  0  0
  -20.5692  -26.2255   23.3572 H   0  0  0  0  0  0
  -21.6654  -26.7448   22.1184 H   0  0  0  0  0  0
  -19.6958  -25.6273   21.1216 H   0  0  0  0  0  0
  -19.6724  -27.3168   20.6728 H   0  0  0  0  0  0
  -17.4214  -26.6630   21.3984 H   0  0  0  0  0  0
  -18.0340  -26.0003   22.8955 H   0  0  0  0  0  0
  -19.7943  -30.7180   24.2316 H   0  0  0  0  0  0
  -17.5036  -31.6275   24.5095 H   0  0  0  0  0  0
  -15.5353  -30.2965   23.7667 H   0  0  0  0  0  0
  -15.8646  -28.0768   22.7153 H   0  0  0  0  0  0
  -24.5887  -30.7047   25.7773 H   0  0  0  0  0  0
  -24.8841  -32.2840   26.4916 H   0  0  0  0  0  0
  -25.8005  -30.8865   27.0228 H   0  0  0  0  0  0
  -26.2910  -29.6800   24.1145 H   0  0  0  0  0  0
  -27.4030  -29.7309   25.4633 H   0  0  0  0  0  0
  -27.8739  -30.4406   23.9368 H   0  0  0  0  0  0
  -27.2679  -33.3717   26.1987 H   0  0  0  0  0  0
  -28.3817  -32.6847   25.0273 H   0  0  0  0  0  0
  -28.0668  -31.8524   26.5422 H   0  0  0  0  0  0
  -28.2580  -38.0120   24.7555 H   0  0  0  0  0  0
  -28.1097  -36.2641   24.6251 H   0  0  0  0  0  0
  -27.2278  -37.1409   25.8857 H   0  0  0  0  0  0
  -20.9311  -29.8754   21.6927 H   0  0  0  0  0  0
  -26.0194  -38.2862   24.1417 H   0  0  0  0  0  0
  -29.9916  -23.3263   20.2431 H   0  0  0  0  0  0
  -25.7632  -22.3576   22.4892 H   0  0  0  0  0  0
  -25.2863  -25.2095   21.6686 H   0  0  0  0  0  0
  -26.5748  -25.9858   22.5861 H   0  0  0  0  0  0
  -25.6521  -24.6919   23.3098 H   0  0  0  0  0  0
  -29.8878  -25.6658   20.9936 H   0  0  0  0  0  0
  -28.6673  -26.2535   22.0463 H   0  0  0  0  0  0
  -28.7220  -17.8550   20.0477 H   0  0  0  0  0  0
  -30.3759  -18.3376   19.8048 H   0  0  0  0  0  0
  -29.6617  -17.0206   22.4390 H   0  0  0  0  0  0
  -31.2081  -17.0396   21.6541 H   0  0  0  0  0  0
  -30.0823  -19.5934   22.1533 H   0  0  0  0  0  0
  -28.3908  -19.3323   21.8816 H   0  0  0  0  0  0
  -28.8820  -15.2550   21.1861 H   0  0  0  0  0  0
  1 25  1  0  0  0
  1 30  2  0  0  0
  1 82  1  0  0  0
  2  3  1  0  0  0
  2 25  1  0  0  0
  2 84  1  0  0  0
  2 85  1  0  0  0
  3  4  1  0  0  0
  3 86  1  0  0  0
  3 87  1  0  0  0
  4  5  1  0  0  0
  4 88  1  0  0  0
  4 89  1  0  0  0
  5  6  1  0  0  0
  5 26  1  0  0  0
  5 90  1  0  0  0
  6 25  1  0  0  0
  6 91  1  0  0  0
  6 92  1  0  0  0
  7  8  2  0  0  0
  7 26  1  0  0  0
  7 29  1  0  0  0
  8  9  1  0  0  0
  8 22  1  0  0  0
  9 10  1  0  0  0
  9 27  2  0  0  0
 10 11  2  0  0  0
 10 15  1  0  0  0
 11 12  1  0  0  0
 11 93  1  0  0  0
 12 13  2  0  0  0
 12 94  1  0  0  0
 13 14  1  0  0  0
 13 31  1  0  0  0
 14 15  2  0  0  0
 14 95  1  0  0  0
 15 96  1  0  0  0
 16 17  2  0  0  0
 16 21  1  0  0  0
 16 31  1  0  0  0
 17 18  1  0  0  0
 17 97  1  0  0  0
 18 19  2  0  0  0
 18 98  1  0  0  0
 19 20  1  0  0  0
 19 24  1  0  0  0
 20 21  2  0  0  0
 20 99  1  0  0  0
 21 23  1  0  0  0
 22 28  1  0  0  0
 22 32  2  0  0  0
 26 27  1  0  0  0
 28100  1  0  0  0
 28101  1  0  0  0
 29102  1  0  0  0
 29103  1  0  0  0
 33 34  1  0  0  0
 33 66  1  0  0  0
 33 70  2  0  0  0
 34 36  1  0  0  0
 34 59  1  0  0  0
 34104  1  0  0  0
 35 44  2  0  0  0
 35 45  1  0  0  0
 35 68  1  0  0  0
 36 56  1  0  0  0
 36105  1  0  0  0
 37 39  1  0  0  0
 37 47  1  0  0  0
 37 66  1  0  0  0
 37106  1  0  0  0
 38 43  2  0  0  0
 38 46  1  0  0  0
 38 47  1  0  0  0
 39 64  1  0  0  0
 39 67  2  0  0  0
 40 52  1  0  0  0
 40 53  2  0  0  0
 40 58  1  0  0  0
 41107  1  0  0  0
 41108  1  0  0  0
 41109  1  0  0  0
 41 48  1  0  0  0
 42 43  1  0  0  0
 42 66  1  0  0  0
 42110  1  0  0  0
 42111  1  0  0  0
 43 44  1  0  0  0
 44112  1  0  0  0
 45 46  2  0  0  0
 45113  1  0  0  0
 46114  1  0  0  0
 47115  1  0  0  0
 47116  1  0  0  0
 48 56  1  0  0  0
 48 65  1  0  0  0
 48117  1  0  0  0
 49 50  1  0  0  0
 49 53  1  0  0  0
 49 64  1  0  0  0
 49118  1  0  0  0
 50 51  1  0  0  0
 50119  1  0  0  0
 50120  1  0  0  0
 51 52  1  0  0  0
 51121  1  0  0  0
 51122  1  0  0  0
 52123  1  0  0  0
 52124  1  0  0  0
 53 54  1  0  0  0
 54 55  2  0  0  0
 54125  1  0  0  0
 55 57  1  0  0  0
 55126  1  0  0  0
 56 69  2  0  0  0
 57 58  2  0  0  0
 57127  1  0  0  0
 58128  1  0  0  0
 59 60  1  0  0  0
 59 61  1  0  0  0
 59 62  1  0  0  0
 60129  1  0  0  0
 60130  1  0  0  0
 60131  1  0  0  0
 61132  1  0  0  0
 61133  1  0  0  0
 61134  1  0  0  0
 62135  1  0  0  0
 62136  1  0  0  0
 62137  1  0  0  0
 63 65  1  0  0  0
 63138  1  0  0  0
 63139  1  0  0  0
 63140  1  0  0  0
 64141  1  0  0  0
 65142  1  0  0  0
 68 77  1  0  0  0
 71 73  2  0  0  0
 71 75  1  0  0  0
 71143  1  0  0  0
 72 74  2  0  0  0
 72 81  1  0  0  0
 72144  1  0  0  0
 73 74  1  0  0  0
 73 77  1  0  0  0
 74 76  1  0  0  0
 75 81  2  0  0  0
 75 83  1  0  0  0
 76145  1  0  0  0
 76146  1  0  0  0
 76147  1  0  0  0
 77148  1  0  0  0
 77149  1  0  0  0
 78 79  1  0  0  0
 78 80  1  0  0  0
 78150  1  0  0  0
 78151  1  0  0  0
 79 82  1  0  0  0
 79152  1  0  0  0
 79153  1  0  0  0
 80 83  1  0  0  0
 80154  1  0  0  0
 80155  1  0  0  0
 82156  1  0  0  0
M  ISO  4   1 100  68 101  77 101  82 100
M  END
> <chiral flag>
0

> <version>
0

> <s_m_source_file>
/data/baiqing/PycharmProjects/Reinvent-master-3.2/result/LINK_invent/BTK/process_docking_weight1_custom_sum_contain_oxygen_bond_distance_aromatic_linkinvent_7_9_3/rearranged_h_0044.sdf

> <i_m_source_file_index>
28

> <r_mmod_Potential_Energy-OPLS-2005>
-151.870620727539

> <r_mmod_Stretch_Energy-OPLS-2005>
56.0557975769043

> <r_mmod_Bend_Energy-OPLS-2005>
129.637359619141

> <r_mmod_Torsional_Energy-OPLS-2005>
240.759002685547

> <r_mmod_Improper_Torsional_Energy-OPLS-2005>
4.4101734161377

> <r_mmod_Van_der_Waal_Energy-OPLS-2005>
144.99592590332

> <r_mmod_Electrostatic_Energy-OPLS-2005>
-537.220153808594

> <r_mmod_Solvation_Energy-OPLS-2005>
-217.021621704102

> <b_mmod_Minimization_Converged-OPLS-2005>
0

> <r_mmod_RMS_Derivative-OPLS-2005>
2.58143091201782

$$$$
28
                    3D
 Structure written by MMmdl.
157165  0  0  1  0            999 V2000
  -30.6966  -14.5653   20.4890 C   0  0  0  0  0  0
  -30.4129  -12.3470   19.4494 C   0  0  0  0  0  0
  -29.4963  -12.4857   18.2176 C   0  0  0  0  0  0
  -28.0191  -12.3433   18.6316 C   0  0  0  0  0  0
  -27.6480  -13.2212   19.8582 C   0  0  2  0  0  0
  -28.6938  -13.0950   20.9881 C   0  0  0  0  0  0
  -25.2534  -13.8187   20.5685 C   0  0  0  0  0  0
  -24.1811  -13.0440   20.9202 C   0  0  0  0  0  0
  -24.6385  -11.6919   20.8747 C   0  0  0  0  0  0
  -23.9058  -10.4296   21.0404 C   0  0  0  0  0  0
  -24.3612   -9.4209   21.9178 C   0  0  0  0  0  0
  -23.6290   -8.2244   22.0750 C   0  0  0  0  0  0
  -22.4270   -8.0280   21.3544 C   0  0  0  0  0  0
  -21.9905   -9.0252   20.4644 C   0  0  0  0  0  0
  -22.7232  -10.2132   20.3052 C   0  0  0  0  0  0
  -21.6855   -6.0731   22.5275 C   0  0  0  0  0  0
  -21.4016   -6.5636   23.8208 C   0  0  0  0  0  0
  -21.3661   -5.6789   24.9173 C   0  0  0  0  0  0
  -21.6046   -4.3051   24.7225 C   0  0  0  0  0  0
  -21.8820   -3.8142   23.4346 C   0  0  0  0  0  0
  -21.9194   -4.6958   22.3401 C   0  0  0  0  0  0
  -22.7833  -13.5227   21.1862 C   0  0  0  0  0  0
  -22.1662   -4.2143   21.0978 F   0  0  0  0  0  0
  -21.5629   -3.4536   25.7738 F   0  0  0  0  0  0
  -30.0056  -13.3921   20.4048 N   0  0  0  0  0  0
  -26.2965  -12.9382   20.3322 N   0  0  0  0  0  0
  -25.9315  -11.6529   20.5771 N   0  0  0  0  0  0
  -22.0477  -12.8214   22.0418 N   0  0  0  0  0  0
  -25.4226  -15.1904   20.4066 N   0  0  0  0  0  0
  -31.8839  -14.6377   20.1775 O   0  0  0  0  0  0
  -21.6639   -6.8874   21.4237 O   0  0  0  0  0  0
  -22.3510  -14.5533   20.6717 O   0  0  0  0  0  0
  -24.6204  -31.8633   23.2071 C   0  0  0  0  0  0
  -25.9079  -32.4795   23.8387 C   0  0  1  0  0  0
  -27.2270  -27.3888   20.1086 C   0  0  0  0  0  0
  -25.5922  -33.8597   24.2318 N   0  0  0  0  0  0
  -23.4112  -30.4865   21.5477 C   0  0  2  0  0  0
  -24.8584  -28.9475   20.1131 C   0  0  0  0  0  0
  -22.7449  -29.4636   22.4971 C   0  0  0  0  0  0
  -18.0290  -28.1379   22.8485 C   0  0  0  0  0  0
  -24.1495  -36.7303   23.2637 C   0  0  0  0  0  0
  -25.9447  -30.8167   21.3667 C   0  0  0  0  0  0
  -26.0223  -29.4491   20.7102 C   0  0  0  0  0  0
  -27.2141  -28.6788   20.7001 C   0  0  0  0  0  0
  -26.0480  -26.9147   19.4978 C   0  0  0  0  0  0
  -24.8679  -27.6822   19.5015 C   0  0  0  0  0  0
  -23.6224  -29.8190   20.1629 C   0  0  0  0  0  0
  -25.4112  -36.3091   24.0335 C   0  0  1  0  0  0
  -20.5884  -28.3671   23.1305 C   0  0  2  0  0  0
  -20.6782  -26.9404   22.5411 C   0  0  0  0  0  0
  -19.5761  -26.6388   21.5209 C   0  0  0  0  0  0
  -18.1940  -26.7930   22.1619 C   0  0  0  0  0  0
  -19.1537  -28.8844   23.2892 C   0  0  0  0  0  0
  -18.9454  -30.1452   23.8901 C   0  0  0  0  0  0
  -17.6449  -30.6576   24.0560 C   0  0  0  0  0  0
  -25.9037  -34.9458   23.5118 C   0  0  0  0  0  0
  -16.5344  -29.9071   23.6324 C   0  0  0  0  0  0
  -16.7275  -28.6493   23.0340 C   0  0  0  0  0  0
  -26.4488  -31.6583   25.0730 C   0  0  0  0  0  0
  -25.3746  -31.3685   26.1470 C   0  0  0  0  0  0
  -27.0325  -30.3027   24.6123 C   0  0  0  0  0  0
  -27.6069  -32.4295   25.7488 C   0  0  0  0  0  0
  -27.5580  -37.1811   24.8463 C   0  0  0  0  0  0
  -21.4173  -29.3029   22.3706 N   0  0  0  0  0  0
  -26.4298  -37.3775   23.9401 N   0  0  0  0  0  0
  -24.6771  -31.0712   22.0979 N   0  0  0  0  0  0
  -23.4203  -28.8183   23.3033 O   0  0  0  0  0  0
  -28.3510  -26.5781   20.1334 O   0  0  0  0  0  0
  -26.5587  -34.8914   22.4673 O   0  0  0  0  0  0
  -23.5386  -32.1399   23.7437 O   0  0  0  0  0  0
  -27.0346  -22.5992   21.7375 C   0  0  0  0  0  0
  -26.7204  -21.3600   22.2999 C   0  0  0  0  0  0
  -28.0195  -22.6408   20.7375 C   0  0  0  0  0  0
  -28.2370  -20.3142   20.9310 C   0  0  0  0  0  0
  -25.6676  -21.2281   23.3786 C   0  0  0  0  0  0
  -28.3547  -23.9741   20.0052 C   0  0  0  0  0  0
  -28.7386  -18.9414   20.4057 C   0  0  0  0  0  0
  -29.4054  -17.9835   21.4618 C   0  0  0  0  0  0
  -29.1602  -16.4273   21.3553 C   0  0  0  0  0  0
  -28.1839  -25.3052   20.8302 C   0  0  0  0  0  0
  -27.3130  -20.2308   21.8828 N   0  0  0  0  0  0
  -28.6197  -21.4712   20.3465 N   0  0  0  0  0  0
  -29.9923  -15.7185   20.3656 N   0  0  0  0  0  0
  -31.4593  -12.4298   19.1520 H   0  0  0  0  0  0
  -30.3072  -11.3596   19.9011 H   0  0  0  0  0  0
  -29.7508  -11.7329   17.4703 H   0  0  0  0  0  0
  -29.6554  -13.4559   17.7437 H   0  0  0  0  0  0
  -27.8464  -11.2922   18.8656 H   0  0  0  0  0  0
  -27.3671  -12.5777   17.7895 H   0  0  0  0  0  0
  -27.6640  -14.2540   19.5101 H   0  0  0  0  0  0
  -28.6893  -12.0899   21.4120 H   0  0  0  0  0  0
  -28.4626  -13.7737   21.8090 H   0  0  0  0  0  0
  -25.2756   -9.5691   22.4755 H   0  0  0  0  0  0
  -24.0001   -7.4634   22.7470 H   0  0  0  0  0  0
  -21.0840   -8.8774   19.8946 H   0  0  0  0  0  0
  -22.3692  -10.9674   19.6165 H   0  0  0  0  0  0
  -21.2009   -7.6144   23.9714 H   0  0  0  0  0  0
  -21.1483   -6.0517   25.9077 H   0  0  0  0  0  0
  -22.0598   -2.7605   23.2848 H   0  0  0  0  0  0
  -22.4095  -11.9875   22.4809 H   0  0  0  0  0  0
  -21.1093  -13.1238   22.2622 H   0  0  0  0  0  0
  -24.6562  -15.8464   20.5119 H   0  0  0  0  0  0
  -26.2724  -15.6227   20.0684 H   0  0  0  0  0  0
  -26.7156  -32.5488   23.1151 H   0  0  0  0  0  0
  -25.0127  -33.9754   25.0498 H   0  0  0  0  0  0
  -22.7012  -31.3037   21.4058 H   0  0  0  0  0  0
  -23.3749  -35.9645   23.3306 H   0  0  0  0  0  0
  -24.3588  -36.8909   22.2050 H   0  0  0  0  0  0
  -23.7269  -37.6521   23.6643 H   0  0  0  0  0  0
  -26.0667  -31.5839   20.6008 H   0  0  0  0  0  0
  -26.8286  -30.8655   21.9910 H   0  0  0  0  0  0
  -28.1110  -29.0545   21.1733 H   0  0  0  0  0  0
  -26.0373  -25.9417   19.0277 H   0  0  0  0  0  0
  -23.9734  -27.2899   19.0375 H   0  0  0  0  0  0
  -23.7347  -30.5930   19.4027 H   0  0  0  0  0  0
  -22.7447  -29.2422   19.8666 H   0  0  0  0  0  0
  -25.1297  -36.1952   25.0833 H   0  0  0  0  0  0
  -20.9978  -28.3239   24.1423 H   0  0  0  0  0  0
  -20.5697  -26.2269   23.3596 H   0  0  0  0  0  0
  -21.6650  -26.7448   22.1191 H   0  0  0  0  0  0
  -19.6915  -25.6302   21.1230 H   0  0  0  0  0  0
  -19.6709  -27.3204   20.6747 H   0  0  0  0  0  0
  -17.4213  -26.6689   21.4018 H   0  0  0  0  0  0
  -18.0332  -26.0070   22.9012 H   0  0  0  0  0  0
  -19.7925  -30.7277   24.2273 H   0  0  0  0  0  0
  -17.4995  -31.6258   24.5160 H   0  0  0  0  0  0
  -15.5343  -30.2960   23.7653 H   0  0  0  0  0  0
  -15.8685  -28.0814   22.7035 H   0  0  0  0  0  0
  -24.5937  -30.7006   25.7812 H   0  0  0  0  0  0
  -24.8905  -32.2827   26.4920 H   0  0  0  0  0  0
  -25.8101  -30.8868   27.0233 H   0  0  0  0  0  0
  -26.2878  -29.6783   24.1170 H   0  0  0  0  0  0
  -27.4088  -29.7273   25.4593 H   0  0  0  0  0  0
  -27.8719  -30.4352   23.9290 H   0  0  0  0  0  0
  -27.2712  -33.3598   26.2085 H   0  0  0  0  0  0
  -28.3872  -32.6845   25.0302 H   0  0  0  0  0  0
  -28.0743  -31.8397   26.5384 H   0  0  0  0  0  0
  -28.2606  -38.0098   24.7485 H   0  0  0  0  0  0
  -28.1069  -36.2627   24.6319 H   0  0  0  0  0  0
  -27.2288  -37.1495   25.8864 H   0  0  0  0  0  0
  -20.9344  -29.8731   21.6908 H   0  0  0  0  0  0
  -26.0184  -38.2858   24.1380 H   0  0  0  0  0  0
  -26.4985  -23.4774   22.0665 H   0  0  0  0  0  0
  -25.9180  -20.4300   24.0776 H   0  0  0  0  0  0
  -24.6969  -21.0071   22.9348 H   0  0  0  0  0  0
  -25.5807  -22.1546   23.9462 H   0  0  0  0  0  0
  -27.7127  -24.0264   19.1263 H   0  0  0  0  0  0
  -29.3772  -23.9183   19.6316 H   0  0  0  0  0  0
  -29.4254  -19.0990   19.5737 H   0  0  0  0  0  0
  -27.8702  -18.4424   19.9744 H   0  0  0  0  0  0
  -28.9978  -18.2636   22.4337 H   0  0  0  0  0  0
  -30.4691  -18.2089   21.5442 H   0  0  0  0  0  0
  -29.3530  -15.9832   22.3339 H   0  0  0  0  0  0
  -28.1086  -16.2317   21.1447 H   0  0  0  0  0  0
  -28.9090  -25.2889   21.6435 H   0  0  0  0  0  0
  -27.2139  -25.3076   21.3248 H   0  0  0  0  0  0
  -30.5352  -16.3754   19.8247 H   0  0  0  0  0  0
  1 25  1  0  0  0
  1 30  2  0  0  0
  1 83  1  0  0  0
  2  3  1  0  0  0
  2 25  1  0  0  0
  2 84  1  0  0  0
  2 85  1  0  0  0
  3  4  1  0  0  0
  3 86  1  0  0  0
  3 87  1  0  0  0
  4  5  1  0  0  0
  4 88  1  0  0  0
  4 89  1  0  0  0
  5  6  1  0  0  0
  5 26  1  0  0  0
  5 90  1  0  0  0
  6 25  1  0  0  0
  6 91  1  0  0  0
  6 92  1  0  0  0
  7  8  2  0  0  0
  7 26  1  0  0  0
  7 29  1  0  0  0
  8  9  1  0  0  0
  8 22  1  0  0  0
  9 10  1  0  0  0
  9 27  2  0  0  0
 10 11  2  0  0  0
 10 15  1  0  0  0
 11 12  1  0  0  0
 11 93  1  0  0  0
 12 13  2  0  0  0
 12 94  1  0  0  0
 13 14  1  0  0  0
 13 31  1  0  0  0
 14 15  2  0  0  0
 14 95  1  0  0  0
 15 96  1  0  0  0
 16 17  2  0  0  0
 16 21  1  0  0  0
 16 31  1  0  0  0
 17 18  1  0  0  0
 17 97  1  0  0  0
 18 19  2  0  0  0
 18 98  1  0  0  0
 19 20  1  0  0  0
 19 24  1  0  0  0
 20 21  2  0  0  0
 20 99  1  0  0  0
 21 23  1  0  0  0
 22 28  1  0  0  0
 22 32  2  0  0  0
 26 27  1  0  0  0
 28100  1  0  0  0
 28101  1  0  0  0
 29102  1  0  0  0
 29103  1  0  0  0
 33 34  1  0  0  0
 33 66  1  0  0  0
 33 70  2  0  0  0
 34 36  1  0  0  0
 34 59  1  0  0  0
 34104  1  0  0  0
 35 44  2  0  0  0
 35 45  1  0  0  0
 35 68  1  0  0  0
 36 56  1  0  0  0
 36105  1  0  0  0
 37 39  1  0  0  0
 37 47  1  0  0  0
 37 66  1  0  0  0
 37106  1  0  0  0
 38 43  2  0  0  0
 38 46  1  0  0  0
 38 47  1  0  0  0
 39 64  1  0  0  0
 39 67  2  0  0  0
 40 52  1  0  0  0
 40 53  2  0  0  0
 40 58  1  0  0  0
 41107  1  0  0  0
 41108  1  0  0  0
 41109  1  0  0  0
 41 48  1  0  0  0
 42 43  1  0  0  0
 42 66  1  0  0  0
 42110  1  0  0  0
 42111  1  0  0  0
 43 44  1  0  0  0
 44112  1  0  0  0
 45 46  2  0  0  0
 45113  1  0  0  0
 46114  1  0  0  0
 47115  1  0  0  0
 47116  1  0  0  0
 48 56  1  0  0  0
 48 65  1  0  0  0
 48117  1  0  0  0
 49 50  1  0  0  0
 49 53  1  0  0  0
 49 64  1  0  0  0
 49118  1  0  0  0
 50 51  1  0  0  0
 50119  1  0  0  0
 50120  1  0  0  0
 51 52  1  0  0  0
 51121  1  0  0  0
 51122  1  0  0  0
 52123  1  0  0  0
 52124  1  0  0  0
 53 54  1  0  0  0
 54 55  2  0  0  0
 54125  1  0  0  0
 55 57  1  0  0  0
 55126  1  0  0  0
 56 69  2  0  0  0
 57 58  2  0  0  0
 57127  1  0  0  0
 58128  1  0  0  0
 59 60  1  0  0  0
 59 61  1  0  0  0
 59 62  1  0  0  0
 60129  1  0  0  0
 60130  1  0  0  0
 60131  1  0  0  0
 61132  1  0  0  0
 61133  1  0  0  0
 61134  1  0  0  0
 62135  1  0  0  0
 62136  1  0  0  0
 62137  1  0  0  0
 63 65  1  0  0  0
 63138  1  0  0  0
 63139  1  0  0  0
 63140  1  0  0  0
 64141  1  0  0  0
 65142  1  0  0  0
 68 80  1  0  0  0
 71 72  2  0  0  0
 71 73  1  0  0  0
 71143  1  0  0  0
 72 75  1  0  0  0
 72 81  1  0  0  0
 73 76  1  0  0  0
 73 82  2  0  0  0
 74 77  1  0  0  0
 74 81  2  0  0  0
 74 82  1  0  0  0
 75144  1  0  0  0
 75145  1  0  0  0
 75146  1  0  0  0
 76 80  1  0  0  0
 76147  1  0  0  0
 76148  1  0  0  0
 77 78  1  0  0  0
 77149  1  0  0  0
 77150  1  0  0  0
 78 79  1  0  0  0
 78151  1  0  0  0
 78152  1  0  0  0
 79 83  1  0  0  0
 79153  1  0  0  0
 79154  1  0  0  0
 80155  1  0  0  0
 80156  1  0  0  0
 83157  1  0  0  0
M  ISO  4   1 100  68 101  80 101  83 100
M  END
> <chiral flag>
0

> <version>
0

> <s_m_source_file>
/data/baiqing/PycharmProjects/Reinvent-master-3.2/result/LINK_invent/BTK/process_docking_weight1_custom_sum_contain_oxygen_bond_distance_aromatic_linkinvent_7_9_3/rearranged_h_0044.sdf

> <i_m_source_file_index>
29

> <r_mmod_Potential_Energy-OPLS-2005>
-350.802886962891

> <r_mmod_Stretch_Energy-OPLS-2005>
53.2950057983398

> <r_mmod_Bend_Energy-OPLS-2005>
131.681030273438

> <r_mmod_Torsional_Energy-OPLS-2005>
279.696960449219

> <r_mmod_Improper_Torsional_Energy-OPLS-2005>
22.4848823547363

> <r_mmod_Van_der_Waal_Energy-OPLS-2005>
147.205673217773

> <r_mmod_Electrostatic_Energy-OPLS-2005>
-789.134216308594

> <r_mmod_Solvation_Energy-OPLS-2005>
-228.043853759766

> <b_mmod_Minimization_Converged-OPLS-2005>
0

> <r_mmod_RMS_Derivative-OPLS-2005>
1.13536369800568

$$$$
29
                    3D
 Structure written by MMmdl.
158166  0  0  1  0            999 V2000
  -30.5934  -14.7567   20.4665 C   0  0  0  0  0  0
  -30.4392  -12.4655   19.4657 C   0  0  0  0  0  0
  -29.5142  -12.5128   18.2303 C   0  0  0  0  0  0
  -28.0357  -12.3459   18.6377 C   0  0  0  0  0  0
  -27.6410  -13.2356   19.8476 C   0  0  2  0  0  0
  -28.6874  -13.1560   20.9786 C   0  0  0  0  0  0
  -25.2501  -13.8200   20.5706 C   0  0  0  0  0  0
  -24.1798  -13.0434   20.9211 C   0  0  0  0  0  0
  -24.6408  -11.6914   20.8736 C   0  0  0  0  0  0
  -23.9085  -10.4285   21.0398 C   0  0  0  0  0  0
  -24.3633   -9.4195   21.9167 C   0  0  0  0  0  0
  -23.6306   -8.2227   22.0737 C   0  0  0  0  0  0
  -22.4283   -8.0279   21.3537 C   0  0  0  0  0  0
  -21.9915   -9.0255   20.4643 C   0  0  0  0  0  0
  -22.7253  -10.2132   20.3053 C   0  0  0  0  0  0
  -21.6860   -6.0737   22.5282 C   0  0  0  0  0  0
  -21.4020   -6.5638   23.8214 C   0  0  0  0  0  0
  -21.3657   -5.6791   24.9174 C   0  0  0  0  0  0
  -21.6044   -4.3046   24.7227 C   0  0  0  0  0  0
  -21.8819   -3.8145   23.4349 C   0  0  0  0  0  0
  -21.9186   -4.6962   22.3407 C   0  0  0  0  0  0
  -22.7807  -13.5210   21.1860 C   0  0  0  0  0  0
  -22.1659   -4.2145   21.0983 F   0  0  0  0  0  0
  -21.5616   -3.4537   25.7739 F   0  0  0  0  0  0
  -29.9848  -13.5229   20.3952 N   0  0  0  0  0  0
  -26.2935  -12.9421   20.3261 N   0  0  0  0  0  0
  -25.9334  -11.6558   20.5713 N   0  0  0  0  0  0
  -22.0450  -12.8219   22.0432 N   0  0  0  0  0  0
  -25.4165  -15.1934   20.4144 N   0  0  0  0  0  0
  -31.7897  -14.8724   20.1853 O   0  0  0  0  0  0
  -21.6642   -6.8881   21.4242 O   0  0  0  0  0  0
  -22.3483  -14.5502   20.6689 O   0  0  0  0  0  0
  -24.6319  -31.8543   23.1954 C   0  0  0  0  0  0
  -25.9141  -32.4748   23.8311 C   0  0  1  0  0  0
  -27.2285  -27.2562   20.1437 C   0  0  0  0  0  0
  -25.5933  -33.8552   24.2234 N   0  0  0  0  0  0
  -23.4304  -30.4741   21.5382 C   0  0  2  0  0  0
  -24.8804  -28.9135   20.1141 C   0  0  0  0  0  0
  -22.7506  -29.4602   22.4900 C   0  0  0  0  0  0
  -18.0290  -28.1395   22.8479 C   0  0  0  0  0  0
  -24.1484  -36.7280   23.2641 C   0  0  0  0  0  0
  -25.9755  -30.7649   21.3763 C   0  0  0  0  0  0
  -26.0511  -29.3849   20.7233 C   0  0  0  0  0  0
  -27.2301  -28.5708   20.7217 C   0  0  0  0  0  0
  -26.0368  -26.8491   19.5074 C   0  0  0  0  0  0
  -24.8781  -27.6532   19.4941 C   0  0  0  0  0  0
  -23.6507  -29.8019   20.1569 C   0  0  0  0  0  0
  -25.4114  -36.3067   24.0321 C   0  0  1  0  0  0
  -20.5896  -28.3714   23.1267 C   0  0  2  0  0  0
  -20.6778  -26.9429   22.5417 C   0  0  0  0  0  0
  -19.5757  -26.6387   21.5216 C   0  0  0  0  0  0
  -18.1932  -26.7932   22.1621 C   0  0  0  0  0  0
  -19.1545  -28.8866   23.2865 C   0  0  0  0  0  0
  -18.9469  -30.1462   23.8894 C   0  0  0  0  0  0
  -17.6472  -30.6598   24.0563 C   0  0  0  0  0  0
  -25.9059  -34.9439   23.5086 C   0  0  0  0  0  0
  -16.5360  -29.9101   23.6334 C   0  0  0  0  0  0
  -16.7275  -28.6514   23.0355 C   0  0  0  0  0  0
  -26.4501  -31.6581   25.0712 C   0  0  0  0  0  0
  -25.3716  -31.3765   26.1434 C   0  0  0  0  0  0
  -27.0344  -30.2985   24.6220 C   0  0  0  0  0  0
  -27.6039  -32.4331   25.7497 C   0  0  0  0  0  0
  -27.5573  -37.1803   24.8460 C   0  0  0  0  0  0
  -21.4211  -29.3060   22.3649 N   0  0  0  0  0  0
  -26.4282  -37.3772   23.9408 N   0  0  0  0  0  0
  -24.6980  -31.0498   22.0931 N   0  0  0  0  0  0
  -23.4198  -28.8156   23.3014 O   0  0  0  0  0  0
  -28.3223  -26.3581   20.1616 O   0  0  0  0  0  0
  -26.5639  -34.8924   22.4657 O   0  0  0  0  0  0
  -23.5467  -32.1368   23.7249 O   0  0  0  0  0  0
  -30.8209  -23.4869   21.0743 C   0  0  0  0  0  0
  -31.1793  -20.7902   21.2833 C   0  0  0  0  0  0
  -29.7486  -22.6854   20.6221 C   0  0  0  0  0  0
  -29.9538  -21.2202   20.7255 C   0  0  0  0  0  0
  -31.9817  -22.9213   21.6185 C   0  0  0  0  0  0
  -33.1005  -23.7957   22.1481 C   0  0  0  0  0  0
  -28.5371  -23.5429   20.0540 C   0  0  0  0  0  0
  -28.9819  -20.0190   20.3867 C   0  0  0  0  0  0
  -29.4882  -18.5144   19.9464 C   0  0  0  0  0  0
  -30.0957  -17.3579   20.9130 C   0  0  0  0  0  0
  -28.1140  -24.9749   20.7324 C   0  0  0  0  0  0
  -32.1606  -21.5971   21.7210 N   0  0  0  0  0  0
  -29.7892  -15.8707   20.6644 N   0  0  0  0  0  0
  -31.4768  -12.6065   19.1596 H   0  0  0  0  0  0
  -30.3983  -11.4868   19.9477 H   0  0  0  0  0  0
  -29.7966  -11.7401   17.5150 H   0  0  0  0  0  0
  -29.6438  -13.4658   17.7139 H   0  0  0  0  0  0
  -27.8777  -11.2954   18.8853 H   0  0  0  0  0  0
  -27.3890  -12.5545   17.7852 H   0  0  0  0  0  0
  -27.6351  -14.2620   19.4792 H   0  0  0  0  0  0
  -28.7259  -12.1514   21.4038 H   0  0  0  0  0  0
  -28.4202  -13.8222   21.8000 H   0  0  0  0  0  0
  -25.2781   -9.5657   22.4736 H   0  0  0  0  0  0
  -24.0008   -7.4620   22.7462 H   0  0  0  0  0  0
  -21.0828   -8.8800   19.8972 H   0  0  0  0  0  0
  -22.3714  -10.9677   19.6163 H   0  0  0  0  0  0
  -21.2038   -7.6146   23.9720 H   0  0  0  0  0  0
  -21.1469   -6.0516   25.9076 H   0  0  0  0  0  0
  -22.0602   -2.7608   23.2848 H   0  0  0  0  0  0
  -22.4075  -11.9929   22.4902 H   0  0  0  0  0  0
  -21.1048  -13.1218   22.2572 H   0  0  0  0  0  0
  -24.6471  -15.8439   20.5346 H   0  0  0  0  0  0
  -26.2580  -15.6370   20.0699 H   0  0  0  0  0  0
  -26.7213  -32.5394   23.1055 H   0  0  0  0  0  0
  -25.0064  -33.9681   25.0370 H   0  0  0  0  0  0
  -22.7280  -31.2967   21.3887 H   0  0  0  0  0  0
  -23.3749  -35.9609   23.3300 H   0  0  0  0  0  0
  -24.3571  -36.8910   22.2056 H   0  0  0  0  0  0
  -23.7238  -37.6479   23.6670 H   0  0  0  0  0  0
  -26.1149  -31.5225   20.6039 H   0  0  0  0  0  0
  -26.8531  -30.8171   22.0089 H   0  0  0  0  0  0
  -28.1277  -28.9280   21.2063 H   0  0  0  0  0  0
  -25.9944  -25.8790   19.0320 H   0  0  0  0  0  0
  -23.9826  -27.2868   19.0104 H   0  0  0  0  0  0
  -23.7770  -30.5753   19.3982 H   0  0  0  0  0  0
  -22.7695  -29.2347   19.8515 H   0  0  0  0  0  0
  -25.1299  -36.1905   25.0814 H   0  0  0  0  0  0
  -20.9983  -28.3301   24.1390 H   0  0  0  0  0  0
  -20.5672  -26.2332   23.3630 H   0  0  0  0  0  0
  -21.6649  -26.7449   22.1225 H   0  0  0  0  0  0
  -19.6929  -25.6293   21.1258 H   0  0  0  0  0  0
  -19.6697  -27.3187   20.6737 H   0  0  0  0  0  0
  -17.4208  -26.6673   21.4017 H   0  0  0  0  0  0
  -18.0333  -26.0075   22.9020 H   0  0  0  0  0  0
  -19.7950  -30.7264   24.2273 H   0  0  0  0  0  0
  -17.5037  -31.6277   24.5170 H   0  0  0  0  0  0
  -15.5364  -30.3009   23.7660 H   0  0  0  0  0  0
  -15.8669  -28.0834   22.7085 H   0  0  0  0  0  0
  -24.5876  -30.7123   25.7780 H   0  0  0  0  0  0
  -24.8927  -32.2953   26.4828 H   0  0  0  0  0  0
  -25.8024  -30.8969   27.0232 H   0  0  0  0  0  0
  -26.2942  -29.6745   24.1199 H   0  0  0  0  0  0
  -27.3960  -29.7240   25.4760 H   0  0  0  0  0  0
  -27.8846  -30.4241   23.9511 H   0  0  0  0  0  0
  -27.2623  -33.3631   26.2054 H   0  0  0  0  0  0
  -28.3864  -32.6897   25.0343 H   0  0  0  0  0  0
  -28.0688  -31.8474   26.5437 H   0  0  0  0  0  0
  -28.2595  -38.0097   24.7502 H   0  0  0  0  0  0
  -28.1063  -36.2629   24.6280 H   0  0  0  0  0  0
  -27.2297  -37.1455   25.8866 H   0  0  0  0  0  0
  -20.9400  -29.8773   21.6843 H   0  0  0  0  0  0
  -26.0153  -38.2840   24.1418 H   0  0  0  0  0  0
  -30.7591  -24.5655   21.0135 H   0  0  0  0  0  0
  -31.3853  -19.7405   21.4157 H   0  0  0  0  0  0
  -33.1562  -24.7369   21.6030 H   0  0  0  0  0  0
  -34.0687  -23.3004   22.0616 H   0  0  0  0  0  0
  -32.9292  -24.0251   23.1992 H   0  0  0  0  0  0
  -27.6659  -22.8898   20.0993 H   0  0  0  0  0  0
  -28.7085  -23.7035   18.9894 H   0  0  0  0  0  0
  -28.3504  -20.3852   19.5759 H   0  0  0  0  0  0
  -28.3055  -19.9091   21.2355 H   0  0  0  0  0  0
  -30.1578  -18.6206   19.0925 H   0  0  0  0  0  0
  -28.5951  -18.0566   19.5203 H   0  0  0  0  0  0
  -29.7463  -17.5601   21.9265 H   0  0  0  0  0  0
  -31.1794  -17.4791   20.9567 H   0  0  0  0  0  0
  -28.5477  -25.0012   21.7320 H   0  0  0  0  0  0
  -27.0495  -24.8765   20.9491 H   0  0  0  0  0  0
  -28.8159  -15.6305   20.7822 H   0  0  0  0  0  0
  1 25  1  0  0  0
  1 30  2  0  0  0
  1 83  1  0  0  0
  2  3  1  0  0  0
  2 25  1  0  0  0
  2 84  1  0  0  0
  2 85  1  0  0  0
  3  4  1  0  0  0
  3 86  1  0  0  0
  3 87  1  0  0  0
  4  5  1  0  0  0
  4 88  1  0  0  0
  4 89  1  0  0  0
  5  6  1  0  0  0
  5 26  1  0  0  0
  5 90  1  0  0  0
  6 25  1  0  0  0
  6 91  1  0  0  0
  6 92  1  0  0  0
  7  8  2  0  0  0
  7 26  1  0  0  0
  7 29  1  0  0  0
  8  9  1  0  0  0
  8 22  1  0  0  0
  9 10  1  0  0  0
  9 27  2  0  0  0
 10 11  2  0  0  0
 10 15  1  0  0  0
 11 12  1  0  0  0
 11 93  1  0  0  0
 12 13  2  0  0  0
 12 94  1  0  0  0
 13 14  1  0  0  0
 13 31  1  0  0  0
 14 15  2  0  0  0
 14 95  1  0  0  0
 15 96  1  0  0  0
 16 17  2  0  0  0
 16 21  1  0  0  0
 16 31  1  0  0  0
 17 18  1  0  0  0
 17 97  1  0  0  0
 18 19  2  0  0  0
 18 98  1  0  0  0
 19 20  1  0  0  0
 19 24  1  0  0  0
 20 21  2  0  0  0
 20 99  1  0  0  0
 21 23  1  0  0  0
 22 28  1  0  0  0
 22 32  2  0  0  0
 26 27  1  0  0  0
 28100  1  0  0  0
 28101  1  0  0  0
 29102  1  0  0  0
 29103  1  0  0  0
 33 34  1  0  0  0
 33 66  1  0  0  0
 33 70  2  0  0  0
 34 36  1  0  0  0
 34 59  1  0  0  0
 34104  1  0  0  0
 35 44  2  0  0  0
 35 45  1  0  0  0
 35 68  1  0  0  0
 36 56  1  0  0  0
 36105  1  0  0  0
 37 39  1  0  0  0
 37 47  1  0  0  0
 37 66  1  0  0  0
 37106  1  0  0  0
 38 43  2  0  0  0
 38 46  1  0  0  0
 38 47  1  0  0  0
 39 64  1  0  0  0
 39 67  2  0  0  0
 40 52  1  0  0  0
 40 53  2  0  0  0
 40 58  1  0  0  0
 41107  1  0  0  0
 41108  1  0  0  0
 41109  1  0  0  0
 41 48  1  0  0  0
 42 43  1  0  0  0
 42 66  1  0  0  0
 42110  1  0  0  0
 42111  1  0  0  0
 43 44  1  0  0  0
 44112  1  0  0  0
 45 46  2  0  0  0
 45113  1  0  0  0
 46114  1  0  0  0
 47115  1  0  0  0
 47116  1  0  0  0
 48 56  1  0  0  0
 48 65  1  0  0  0
 48117  1  0  0  0
 49 50  1  0  0  0
 49 53  1  0  0  0
 49 64  1  0  0  0
 49118  1  0  0  0
 50 51  1  0  0  0
 50119  1  0  0  0
 50120  1  0  0  0
 51 52  1  0  0  0
 51121  1  0  0  0
 51122  1  0  0  0
 52123  1  0  0  0
 52124  1  0  0  0
 53 54  1  0  0  0
 54 55  2  0  0  0
 54125  1  0  0  0
 55 57  1  0  0  0
 55126  1  0  0  0
 56 69  2  0  0  0
 57 58  2  0  0  0
 57127  1  0  0  0
 58128  1  0  0  0
 59 60  1  0  0  0
 59 61  1  0  0  0
 59 62  1  0  0  0
 60129  1  0  0  0
 60130  1  0  0  0
 60131  1  0  0  0
 61132  1  0  0  0
 61133  1  0  0  0
 61134  1  0  0  0
 62135  1  0  0  0
 62136  1  0  0  0
 62137  1  0  0  0
 63 65  1  0  0  0
 63138  1  0  0  0
 63139  1  0  0  0
 63140  1  0  0  0
 64141  1  0  0  0
 65142  1  0  0  0
 68 81  1  0  0  0
 71 73  2  0  0  0
 71 75  1  0  0  0
 71143  1  0  0  0
 72 74  2  0  0  0
 72 82  1  0  0  0
 72144  1  0  0  0
 73 74  1  0  0  0
 73 77  1  0  0  0
 74 78  1  0  0  0
 75 76  1  0  0  0
 75 82  2  0  0  0
 76145  1  0  0  0
 76146  1  0  0  0
 76147  1  0  0  0
 77 81  1  0  0  0
 77148  1  0  0  0
 77149  1  0  0  0
 78 79  1  0  0  0
 78150  1  0  0  0
 78151  1  0  0  0
 79 80  1  0  0  0
 79152  1  0  0  0
 79153  1  0  0  0
 80 83  1  0  0  0
 80154  1  0  0  0
 80155  1  0  0  0
 81156  1  0  0  0
 81157  1  0  0  0
 83158  1  0  0  0
M  ISO  4   1 100  68 101  81 101  83 100
M  END
> <chiral flag>
0

> <version>
0

> <s_m_source_file>
/data/baiqing/PycharmProjects/Reinvent-master-3.2/result/LINK_invent/BTK/process_docking_weight1_custom_sum_contain_oxygen_bond_distance_aromatic_linkinvent_7_9_3/rearranged_h_0044.sdf

> <i_m_source_file_index>
30

> <r_mmod_Potential_Energy-OPLS-2005>
125.185386657715

> <r_mmod_Stretch_Energy-OPLS-2005>
143.259918212891

> <r_mmod_Bend_Energy-OPLS-2005>
221.815643310547

> <r_mmod_Torsional_Energy-OPLS-2005>
242.684036254883

> <r_mmod_Improper_Torsional_Energy-OPLS-2005>
4.50834274291992

> <r_mmod_Van_der_Waal_Energy-OPLS-2005>
137.303680419922

> <r_mmod_Electrostatic_Energy-OPLS-2005>
-482.299224853516

> <r_mmod_Solvation_Energy-OPLS-2005>
-231.847030639648

> <b_mmod_Minimization_Converged-OPLS-2005>
0

> <r_mmod_RMS_Derivative-OPLS-2005>
1.89320182800293

$$$$
30
                    3D
 Structure written by MMmdl.
161169  0  0  1  0            999 V2000
  -30.6832  -14.4809   20.5852 C   0  0  0  0  0  0
  -30.4333  -12.3183   19.4247 C   0  0  0  0  0  0
  -29.4944  -12.4982   18.2129 C   0  0  0  0  0  0
  -28.0156  -12.3579   18.6232 C   0  0  0  0  0  0
  -27.6624  -13.2006   19.8778 C   0  0  2  0  0  0
  -28.7027  -12.9727   20.9992 C   0  0  0  0  0  0
  -25.2591  -13.8157   20.5658 C   0  0  0  0  0  0
  -24.1842  -13.0440   20.9178 C   0  0  0  0  0  0
  -24.6401  -11.6910   20.8757 C   0  0  0  0  0  0
  -23.9058  -10.4303   21.0423 C   0  0  0  0  0  0
  -24.3618   -9.4211   21.9188 C   0  0  0  0  0  0
  -23.6293   -8.2242   22.0750 C   0  0  0  0  0  0
  -22.4273   -8.0284   21.3542 C   0  0  0  0  0  0
  -21.9915   -9.0251   20.4637 C   0  0  0  0  0  0
  -22.7238  -10.2139   20.3060 C   0  0  0  0  0  0
  -21.6848   -6.0737   22.5281 C   0  0  0  0  0  0
  -21.3989   -6.5635   23.8211 C   0  0  0  0  0  0
  -21.3669   -5.6789   24.9174 C   0  0  0  0  0  0
  -21.6066   -4.3049   24.7226 C   0  0  0  0  0  0
  -21.8817   -3.8143   23.4339 C   0  0  0  0  0  0
  -21.9180   -4.6961   22.3398 C   0  0  0  0  0  0
  -22.7867  -13.5231   21.1843 C   0  0  0  0  0  0
  -22.1651   -4.2156   21.0972 F   0  0  0  0  0  0
  -21.5659   -3.4535   25.7738 F   0  0  0  0  0  0
  -30.0353  -13.2917   20.4543 N   0  0  0  0  0  0
  -26.3018  -12.9310   20.3365 N   0  0  0  0  0  0
  -25.9322  -11.6477   20.5776 N   0  0  0  0  0  0
  -22.0516  -12.8222   22.0406 N   0  0  0  0  0  0
  -25.4329  -15.1874   20.4044 N   0  0  0  0  0  0
  -31.7917  -14.7021   20.0901 O   0  0  0  0  0  0
  -21.6634   -6.8882   21.4249 O   0  0  0  0  0  0
  -22.3541  -14.5531   20.6681 O   0  0  0  0  0  0
  -24.6141  -31.8682   23.2088 C   0  0  0  0  0  0
  -25.9028  -32.4819   23.8390 C   0  0  1  0  0  0
  -27.2294  -27.4361   20.0924 C   0  0  0  0  0  0
  -25.5897  -33.8614   24.2324 N   0  0  0  0  0  0
  -23.4024  -30.4898   21.5493 C   0  0  2  0  0  0
  -24.8497  -28.9546   20.1136 C   0  0  0  0  0  0
  -22.7408  -29.4657   22.4995 C   0  0  0  0  0  0
  -18.0279  -28.1374   22.8484 C   0  0  0  0  0  0
  -24.1493  -36.7315   23.2638 C   0  0  0  0  0  0
  -25.9304  -30.8327   21.3623 C   0  0  0  0  0  0
  -26.0100  -29.4669   20.7100 C   0  0  0  0  0  0
  -27.2073  -28.7130   20.6993 C   0  0  0  0  0  0
  -26.0579  -26.9380   19.4889 C   0  0  0  0  0  0
  -24.8674  -27.6888   19.5017 C   0  0  0  0  0  0
  -23.6106  -29.8200   20.1641 C   0  0  0  0  0  0
  -25.4108  -36.3105   24.0342 C   0  0  1  0  0  0
  -20.5866  -28.3656   23.1322 C   0  0  2  0  0  0
  -20.6781  -26.9401   22.5413 C   0  0  0  0  0  0
  -19.5762  -26.6379   21.5213 C   0  0  0  0  0  0
  -18.1936  -26.7918   22.1618 C   0  0  0  0  0  0
  -19.1526  -28.8829   23.2902 C   0  0  0  0  0  0
  -18.9457  -30.1440   23.8903 C   0  0  0  0  0  0
  -17.6462  -30.6584   24.0558 C   0  0  0  0  0  0
  -25.9031  -34.9470   23.5132 C   0  0  0  0  0  0
  -16.5352  -29.9083   23.6330 C   0  0  0  0  0  0
  -16.7268  -28.6506   23.0338 C   0  0  0  0  0  0
  -26.4458  -31.6593   25.0713 C   0  0  0  0  0  0
  -25.3719  -31.3717   26.1465 C   0  0  0  0  0  0
  -27.0288  -30.3041   24.6071 C   0  0  0  0  0  0
  -27.6042  -32.4302   25.7468 C   0  0  0  0  0  0
  -27.5584  -37.1812   24.8467 C   0  0  0  0  0  0
  -21.4140  -29.3033   22.3730 N   0  0  0  0  0  0
  -26.4297  -37.3783   23.9404 N   0  0  0  0  0  0
  -24.6668  -31.0768   22.0990 N   0  0  0  0  0  0
  -23.4186  -28.8211   23.3040 O   0  0  0  0  0  0
  -28.3570  -26.6469   20.0998 O   0  0  0  0  0  0
  -26.5583  -34.8925   22.4688 O   0  0  0  0  0  0
  -23.5332  -32.1429   23.7482 O   0  0  0  0  0  0
  -29.5725  -21.2740   19.0827 C   0  0  0  0  0  0
  -28.3708  -19.8742   21.1061 C   0  0  0  0  0  0
  -29.8131  -19.8802   19.1591 C   0  0  0  0  0  0
  -29.1546  -19.1480   20.1814 C   0  0  0  0  0  0
  -28.7230  -21.8970   20.0142 C   0  0  0  0  0  0
  -31.5965  -20.1099   17.2901 C   0  0  0  0  0  0
  -30.7153  -19.1799   18.1428 C   0  0  0  0  0  0
  -29.1435  -17.6097   20.2267 C   0  0  0  0  0  0
  -28.3292  -23.3730   19.8691 C   0  0  0  0  0  0
  -29.0772  -24.3403   20.8152 C   0  0  0  0  0  0
  -30.2040  -16.9125   21.1142 C   0  0  0  0  0  0
  -28.3259  -25.6558   21.1365 C   0  0  0  0  0  0
  -28.1586  -21.2092   21.0300 N   0  0  0  0  0  0
  -29.9597  -15.4596   21.1628 N   0  0  0  0  0  0
  -31.4709  -12.4450   19.1082 H   0  0  0  0  0  0
  -30.3676  -11.3046   19.8227 H   0  0  0  0  0  0
  -29.7409  -11.7744   17.4358 H   0  0  0  0  0  0
  -29.6508  -13.4823   17.7705 H   0  0  0  0  0  0
  -27.8230  -11.3023   18.8152 H   0  0  0  0  0  0
  -27.3685  -12.6349   17.7905 H   0  0  0  0  0  0
  -27.7074  -14.2486   19.5795 H   0  0  0  0  0  0
  -28.6847  -11.9337   21.3327 H   0  0  0  0  0  0
  -28.4530  -13.5592   21.8843 H   0  0  0  0  0  0
  -25.2769   -9.5674   22.4746 H   0  0  0  0  0  0
  -24.0002   -7.4626   22.7458 H   0  0  0  0  0  0
  -21.0851   -8.8760   19.8934 H   0  0  0  0  0  0
  -22.3696  -10.9669   19.6160 H   0  0  0  0  0  0
  -21.1963   -7.6143   23.9706 H   0  0  0  0  0  0
  -21.1509   -6.0529   25.9076 H   0  0  0  0  0  0
  -22.0591   -2.7605   23.2841 H   0  0  0  0  0  0
  -22.4101  -11.9857   22.4784 H   0  0  0  0  0  0
  -21.1141  -13.1242   22.2621 H   0  0  0  0  0  0
  -24.6737  -15.8498   20.5166 H   0  0  0  0  0  0
  -26.2862  -15.6192   20.0764 H   0  0  0  0  0  0
  -26.7097  -32.5530   23.1154 H   0  0  0  0  0  0
  -25.0079  -33.9781   25.0493 H   0  0  0  0  0  0
  -22.6924  -31.3069   21.4093 H   0  0  0  0  0  0
  -23.3746  -35.9660   23.3313 H   0  0  0  0  0  0
  -24.3600  -36.8903   22.2050 H   0  0  0  0  0  0
  -23.7259  -37.6534   23.6636 H   0  0  0  0  0  0
  -26.0405  -31.5983   20.5924 H   0  0  0  0  0  0
  -26.8196  -30.8874   21.9788 H   0  0  0  0  0  0
  -28.1021  -29.0968   21.1687 H   0  0  0  0  0  0
  -26.0663  -25.9626   19.0229 H   0  0  0  0  0  0
  -23.9738  -27.2868   19.0439 H   0  0  0  0  0  0
  -23.7166  -30.5941   19.4032 H   0  0  0  0  0  0
  -22.7353  -29.2375   19.8700 H   0  0  0  0  0  0
  -25.1290  -36.1974   25.0835 H   0  0  0  0  0  0
  -20.9960  -28.3214   24.1439 H   0  0  0  0  0  0
  -20.5701  -26.2263   23.3590 H   0  0  0  0  0  0
  -21.6653  -26.7456   22.1196 H   0  0  0  0  0  0
  -19.6935  -25.6293   21.1237 H   0  0  0  0  0  0
  -19.6711  -27.3194   20.6747 H   0  0  0  0  0  0
  -17.4214  -26.6658   21.4014 H   0  0  0  0  0  0
  -18.0341  -26.0053   22.9008 H   0  0  0  0  0  0
  -19.7937  -30.7253   24.2274 H   0  0  0  0  0  0
  -17.5021  -31.6266   24.5154 H   0  0  0  0  0  0
  -15.5356  -30.2989   23.7652 H   0  0  0  0  0  0
  -15.8669  -28.0835   22.7037 H   0  0  0  0  0  0
  -24.5875  -30.7076   25.7815 H   0  0  0  0  0  0
  -24.8920  -32.2879   26.4916 H   0  0  0  0  0  0
  -25.8056  -30.8884   27.0226 H   0  0  0  0  0  0
  -26.2833  -29.6811   24.1104 H   0  0  0  0  0  0
  -27.4069  -29.7266   25.4519 H   0  0  0  0  0  0
  -27.8664  -30.4398   23.9218 H   0  0  0  0  0  0
  -27.2672  -33.3593   26.2086 H   0  0  0  0  0  0
  -28.3824  -32.6868   25.0263 H   0  0  0  0  0  0
  -28.0734  -31.8386   26.5343 H   0  0  0  0  0  0
  -28.2607  -38.0102   24.7494 H   0  0  0  0  0  0
  -28.1072  -36.2631   24.6313 H   0  0  0  0  0  0
  -27.2304  -37.1487   25.8872 H   0  0  0  0  0  0
  -20.9307  -29.8736   21.6936 H   0  0  0  0  0  0
  -26.0192  -38.2871   24.1382 H   0  0  0  0  0  0
  -29.9953  -21.8724   18.2893 H   0  0  0  0  0  0
  -27.8502  -19.3636   21.9037 H   0  0  0  0  0  0
  -32.2559  -19.5303   16.6448 H   0  0  0  0  0  0
  -32.2244  -20.7420   17.9179 H   0  0  0  0  0  0
  -30.9974  -20.7539   16.6450 H   0  0  0  0  0  0
  -30.0985  -18.5700   17.4815 H   0  0  0  0  0  0
  -31.3645  -18.4902   18.6810 H   0  0  0  0  0  0
  -29.2136  -17.2204   19.2107 H   0  0  0  0  0  0
  -28.1532  -17.3052   20.5670 H   0  0  0  0  0  0
  -27.2533  -23.4517   20.0357 H   0  0  0  0  0  0
  -28.4828  -23.6919   18.8375 H   0  0  0  0  0  0
  -30.0843  -24.5386   20.4490 H   0  0  0  0  0  0
  -29.2095  -23.8232   21.7653 H   0  0  0  0  0  0
  -30.1508  -17.3006   22.1322 H   0  0  0  0  0  0
  -31.2076  -17.1356   20.7516 H   0  0  0  0  0  0
  -28.7799  -26.1118   22.0171 H   0  0  0  0  0  0
  -27.3048  -25.4066   21.4338 H   0  0  0  0  0  0
  -29.0806  -15.1643   21.5619 H   0  0  0  0  0  0
  1 25  1  0  0  0
  1 30  2  0  0  0
  1 84  1  0  0  0
  2  3  1  0  0  0
  2 25  1  0  0  0
  2 85  1  0  0  0
  2 86  1  0  0  0
  3  4  1  0  0  0
  3 87  1  0  0  0
  3 88  1  0  0  0
  4  5  1  0  0  0
  4 89  1  0  0  0
  4 90  1  0  0  0
  5  6  1  0  0  0
  5 26  1  0  0  0
  5 91  1  0  0  0
  6 25  1  0  0  0
  6 92  1  0  0  0
  6 93  1  0  0  0
  7  8  2  0  0  0
  7 26  1  0  0  0
  7 29  1  0  0  0
  8  9  1  0  0  0
  8 22  1  0  0  0
  9 10  1  0  0  0
  9 27  2  0  0  0
 10 11  2  0  0  0
 10 15  1  0  0  0
 11 12  1  0  0  0
 11 94  1  0  0  0
 12 13  2  0  0  0
 12 95  1  0  0  0
 13 14  1  0  0  0
 13 31  1  0  0  0
 14 15  2  0  0  0
 14 96  1  0  0  0
 15 97  1  0  0  0
 16 17  2  0  0  0
 16 21  1  0  0  0
 16 31  1  0  0  0
 17 18  1  0  0  0
 17 98  1  0  0  0
 18 19  2  0  0  0
 18 99  1  0  0  0
 19 20  1  0  0  0
 19 24  1  0  0  0
 20 21  2  0  0  0
 20100  1  0  0  0
 21 23  1  0  0  0
 22 28  1  0  0  0
 22 32  2  0  0  0
 26 27  1  0  0  0
 28101  1  0  0  0
 28102  1  0  0  0
 29103  1  0  0  0
 29104  1  0  0  0
 33 34  1  0  0  0
 33 66  1  0  0  0
 33 70  2  0  0  0
 34 36  1  0  0  0
 34 59  1  0  0  0
 34105  1  0  0  0
 35 44  2  0  0  0
 35 45  1  0  0  0
 35 68  1  0  0  0
 36 56  1  0  0  0
 36106  1  0  0  0
 37 39  1  0  0  0
 37 47  1  0  0  0
 37 66  1  0  0  0
 37107  1  0  0  0
 38 43  2  0  0  0
 38 46  1  0  0  0
 38 47  1  0  0  0
 39 64  1  0  0  0
 39 67  2  0  0  0
 40 52  1  0  0  0
 40 53  2  0  0  0
 40 58  1  0  0  0
 41108  1  0  0  0
 41109  1  0  0  0
 41110  1  0  0  0
 41 48  1  0  0  0
 42 43  1  0  0  0
 42 66  1  0  0  0
 42111  1  0  0  0
 42112  1  0  0  0
 43 44  1  0  0  0
 44113  1  0  0  0
 45 46  2  0  0  0
 45114  1  0  0  0
 46115  1  0  0  0
 47116  1  0  0  0
 47117  1  0  0  0
 48 56  1  0  0  0
 48 65  1  0  0  0
 48118  1  0  0  0
 49 50  1  0  0  0
 49 53  1  0  0  0
 49 64  1  0  0  0
 49119  1  0  0  0
 50 51  1  0  0  0
 50120  1  0  0  0
 50121  1  0  0  0
 51 52  1  0  0  0
 51122  1  0  0  0
 51123  1  0  0  0
 52124  1  0  0  0
 52125  1  0  0  0
 53 54  1  0  0  0
 54 55  2  0  0  0
 54126  1  0  0  0
 55 57  1  0  0  0
 55127  1  0  0  0
 56 69  2  0  0  0
 57 58  2  0  0  0
 57128  1  0  0  0
 58129  1  0  0  0
 59 60  1  0  0  0
 59 61  1  0  0  0
 59 62  1  0  0  0
 60130  1  0  0  0
 60131  1  0  0  0
 60132  1  0  0  0
 61133  1  0  0  0
 61134  1  0  0  0
 61135  1  0  0  0
 62136  1  0  0  0
 62137  1  0  0  0
 62138  1  0  0  0
 63 65  1  0  0  0
 63139  1  0  0  0
 63140  1  0  0  0
 63141  1  0  0  0
 64142  1  0  0  0
 65143  1  0  0  0
 68 82  1  0  0  0
 71 73  2  0  0  0
 71 75  1  0  0  0
 71144  1  0  0  0
 72 74  2  0  0  0
 72 83  1  0  0  0
 72145  1  0  0  0
 73 74  1  0  0  0
 73 77  1  0  0  0
 74 78  1  0  0  0
 75 79  1  0  0  0
 75 83  2  0  0  0
 76 77  1  0  0  0
 76146  1  0  0  0
 76147  1  0  0  0
 76148  1  0  0  0
 77149  1  0  0  0
 77150  1  0  0  0
 78 81  1  0  0  0
 78151  1  0  0  0
 78152  1  0  0  0
 79 80  1  0  0  0
 79153  1  0  0  0
 79154  1  0  0  0
 80 82  1  0  0  0
 80155  1  0  0  0
 80156  1  0  0  0
 81 84  1  0  0  0
 81157  1  0  0  0
 81158  1  0  0  0
 82159  1  0  0  0
 82160  1  0  0  0
 84161  1  0  0  0
M  ISO  4   1 100  68 101  82 101  84 100
M  END
> <chiral flag>
0

> <version>
0

> <s_m_source_file>
/data/baiqing/PycharmProjects/Reinvent-master-3.2/result/LINK_invent/BTK/process_docking_weight1_custom_sum_contain_oxygen_bond_distance_aromatic_linkinvent_7_9_3/rearranged_h_0044.sdf

> <i_m_source_file_index>
31

> <r_mmod_Potential_Energy-OPLS-2005>
-285.369720458984

> <r_mmod_Stretch_Energy-OPLS-2005>
37.4763717651367

> <r_mmod_Bend_Energy-OPLS-2005>
94.3554000854492

> <r_mmod_Torsional_Energy-OPLS-2005>
223.167785644531

> <r_mmod_Improper_Torsional_Energy-OPLS-2005>
4.35066986083984

> <r_mmod_Van_der_Waal_Energy-OPLS-2005>
148.862411499023

> <r_mmod_Electrostatic_Energy-OPLS-2005>
-587.035888671875

> <r_mmod_Solvation_Energy-OPLS-2005>
-220.035049438477

> <b_mmod_Minimization_Converged-OPLS-2005>
0

> <r_mmod_RMS_Derivative-OPLS-2005>
2.43442511558533

$$$$
31
                    3D
 Structure written by MMmdl.
172180  0  0  1  0            999 V2000
  -30.8738  -14.1392   20.8282 C   0  0  0  0  0  0
  -30.3891  -12.2747   19.3167 C   0  0  0  0  0  0
  -29.4431  -12.5459   18.1429 C   0  0  0  0  0  0
  -27.9801  -12.3708   18.5808 C   0  0  0  0  0  0
  -27.6505  -13.1951   19.8497 C   0  0  2  0  0  0
  -28.6857  -12.9386   20.9621 C   0  0  0  0  0  0
  -25.2535  -13.8156   20.5597 C   0  0  0  0  0  0
  -24.1802  -13.0459   20.9134 C   0  0  0  0  0  0
  -24.6329  -11.6904   20.8685 C   0  0  0  0  0  0
  -23.9002  -10.4290   21.0381 C   0  0  0  0  0  0
  -24.3573   -9.4211   21.9168 C   0  0  0  0  0  0
  -23.6254   -8.2243   22.0757 C   0  0  0  0  0  0
  -22.4245   -8.0269   21.3545 C   0  0  0  0  0  0
  -21.9870   -9.0226   20.4634 C   0  0  0  0  0  0
  -22.7181  -10.2112   20.3030 C   0  0  0  0  0  0
  -21.6848   -6.0716   22.5270 C   0  0  0  0  0  0
  -21.4017   -6.5631   23.8206 C   0  0  0  0  0  0
  -21.3660   -5.6785   24.9167 C   0  0  0  0  0  0
  -21.6039   -4.3045   24.7224 C   0  0  0  0  0  0
  -21.8813   -3.8130   23.4347 C   0  0  0  0  0  0
  -21.9185   -4.6939   22.3398 C   0  0  0  0  0  0
  -22.7822  -13.5256   21.1800 C   0  0  0  0  0  0
  -22.1643   -4.2129   21.0971 F   0  0  0  0  0  0
  -21.5631   -3.4525   25.7738 F   0  0  0  0  0  0
  -30.0391  -13.1648   20.4247 N   0  0  0  0  0  0
  -26.2936  -12.9306   20.3210 N   0  0  0  0  0  0
  -25.9234  -11.6469   20.5654 N   0  0  0  0  0  0
  -22.0451  -12.8259   22.0352 N   0  0  0  0  0  0
  -25.4303  -15.1875   20.4041 N   0  0  0  0  0  0
  -31.7343  -14.6673   20.1147 O   0  0  0  0  0  0
  -21.6629   -6.8846   21.4230 O   0  0  0  0  0  0
  -22.3508  -14.5553   20.6616 O   0  0  0  0  0  0
  -24.6087  -31.8716   23.2163 C   0  0  0  0  0  0
  -25.9014  -32.4841   23.8425 C   0  0  1  0  0  0
  -27.2521  -27.4946   20.1084 C   0  0  0  0  0  0
  -25.5922  -33.8649   24.2326 N   0  0  0  0  0  0
  -23.3959  -30.4902   21.5525 C   0  0  2  0  0  0
  -24.8473  -28.9526   20.1282 C   0  0  0  0  0  0
  -22.7400  -29.4637   22.5037 C   0  0  0  0  0  0
  -18.0265  -28.1419   22.8526 C   0  0  0  0  0  0
  -24.1500  -36.7310   23.2639 C   0  0  0  0  0  0
  -25.9134  -30.8559   21.3628 C   0  0  0  0  0  0
  -25.9945  -29.4886   20.7219 C   0  0  0  0  0  0
  -27.1985  -28.7651   20.7077 C   0  0  0  0  0  0
  -26.0953  -26.9481   19.5133 C   0  0  0  0  0  0
  -24.8868  -27.6783   19.5243 C   0  0  0  0  0  0
  -23.6072  -29.8139   20.1702 C   0  0  0  0  0  0
  -25.4133  -36.3108   24.0313 C   0  0  1  0  0  0
  -20.5844  -28.3670   23.1367 C   0  0  2  0  0  0
  -20.6755  -26.9414   22.5460 C   0  0  0  0  0  0
  -19.5739  -26.6408   21.5248 C   0  0  0  0  0  0
  -18.1901  -26.7972   22.1632 C   0  0  0  0  0  0
  -19.1515  -28.8870   23.2945 C   0  0  0  0  0  0
  -18.9431  -30.1467   23.8963 C   0  0  0  0  0  0
  -17.6434  -30.6622   24.0573 C   0  0  0  0  0  0
  -25.9059  -34.9482   23.5104 C   0  0  0  0  0  0
  -16.5333  -29.9121   23.6334 C   0  0  0  0  0  0
  -16.7252  -28.6543   23.0367 C   0  0  0  0  0  0
  -26.4462  -31.6641   25.0759 C   0  0  0  0  0  0
  -25.3719  -31.3748   26.1489 C   0  0  0  0  0  0
  -27.0311  -30.3099   24.6137 C   0  0  0  0  0  0
  -27.6027  -32.4398   25.7533 C   0  0  0  0  0  0
  -27.5587  -37.1812   24.8448 C   0  0  0  0  0  0
  -21.4137  -29.3018   22.3784 N   0  0  0  0  0  0
  -26.4307  -37.3802   23.9392 N   0  0  0  0  0  0
  -24.6555  -31.0871   22.1031 N   0  0  0  0  0  0
  -23.4201  -28.8181   23.3047 O   0  0  0  0  0  0
  -28.4762  -26.8918   20.0363 O   0  0  0  0  0  0
  -26.5591  -34.8906   22.4648 O   0  0  0  0  0  0
  -23.5279  -32.1446   23.7579 O   0  0  0  0  0  0
  -30.1710  -23.8472   20.0255 C   0  0  0  0  0  0
  -29.6363  -23.1463   21.1317 C   0  0  0  0  0  0
  -28.2579  -24.9447   21.6281 C   0  0  0  0  0  0
  -28.7538  -25.6231   20.4686 C   0  0  0  0  0  0
  -31.2410  -23.2717   19.1154 C   0  0  0  0  0  0
  -27.8027  -25.8330   23.9980 C   0  0  0  0  0  0
  -29.9848  -21.7012   21.4208 C   0  0  0  0  0  0
  -27.2226  -25.4873   22.6162 C   0  0  0  0  0  0
  -31.1100  -17.0267   23.2950 C   0  0  0  0  0  0
  -32.2962  -16.1226   22.9208 C   0  0  0  0  0  0
  -30.1874  -17.3822   22.1089 C   0  0  0  0  0  0
  -31.9990  -14.6229   23.0115 C   0  0  0  0  0  0
  -28.8639  -20.7834   20.8879 C   0  0  0  0  0  0
  -29.6311  -18.8084   22.2290 C   0  0  0  0  0  0
  -28.6965  -23.6983   21.9338 N   0  0  0  0  0  0
  -29.7266  -25.0767   19.7033 N   0  0  0  0  0  0
  -30.8967  -14.1943   22.1640 N   0  0  0  0  0  0
  -29.1599  -19.3339   20.9304 N   0  3  0  0  0  0
  -31.4269  -12.3960   18.9993 H   0  0  0  0  0  0
  -30.2948  -11.2387   19.6472 H   0  0  0  0  0  0
  -29.6711  -11.8764   17.3112 H   0  0  0  0  0  0
  -29.5957  -13.5618   17.7724 H   0  0  0  0  0  0
  -27.8073  -11.3092   18.7658 H   0  0  0  0  0  0
  -27.3117  -12.6496   17.7650 H   0  0  0  0  0  0
  -27.7100  -14.2475   19.5696 H   0  0  0  0  0  0
  -28.6124  -11.9109   21.3206 H   0  0  0  0  0  0
  -28.4519  -13.5803   21.8131 H   0  0  0  0  0  0
  -25.2719   -9.5709   22.4730 H   0  0  0  0  0  0
  -23.9967   -7.4656   22.7511 H   0  0  0  0  0  0
  -21.0797   -8.8709   19.8953 H   0  0  0  0  0  0
  -22.3613  -10.9629   19.6124 H   0  0  0  0  0  0
  -21.2009   -7.6143   23.9701 H   0  0  0  0  0  0
  -21.1488   -6.0519   25.9073 H   0  0  0  0  0  0
  -22.0584   -2.7587   23.2853 H   0  0  0  0  0  0
  -22.4083  -11.9967   22.4808 H   0  0  0  0  0  0
  -21.1039  -13.1249   22.2473 H   0  0  0  0  0  0
  -24.6722  -15.8516   20.5179 H   0  0  0  0  0  0
  -26.2929  -15.6182   20.0947 H   0  0  0  0  0  0
  -26.7097  -32.5598   23.1217 H   0  0  0  0  0  0
  -25.0132  -33.9855   25.0503 H   0  0  0  0  0  0
  -22.6786  -31.3006   21.4081 H   0  0  0  0  0  0
  -23.3779  -35.9622   23.3302 H   0  0  0  0  0  0
  -24.3563  -36.8970   22.2051 H   0  0  0  0  0  0
  -23.7243  -37.6500   23.6684 H   0  0  0  0  0  0
  -26.0151  -31.6199   20.5899 H   0  0  0  0  0  0
  -26.8044  -30.9136   21.9773 H   0  0  0  0  0  0
  -28.0957  -29.1934   21.1303 H   0  0  0  0  0  0
  -26.1377  -25.9818   19.0303 H   0  0  0  0  0  0
  -24.0004  -27.2639   19.0631 H   0  0  0  0  0  0
  -23.7185  -30.5855   19.4074 H   0  0  0  0  0  0
  -22.7352  -29.2279   19.8734 H   0  0  0  0  0  0
  -25.1307  -36.1967   25.0799 H   0  0  0  0  0  0
  -20.9909  -28.3236   24.1492 H   0  0  0  0  0  0
  -20.5689  -26.2274   23.3640 H   0  0  0  0  0  0
  -21.6620  -26.7477   22.1219 H   0  0  0  0  0  0
  -19.6900  -25.6316   21.1298 H   0  0  0  0  0  0
  -19.6707  -27.3204   20.6769 H   0  0  0  0  0  0
  -17.4178  -26.6795   21.4008 H   0  0  0  0  0  0
  -18.0221  -26.0087   22.8984 H   0  0  0  0  0  0
  -19.7891  -30.7278   24.2393 H   0  0  0  0  0  0
  -17.4975  -31.6303   24.5166 H   0  0  0  0  0  0
  -15.5338  -30.3035   23.7654 H   0  0  0  0  0  0
  -15.8643  -28.0884   22.7063 H   0  0  0  0  0  0
  -24.5897  -30.7104   25.7813 H   0  0  0  0  0  0
  -24.8897  -32.2895   26.4935 H   0  0  0  0  0  0
  -25.8031  -30.8918   27.0267 H   0  0  0  0  0  0
  -26.2881  -29.6909   24.1098 H   0  0  0  0  0  0
  -27.3983  -29.7294   25.4620 H   0  0  0  0  0  0
  -27.8743  -30.4447   23.9363 H   0  0  0  0  0  0
  -27.2608  -33.3669   26.2153 H   0  0  0  0  0  0
  -28.3799  -32.7047   25.0355 H   0  0  0  0  0  0
  -28.0735  -31.8533   26.5435 H   0  0  0  0  0  0
  -28.2553  -38.0153   24.7514 H   0  0  0  0  0  0
  -28.1118  -36.2670   24.6236 H   0  0  0  0  0  0
  -27.2281  -37.1426   25.8843 H   0  0  0  0  0  0
  -20.9304  -29.8744   21.7009 H   0  0  0  0  0  0
  -26.0187  -38.2869   24.1435 H   0  0  0  0  0  0
  -30.8879  -22.3535   18.6510 H   0  0  0  0  0  0
  -32.1496  -23.0567   19.6805 H   0  0  0  0  0  0
  -31.5051  -23.9624   18.3128 H   0  0  0  0  0  0
  -27.0241  -26.2177   24.6565 H   0  0  0  0  0  0
  -28.5788  -26.5967   23.9310 H   0  0  0  0  0  0
  -28.2325  -24.9544   24.4815 H   0  0  0  0  0  0
  -30.0960  -21.6017   22.5010 H   0  0  0  0  0  0
  -30.9517  -21.4371   20.9917 H   0  0  0  0  0  0
  -26.4581  -24.7224   22.7457 H   0  0  0  0  0  0
  -26.6899  -26.3502   22.2360 H   0  0  0  0  0  0
  -31.5434  -17.9401   23.7054 H   0  0  0  0  0  0
  -30.5298  -16.5954   24.1121 H   0  0  0  0  0  0
  -33.1252  -16.3323   23.5960 H   0  0  0  0  0  0
  -32.6747  -16.3772   21.9312 H   0  0  0  0  0  0
  -29.3695  -16.6641   22.0323 H   0  0  0  0  0  0
  -30.7451  -17.2990   21.1751 H   0  0  0  0  0  0
  -31.7508  -14.3625   24.0419 H   0  0  0  0  0  0
  -32.8885  -14.0455   22.7568 H   0  0  0  0  0  0
  -28.6619  -21.0427   19.8485 H   0  0  0  0  0  0
  -27.9445  -20.9794   21.4387 H   0  0  0  0  0  0
  -30.4424  -19.4396   22.5838 H   0  0  0  0  0  0
  -28.8366  -18.8564   22.9747 H   0  0  0  0  0  0
  -30.1971  -13.6204   22.6144 H   0  0  0  0  0  0
  -29.8480  -19.1336   20.2228 H   0  0  0  0  0  0
  -28.3159  -18.8498   20.6661 H   0  0  0  0  0  0
  1 25  1  0  0  0
  1 30  2  0  0  0
  1 87  1  0  0  0
  2  3  1  0  0  0
  2 25  1  0  0  0
  2 89  1  0  0  0
  2 90  1  0  0  0
  3  4  1  0  0  0
  3 91  1  0  0  0
  3 92  1  0  0  0
  4  5  1  0  0  0
  4 93  1  0  0  0
  4 94  1  0  0  0
  5  6  1  0  0  0
  5 26  1  0  0  0
  5 95  1  0  0  0
  6 25  1  0  0  0
  6 96  1  0  0  0
  6 97  1  0  0  0
  7  8  2  0  0  0
  7 26  1  0  0  0
  7 29  1  0  0  0
  8  9  1  0  0  0
  8 22  1  0  0  0
  9 10  1  0  0  0
  9 27  2  0  0  0
 10 11  2  0  0  0
 10 15  1  0  0  0
 11 12  1  0  0  0
 11 98  1  0  0  0
 12 13  2  0  0  0
 12 99  1  0  0  0
 13 14  1  0  0  0
 13 31  1  0  0  0
 14 15  2  0  0  0
 14100  1  0  0  0
 15101  1  0  0  0
 16 17  2  0  0  0
 16 21  1  0  0  0
 16 31  1  0  0  0
 17 18  1  0  0  0
 17102  1  0  0  0
 18 19  2  0  0  0
 18103  1  0  0  0
 19 20  1  0  0  0
 19 24  1  0  0  0
 20 21  2  0  0  0
 20104  1  0  0  0
 21 23  1  0  0  0
 22 28  1  0  0  0
 22 32  2  0  0  0
 26 27  1  0  0  0
 28105  1  0  0  0
 28106  1  0  0  0
 29107  1  0  0  0
 29108  1  0  0  0
 33 34  1  0  0  0
 33 66  1  0  0  0
 33 70  2  0  0  0
 34 36  1  0  0  0
 34 59  1  0  0  0
 34109  1  0  0  0
 35 44  2  0  0  0
 35 45  1  0  0  0
 35 68  1  0  0  0
 36 56  1  0  0  0
 36110  1  0  0  0
 37 39  1  0  0  0
 37 47  1  0  0  0
 37 66  1  0  0  0
 37111  1  0  0  0
 38 43  2  0  0  0
 38 46  1  0  0  0
 38 47  1  0  0  0
 39 64  1  0  0  0
 39 67  2  0  0  0
 40 52  1  0  0  0
 40 53  2  0  0  0
 40 58  1  0  0  0
 41112  1  0  0  0
 41113  1  0  0  0
 41114  1  0  0  0
 41 48  1  0  0  0
 42 43  1  0  0  0
 42 66  1  0  0  0
 42115  1  0  0  0
 42116  1  0  0  0
 43 44  1  0  0  0
 44117  1  0  0  0
 45 46  2  0  0  0
 45118  1  0  0  0
 46119  1  0  0  0
 47120  1  0  0  0
 47121  1  0  0  0
 48 56  1  0  0  0
 48 65  1  0  0  0
 48122  1  0  0  0
 49 50  1  0  0  0
 49 53  1  0  0  0
 49 64  1  0  0  0
 49123  1  0  0  0
 50 51  1  0  0  0
 50124  1  0  0  0
 50125  1  0  0  0
 51 52  1  0  0  0
 51126  1  0  0  0
 51127  1  0  0  0
 52128  1  0  0  0
 52129  1  0  0  0
 53 54  1  0  0  0
 54 55  2  0  0  0
 54130  1  0  0  0
 55 57  1  0  0  0
 55131  1  0  0  0
 56 69  2  0  0  0
 57 58  2  0  0  0
 57132  1  0  0  0
 58133  1  0  0  0
 59 60  1  0  0  0
 59 61  1  0  0  0
 59 62  1  0  0  0
 60134  1  0  0  0
 60135  1  0  0  0
 60136  1  0  0  0
 61137  1  0  0  0
 61138  1  0  0  0
 61139  1  0  0  0
 62140  1  0  0  0
 62141  1  0  0  0
 62142  1  0  0  0
 63 65  1  0  0  0
 63143  1  0  0  0
 63144  1  0  0  0
 63145  1  0  0  0
 64146  1  0  0  0
 65147  1  0  0  0
 68 74  1  0  0  0
 71 72  2  0  0  0
 71 75  1  0  0  0
 71 86  1  0  0  0
 72 77  1  0  0  0
 72 85  1  0  0  0
 73 74  1  0  0  0
 73 78  1  0  0  0
 73 85  2  0  0  0
 74 86  2  0  0  0
 75148  1  0  0  0
 75149  1  0  0  0
 75150  1  0  0  0
 76 78  1  0  0  0
 76151  1  0  0  0
 76152  1  0  0  0
 76153  1  0  0  0
 77 83  1  0  0  0
 77154  1  0  0  0
 77155  1  0  0  0
 78156  1  0  0  0
 78157  1  0  0  0
 79 80  1  0  0  0
 79 81  1  0  0  0
 79158  1  0  0  0
 79159  1  0  0  0
 80 82  1  0  0  0
 80160  1  0  0  0
 80161  1  0  0  0
 81 84  1  0  0  0
 81162  1  0  0  0
 81163  1  0  0  0
 82 87  1  0  0  0
 82164  1  0  0  0
 82165  1  0  0  0
 83 88  1  0  0  0
 83166  1  0  0  0
 83167  1  0  0  0
 84 88  1  0  0  0
 84168  1  0  0  0
 84169  1  0  0  0
 87170  1  0  0  0
 88171  1  0  0  0
 88172  1  0  0  0
M  CHG  1  88   1
M  ISO  4   1 100  68 101  74 101  87 100
M  END
> <chiral flag>
0

> <version>
0

> <s_m_source_file>
/data/baiqing/PycharmProjects/Reinvent-master-3.2/result/LINK_invent/BTK/process_docking_weight1_custom_sum_contain_oxygen_bond_distance_aromatic_linkinvent_7_9_3/rearranged_h_0044.sdf

> <i_m_source_file_index>
32

> <r_mmod_Potential_Energy-OPLS-2005>
-158.153472900391

> <r_mmod_Stretch_Energy-OPLS-2005>
31.8276176452637

> <r_mmod_Bend_Energy-OPLS-2005>
119.103134155273

> <r_mmod_Torsional_Energy-OPLS-2005>
224.642501831055

> <r_mmod_Improper_Torsional_Energy-OPLS-2005>
10.3657503128052

> <r_mmod_Van_der_Waal_Energy-OPLS-2005>
151.812088012695

> <r_mmod_Electrostatic_Energy-OPLS-2005>
-247.711761474609

> <r_mmod_Solvation_Energy-OPLS-2005>
-467.876068115234

> <b_mmod_Minimization_Converged-OPLS-2005>
0

> <r_mmod_RMS_Derivative-OPLS-2005>
4.01253747940063

$$$$
32
                    3D
 Structure written by MMmdl.
159167  0  0  1  0            999 V2000
  -29.0946  -16.1067   20.6761 C   0  0  0  0  0  0
  -30.1587  -13.6048   19.7398 C   0  0  0  0  0  0
  -29.5173  -12.8713   18.4929 C   0  0  0  0  0  0
  -28.1387  -12.2937   18.8363 C   0  0  0  0  0  0
  -27.4634  -13.2592   19.8207 C   0  0  2  0  0  0
  -28.2875  -13.6006   21.0575 C   0  0  0  0  0  0
  -25.1655  -13.8054   20.5579 C   0  0  0  0  0  0
  -24.1186  -13.0265   20.9330 C   0  0  0  0  0  0
  -24.5872  -11.6765   20.8791 C   0  0  0  0  0  0
  -23.8741  -10.4168   21.0486 C   0  0  0  0  0  0
  -24.3438   -9.4136   21.9224 C   0  0  0  0  0  0
  -23.6196   -8.2139   22.0759 C   0  0  0  0  0  0
  -22.4185   -8.0161   21.3539 C   0  0  0  0  0  0
  -21.9744   -9.0095   20.4647 C   0  0  0  0  0  0
  -22.6981  -10.2002   20.3083 C   0  0  0  0  0  0
  -21.6814   -6.0666   22.5289 C   0  0  0  0  0  0
  -21.3984   -6.5600   23.8212 C   0  0  0  0  0  0
  -21.3650   -5.6769   24.9184 C   0  0  0  0  0  0
  -21.6044   -4.3031   24.7245 C   0  0  0  0  0  0
  -21.8826   -3.8106   23.4375 C   0  0  0  0  0  0
  -21.9183   -4.6905   22.3422 C   0  0  0  0  0  0
  -22.7327  -13.5112   21.2064 C   0  0  0  0  0  0
  -22.1659   -4.2098   21.0999 F   0  0  0  0  0  0
  -21.5634   -3.4528   25.7765 F   0  0  0  0  0  0
  -29.1836  -14.5934   20.5261 N   0  0  0  0  0  0
  -26.1688  -12.9121   20.2641 N   0  0  0  0  0  0
  -25.8646  -11.6305   20.5414 N   0  0  0  0  0  0
  -22.0033  -12.8119   22.0649 N   0  0  0  0  0  0
  -25.3469  -15.1817   20.4075 N   0  0  0  0  0  0
  -30.3321  -16.3044   20.3946 O   0  0  0  0  0  0
  -21.6583   -6.8760   21.4232 O   0  0  0  0  0  0
  -22.3111  -14.5458   20.6903 O   0  0  0  0  0  0
  -24.6663  -31.9281   23.2022 C   0  0  0  0  0  0
  -25.9483  -32.5057   23.8531 C   0  0  1  0  0  0
  -26.9405  -27.2844   20.2745 C   0  0  0  0  0  0
  -25.6292  -33.8793   24.2525 N   0  0  0  0  0  0
  -23.4806  -30.6178   21.5245 C   0  0  2  0  0  0
  -24.8487  -29.0817   20.0300 C   0  0  0  0  0  0
  -22.9882  -29.5480   22.4830 C   0  0  0  0  0  0
  -18.4907  -27.2266   23.2035 C   0  0  0  0  0  0
  -24.1508  -36.7355   23.2612 C   0  0  0  0  0  0
  -26.0026  -30.8505   21.3706 C   0  0  0  0  0  0
  -26.0108  -29.4827   20.7068 C   0  0  0  0  0  0
  -27.0913  -28.5772   20.8344 C   0  0  0  0  0  0
  -25.9141  -27.0233   19.3611 C   0  0  0  0  0  0
  -24.8130  -27.8764   19.3162 C   0  0  0  0  0  0
  -23.6558  -30.0004   20.1111 C   0  0  0  0  0  0
  -25.4127  -36.3196   24.0336 C   0  0  1  0  0  0
  -21.3285  -27.9803   22.8296 C   0  0  2  0  0  0
  -21.8881  -26.8716   21.1186 C   0  0  0  0  0  0
  -20.2049  -25.3396   20.7162 C   0  0  0  0  0  0
  -18.7601  -25.6331   22.2455 C   0  0  0  0  0  0
  -19.6567  -28.2059   23.5011 C   0  0  0  0  0  0
  -19.2816  -29.5699   23.9075 C   0  0  0  0  0  0
  -17.9624  -30.1059   23.9684 C   0  0  0  0  0  0
  -25.9123  -34.9595   23.5153 C   0  0  0  0  0  0
  -16.9024  -29.2746   23.5826 C   0  0  0  0  0  0
  -17.1771  -27.9113   23.2086 C   0  0  0  0  0  0
  -26.4588  -31.6629   25.0831 C   0  0  0  0  0  0
  -25.3710  -31.3734   26.1433 C   0  0  0  0  0  0
  -27.0344  -30.3046   24.6182 C   0  0  0  0  0  0
  -27.6148  -32.4214   25.7745 C   0  0  0  0  0  0
  -27.5598  -37.1873   24.8464 C   0  0  0  0  0  0
  -21.7083  -29.2996   22.4443 N   0  0  0  0  0  0
  -26.4300  -37.3884   23.9425 N   0  0  0  0  0  0
  -24.7379  -31.1763   22.0694 N   0  0  0  0  0  0
  -23.7560  -28.9224   23.2166 O   0  0  0  0  0  0
  -27.4547  -26.1658   20.8730 O   0  0  0  0  0  0
  -26.5522  -34.9015   22.4616 O   0  0  0  0  0  0
  -23.5797  -32.1913   23.7418 O   0  0  0  0  0  0
  -22.7590  -24.1385   22.3573 C   0  0  0  0  0  0
  -21.3314  -25.3593   22.6739 C   0  0  0  0  0  0
  -23.7237  -25.0393   22.8514 C   0  0  0  0  0  0
  -19.7658  -27.4309   21.2008 C   0  0  0  0  0  0
  -23.6443  -26.1526   25.1407 C   0  0  0  0  0  0
  -23.8689  -22.3774   21.5822 C   0  0  0  0  0  0
  -25.2668  -25.5197   22.6134 C   0  0  0  0  0  0
  -25.2897  -20.5851   21.7893 C   0  0  0  0  0  0
  -26.7960  -19.0457   20.9873 C   0  0  0  0  0  0
  -26.3406  -25.2062   21.3928 C   0  0  0  0  0  0
  -21.6506  -25.5044   23.9558 N   0  0  0  0  0  0
  -23.0334  -25.5383   23.9734 N   0  0  0  0  0  0
  -27.7931  -17.2398   20.9942 N   0  0  0  0  0  0
  -31.0224  -14.1660   19.3814 H   0  0  0  0  0  0
  -30.5925  -12.8714   20.4224 H   0  0  0  0  0  0
  -30.1817  -12.0977   18.1052 H   0  0  0  0  0  0
  -29.3978  -13.6022   17.6918 H   0  0  0  0  0  0
  -28.2635  -11.3163   19.3048 H   0  0  0  0  0  0
  -27.5366  -12.1462   17.9391 H   0  0  0  0  0  0
  -27.3088  -14.1553   19.2143 H   0  0  0  0  0  0
  -28.7504  -12.7291   21.5242 H   0  0  0  0  0  0
  -27.6858  -14.0777   21.8338 H   0  0  0  0  0  0
  -25.2580   -9.5684   22.4784 H   0  0  0  0  0  0
  -23.9944   -7.4530   22.7455 H   0  0  0  0  0  0
  -21.0685   -8.8556   19.8954 H   0  0  0  0  0  0
  -22.3407  -10.9541   19.6208 H   0  0  0  0  0  0
  -21.1965   -7.6109   23.9695 H   0  0  0  0  0  0
  -21.1471   -6.0510   25.9084 H   0  0  0  0  0  0
  -22.0619   -2.7570   23.2890 H   0  0  0  0  0  0
  -22.3659  -11.9764   22.4987 H   0  0  0  0  0  0
  -21.0685  -13.1179   22.2945 H   0  0  0  0  0  0
  -24.5117  -15.7567   20.4383 H   0  0  0  0  0  0
  -26.0020  -15.5088   19.7091 H   0  0  0  0  0  0
  -26.7656  -32.5704   23.1388 H   0  0  0  0  0  0
  -25.0587  -33.9931   25.0774 H   0  0  0  0  0  0
  -22.7305  -31.4089   21.4556 H   0  0  0  0  0  0
  -23.3790  -35.9668   23.3272 H   0  0  0  0  0  0
  -24.3617  -36.8965   22.2028 H   0  0  0  0  0  0
  -23.7231  -37.6555   23.6610 H   0  0  0  0  0  0
  -26.1783  -31.6089   20.6063 H   0  0  0  0  0  0
  -26.8757  -30.8636   22.0119 H   0  0  0  0  0  0
  -27.9033  -28.7894   21.5160 H   0  0  0  0  0  0
  -25.8375  -26.0706   18.8569 H   0  0  0  0  0  0
  -23.9402  -27.5973   18.7428 H   0  0  0  0  0  0
  -23.8147  -30.8038   19.3907 H   0  0  0  0  0  0
  -22.7464  -29.5015   19.7807 H   0  0  0  0  0  0
  -25.1285  -36.2067   25.0824 H   0  0  0  0  0  0
  -21.8697  -27.7739   23.7448 H   0  0  0  0  0  0
  -22.9072  -26.4994   21.1169 H   0  0  0  0  0  0
  -22.0050  -27.5256   20.2534 H   0  0  0  0  0  0
  -20.5358  -24.2977   20.6480 H   0  0  0  0  0  0
  -19.7657  -25.4705   19.7217 H   0  0  0  0  0  0
  -17.7929  -25.3773   21.8100 H   0  0  0  0  0  0
  -18.8791  -24.8576   23.0036 H   0  0  0  0  0  0
  -20.0784  -30.2704   24.1144 H   0  0  0  0  0  0
  -17.7902  -31.1355   24.2509 H   0  0  0  0  0  0
  -15.8906  -29.6554   23.5577 H   0  0  0  0  0  0
  -16.3308  -27.3292   22.8710 H   0  0  0  0  0  0
  -24.5870  -30.7184   25.7610 H   0  0  0  0  0  0
  -24.8946  -32.2898   26.4923 H   0  0  0  0  0  0
  -25.7924  -30.8773   27.0184 H   0  0  0  0  0  0
  -26.2921  -29.6948   24.1024 H   0  0  0  0  0  0
  -27.3860  -29.7146   25.4655 H   0  0  0  0  0  0
  -27.8894  -30.4320   23.9539 H   0  0  0  0  0  0
  -27.2794  -33.3496   26.2384 H   0  0  0  0  0  0
  -28.4042  -32.6774   25.0664 H   0  0  0  0  0  0
  -28.0703  -31.8230   26.5646 H   0  0  0  0  0  0
  -28.2596  -38.0191   24.7556 H   0  0  0  0  0  0
  -28.1119  -36.2729   24.6235 H   0  0  0  0  0  0
  -27.2323  -37.1459   25.8867 H   0  0  0  0  0  0
  -21.0877  -29.8535   21.8723 H   0  0  0  0  0  0
  -26.0187  -38.2955   24.1459 H   0  0  0  0  0  0
  -18.7151  -27.3417   20.8723 H   0  0  0  0  0  0
  -19.9730  -27.5378   20.1197 H   0  0  0  0  0  0
  -19.8353  -28.5233   21.2397 H   0  0  0  0  0  0
  -24.2968  -25.4307   25.6316 H   0  0  0  0  0  0
  -22.8874  -26.4787   25.8553 H   0  0  0  0  0  0
  -24.2398  -27.0161   24.8482 H   0  0  0  0  0  0
  -24.4200  -22.8559   20.7734 H   0  0  0  0  0  0
  -23.0774  -21.8627   21.0375 H   0  0  0  0  0  0
  -25.8101  -25.3064   23.5337 H   0  0  0  0  0  0
  -25.2045  -26.6079   22.6085 H   0  0  0  0  0  0
  -24.6139  -19.9067   22.3107 H   0  0  0  0  0  0
  -25.9088  -20.9810   22.5944 H   0  0  0  0  0  0
  -27.6509  -19.6987   20.8092 H   0  0  0  0  0  0
  -26.3623  -18.9235   19.9947 H   0  0  0  0  0  0
  -25.7574  -24.8268   20.5565 H   0  0  0  0  0  0
  -26.8773  -24.3095   21.7027 H   0  0  0  0  0  0
  -27.0564  -16.5889   21.2477 H   0  0  0  0  0  0
  1 25  1  0  0  0
  1 30  2  0  0  0
  1 83  1  0  0  0
  2  3  1  0  0  0
  2 25  1  0  0  0
  2 84  1  0  0  0
  2 85  1  0  0  0
  3  4  1  0  0  0
  3 86  1  0  0  0
  3 87  1  0  0  0
  4  5  1  0  0  0
  4 88  1  0  0  0
  4 89  1  0  0  0
  5  6  1  0  0  0
  5 26  1  0  0  0
  5 90  1  0  0  0
  6 25  1  0  0  0
  6 91  1  0  0  0
  6 92  1  0  0  0
  7  8  2  0  0  0
  7 26  1  0  0  0
  7 29  1  0  0  0
  8  9  1  0  0  0
  8 22  1  0  0  0
  9 10  1  0  0  0
  9 27  2  0  0  0
 10 11  2  0  0  0
 10 15  1  0  0  0
 11 12  1  0  0  0
 11 93  1  0  0  0
 12 13  2  0  0  0
 12 94  1  0  0  0
 13 14  1  0  0  0
 13 31  1  0  0  0
 14 15  2  0  0  0
 14 95  1  0  0  0
 15 96  1  0  0  0
 16 17  2  0  0  0
 16 21  1  0  0  0
 16 31  1  0  0  0
 17 18  1  0  0  0
 17 97  1  0  0  0
 18 19  2  0  0  0
 18 98  1  0  0  0
 19 20  1  0  0  0
 19 24  1  0  0  0
 20 21  2  0  0  0
 20 99  1  0  0  0
 21 23  1  0  0  0
 22 28  1  0  0  0
 22 32  2  0  0  0
 26 27  1  0  0  0
 28100  1  0  0  0
 28101  1  0  0  0
 29102  1  0  0  0
 29103  1  0  0  0
 33 34  1  0  0  0
 33 66  1  0  0  0
 33 70  2  0  0  0
 34 36  1  0  0  0
 34 59  1  0  0  0
 34104  1  0  0  0
 35 44  2  0  0  0
 35 45  1  0  0  0
 35 68  1  0  0  0
 36 56  1  0  0  0
 36105  1  0  0  0
 37 39  1  0  0  0
 37 47  1  0  0  0
 37 66  1  0  0  0
 37106  1  0  0  0
 38 43  2  0  0  0
 38 46  1  0  0  0
 38 47  1  0  0  0
 39 64  1  0  0  0
 39 67  2  0  0  0
 40 52  1  0  0  0
 40 53  2  0  0  0
 40 58  1  0  0  0
 41107  1  0  0  0
 41108  1  0  0  0
 41109  1  0  0  0
 41 48  1  0  0  0
 42 43  1  0  0  0
 42 66  1  0  0  0
 42110  1  0  0  0
 42111  1  0  0  0
 43 44  1  0  0  0
 44112  1  0  0  0
 45 46  2  0  0  0
 45113  1  0  0  0
 46114  1  0  0  0
 47115  1  0  0  0
 47116  1  0  0  0
 48 56  1  0  0  0
 48 65  1  0  0  0
 48117  1  0  0  0
 49 50  1  0  0  0
 49 53  1  0  0  0
 49 64  1  0  0  0
 49118  1  0  0  0
 50 51  1  0  0  0
 50119  1  0  0  0
 50120  1  0  0  0
 51 52  1  0  0  0
 51121  1  0  0  0
 51122  1  0  0  0
 52123  1  0  0  0
 52124  1  0  0  0
 53 54  1  0  0  0
 54 55  2  0  0  0
 54125  1  0  0  0
 55 57  1  0  0  0
 55126  1  0  0  0
 56 69  2  0  0  0
 57 58  2  0  0  0
 57127  1  0  0  0
 58128  1  0  0  0
 59 60  1  0  0  0
 59 61  1  0  0  0
 59 62  1  0  0  0
 60129  1  0  0  0
 60130  1  0  0  0
 60131  1  0  0  0
 61132  1  0  0  0
 61133  1  0  0  0
 61134  1  0  0  0
 62135  1  0  0  0
 62136  1  0  0  0
 62137  1  0  0  0
 63 65  1  0  0  0
 63138  1  0  0  0
 63139  1  0  0  0
 63140  1  0  0  0
 64141  1  0  0  0
 65142  1  0  0  0
 68 80  1  0  0  0
 71 72  1  0  0  0
 71 73  2  0  0  0
 71 76  1  0  0  0
 72 74  1  0  0  0
 72 81  2  0  0  0
 73 77  1  0  0  0
 73 82  1  0  0  0
 74143  1  0  0  0
 74144  1  0  0  0
 74145  1  0  0  0
 75 82  1  0  0  0
 75146  1  0  0  0
 75147  1  0  0  0
 75148  1  0  0  0
 76 78  1  0  0  0
 76149  1  0  0  0
 76150  1  0  0  0
 77 80  1  0  0  0
 77151  1  0  0  0
 77152  1  0  0  0
 78 79  1  0  0  0
 78153  1  0  0  0
 78154  1  0  0  0
 79 83  1  0  0  0
 79155  1  0  0  0
 79156  1  0  0  0
 80157  1  0  0  0
 80158  1  0  0  0
 81 82  1  0  0  0
 83159  1  0  0  0
M  ISO  4   1 100  68 101  80 101  83 100
M  END
> <chiral flag>
0

> <version>
0

> <s_m_source_file>
/data/baiqing/PycharmProjects/Reinvent-master-3.2/result/LINK_invent/BTK/process_docking_weight1_custom_sum_contain_oxygen_bond_distance_aromatic_linkinvent_7_9_3/rearranged_h_0044.sdf

> <i_m_source_file_index>
33

> <r_mmod_Potential_Energy-OPLS-2005>
14469.5966796875

> <r_mmod_Stretch_Energy-OPLS-2005>
8087.326171875

> <r_mmod_Bend_Energy-OPLS-2005>
1354.47912597656

> <r_mmod_Torsional_Energy-OPLS-2005>
536.635131835938

> <r_mmod_Improper_Torsional_Energy-OPLS-2005>
30.8822078704834

> <r_mmod_Van_der_Waal_Energy-OPLS-2005>
1899.32983398438

> <r_mmod_Electrostatic_Energy-OPLS-2005>
-418.664672851562

> <r_mmod_Solvation_Energy-OPLS-2005>
-225.709716796875

> <b_mmod_Minimization_Converged-OPLS-2005>
0

> <r_mmod_RMS_Derivative-OPLS-2005>
1.15289235115051

$$$$
33
                    3D
 Structure written by MMmdl.
156164  0  0  1  0            999 V2000
  -30.6649  -14.7629   20.4554 C   0  0  0  0  0  0
  -30.4377  -12.4662   19.4820 C   0  0  0  0  0  0
  -29.5201  -12.5109   18.2421 C   0  0  0  0  0  0
  -28.0447  -12.3448   18.6514 C   0  0  0  0  0  0
  -27.6468  -13.2441   19.8517 C   0  0  2  0  0  0
  -28.6997  -13.2032   20.9838 C   0  0  0  0  0  0
  -25.2507  -13.8237   20.5692 C   0  0  0  0  0  0
  -24.1829  -13.0457   20.9241 C   0  0  0  0  0  0
  -24.6440  -11.6946   20.8765 C   0  0  0  0  0  0
  -23.9115  -10.4309   21.0417 C   0  0  0  0  0  0
  -24.3655   -9.4206   21.9181 C   0  0  0  0  0  0
  -23.6333   -8.2239   22.0750 C   0  0  0  0  0  0
  -22.4295   -8.0298   21.3557 C   0  0  0  0  0  0
  -21.9946   -9.0268   20.4632 C   0  0  0  0  0  0
  -22.7295  -10.2135   20.3055 C   0  0  0  0  0  0
  -21.6851   -6.0758   22.5289 C   0  0  0  0  0  0
  -21.4006   -6.5658   23.8231 C   0  0  0  0  0  0
  -21.3666   -5.6806   24.9181 C   0  0  0  0  0  0
  -21.6042   -4.3073   24.7220 C   0  0  0  0  0  0
  -21.8825   -3.8163   23.4344 C   0  0  0  0  0  0
  -21.9184   -4.6982   22.3392 C   0  0  0  0  0  0
  -22.7835  -13.5195   21.1902 C   0  0  0  0  0  0
  -22.1655   -4.2175   21.0974 F   0  0  0  0  0  0
  -21.5621   -3.4545   25.7729 F   0  0  0  0  0  0
  -30.0055  -13.5485   20.3958 N   0  0  0  0  0  0
  -26.2979  -12.9467   20.3317 N   0  0  0  0  0  0
  -25.9379  -11.6583   20.5774 N   0  0  0  0  0  0
  -22.0482  -12.8153   22.0424 N   0  0  0  0  0  0
  -25.4139  -15.1965   20.4093 N   0  0  0  0  0  0
  -31.8514  -14.8380   20.1382 O   0  0  0  0  0  0
  -21.6650   -6.8898   21.4261 O   0  0  0  0  0  0
  -22.3485  -14.5477   20.6746 O   0  0  0  0  0  0
  -24.6309  -31.8521   23.1924 C   0  0  0  0  0  0
  -25.9116  -32.4741   23.8287 C   0  0  1  0  0  0
  -27.2373  -27.2581   20.1255 C   0  0  0  0  0  0
  -25.5920  -33.8551   24.2197 N   0  0  0  0  0  0
  -23.4305  -30.4729   21.5350 C   0  0  2  0  0  0
  -24.8814  -28.9185   20.1025 C   0  0  0  0  0  0
  -22.7523  -29.4578   22.4877 C   0  0  0  0  0  0
  -18.0284  -28.1417   22.8498 C   0  0  0  0  0  0
  -24.1482  -36.7300   23.2638 C   0  0  0  0  0  0
  -25.9794  -30.7647   21.3729 C   0  0  0  0  0  0
  -26.0538  -29.3862   20.7153 C   0  0  0  0  0  0
  -27.2286  -28.5686   20.7174 C   0  0  0  0  0  0
  -26.0406  -26.8603   19.4840 C   0  0  0  0  0  0
  -24.8810  -27.6626   19.4753 C   0  0  0  0  0  0
  -23.6532  -29.8083   20.1506 C   0  0  0  0  0  0
  -25.4114  -36.3066   24.0319 C   0  0  1  0  0  0
  -20.5891  -28.3711   23.1288 C   0  0  2  0  0  0
  -20.6795  -26.9417   22.5451 C   0  0  0  0  0  0
  -19.5760  -26.6389   21.5261 C   0  0  0  0  0  0
  -18.1940  -26.7966   22.1646 C   0  0  0  0  0  0
  -19.1539  -28.8890   23.2884 C   0  0  0  0  0  0
  -18.9453  -30.1494   23.8879 C   0  0  0  0  0  0
  -17.6448  -30.6593   24.0588 C   0  0  0  0  0  0
  -25.9073  -34.9441   23.5078 C   0  0  0  0  0  0
  -16.5336  -29.9101   23.6329 C   0  0  0  0  0  0
  -16.7271  -28.6539   23.0327 C   0  0  0  0  0  0
  -26.4477  -31.6563   25.0673 C   0  0  0  0  0  0
  -25.3722  -31.3774   26.1410 C   0  0  0  0  0  0
  -27.0261  -30.2939   24.6179 C   0  0  0  0  0  0
  -27.6004  -32.4322   25.7440 C   0  0  0  0  0  0
  -27.5573  -37.1794   24.8446 C   0  0  0  0  0  0
  -21.4214  -29.3048   22.3672 N   0  0  0  0  0  0
  -26.4266  -37.3782   23.9437 N   0  0  0  0  0  0
  -24.7001  -31.0505   22.0881 N   0  0  0  0  0  0
  -23.4235  -28.8110   23.2954 O   0  0  0  0  0  0
  -28.3468  -26.3767   20.1840 O   0  0  0  0  0  0
  -26.5640  -34.8927   22.4630 O   0  0  0  0  0  0
  -23.5460  -32.1301   23.7223 O   0  0  0  0  0  0
  -30.1188  -21.2514   20.1636 C   0  0  0  0  0  0
  -29.5243  -19.9890   20.0161 C   0  0  0  0  0  0
  -28.1481  -20.3860   19.9825 C   0  0  0  0  0  0
  -26.9693  -19.4834   19.7371 C   0  0  0  0  0  0
  -31.3203  -18.6335   18.8326 C   0  0  0  0  0  0
  -29.3092  -23.8174   20.4231 C   0  0  0  0  0  0
  -30.3232  -17.3952   20.8800 C   0  0  0  0  0  0
  -28.1529  -24.8860   20.0142 C   0  0  0  0  0  0
  -30.0704  -18.5048   19.7182 C   0  0  1  0  0  0
  -27.9389  -21.7070   20.1290 N   0  0  0  0  0  0
  -29.1553  -22.3009   20.2135 N   0  0  0  0  0  0
  -29.9310  -15.9163   20.6890 N   0  0  0  0  0  0
  -31.4815  -12.5736   19.1876 H   0  0  0  0  0  0
  -30.3628  -11.4998   19.9812 H   0  0  0  0  0  0
  -29.8066  -11.7265   17.5394 H   0  0  0  0  0  0
  -29.6546  -13.4563   17.7136 H   0  0  0  0  0  0
  -27.8984  -11.2971   18.9101 H   0  0  0  0  0  0
  -27.3936  -12.5402   17.7990 H   0  0  0  0  0  0
  -27.6299  -14.2638   19.4656 H   0  0  0  0  0  0
  -28.7380  -12.2175   21.4473 H   0  0  0  0  0  0
  -28.4368  -13.9044   21.7762 H   0  0  0  0  0  0
  -25.2804   -9.5663   22.4750 H   0  0  0  0  0  0
  -24.0054   -7.4606   22.7448 H   0  0  0  0  0  0
  -21.0888   -8.8793   19.8902 H   0  0  0  0  0  0
  -22.3795  -10.9679   19.6146 H   0  0  0  0  0  0
  -21.2015   -7.6174   23.9742 H   0  0  0  0  0  0
  -21.1470   -6.0529   25.9093 H   0  0  0  0  0  0
  -22.0590   -2.7631   23.2825 H   0  0  0  0  0  0
  -22.4135  -11.9868   22.4877 H   0  0  0  0  0  0
  -21.1059  -13.1096   22.2563 H   0  0  0  0  0  0
  -24.6363  -15.8414   20.5006 H   0  0  0  0  0  0
  -26.2553  -15.6371   20.0623 H   0  0  0  0  0  0
  -26.7213  -32.5352   23.1069 H   0  0  0  0  0  0
  -25.0082  -33.9688   25.0359 H   0  0  0  0  0  0
  -22.7265  -31.2967   21.3895 H   0  0  0  0  0  0
  -23.3728  -35.9639   23.3259 H   0  0  0  0  0  0
  -24.3611  -36.8942   22.2060 H   0  0  0  0  0  0
  -23.7240  -37.6498   23.6692 H   0  0  0  0  0  0
  -26.1314  -31.5262   20.6071 H   0  0  0  0  0  0
  -26.8565  -30.8072   22.0104 H   0  0  0  0  0  0
  -28.1205  -28.9239   21.2146 H   0  0  0  0  0  0
  -25.9814  -25.9029   18.9906 H   0  0  0  0  0  0
  -23.9865  -27.2951   18.9863 H   0  0  0  0  0  0
  -23.7881  -30.5900   19.4012 H   0  0  0  0  0  0
  -22.7700  -29.2495   19.8308 H   0  0  0  0  0  0
  -25.1307  -36.1895   25.0814 H   0  0  0  0  0  0
  -20.9982  -28.3284   24.1404 H   0  0  0  0  0  0
  -20.5748  -26.2292   23.3656 H   0  0  0  0  0  0
  -21.6653  -26.7497   22.1189 H   0  0  0  0  0  0
  -19.6889  -25.6307   21.1262 H   0  0  0  0  0  0
  -19.6675  -27.3248   20.6824 H   0  0  0  0  0  0
  -17.4220  -26.6726   21.4025 H   0  0  0  0  0  0
  -18.0246  -26.0144   22.9048 H   0  0  0  0  0  0
  -19.7933  -30.7350   24.2180 H   0  0  0  0  0  0
  -17.4996  -31.6242   24.5239 H   0  0  0  0  0  0
  -15.5336  -30.2995   23.7684 H   0  0  0  0  0  0
  -15.8681  -28.0893   22.6973 H   0  0  0  0  0  0
  -24.5877  -30.7125   25.7807 H   0  0  0  0  0  0
  -24.8954  -32.2965   26.4787 H   0  0  0  0  0  0
  -25.8039  -30.9005   27.0214 H   0  0  0  0  0  0
  -26.2803  -29.6722   24.1199 H   0  0  0  0  0  0
  -27.3892  -29.7171   25.4700 H   0  0  0  0  0  0
  -27.8739  -30.4143   23.9435 H   0  0  0  0  0  0
  -27.2556  -33.3633   26.1945 H   0  0  0  0  0  0
  -28.3821  -32.6841   25.0268 H   0  0  0  0  0  0
  -28.0660  -31.8501   26.5395 H   0  0  0  0  0  0
  -28.2563  -38.0117   24.7539 H   0  0  0  0  0  0
  -28.1087  -36.2650   24.6192 H   0  0  0  0  0  0
  -27.2325  -37.1350   25.8852 H   0  0  0  0  0  0
  -20.9370  -29.8789   21.6929 H   0  0  0  0  0  0
  -26.0107  -38.2847   24.1432 H   0  0  0  0  0  0
  -31.1715  -21.5005   20.1954 H   0  0  0  0  0  0
  -27.2615  -18.5629   19.2366 H   0  0  0  0  0  0
  -26.2325  -19.9566   19.0888 H   0  0  0  0  0  0
  -26.4854  -19.1983   20.6693 H   0  0  0  0  0  0
  -31.0908  -19.1759   17.9115 H   0  0  0  0  0  0
  -31.7084  -17.6580   18.5419 H   0  0  0  0  0  0
  -32.1227  -19.1707   19.3443 H   0  0  0  0  0  0
  -29.5045  -23.9486   21.4885 H   0  0  0  0  0  0
  -30.2336  -24.1158   19.9281 H   0  0  0  0  0  0
  -29.7842  -17.7236   21.7695 H   0  0  0  0  0  0
  -31.3732  -17.4330   21.1822 H   0  0  0  0  0  0
  -27.2671  -24.6105   20.5851 H   0  0  0  0  0  0
  -27.9058  -24.7077   18.9677 H   0  0  0  0  0  0
  -29.3410  -18.0273   19.0647 H   0  0  0  0  0  0
  -28.9686  -15.7232   20.9245 H   0  0  0  0  0  0
  1 25  1  0  0  0
  1 30  2  0  0  0
  1 82  1  0  0  0
  2  3  1  0  0  0
  2 25  1  0  0  0
  2 83  1  0  0  0
  2 84  1  0  0  0
  3  4  1  0  0  0
  3 85  1  0  0  0
  3 86  1  0  0  0
  4  5  1  0  0  0
  4 87  1  0  0  0
  4 88  1  0  0  0
  5  6  1  0  0  0
  5 26  1  0  0  0
  5 89  1  0  0  0
  6 25  1  0  0  0
  6 90  1  0  0  0
  6 91  1  0  0  0
  7  8  2  0  0  0
  7 26  1  0  0  0
  7 29  1  0  0  0
  8  9  1  0  0  0
  8 22  1  0  0  0
  9 10  1  0  0  0
  9 27  2  0  0  0
 10 11  2  0  0  0
 10 15  1  0  0  0
 11 12  1  0  0  0
 11 92  1  0  0  0
 12 13  2  0  0  0
 12 93  1  0  0  0
 13 14  1  0  0  0
 13 31  1  0  0  0
 14 15  2  0  0  0
 14 94  1  0  0  0
 15 95  1  0  0  0
 16 17  2  0  0  0
 16 21  1  0  0  0
 16 31  1  0  0  0
 17 18  1  0  0  0
 17 96  1  0  0  0
 18 19  2  0  0  0
 18 97  1  0  0  0
 19 20  1  0  0  0
 19 24  1  0  0  0
 20 21  2  0  0  0
 20 98  1  0  0  0
 21 23  1  0  0  0
 22 28  1  0  0  0
 22 32  2  0  0  0
 26 27  1  0  0  0
 28 99  1  0  0  0
 28100  1  0  0  0
 29101  1  0  0  0
 29102  1  0  0  0
 33 34  1  0  0  0
 33 66  1  0  0  0
 33 70  2  0  0  0
 34 36  1  0  0  0
 34 59  1  0  0  0
 34103  1  0  0  0
 35 44  2  0  0  0
 35 45  1  0  0  0
 35 68  1  0  0  0
 36 56  1  0  0  0
 36104  1  0  0  0
 37 39  1  0  0  0
 37 47  1  0  0  0
 37 66  1  0  0  0
 37105  1  0  0  0
 38 43  2  0  0  0
 38 46  1  0  0  0
 38 47  1  0  0  0
 39 64  1  0  0  0
 39 67  2  0  0  0
 40 52  1  0  0  0
 40 53  2  0  0  0
 40 58  1  0  0  0
 41106  1  0  0  0
 41107  1  0  0  0
 41108  1  0  0  0
 41 48  1  0  0  0
 42 43  1  0  0  0
 42 66  1  0  0  0
 42109  1  0  0  0
 42110  1  0  0  0
 43 44  1  0  0  0
 44111  1  0  0  0
 45 46  2  0  0  0
 45112  1  0  0  0
 46113  1  0  0  0
 47114  1  0  0  0
 47115  1  0  0  0
 48 56  1  0  0  0
 48 65  1  0  0  0
 48116  1  0  0  0
 49 50  1  0  0  0
 49 53  1  0  0  0
 49 64  1  0  0  0
 49117  1  0  0  0
 50 51  1  0  0  0
 50118  1  0  0  0
 50119  1  0  0  0
 51 52  1  0  0  0
 51120  1  0  0  0
 51121  1  0  0  0
 52122  1  0  0  0
 52123  1  0  0  0
 53 54  1  0  0  0
 54 55  2  0  0  0
 54124  1  0  0  0
 55 57  1  0  0  0
 55125  1  0  0  0
 56 69  2  0  0  0
 57 58  2  0  0  0
 57126  1  0  0  0
 58127  1  0  0  0
 59 60  1  0  0  0
 59 61  1  0  0  0
 59 62  1  0  0  0
 60128  1  0  0  0
 60129  1  0  0  0
 60130  1  0  0  0
 61131  1  0  0  0
 61132  1  0  0  0
 61133  1  0  0  0
 62134  1  0  0  0
 62135  1  0  0  0
 62136  1  0  0  0
 63 65  1  0  0  0
 63137  1  0  0  0
 63138  1  0  0  0
 63139  1  0  0  0
 64140  1  0  0  0
 65141  1  0  0  0
 68 78  1  0  0  0
 71 72  2  0  0  0
 71 81  1  0  0  0
 71142  1  0  0  0
 72 73  1  0  0  0
 72 79  1  0  0  0
 73 74  1  0  0  0
 73 80  2  0  0  0
 74143  1  0  0  0
 74144  1  0  0  0
 74145  1  0  0  0
 75146  1  0  0  0
 75147  1  0  0  0
 75148  1  0  0  0
 75 79  1  0  0  0
 76 78  1  0  0  0
 76 81  1  0  0  0
 76149  1  0  0  0
 76150  1  0  0  0
 77 79  1  0  0  0
 77 82  1  0  0  0
 77151  1  0  0  0
 77152  1  0  0  0
 78153  1  0  0  0
 78154  1  0  0  0
 79155  1  0  0  0
 80 81  1  0  0  0
 82156  1  0  0  0
M  ISO  4   1 100  68 101  78 101  82 100
M  END
> <chiral flag>
0

> <version>
0

> <s_m_source_file>
/data/baiqing/PycharmProjects/Reinvent-master-3.2/result/LINK_invent/BTK/process_docking_weight1_custom_sum_contain_oxygen_bond_distance_aromatic_linkinvent_7_9_3/rearranged_h_0044.sdf

> <i_m_source_file_index>
34

> <r_mmod_Potential_Energy-OPLS-2005>
102.149566650391

> <r_mmod_Stretch_Energy-OPLS-2005>
133.618988037109

> <r_mmod_Bend_Energy-OPLS-2005>
183.462020874023

> <r_mmod_Torsional_Energy-OPLS-2005>
228.160003662109

> <r_mmod_Improper_Torsional_Energy-OPLS-2005>
5.83933734893799

> <r_mmod_Van_der_Waal_Energy-OPLS-2005>
110.723388671875

> <r_mmod_Electrostatic_Energy-OPLS-2005>
-424.744598388672

> <r_mmod_Solvation_Energy-OPLS-2005>
-225.249755859375

> <b_mmod_Minimization_Converged-OPLS-2005>
0

> <r_mmod_RMS_Derivative-OPLS-2005>
5.14808797836304

$$$$
34
                    3D
 Structure written by MMmdl.
154162  0  0  1  0            999 V2000
  -30.5658  -14.8797   20.4402 C   0  0  0  0  0  0
  -30.4418  -12.5467   19.4893 C   0  0  0  0  0  0
  -29.5205  -12.5236   18.2482 C   0  0  0  0  0  0
  -28.0495  -12.3255   18.6624 C   0  0  0  0  0  0
  -27.6357  -13.2445   19.8411 C   0  0  2  0  0  0
  -28.6788  -13.2382   20.9798 C   0  0  0  0  0  0
  -25.2482  -13.8220   20.5694 C   0  0  0  0  0  0
  -24.1792  -13.0451   20.9214 C   0  0  0  0  0  0
  -24.6405  -11.6935   20.8750 C   0  0  0  0  0  0
  -23.9084  -10.4308   21.0399 C   0  0  0  0  0  0
  -24.3633   -9.4225   21.9181 C   0  0  0  0  0  0
  -23.6311   -8.2256   22.0750 C   0  0  0  0  0  0
  -22.4296   -8.0283   21.3536 C   0  0  0  0  0  0
  -21.9926   -9.0263   20.4643 C   0  0  0  0  0  0
  -22.7251  -10.2145   20.3054 C   0  0  0  0  0  0
  -21.6868   -6.0745   22.5277 C   0  0  0  0  0  0
  -21.4023   -6.5647   23.8211 C   0  0  0  0  0  0
  -21.3655   -5.6794   24.9167 C   0  0  0  0  0  0
  -21.6044   -4.3056   24.7221 C   0  0  0  0  0  0
  -21.8812   -3.8150   23.4338 C   0  0  0  0  0  0
  -21.9194   -4.6971   22.3395 C   0  0  0  0  0  0
  -22.7800  -13.5227   21.1861 C   0  0  0  0  0  0
  -22.1658   -4.2158   21.0975 F   0  0  0  0  0  0
  -21.5626   -3.4533   25.7731 F   0  0  0  0  0  0
  -29.9632  -13.6310   20.3881 N   0  0  0  0  0  0
  -26.2913  -12.9451   20.3242 N   0  0  0  0  0  0
  -25.9342  -11.6586   20.5751 N   0  0  0  0  0  0
  -22.0441  -12.8221   22.0411 N   0  0  0  0  0  0
  -25.4150  -15.1946   20.4117 N   0  0  0  0  0  0
  -31.7635  -14.9604   20.1540 O   0  0  0  0  0  0
  -21.6654   -6.8886   21.4239 O   0  0  0  0  0  0
  -22.3487  -14.5519   20.6698 O   0  0  0  0  0  0
  -24.6410  -31.8483   23.1933 C   0  0  0  0  0  0
  -25.9199  -32.4719   23.8303 C   0  0  1  0  0  0
  -27.2107  -27.1610   20.1319 C   0  0  0  0  0  0
  -25.5955  -33.8522   24.2211 N   0  0  0  0  0  0
  -23.4416  -30.4723   21.5388 C   0  0  2  0  0  0
  -24.8908  -28.9126   20.1095 C   0  0  0  0  0  0
  -22.7549  -29.4578   22.4876 C   0  0  0  0  0  0
  -18.0302  -28.1395   22.8474 C   0  0  0  0  0  0
  -24.1488  -36.7259   23.2637 C   0  0  0  0  0  0
  -25.9995  -30.7285   21.3928 C   0  0  0  0  0  0
  -26.0701  -29.3442   20.7300 C   0  0  0  0  0  0
  -27.2311  -28.4835   20.7304 C   0  0  0  0  0  0
  -26.0047  -26.8427   19.4609 C   0  0  0  0  0  0
  -24.8704  -27.6734   19.4611 C   0  0  0  0  0  0
  -23.6654  -29.8082   20.1570 C   0  0  0  0  0  0
  -25.4118  -36.3039   24.0317 C   0  0  1  0  0  0
  -20.5913  -28.3712   23.1234 C   0  0  2  0  0  0
  -20.6783  -26.9419   22.5398 C   0  0  0  0  0  0
  -19.5759  -26.6379   21.5202 C   0  0  0  0  0  0
  -18.1941  -26.7930   22.1620 C   0  0  0  0  0  0
  -19.1557  -28.8871   23.2843 C   0  0  0  0  0  0
  -18.9477  -30.1469   23.8865 C   0  0  0  0  0  0
  -17.6477  -30.6588   24.0555 C   0  0  0  0  0  0
  -25.9070  -34.9418   23.5067 C   0  0  0  0  0  0
  -16.5367  -29.9081   23.6344 C   0  0  0  0  0  0
  -16.7289  -28.6503   23.0356 C   0  0  0  0  0  0
  -26.4518  -31.6579   25.0737 C   0  0  0  0  0  0
  -25.3695  -31.3771   26.1425 C   0  0  0  0  0  0
  -27.0386  -30.2972   24.6325 C   0  0  0  0  0  0
  -27.6054  -32.4334   25.7514 C   0  0  0  0  0  0
  -27.5575  -37.1777   24.8458 C   0  0  0  0  0  0
  -21.4247  -29.3042   22.3610 N   0  0  0  0  0  0
  -26.4281  -37.3754   23.9410 N   0  0  0  0  0  0
  -24.7134  -31.0366   22.0959 N   0  0  0  0  0  0
  -23.4213  -28.8111   23.3002 O   0  0  0  0  0  0
  -28.2440  -26.1562   20.2087 O   0  0  0  0  0  0
  -26.5660  -34.8904   22.4642 O   0  0  0  0  0  0
  -23.5542  -32.1349   23.7171 O   0  0  0  0  0  0
  -29.0696  -20.3748   20.4152 C   0  0  0  0  0  0
  -29.1750  -21.1216   19.2013 C   0  0  0  0  0  0
  -28.7957  -21.2818   21.4927 C   0  0  0  0  0  0
  -28.6513  -23.2669   20.1593 C   0  0  0  0  0  0
  -29.4322  -20.3994   17.8933 C   0  0  0  0  0  0
  -28.6143  -20.7581   22.9017 C   0  0  0  0  0  0
  -28.9493  -18.7330   20.5130 C   0  0  0  0  0  0
  -27.8585  -24.6880   19.9020 C   0  0  0  0  0  0
  -30.1350  -17.5713   20.5237 C   0  0  0  0  0  0
  -28.9742  -22.4888   19.0982 N   0  0  0  0  0  0
  -28.5866  -22.6452   21.3563 N   0  0  0  0  0  0
  -29.7856  -16.0447   20.6078 N   0  0  0  0  0  0
  -31.4771  -12.6972   19.1797 H   0  0  0  0  0  0
  -30.4231  -11.5868   20.0061 H   0  0  0  0  0  0
  -29.8298  -11.7337   17.5622 H   0  0  0  0  0  0
  -29.6205  -13.4619   17.7002 H   0  0  0  0  0  0
  -27.9259  -11.2807   18.9483 H   0  0  0  0  0  0
  -27.3917  -12.4845   17.8078 H   0  0  0  0  0  0
  -27.6135  -14.2547   19.4306 H   0  0  0  0  0  0
  -28.7465  -12.2549   21.4470 H   0  0  0  0  0  0
  -28.3922  -13.9335   21.7699 H   0  0  0  0  0  0
  -25.2775   -9.5717   22.4755 H   0  0  0  0  0  0
  -24.0017   -7.4659   22.7488 H   0  0  0  0  0  0
  -21.0845   -8.8791   19.8967 H   0  0  0  0  0  0
  -22.3700  -10.9684   19.6164 H   0  0  0  0  0  0
  -21.2029   -7.6162   23.9714 H   0  0  0  0  0  0
  -21.1477   -6.0528   25.9070 H   0  0  0  0  0  0
  -22.0599   -2.7620   23.2834 H   0  0  0  0  0  0
  -22.4066  -11.9910   22.4844 H   0  0  0  0  0  0
  -21.1053  -13.1253   22.2600 H   0  0  0  0  0  0
  -24.6453  -15.8454   20.5274 H   0  0  0  0  0  0
  -26.2533  -15.6347   20.0553 H   0  0  0  0  0  0
  -26.7259  -32.5337   23.1029 H   0  0  0  0  0  0
  -25.0055  -33.9632   25.0327 H   0  0  0  0  0  0
  -22.7417  -31.2970   21.3897 H   0  0  0  0  0  0
  -23.3767  -35.9573   23.3279 H   0  0  0  0  0  0
  -24.3575  -36.8915   22.2054 H   0  0  0  0  0  0
  -23.7227  -37.6440   23.6690 H   0  0  0  0  0  0
  -26.1571  -31.4873   20.6250 H   0  0  0  0  0  0
  -26.8692  -30.7738   22.0370 H   0  0  0  0  0  0
  -28.1235  -28.8057   21.2479 H   0  0  0  0  0  0
  -25.8780  -25.9083   18.9389 H   0  0  0  0  0  0
  -23.9722  -27.3390   18.9599 H   0  0  0  0  0  0
  -23.7929  -30.5836   19.4014 H   0  0  0  0  0  0
  -22.7832  -29.2433   19.8498 H   0  0  0  0  0  0
  -25.1305  -36.1863   25.0811 H   0  0  0  0  0  0
  -21.0007  -28.3308   24.1353 H   0  0  0  0  0  0
  -20.5661  -26.2329   23.3617 H   0  0  0  0  0  0
  -21.6648  -26.7414   22.1199 H   0  0  0  0  0  0
  -19.6911  -25.6278   21.1251 H   0  0  0  0  0  0
  -19.6695  -27.3169   20.6715 H   0  0  0  0  0  0
  -17.4200  -26.6661   21.4035 H   0  0  0  0  0  0
  -18.0357  -26.0079   22.9029 H   0  0  0  0  0  0
  -19.7955  -30.7292   24.2217 H   0  0  0  0  0  0
  -17.5031  -31.6266   24.5161 H   0  0  0  0  0  0
  -15.5361  -30.2967   23.7691 H   0  0  0  0  0  0
  -15.8692  -28.0813   22.7086 H   0  0  0  0  0  0
  -24.5861  -30.7146   25.7728 H   0  0  0  0  0  0
  -24.8902  -32.2959   26.4810 H   0  0  0  0  0  0
  -25.7957  -30.8950   27.0229 H   0  0  0  0  0  0
  -26.3013  -29.6690   24.1319 H   0  0  0  0  0  0
  -27.3974  -29.7278   25.4909 H   0  0  0  0  0  0
  -27.8931  -30.4203   23.9669 H   0  0  0  0  0  0
  -27.2656  -33.3643   26.2061 H   0  0  0  0  0  0
  -28.3879  -32.6880   25.0355 H   0  0  0  0  0  0
  -28.0711  -31.8485   26.5453 H   0  0  0  0  0  0
  -28.2572  -38.0096   24.7538 H   0  0  0  0  0  0
  -28.1092  -36.2628   24.6245 H   0  0  0  0  0  0
  -27.2298  -37.1376   25.8861 H   0  0  0  0  0  0
  -20.9450  -29.8769   21.6809 H   0  0  0  0  0  0
  -26.0153  -38.2818   24.1438 H   0  0  0  0  0  0
  -28.6433  -19.6756   17.6897 H   0  0  0  0  0  0
  -30.3794  -19.8626   17.9431 H   0  0  0  0  0  0
  -29.4746  -21.0867   17.0487 H   0  0  0  0  0  0
  -29.3979  -20.0414   23.1470 H   0  0  0  0  0  0
  -27.6481  -20.2621   22.9948 H   0  0  0  0  0  0
  -28.6578  -21.5636   23.6357 H   0  0  0  0  0  0
  -28.2793  -18.4633   19.6953 H   0  0  0  0  0  0
  -28.3441  -18.5384   21.3994 H   0  0  0  0  0  0
  -26.9003  -24.5226   20.3949 H   0  0  0  0  0  0
  -27.6462  -24.6742   18.8323 H   0  0  0  0  0  0
  -30.7973  -17.7805   21.3651 H   0  0  0  0  0  0
  -30.7520  -17.7083   19.6357 H   0  0  0  0  0  0
  -28.8130  -15.8498   20.7887 H   0  0  0  0  0  0
  1 25  1  0  0  0
  1 30  2  0  0  0
  1 82  1  0  0  0
  2  3  1  0  0  0
  2 25  1  0  0  0
  2 83  1  0  0  0
  2 84  1  0  0  0
  3  4  1  0  0  0
  3 85  1  0  0  0
  3 86  1  0  0  0
  4  5  1  0  0  0
  4 87  1  0  0  0
  4 88  1  0  0  0
  5  6  1  0  0  0
  5 26  1  0  0  0
  5 89  1  0  0  0
  6 25  1  0  0  0
  6 90  1  0  0  0
  6 91  1  0  0  0
  7  8  2  0  0  0
  7 26  1  0  0  0
  7 29  1  0  0  0
  8  9  1  0  0  0
  8 22  1  0  0  0
  9 10  1  0  0  0
  9 27  2  0  0  0
 10 11  2  0  0  0
 10 15  1  0  0  0
 11 12  1  0  0  0
 11 92  1  0  0  0
 12 13  2  0  0  0
 12 93  1  0  0  0
 13 14  1  0  0  0
 13 31  1  0  0  0
 14 15  2  0  0  0
 14 94  1  0  0  0
 15 95  1  0  0  0
 16 17  2  0  0  0
 16 21  1  0  0  0
 16 31  1  0  0  0
 17 18  1  0  0  0
 17 96  1  0  0  0
 18 19  2  0  0  0
 18 97  1  0  0  0
 19 20  1  0  0  0
 19 24  1  0  0  0
 20 21  2  0  0  0
 20 98  1  0  0  0
 21 23  1  0  0  0
 22 28  1  0  0  0
 22 32  2  0  0  0
 26 27  1  0  0  0
 28 99  1  0  0  0
 28100  1  0  0  0
 29101  1  0  0  0
 29102  1  0  0  0
 33 34  1  0  0  0
 33 66  1  0  0  0
 33 70  2  0  0  0
 34 36  1  0  0  0
 34 59  1  0  0  0
 34103  1  0  0  0
 35 44  2  0  0  0
 35 45  1  0  0  0
 35 68  1  0  0  0
 36 56  1  0  0  0
 36104  1  0  0  0
 37 39  1  0  0  0
 37 47  1  0  0  0
 37 66  1  0  0  0
 37105  1  0  0  0
 38 43  2  0  0  0
 38 46  1  0  0  0
 38 47  1  0  0  0
 39 64  1  0  0  0
 39 67  2  0  0  0
 40 52  1  0  0  0
 40 53  2  0  0  0
 40 58  1  0  0  0
 41106  1  0  0  0
 41107  1  0  0  0
 41108  1  0  0  0
 41 48  1  0  0  0
 42 43  1  0  0  0
 42 66  1  0  0  0
 42109  1  0  0  0
 42110  1  0  0  0
 43 44  1  0  0  0
 44111  1  0  0  0
 45 46  2  0  0  0
 45112  1  0  0  0
 46113  1  0  0  0
 47114  1  0  0  0
 47115  1  0  0  0
 48 56  1  0  0  0
 48 65  1  0  0  0
 48116  1  0  0  0
 49 50  1  0  0  0
 49 53  1  0  0  0
 49 64  1  0  0  0
 49117  1  0  0  0
 50 51  1  0  0  0
 50118  1  0  0  0
 50119  1  0  0  0
 51 52  1  0  0  0
 51120  1  0  0  0
 51121  1  0  0  0
 52122  1  0  0  0
 52123  1  0  0  0
 53 54  1  0  0  0
 54 55  2  0  0  0
 54124  1  0  0  0
 55 57  1  0  0  0
 55125  1  0  0  0
 56 69  2  0  0  0
 57 58  2  0  0  0
 57126  1  0  0  0
 58127  1  0  0  0
 59 60  1  0  0  0
 59 61  1  0  0  0
 59 62  1  0  0  0
 60128  1  0  0  0
 60129  1  0  0  0
 60130  1  0  0  0
 61131  1  0  0  0
 61132  1  0  0  0
 61133  1  0  0  0
 62134  1  0  0  0
 62135  1  0  0  0
 62136  1  0  0  0
 63 65  1  0  0  0
 63137  1  0  0  0
 63138  1  0  0  0
 63139  1  0  0  0
 64140  1  0  0  0
 65141  1  0  0  0
 68 78  1  0  0  0
 71 72  2  0  0  0
 71 73  1  0  0  0
 71 77  1  0  0  0
 72 75  1  0  0  0
 72 80  1  0  0  0
 73 76  1  0  0  0
 73 81  2  0  0  0
 74 78  1  0  0  0
 74 80  2  0  0  0
 74 81  1  0  0  0
 75142  1  0  0  0
 75143  1  0  0  0
 75144  1  0  0  0
 76145  1  0  0  0
 76146  1  0  0  0
 76147  1  0  0  0
 77 79  1  0  0  0
 77148  1  0  0  0
 77149  1  0  0  0
 78150  1  0  0  0
 78151  1  0  0  0
 79 82  1  0  0  0
 79152  1  0  0  0
 79153  1  0  0  0
 82154  1  0  0  0
M  ISO  4   1 100  68 101  78 101  82 100
M  END
> <chiral flag>
0

> <version>
0

> <s_m_source_file>
/data/baiqing/PycharmProjects/Reinvent-master-3.2/result/LINK_invent/BTK/process_docking_weight1_custom_sum_contain_oxygen_bond_distance_aromatic_linkinvent_7_9_3/rearranged_h_0044.sdf

> <i_m_source_file_index>
35

> <r_mmod_Potential_Energy-OPLS-2005>
-6.46759080886841

> <r_mmod_Stretch_Energy-OPLS-2005>
202.944274902344

> <r_mmod_Bend_Energy-OPLS-2005>
247.03450012207

> <r_mmod_Torsional_Energy-OPLS-2005>
216.745208740234

> <r_mmod_Improper_Torsional_Energy-OPLS-2005>
11.6205978393555

> <r_mmod_Van_der_Waal_Energy-OPLS-2005>
145.643753051758

> <r_mmod_Electrostatic_Energy-OPLS-2005>
-748.888427734375

> <r_mmod_Solvation_Energy-OPLS-2005>
-244.125503540039

> <b_mmod_Minimization_Converged-OPLS-2005>
0

> <r_mmod_RMS_Derivative-OPLS-2005>
1.8599636554718

$$$$
35
                    3D
 Structure written by MMmdl.
163171  0  0  1  0            999 V2000
  -30.5642  -14.7595   20.4664 C   0  0  0  0  0  0
  -30.4464  -12.4682   19.4506 C   0  0  0  0  0  0
  -29.5075  -12.5049   18.2228 C   0  0  0  0  0  0
  -28.0358  -12.3181   18.6456 C   0  0  0  0  0  0
  -27.6411  -13.2186   19.8454 C   0  0  2  0  0  0
  -28.6901  -13.1364   20.9739 C   0  0  0  0  0  0
  -25.2528  -13.8152   20.5686 C   0  0  0  0  0  0
  -24.1808  -13.0417   20.9212 C   0  0  0  0  0  0
  -24.6379  -11.6891   20.8744 C   0  0  0  0  0  0
  -23.9048  -10.4276   21.0402 C   0  0  0  0  0  0
  -24.3604   -9.4198   21.9181 C   0  0  0  0  0  0
  -23.6288   -8.2231   22.0752 C   0  0  0  0  0  0
  -22.4269   -8.0264   21.3536 C   0  0  0  0  0  0
  -21.9897   -9.0236   20.4641 C   0  0  0  0  0  0
  -22.7221  -10.2118   20.3052 C   0  0  0  0  0  0
  -21.6857   -6.0721   22.5275 C   0  0  0  0  0  0
  -21.4013   -6.5631   23.8205 C   0  0  0  0  0  0
  -21.3660   -5.6788   24.9171 C   0  0  0  0  0  0
  -21.6042   -4.3050   24.7223 C   0  0  0  0  0  0
  -21.8823   -3.8137   23.4347 C   0  0  0  0  0  0
  -21.9193   -4.6949   22.3399 C   0  0  0  0  0  0
  -22.7833  -13.5210   21.1878 C   0  0  0  0  0  0
  -22.1664   -4.2134   21.0980 F   0  0  0  0  0  0
  -21.5629   -3.4536   25.7736 F   0  0  0  0  0  0
  -29.9836  -13.5140   20.3866 N   0  0  0  0  0  0
  -26.2937  -12.9338   20.3256 N   0  0  0  0  0  0
  -25.9301  -11.6497   20.5737 N   0  0  0  0  0  0
  -22.0490  -12.8188   22.0435 N   0  0  0  0  0  0
  -25.4221  -15.1880   20.4089 N   0  0  0  0  0  0
  -31.7653  -14.9082   20.2239 O   0  0  0  0  0  0
  -21.6638   -6.8856   21.4231 O   0  0  0  0  0  0
  -22.3513  -14.5526   20.6739 O   0  0  0  0  0  0
  -24.6293  -31.8554   23.1973 C   0  0  0  0  0  0
  -25.9117  -32.4769   23.8322 C   0  0  1  0  0  0
  -27.2234  -27.2631   20.1409 C   0  0  0  0  0  0
  -25.5929  -33.8572   24.2260 N   0  0  0  0  0  0
  -23.4272  -30.4763   21.5411 C   0  0  2  0  0  0
  -24.8771  -28.9185   20.1158 C   0  0  0  0  0  0
  -22.7509  -29.4597   22.4928 C   0  0  0  0  0  0
  -18.0297  -28.1367   22.8485 C   0  0  0  0  0  0
  -24.1499  -36.7268   23.2642 C   0  0  0  0  0  0
  -25.9726  -30.7692   21.3764 C   0  0  0  0  0  0
  -26.0484  -29.3905   20.7220 C   0  0  0  0  0  0
  -27.2281  -28.5768   20.7201 C   0  0  0  0  0  0
  -26.0318  -26.8541   19.5082 C   0  0  0  0  0  0
  -24.8737  -27.6568   19.4987 C   0  0  0  0  0  0
  -23.6455  -29.8043   20.1599 C   0  0  0  0  0  0
  -25.4120  -36.3079   24.0341 C   0  0  1  0  0  0
  -20.5899  -28.3667   23.1278 C   0  0  2  0  0  0
  -20.6787  -26.9384   22.5414 C   0  0  0  0  0  0
  -19.5768  -26.6357   21.5215 C   0  0  0  0  0  0
  -18.1943  -26.7913   22.1609 C   0  0  0  0  0  0
  -19.1548  -28.8830   23.2876 C   0  0  0  0  0  0
  -18.9478  -30.1446   23.8880 C   0  0  0  0  0  0
  -17.6477  -30.6574   24.0552 C   0  0  0  0  0  0
  -25.9056  -34.9452   23.5094 C   0  0  0  0  0  0
  -16.5363  -29.9073   23.6335 C   0  0  0  0  0  0
  -16.7282  -28.6483   23.0353 C   0  0  0  0  0  0
  -26.4481  -31.6596   25.0706 C   0  0  0  0  0  0
  -25.3700  -31.3750   26.1431 C   0  0  0  0  0  0
  -27.0327  -30.3021   24.6164 C   0  0  0  0  0  0
  -27.6059  -32.4316   25.7457 C   0  0  0  0  0  0
  -27.5600  -37.1768   24.8457 C   0  0  0  0  0  0
  -21.4207  -29.3030   22.3675 N   0  0  0  0  0  0
  -26.4285  -37.3794   23.9446 N   0  0  0  0  0  0
  -24.6958  -31.0521   22.0948 N   0  0  0  0  0  0
  -23.4219  -28.8144   23.3019 O   0  0  0  0  0  0
  -28.3103  -26.3612   20.1511 O   0  0  0  0  0  0
  -26.5635  -34.8926   22.4674 O   0  0  0  0  0  0
  -23.5436  -32.1372   23.7269 O   0  0  0  0  0  0
  -28.0923  -20.5567   23.3878 C   0  0  0  0  0  0
  -27.7849  -21.9260   23.5061 C   0  0  0  0  0  0
  -28.8773  -20.8832   21.2128 C   0  0  0  0  0  0
  -28.5822  -22.3364   21.3337 C   0  0  0  0  0  0
  -27.8069  -19.5561   24.4900 C   0  0  0  0  0  0
  -28.0708  -23.0674   25.7639 C   0  0  0  0  0  0
  -27.0902  -22.5112   24.7262 C   0  0  0  0  0  0
  -29.2234  -19.9861   19.9674 C   0  0  0  0  0  0
  -28.7308  -23.5719   20.3267 C   0  0  0  0  0  0
  -30.0108  -18.5373   20.0187 C   0  0  0  0  0  0
  -29.7727  -17.3057   21.0429 C   0  0  0  0  0  0
  -28.1079  -25.0193   20.8026 C   0  0  0  0  0  0
  -28.6278  -20.0576   22.2588 N   0  0  0  0  0  0
  -28.0659  -22.7882   22.5083 N   0  0  0  0  0  0
  -29.6938  -15.8308   20.6186 N   0  0  0  0  0  0
  -31.4808  -12.6300   19.1414 H   0  0  0  0  0  0
  -30.4212  -11.4883   19.9301 H   0  0  0  0  0  0
  -29.7914  -11.7310   17.5087 H   0  0  0  0  0  0
  -29.6199  -13.4578   17.7025 H   0  0  0  0  0  0
  -27.9036  -11.2695   18.9162 H   0  0  0  0  0  0
  -27.3708  -12.4988   17.8002 H   0  0  0  0  0  0
  -27.6352  -14.2389   19.4640 H   0  0  0  0  0  0
  -28.7371  -12.1280   21.3891 H   0  0  0  0  0  0
  -28.4230  -13.7925   21.8038 H   0  0  0  0  0  0
  -25.2749   -9.5676   22.4759 H   0  0  0  0  0  0
  -23.9993   -7.4617   22.7470 H   0  0  0  0  0  0
  -21.0828   -8.8743   19.8946 H   0  0  0  0  0  0
  -22.3672  -10.9653   19.6158 H   0  0  0  0  0  0
  -21.2009   -7.6144   23.9704 H   0  0  0  0  0  0
  -21.1479   -6.0522   25.9073 H   0  0  0  0  0  0
  -22.0602   -2.7596   23.2853 H   0  0  0  0  0  0
  -22.4118  -11.9833   22.4784 H   0  0  0  0  0  0
  -21.1112  -13.1196   22.2675 H   0  0  0  0  0  0
  -24.6492  -15.8364   20.5140 H   0  0  0  0  0  0
  -26.2594  -15.6302   20.0536 H   0  0  0  0  0  0
  -26.7175  -32.5409   23.1055 H   0  0  0  0  0  0
  -25.0123  -33.9728   25.0430 H   0  0  0  0  0  0
  -22.7222  -31.2964   21.3917 H   0  0  0  0  0  0
  -23.3805  -35.9552   23.3255 H   0  0  0  0  0  0
  -24.3602  -36.8921   22.2066 H   0  0  0  0  0  0
  -23.7182  -37.6426   23.6681 H   0  0  0  0  0  0
  -26.1114  -31.5288   20.6063 H   0  0  0  0  0  0
  -26.8519  -30.8198   22.0086 H   0  0  0  0  0  0
  -28.1263  -28.9332   21.2036 H   0  0  0  0  0  0
  -25.9883  -25.8828   19.0355 H   0  0  0  0  0  0
  -23.9750  -27.2879   19.0228 H   0  0  0  0  0  0
  -23.7659  -30.5789   19.4017 H   0  0  0  0  0  0
  -22.7637  -29.2356   19.8572 H   0  0  0  0  0  0
  -25.1288  -36.1920   25.0827 H   0  0  0  0  0  0
  -20.9980  -28.3222   24.1402 H   0  0  0  0  0  0
  -20.5687  -26.2264   23.3610 H   0  0  0  0  0  0
  -21.6652  -26.7407   22.1196 H   0  0  0  0  0  0
  -19.6941  -25.6273   21.1232 H   0  0  0  0  0  0
  -19.6718  -27.3184   20.6763 H   0  0  0  0  0  0
  -17.4223  -26.6680   21.4009 H   0  0  0  0  0  0
  -18.0315  -26.0045   22.8982 H   0  0  0  0  0  0
  -19.7959  -30.7266   24.2219 H   0  0  0  0  0  0
  -17.5036  -31.6261   24.5152 H   0  0  0  0  0  0
  -15.5364  -30.2970   23.7678 H   0  0  0  0  0  0
  -15.8676  -28.0809   22.7069 H   0  0  0  0  0  0
  -24.5894  -30.7070   25.7771 H   0  0  0  0  0  0
  -24.8866  -32.2923   26.4806 H   0  0  0  0  0  0
  -25.8006  -30.8975   27.0242 H   0  0  0  0  0  0
  -26.2905  -29.6772   24.1186 H   0  0  0  0  0  0
  -27.4048  -29.7265   25.4649 H   0  0  0  0  0  0
  -27.8759  -30.4336   23.9381 H   0  0  0  0  0  0
  -27.2711  -33.3646   26.2002 H   0  0  0  0  0  0
  -28.3876  -32.6815   25.0271 H   0  0  0  0  0  0
  -28.0718  -31.8447   26.5386 H   0  0  0  0  0  0
  -28.2548  -38.0136   24.7609 H   0  0  0  0  0  0
  -28.1152  -36.2670   24.6124 H   0  0  0  0  0  0
  -27.2333  -37.1208   25.8856 H   0  0  0  0  0  0
  -20.9384  -29.8750   21.6887 H   0  0  0  0  0  0
  -26.0158  -38.2847   24.1521 H   0  0  0  0  0  0
  -26.7361  -19.3622   24.5503 H   0  0  0  0  0  0
  -28.1436  -19.9369   25.4548 H   0  0  0  0  0  0
  -28.3134  -18.6078   24.3091 H   0  0  0  0  0  0
  -27.5349  -23.4430   26.6364 H   0  0  0  0  0  0
  -28.6579  -23.8877   25.3503 H   0  0  0  0  0  0
  -28.7602  -22.2957   26.1066 H   0  0  0  0  0  0
  -26.4476  -21.7585   25.1816 H   0  0  0  0  0  0
  -26.4186  -23.3064   24.3977 H   0  0  0  0  0  0
  -29.7636  -20.6290   19.2723 H   0  0  0  0  0  0
  -28.2620  -19.8044   19.4856 H   0  0  0  0  0  0
  -28.2752  -23.2856   19.3796 H   0  0  0  0  0  0
  -29.7946  -23.6973   20.1260 H   0  0  0  0  0  0
  -31.0671  -18.7868   20.1202 H   0  0  0  0  0  0
  -29.9387  -18.1260   19.0108 H   0  0  0  0  0  0
  -28.8183  -17.4915   21.5374 H   0  0  0  0  0  0
  -30.5084  -17.3782   21.8446 H   0  0  0  0  0  0
  -28.5058  -25.2082   21.8005 H   0  0  0  0  0  0
  -27.0409  -24.8657   20.9627 H   0  0  0  0  0  0
  -28.7424  -15.4958   20.6336 H   0  0  0  0  0  0
  1 25  1  0  0  0
  1 30  2  0  0  0
  1 85  1  0  0  0
  2  3  1  0  0  0
  2 25  1  0  0  0
  2 86  1  0  0  0
  2 87  1  0  0  0
  3  4  1  0  0  0
  3 88  1  0  0  0
  3 89  1  0  0  0
  4  5  1  0  0  0
  4 90  1  0  0  0
  4 91  1  0  0  0
  5  6  1  0  0  0
  5 26  1  0  0  0
  5 92  1  0  0  0
  6 25  1  0  0  0
  6 93  1  0  0  0
  6 94  1  0  0  0
  7  8  2  0  0  0
  7 26  1  0  0  0
  7 29  1  0  0  0
  8  9  1  0  0  0
  8 22  1  0  0  0
  9 10  1  0  0  0
  9 27  2  0  0  0
 10 11  2  0  0  0
 10 15  1  0  0  0
 11 12  1  0  0  0
 11 95  1  0  0  0
 12 13  2  0  0  0
 12 96  1  0  0  0
 13 14  1  0  0  0
 13 31  1  0  0  0
 14 15  2  0  0  0
 14 97  1  0  0  0
 15 98  1  0  0  0
 16 17  2  0  0  0
 16 21  1  0  0  0
 16 31  1  0  0  0
 17 18  1  0  0  0
 17 99  1  0  0  0
 18 19  2  0  0  0
 18100  1  0  0  0
 19 20  1  0  0  0
 19 24  1  0  0  0
 20 21  2  0  0  0
 20101  1  0  0  0
 21 23  1  0  0  0
 22 28  1  0  0  0
 22 32  2  0  0  0
 26 27  1  0  0  0
 28102  1  0  0  0
 28103  1  0  0  0
 29104  1  0  0  0
 29105  1  0  0  0
 33 34  1  0  0  0
 33 66  1  0  0  0
 33 70  2  0  0  0
 34 36  1  0  0  0
 34 59  1  0  0  0
 34106  1  0  0  0
 35 44  2  0  0  0
 35 45  1  0  0  0
 35 68  1  0  0  0
 36 56  1  0  0  0
 36107  1  0  0  0
 37 39  1  0  0  0
 37 47  1  0  0  0
 37 66  1  0  0  0
 37108  1  0  0  0
 38 43  2  0  0  0
 38 46  1  0  0  0
 38 47  1  0  0  0
 39 64  1  0  0  0
 39 67  2  0  0  0
 40 52  1  0  0  0
 40 53  2  0  0  0
 40 58  1  0  0  0
 41109  1  0  0  0
 41110  1  0  0  0
 41111  1  0  0  0
 41 48  1  0  0  0
 42 43  1  0  0  0
 42 66  1  0  0  0
 42112  1  0  0  0
 42113  1  0  0  0
 43 44  1  0  0  0
 44114  1  0  0  0
 45 46  2  0  0  0
 45115  1  0  0  0
 46116  1  0  0  0
 47117  1  0  0  0
 47118  1  0  0  0
 48 56  1  0  0  0
 48 65  1  0  0  0
 48119  1  0  0  0
 49 50  1  0  0  0
 49 53  1  0  0  0
 49 64  1  0  0  0
 49120  1  0  0  0
 50 51  1  0  0  0
 50121  1  0  0  0
 50122  1  0  0  0
 51 52  1  0  0  0
 51123  1  0  0  0
 51124  1  0  0  0
 52125  1  0  0  0
 52126  1  0  0  0
 53 54  1  0  0  0
 54 55  2  0  0  0
 54127  1  0  0  0
 55 57  1  0  0  0
 55128  1  0  0  0
 56 69  2  0  0  0
 57 58  2  0  0  0
 57129  1  0  0  0
 58130  1  0  0  0
 59 60  1  0  0  0
 59 61  1  0  0  0
 59 62  1  0  0  0
 60131  1  0  0  0
 60132  1  0  0  0
 60133  1  0  0  0
 61134  1  0  0  0
 61135  1  0  0  0
 61136  1  0  0  0
 62137  1  0  0  0
 62138  1  0  0  0
 62139  1  0  0  0
 63 65  1  0  0  0
 63140  1  0  0  0
 63141  1  0  0  0
 63142  1  0  0  0
 64143  1  0  0  0
 65144  1  0  0  0
 68 82  1  0  0  0
 71 72  2  0  0  0
 71 75  1  0  0  0
 71 83  1  0  0  0
 72 77  1  0  0  0
 72 84  1  0  0  0
 73 74  1  0  0  0
 73 78  1  0  0  0
 73 83  2  0  0  0
 74 79  1  0  0  0
 74 84  2  0  0  0
 75145  1  0  0  0
 75146  1  0  0  0
 75147  1  0  0  0
 76 77  1  0  0  0
 76148  1  0  0  0
 76149  1  0  0  0
 76150  1  0  0  0
 77151  1  0  0  0
 77152  1  0  0  0
 78 80  1  0  0  0
 78153  1  0  0  0
 78154  1  0  0  0
 79 82  1  0  0  0
 79155  1  0  0  0
 79156  1  0  0  0
 80 81  1  0  0  0
 80157  1  0  0  0
 80158  1  0  0  0
 81 85  1  0  0  0
 81159  1  0  0  0
 81160  1  0  0  0
 82161  1  0  0  0
 82162  1  0  0  0
 85163  1  0  0  0
M  ISO  4   1 100  68 101  82 101  85 100
M  END
> <chiral flag>
0

> <version>
0

> <s_m_source_file>
/data/baiqing/PycharmProjects/Reinvent-master-3.2/result/LINK_invent/BTK/process_docking_weight1_custom_sum_contain_oxygen_bond_distance_aromatic_linkinvent_7_9_3/rearranged_h_0044.sdf

> <i_m_source_file_index>
36

> <r_mmod_Potential_Energy-OPLS-2005>
296.034423828125

> <r_mmod_Stretch_Energy-OPLS-2005>
145.192184448242

> <r_mmod_Bend_Energy-OPLS-2005>
249.725036621094

> <r_mmod_Torsional_Energy-OPLS-2005>
246.323440551758

> <r_mmod_Improper_Torsional_Energy-OPLS-2005>
6.14653301239014

> <r_mmod_Van_der_Waal_Energy-OPLS-2005>
138.896408081055

> <r_mmod_Electrostatic_Energy-OPLS-2005>
-361.548156738281

> <r_mmod_Solvation_Energy-OPLS-2005>
-220.042663574219

> <b_mmod_Minimization_Converged-OPLS-2005>
0

> <r_mmod_RMS_Derivative-OPLS-2005>
1.98260939121246

$$$$
36
                    3D
 Structure written by MMmdl.
160168  0  0  1  0            999 V2000
  -30.6684  -14.5393   20.5242 C   0  0  0  0  0  0
  -30.4293  -12.3330   19.4383 C   0  0  0  0  0  0
  -29.5010  -12.5008   18.2164 C   0  0  0  0  0  0
  -28.0224  -12.3510   18.6284 C   0  0  0  0  0  0
  -27.6586  -13.2061   19.8725 C   0  0  2  0  0  0
  -28.7046  -13.0244   20.9978 C   0  0  0  0  0  0
  -25.2574  -13.8157   20.5694 C   0  0  0  0  0  0
  -24.1828  -13.0430   20.9197 C   0  0  0  0  0  0
  -24.6387  -11.6897   20.8757 C   0  0  0  0  0  0
  -23.9067  -10.4278   21.0424 C   0  0  0  0  0  0
  -24.3622   -9.4191   21.9197 C   0  0  0  0  0  0
  -23.6299   -8.2226   22.0769 C   0  0  0  0  0  0
  -22.4277   -8.0275   21.3562 C   0  0  0  0  0  0
  -21.9905   -9.0247   20.4669 C   0  0  0  0  0  0
  -22.7243  -10.2121   20.3074 C   0  0  0  0  0  0
  -21.6839   -6.0748   22.5293 C   0  0  0  0  0  0
  -21.4003   -6.5651   23.8226 C   0  0  0  0  0  0
  -21.3661   -5.6804   24.9188 C   0  0  0  0  0  0
  -21.6043   -4.3066   24.7231 C   0  0  0  0  0  0
  -21.8810   -3.8161   23.4348 C   0  0  0  0  0  0
  -21.9185   -4.6981   22.3410 C   0  0  0  0  0  0
  -22.7851  -13.5229   21.1853 C   0  0  0  0  0  0
  -22.1660   -4.2170   21.0989 F   0  0  0  0  0  0
  -21.5632   -3.4552   25.7740 F   0  0  0  0  0  0
  -30.0284  -13.3381   20.4370 N   0  0  0  0  0  0
  -26.3015  -12.9325   20.3374 N   0  0  0  0  0  0
  -25.9315  -11.6487   20.5800 N   0  0  0  0  0  0
  -22.0457  -12.8215   22.0380 N   0  0  0  0  0  0
  -25.4263  -15.1886   20.4091 N   0  0  0  0  0  0
  -31.8164  -14.7118   20.1079 O   0  0  0  0  0  0
  -21.6630   -6.8889   21.4255 O   0  0  0  0  0  0
  -22.3551  -14.5542   20.6703 O   0  0  0  0  0  0
  -24.6204  -31.8649   23.2070 C   0  0  0  0  0  0
  -25.9082  -32.4806   23.8385 C   0  0  1  0  0  0
  -27.2289  -27.3791   20.0982 C   0  0  0  0  0  0
  -25.5920  -33.8601   24.2325 N   0  0  0  0  0  0
  -23.4103  -30.4891   21.5488 C   0  0  2  0  0  0
  -24.8525  -28.9447   20.1160 C   0  0  0  0  0  0
  -22.7441  -29.4649   22.4971 C   0  0  0  0  0  0
  -18.0280  -28.1377   22.8493 C   0  0  0  0  0  0
  -24.1480  -36.7297   23.2643 C   0  0  0  0  0  0
  -25.9439  -30.8120   21.3677 C   0  0  0  0  0  0
  -26.0170  -29.4429   20.7113 C   0  0  0  0  0  0
  -27.2049  -28.6685   20.6961 C   0  0  0  0  0  0
  -26.0352  -26.9018   19.5085 C   0  0  0  0  0  0
  -24.8588  -27.6752   19.5146 C   0  0  0  0  0  0
  -23.6208  -29.8223   20.1634 C   0  0  0  0  0  0
  -25.4105  -36.3104   24.0349 C   0  0  1  0  0  0
  -20.5870  -28.3673   23.1304 C   0  0  2  0  0  0
  -20.6757  -26.9402   22.5408 C   0  0  0  0  0  0
  -19.5744  -26.6387   21.5193 C   0  0  0  0  0  0
  -18.1928  -26.7929   22.1611 C   0  0  0  0  0  0
  -19.1529  -28.8841   23.2897 C   0  0  0  0  0  0
  -18.9450  -30.1438   23.8925 C   0  0  0  0  0  0
  -17.6453  -30.6584   24.0554 C   0  0  0  0  0  0
  -25.9043  -34.9468   23.5139 C   0  0  0  0  0  0
  -16.5346  -29.9084   23.6316 C   0  0  0  0  0  0
  -16.7267  -28.6489   23.0363 C   0  0  0  0  0  0
  -26.4487  -31.6614   25.0742 C   0  0  0  0  0  0
  -25.3742  -31.3727   26.1490 C   0  0  0  0  0  0
  -27.0328  -30.3057   24.6157 C   0  0  0  0  0  0
  -27.6065  -32.4340   25.7499 C   0  0  0  0  0  0
  -27.5582  -37.1807   24.8473 C   0  0  0  0  0  0
  -21.4162  -29.3039   22.3708 N   0  0  0  0  0  0
  -26.4295  -37.3785   23.9417 N   0  0  0  0  0  0
  -24.6767  -31.0718   22.0990 N   0  0  0  0  0  0
  -23.4187  -28.8188   23.3029 O   0  0  0  0  0  0
  -28.4043  -26.6372   20.1239 O   0  0  0  0  0  0
  -26.5594  -34.8926   22.4696 O   0  0  0  0  0  0
  -23.5391  -32.1415   23.7450 O   0  0  0  0  0  0
  -25.9531  -21.8916   20.2803 C   0  0  0  0  0  0
  -27.3242  -21.5619   20.3068 C   0  0  0  0  0  0
  -27.6171  -20.2033   20.6624 C   0  0  0  0  0  0
  -25.3630  -19.8259   21.0068 C   0  0  0  0  0  0
  -24.2872  -18.8419   21.4107 C   0  0  0  0  0  0
  -28.3275  -22.6616   19.8779 C   0  0  0  0  0  0
  -28.9991  -19.4936   20.6800 C   0  0  0  0  0  0
  -28.0952  -24.1100   20.4743 C   0  0  0  0  0  0
  -28.9085  -17.9095   20.6863 C   0  0  0  0  0  0
  -30.2045  -17.0388   20.7848 C   0  0  0  0  0  0
  -28.4910  -25.3060   19.5426 C   0  0  0  0  0  0
  -24.9807  -21.0321   20.6278 N   0  0  0  0  0  0
  -26.6093  -19.3912   21.0408 N   0  0  0  0  0  0
  -29.8982  -15.5877   20.9037 N   0  0  0  0  0  0
  -31.4747  -12.4365   19.1417 H   0  0  0  0  0  0
  -30.3366  -11.3291   19.8561 H   0  0  0  0  0  0
  -29.7511  -11.7701   17.4456 H   0  0  0  0  0  0
  -29.6573  -13.4841   17.7692 H   0  0  0  0  0  0
  -27.8428  -11.2971   18.8418 H   0  0  0  0  0  0
  -27.3710  -12.6054   17.7909 H   0  0  0  0  0  0
  -27.6903  -14.2474   19.5527 H   0  0  0  0  0  0
  -28.6965  -11.9985   21.3679 H   0  0  0  0  0  0
  -28.4663  -13.6495   21.8597 H   0  0  0  0  0  0
  -25.2770   -9.5654   22.4776 H   0  0  0  0  0  0
  -24.0011   -7.4610   22.7480 H   0  0  0  0  0  0
  -21.0830   -8.8765   19.8991 H   0  0  0  0  0  0
  -22.3704  -10.9657   19.6181 H   0  0  0  0  0  0
  -21.1987   -7.6159   23.9740 H   0  0  0  0  0  0
  -21.1506   -6.0535   25.9095 H   0  0  0  0  0  0
  -22.0588   -2.7626   23.2840 H   0  0  0  0  0  0
  -22.4035  -11.9875   22.4792 H   0  0  0  0  0  0
  -21.1062  -13.1246   22.2512 H   0  0  0  0  0  0
  -24.6532  -15.8349   20.5152 H   0  0  0  0  0  0
  -26.2796  -15.6401   20.1062 H   0  0  0  0  0  0
  -26.7148  -32.5490   23.1135 H   0  0  0  0  0  0
  -25.0091  -33.9755   25.0487 H   0  0  0  0  0  0
  -22.7005  -31.3065   21.4087 H   0  0  0  0  0  0
  -23.3751  -35.9619   23.3321 H   0  0  0  0  0  0
  -24.3563  -36.8892   22.2050 H   0  0  0  0  0  0
  -23.7215  -37.6505   23.6640 H   0  0  0  0  0  0
  -26.0708  -31.5784   20.6018 H   0  0  0  0  0  0
  -26.8256  -30.8588   21.9963 H   0  0  0  0  0  0
  -28.1051  -29.0525   21.1560 H   0  0  0  0  0  0
  -25.9790  -25.9252   19.0528 H   0  0  0  0  0  0
  -23.9593  -27.2809   19.0621 H   0  0  0  0  0  0
  -23.7404  -30.5982   19.4059 H   0  0  0  0  0  0
  -22.7397  -29.2529   19.8627 H   0  0  0  0  0  0
  -25.1272  -36.1975   25.0838 H   0  0  0  0  0  0
  -20.9962  -28.3230   24.1423 H   0  0  0  0  0  0
  -20.5625  -26.2281   23.3596 H   0  0  0  0  0  0
  -21.6635  -26.7423   22.1219 H   0  0  0  0  0  0
  -19.6902  -25.6292   21.1235 H   0  0  0  0  0  0
  -19.6693  -27.3186   20.6714 H   0  0  0  0  0  0
  -17.4188  -26.6679   21.4020 H   0  0  0  0  0  0
  -18.0337  -26.0059   22.8997 H   0  0  0  0  0  0
  -19.7926  -30.7233   24.2337 H   0  0  0  0  0  0
  -17.5009  -31.6278   24.5133 H   0  0  0  0  0  0
  -15.5348  -30.2991   23.7634 H   0  0  0  0  0  0
  -15.8664  -28.0801   22.7105 H   0  0  0  0  0  0
  -24.5911  -30.7085   25.7820 H   0  0  0  0  0  0
  -24.8943  -32.2877   26.4969 H   0  0  0  0  0  0
  -25.8091  -30.8872   27.0236 H   0  0  0  0  0  0
  -26.2897  -29.6819   24.1184 H   0  0  0  0  0  0
  -27.4052  -29.7306   25.4645 H   0  0  0  0  0  0
  -27.8742  -30.4376   23.9353 H   0  0  0  0  0  0
  -27.2705  -33.3636   26.2108 H   0  0  0  0  0  0
  -28.3854  -32.6921   25.0310 H   0  0  0  0  0  0
  -28.0759  -31.8451   26.5391 H   0  0  0  0  0  0
  -28.2615  -38.0091   24.7504 H   0  0  0  0  0  0
  -28.1069  -36.2626   24.6315 H   0  0  0  0  0  0
  -27.2305  -37.1467   25.8879 H   0  0  0  0  0  0
  -20.9341  -29.8769   21.6928 H   0  0  0  0  0  0
  -26.0198  -38.2872   24.1403 H   0  0  0  0  0  0
  -25.6112  -22.8642   19.9607 H   0  0  0  0  0  0
  -23.5372  -19.3214   22.0391 H   0  0  0  0  0  0
  -24.7107  -18.0086   21.9717 H   0  0  0  0  0  0
  -23.7925  -18.4371   20.5280 H   0  0  0  0  0  0
  -28.2533  -22.7244   18.7908 H   0  0  0  0  0  0
  -29.3467  -22.3375   20.0841 H   0  0  0  0  0  0
  -29.5443  -19.8391   21.5576 H   0  0  0  0  0  0
  -29.5677  -19.8237   19.8102 H   0  0  0  0  0  0
  -28.6385  -24.1896   21.4170 H   0  0  0  0  0  0
  -27.0528  -24.2672   20.7404 H   0  0  0  0  0  0
  -28.3548  -17.6013   19.7984 H   0  0  0  0  0  0
  -28.2928  -17.6158   21.5366 H   0  0  0  0  0  0
  -30.7844  -17.3365   21.6593 H   0  0  0  0  0  0
  -30.8371  -17.2173   19.9125 H   0  0  0  0  0  0
  -27.9534  -25.2549   18.5960 H   0  0  0  0  0  0
  -29.5365  -25.1739   19.2627 H   0  0  0  0  0  0
  -28.9732  -15.3488   21.2273 H   0  0  0  0  0  0
  1 25  1  0  0  0
  1 30  2  0  0  0
  1 84  1  0  0  0
  2  3  1  0  0  0
  2 25  1  0  0  0
  2 85  1  0  0  0
  2 86  1  0  0  0
  3  4  1  0  0  0
  3 87  1  0  0  0
  3 88  1  0  0  0
  4  5  1  0  0  0
  4 89  1  0  0  0
  4 90  1  0  0  0
  5  6  1  0  0  0
  5 26  1  0  0  0
  5 91  1  0  0  0
  6 25  1  0  0  0
  6 92  1  0  0  0
  6 93  1  0  0  0
  7  8  2  0  0  0
  7 26  1  0  0  0
  7 29  1  0  0  0
  8  9  1  0  0  0
  8 22  1  0  0  0
  9 10  1  0  0  0
  9 27  2  0  0  0
 10 11  2  0  0  0
 10 15  1  0  0  0
 11 12  1  0  0  0
 11 94  1  0  0  0
 12 13  2  0  0  0
 12 95  1  0  0  0
 13 14  1  0  0  0
 13 31  1  0  0  0
 14 15  2  0  0  0
 14 96  1  0  0  0
 15 97  1  0  0  0
 16 17  2  0  0  0
 16 21  1  0  0  0
 16 31  1  0  0  0
 17 18  1  0  0  0
 17 98  1  0  0  0
 18 19  2  0  0  0
 18 99  1  0  0  0
 19 20  1  0  0  0
 19 24  1  0  0  0
 20 21  2  0  0  0
 20100  1  0  0  0
 21 23  1  0  0  0
 22 28  1  0  0  0
 22 32  2  0  0  0
 26 27  1  0  0  0
 28101  1  0  0  0
 28102  1  0  0  0
 29103  1  0  0  0
 29104  1  0  0  0
 33 34  1  0  0  0
 33 66  1  0  0  0
 33 70  2  0  0  0
 34 36  1  0  0  0
 34 59  1  0  0  0
 34105  1  0  0  0
 35 44  2  0  0  0
 35 45  1  0  0  0
 35 68  1  0  0  0
 36 56  1  0  0  0
 36106  1  0  0  0
 37 39  1  0  0  0
 37 47  1  0  0  0
 37 66  1  0  0  0
 37107  1  0  0  0
 38 43  2  0  0  0
 38 46  1  0  0  0
 38 47  1  0  0  0
 39 64  1  0  0  0
 39 67  2  0  0  0
 40 52  1  0  0  0
 40 53  2  0  0  0
 40 58  1  0  0  0
 41108  1  0  0  0
 41109  1  0  0  0
 41110  1  0  0  0
 41 48  1  0  0  0
 42 43  1  0  0  0
 42 66  1  0  0  0
 42111  1  0  0  0
 42112  1  0  0  0
 43 44  1  0  0  0
 44113  1  0  0  0
 45 46  2  0  0  0
 45114  1  0  0  0
 46115  1  0  0  0
 47116  1  0  0  0
 47117  1  0  0  0
 48 56  1  0  0  0
 48 65  1  0  0  0
 48118  1  0  0  0
 49 50  1  0  0  0
 49 53  1  0  0  0
 49 64  1  0  0  0
 49119  1  0  0  0
 50 51  1  0  0  0
 50120  1  0  0  0
 50121  1  0  0  0
 51 52  1  0  0  0
 51122  1  0  0  0
 51123  1  0  0  0
 52124  1  0  0  0
 52125  1  0  0  0
 53 54  1  0  0  0
 54 55  2  0  0  0
 54126  1  0  0  0
 55 57  1  0  0  0
 55127  1  0  0  0
 56 69  2  0  0  0
 57 58  2  0  0  0
 57128  1  0  0  0
 58129  1  0  0  0
 59 60  1  0  0  0
 59 61  1  0  0  0
 59 62  1  0  0  0
 60130  1  0  0  0
 60131  1  0  0  0
 60132  1  0  0  0
 61133  1  0  0  0
 61134  1  0  0  0
 61135  1  0  0  0
 62136  1  0  0  0
 62137  1  0  0  0
 62138  1  0  0  0
 63 65  1  0  0  0
 63139  1  0  0  0
 63140  1  0  0  0
 63141  1  0  0  0
 64142  1  0  0  0
 65143  1  0  0  0
 68 81  1  0  0  0
 71 72  2  0  0  0
 71 82  1  0  0  0
 71144  1  0  0  0
 72 73  1  0  0  0
 72 76  1  0  0  0
 73 77  1  0  0  0
 73 83  2  0  0  0
 74 75  1  0  0  0
 74 82  2  0  0  0
 74 83  1  0  0  0
 75145  1  0  0  0
 75146  1  0  0  0
 75147  1  0  0  0
 76 78  1  0  0  0
 76148  1  0  0  0
 76149  1  0  0  0
 77 79  1  0  0  0
 77150  1  0  0  0
 77151  1  0  0  0
 78 81  1  0  0  0
 78152  1  0  0  0
 78153  1  0  0  0
 79 80  1  0  0  0
 79154  1  0  0  0
 79155  1  0  0  0
 80 84  1  0  0  0
 80156  1  0  0  0
 80157  1  0  0  0
 81158  1  0  0  0
 81159  1  0  0  0
 84160  1  0  0  0
M  ISO  4   1 100  68 101  81 101  84 100
M  END
> <chiral flag>
0

> <version>
0

> <s_m_source_file>
/data/baiqing/PycharmProjects/Reinvent-master-3.2/result/LINK_invent/BTK/process_docking_weight1_custom_sum_contain_oxygen_bond_distance_aromatic_linkinvent_7_9_3/rearranged_h_0044.sdf

> <i_m_source_file_index>
37

> <r_mmod_Potential_Energy-OPLS-2005>
-429.261108398438

> <r_mmod_Stretch_Energy-OPLS-2005>
55.4080619812012

> <r_mmod_Bend_Energy-OPLS-2005>
130.902709960938

> <r_mmod_Torsional_Energy-OPLS-2005>
198.887344360352

> <r_mmod_Improper_Torsional_Energy-OPLS-2005>
4.7158784866333

> <r_mmod_Van_der_Waal_Energy-OPLS-2005>
157.135360717773

> <r_mmod_Electrostatic_Energy-OPLS-2005>
-771.005676269531

> <r_mmod_Solvation_Energy-OPLS-2005>
-228.269226074219

> <b_mmod_Minimization_Converged-OPLS-2005>
0

> <r_mmod_RMS_Derivative-OPLS-2005>
1.89146459102631

$$$$
37
                    3D
 Structure written by MMmdl.
160168  0  0  1  0            999 V2000
  -30.7376  -14.4514   20.5892 C   0  0  0  0  0  0
  -30.4180  -12.3050   19.4166 C   0  0  0  0  0  0
  -29.4844  -12.5025   18.2046 C   0  0  0  0  0  0
  -28.0080  -12.3747   18.6234 C   0  0  0  0  0  0
  -27.6613  -13.2156   19.8800 C   0  0  2  0  0  0
  -28.7074  -12.9998   20.9980 C   0  0  0  0  0  0
  -25.2555  -13.8190   20.5700 C   0  0  0  0  0  0
  -24.1813  -13.0447   20.9202 C   0  0  0  0  0  0
  -24.6389  -11.6922   20.8775 C   0  0  0  0  0  0
  -23.9060  -10.4293   21.0442 C   0  0  0  0  0  0
  -24.3614   -9.4195   21.9202 C   0  0  0  0  0  0
  -23.6290   -8.2232   22.0764 C   0  0  0  0  0  0
  -22.4267   -8.0287   21.3554 C   0  0  0  0  0  0
  -21.9912   -9.0263   20.4652 C   0  0  0  0  0  0
  -22.7249  -10.2136   20.3076 C   0  0  0  0  0  0
  -21.6844   -6.0733   22.5284 C   0  0  0  0  0  0
  -21.4004   -6.5644   23.8214 C   0  0  0  0  0  0
  -21.3650   -5.6802   24.9178 C   0  0  0  0  0  0
  -21.6044   -4.3068   24.7224 C   0  0  0  0  0  0
  -21.8822   -3.8147   23.4346 C   0  0  0  0  0  0
  -21.9181   -4.6963   22.3399 C   0  0  0  0  0  0
  -22.7834  -13.5230   21.1875 C   0  0  0  0  0  0
  -22.1669   -4.2152   21.0976 F   0  0  0  0  0  0
  -21.5617   -3.4555   25.7736 F   0  0  0  0  0  0
  -30.0406  -13.2921   20.4415 N   0  0  0  0  0  0
  -26.3018  -12.9373   20.3432 N   0  0  0  0  0  0
  -25.9320  -11.6521   20.5831 N   0  0  0  0  0  0
  -22.0484  -12.8188   22.0427 N   0  0  0  0  0  0
  -25.4237  -15.1915   20.4081 N   0  0  0  0  0  0
  -31.8462  -14.6372   20.0801 O   0  0  0  0  0  0
  -21.6636   -6.8878   21.4253 O   0  0  0  0  0  0
  -22.3497  -14.5537   20.6766 O   0  0  0  0  0  0
  -24.6203  -31.8715   23.2166 C   0  0  0  0  0  0
  -25.9092  -32.4837   23.8450 C   0  0  1  0  0  0
  -27.2004  -27.3912   20.0868 C   0  0  0  0  0  0
  -25.5943  -33.8637   24.2375 N   0  0  0  0  0  0
  -23.4073  -30.5058   21.5595 C   0  0  2  0  0  0
  -24.8475  -28.9952   20.1058 C   0  0  0  0  0  0
  -22.7442  -29.4697   22.4976 C   0  0  0  0  0  0
  -18.0277  -28.1368   22.8496 C   0  0  0  0  0  0
  -24.1491  -36.7318   23.2633 C   0  0  0  0  0  0
  -25.9491  -30.8231   21.3845 C   0  0  0  0  0  0
  -26.0188  -29.4622   20.7170 C   0  0  0  0  0  0
  -27.1987  -28.6674   20.7136 C   0  0  0  0  0  0
  -26.0092  -27.0014   19.4117 C   0  0  0  0  0  0
  -24.8410  -27.7647   19.4473 C   0  0  0  0  0  0
  -23.6149  -29.8646   20.1670 C   0  0  0  0  0  0
  -25.4106  -36.3124   24.0349 C   0  0  1  0  0  0
  -20.5879  -28.3684   23.1292 C   0  0  2  0  0  0
  -20.6776  -26.9419   22.5400 C   0  0  0  0  0  0
  -19.5745  -26.6386   21.5209 C   0  0  0  0  0  0
  -18.1925  -26.7911   22.1629 C   0  0  0  0  0  0
  -19.1529  -28.8840   23.2890 C   0  0  0  0  0  0
  -18.9457  -30.1442   23.8909 C   0  0  0  0  0  0
  -17.6462  -30.6578   24.0564 C   0  0  0  0  0  0
  -25.9053  -34.9485   23.5157 C   0  0  0  0  0  0
  -16.5352  -29.9083   23.6322 C   0  0  0  0  0  0
  -16.7268  -28.6488   23.0365 C   0  0  0  0  0  0
  -26.4486  -31.6599   25.0771 C   0  0  0  0  0  0
  -25.3733  -31.3709   26.1509 C   0  0  0  0  0  0
  -27.0314  -30.3030   24.6173 C   0  0  0  0  0  0
  -27.6074  -32.4296   25.7524 C   0  0  0  0  0  0
  -27.5596  -37.1800   24.8450 C   0  0  0  0  0  0
  -21.4169  -29.3061   22.3706 N   0  0  0  0  0  0
  -26.4292  -37.3823   23.9428 N   0  0  0  0  0  0
  -24.6775  -31.0792   22.1102 N   0  0  0  0  0  0
  -23.4204  -28.8212   23.3005 O   0  0  0  0  0  0
  -28.2843  -26.5103   20.1816 O   0  0  0  0  0  0
  -26.5600  -34.8927   22.4709 O   0  0  0  0  0  0
  -23.5383  -32.1497   23.7523 O   0  0  0  0  0  0
  -30.6152  -22.8036   21.0416 C   0  0  0  0  0  0
  -28.0249  -22.6191   20.3233 C   0  0  0  0  0  0
  -29.9683  -21.5350   20.9257 C   0  0  0  0  0  0
  -28.6693  -23.8888   20.4077 C   0  0  0  0  0  0
  -32.0637  -22.9322   21.4679 C   0  0  0  0  0  0
  -26.5527  -22.4564   19.9745 C   0  0  0  0  0  0
  -30.6505  -20.1692   21.1058 C   0  0  0  0  0  0
  -27.8556  -25.1268   20.0070 C   0  0  0  0  0  0
  -29.9838  -19.2444   22.1629 C   0  0  0  0  0  0
  -29.5196  -17.8402   21.6828 C   0  0  0  0  0  0
  -30.6395  -16.8091   21.4150 C   0  0  0  0  0  0
  -28.6740  -21.4589   20.5552 N   0  0  0  0  0  0
  -29.9733  -23.9796   20.7734 N   0  0  0  0  0  0
  -30.1083  -15.4471   21.2353 N   0  0  0  0  0  0
  -31.4605  -12.4002   19.1081 H   0  0  0  0  0  0
  -30.3203  -11.2956   19.8198 H   0  0  0  0  0  0
  -29.7134  -11.7715   17.4270 H   0  0  0  0  0  0
  -29.6547  -13.4845   17.7616 H   0  0  0  0  0  0
  -27.8100  -11.3209   18.8199 H   0  0  0  0  0  0
  -27.3546  -12.6562   17.7979 H   0  0  0  0  0  0
  -27.7048  -14.2628   19.5809 H   0  0  0  0  0  0
  -28.6746  -11.9683   21.3514 H   0  0  0  0  0  0
  -28.4729  -13.6098   21.8697 H   0  0  0  0  0  0
  -25.2768   -9.5648   22.4762 H   0  0  0  0  0  0
  -23.9994   -7.4597   22.7465 H   0  0  0  0  0  0
  -21.0844   -8.8798   19.8932 H   0  0  0  0  0  0
  -22.3742  -10.9680   19.6178 H   0  0  0  0  0  0
  -21.2022   -7.6159   23.9725 H   0  0  0  0  0  0
  -21.1468   -6.0530   25.9077 H   0  0  0  0  0  0
  -22.0605   -2.7612   23.2853 H   0  0  0  0  0  0
  -22.4151  -11.9856   22.4766 H   0  0  0  0  0  0
  -21.1120  -13.1192   22.2725 H   0  0  0  0  0  0
  -24.6579  -15.8484   20.5107 H   0  0  0  0  0  0
  -26.2827  -15.6286   20.0970 H   0  0  0  0  0  0
  -26.7174  -32.5533   23.1214 H   0  0  0  0  0  0
  -25.0103  -33.9805   25.0528 H   0  0  0  0  0  0
  -22.6975  -31.3262   21.4310 H   0  0  0  0  0  0
  -23.3769  -35.9629   23.3265 H   0  0  0  0  0  0
  -24.3600  -36.8957   22.2055 H   0  0  0  0  0  0
  -23.7204  -37.6501   23.6652 H   0  0  0  0  0  0
  -26.0802  -31.5960   20.6253 H   0  0  0  0  0  0
  -26.8315  -30.8597   22.0123 H   0  0  0  0  0  0
  -28.0882  -29.0108   21.2247 H   0  0  0  0  0  0
  -25.9141  -26.0843   18.8514 H   0  0  0  0  0  0
  -23.9490  -27.4103   18.9481 H   0  0  0  0  0  0
  -23.7283  -30.6520   19.4209 H   0  0  0  0  0  0
  -22.7356  -29.2953   19.8600 H   0  0  0  0  0  0
  -25.1267  -36.2008   25.0837 H   0  0  0  0  0  0
  -20.9962  -28.3248   24.1417 H   0  0  0  0  0  0
  -20.5690  -26.2303   23.3596 H   0  0  0  0  0  0
  -21.6642  -26.7466   22.1191 H   0  0  0  0  0  0
  -19.6918  -25.6296   21.1234 H   0  0  0  0  0  0
  -19.6663  -27.3199   20.6738 H   0  0  0  0  0  0
  -17.4198  -26.6663   21.4028 H   0  0  0  0  0  0
  -18.0333  -26.0037   22.9010 H   0  0  0  0  0  0
  -19.7936  -30.7241   24.2295 H   0  0  0  0  0  0
  -17.5020  -31.6255   24.5168 H   0  0  0  0  0  0
  -15.5352  -30.3002   23.7611 H   0  0  0  0  0  0
  -15.8669  -28.0797   22.7100 H   0  0  0  0  0  0
  -24.5894  -30.7082   25.7823 H   0  0  0  0  0  0
  -24.8944  -32.2871   26.4973 H   0  0  0  0  0  0
  -25.8069  -30.8845   27.0257 H   0  0  0  0  0  0
  -26.2879  -29.6797   24.1195 H   0  0  0  0  0  0
  -27.4033  -29.7257   25.4646 H   0  0  0  0  0  0
  -27.8743  -30.4332   23.9382 H   0  0  0  0  0  0
  -27.2711  -33.3575   26.2159 H   0  0  0  0  0  0
  -28.3846  -32.6886   25.0319 H   0  0  0  0  0  0
  -28.0788  -31.8382   26.5384 H   0  0  0  0  0  0
  -28.2570  -38.0150   24.7597 H   0  0  0  0  0  0
  -28.1144  -36.2689   24.6149 H   0  0  0  0  0  0
  -27.2334  -37.1299   25.8857 H   0  0  0  0  0  0
  -20.9333  -29.8822   21.6964 H   0  0  0  0  0  0
  -26.0184  -38.2891   24.1462 H   0  0  0  0  0  0
  -32.7113  -22.3164   20.8449 H   0  0  0  0  0  0
  -32.1745  -22.6157   22.5054 H   0  0  0  0  0  0
  -32.4095  -23.9638   21.3928 H   0  0  0  0  0  0
  -26.3201  -22.9070   19.0106 H   0  0  0  0  0  0
  -25.9279  -22.9205   20.7374 H   0  0  0  0  0  0
  -26.2681  -21.4044   19.9259 H   0  0  0  0  0  0
  -31.6950  -20.3074   21.3772 H   0  0  0  0  0  0
  -30.6690  -19.6736   20.1344 H   0  0  0  0  0  0
  -26.9326  -24.9959   20.5756 H   0  0  0  0  0  0
  -27.6516  -24.9675   18.9483 H   0  0  0  0  0  0
  -29.1047  -19.7489   22.5659 H   0  0  0  0  0  0
  -30.6518  -19.1349   23.0177 H   0  0  0  0  0  0
  -28.8938  -17.9413   20.7938 H   0  0  0  0  0  0
  -28.8640  -17.4366   22.4562 H   0  0  0  0  0  0
  -31.3441  -16.7944   22.2465 H   0  0  0  0  0  0
  -31.2065  -17.1117   20.5317 H   0  0  0  0  0  0
  -29.1936  -15.2423   21.6081 H   0  0  0  0  0  0
  1 25  1  0  0  0
  1 30  2  0  0  0
  1 84  1  0  0  0
  2  3  1  0  0  0
  2 25  1  0  0  0
  2 85  1  0  0  0
  2 86  1  0  0  0
  3  4  1  0  0  0
  3 87  1  0  0  0
  3 88  1  0  0  0
  4  5  1  0  0  0
  4 89  1  0  0  0
  4 90  1  0  0  0
  5  6  1  0  0  0
  5 26  1  0  0  0
  5 91  1  0  0  0
  6 25  1  0  0  0
  6 92  1  0  0  0
  6 93  1  0  0  0
  7  8  2  0  0  0
  7 26  1  0  0  0
  7 29  1  0  0  0
  8  9  1  0  0  0
  8 22  1  0  0  0
  9 10  1  0  0  0
  9 27  2  0  0  0
 10 11  2  0  0  0
 10 15  1  0  0  0
 11 12  1  0  0  0
 11 94  1  0  0  0
 12 13  2  0  0  0
 12 95  1  0  0  0
 13 14  1  0  0  0
 13 31  1  0  0  0
 14 15  2  0  0  0
 14 96  1  0  0  0
 15 97  1  0  0  0
 16 17  2  0  0  0
 16 21  1  0  0  0
 16 31  1  0  0  0
 17 18  1  0  0  0
 17 98  1  0  0  0
 18 19  2  0  0  0
 18 99  1  0  0  0
 19 20  1  0  0  0
 19 24  1  0  0  0
 20 21  2  0  0  0
 20100  1  0  0  0
 21 23  1  0  0  0
 22 28  1  0  0  0
 22 32  2  0  0  0
 26 27  1  0  0  0
 28101  1  0  0  0
 28102  1  0  0  0
 29103  1  0  0  0
 29104  1  0  0  0
 33 34  1  0  0  0
 33 66  1  0  0  0
 33 70  2  0  0  0
 34 36  1  0  0  0
 34 59  1  0  0  0
 34105  1  0  0  0
 35 44  2  0  0  0
 35 45  1  0  0  0
 35 68  1  0  0  0
 36 56  1  0  0  0
 36106  1  0  0  0
 37 39  1  0  0  0
 37 47  1  0  0  0
 37 66  1  0  0  0
 37107  1  0  0  0
 38 43  2  0  0  0
 38 46  1  0  0  0
 38 47  1  0  0  0
 39 64  1  0  0  0
 39 67  2  0  0  0
 40 52  1  0  0  0
 40 53  2  0  0  0
 40 58  1  0  0  0
 41108  1  0  0  0
 41109  1  0  0  0
 41110  1  0  0  0
 41 48  1  0  0  0
 42 43  1  0  0  0
 42 66  1  0  0  0
 42111  1  0  0  0
 42112  1  0  0  0
 43 44  1  0  0  0
 44113  1  0  0  0
 45 46  2  0  0  0
 45114  1  0  0  0
 46115  1  0  0  0
 47116  1  0  0  0
 47117  1  0  0  0
 48 56  1  0  0  0
 48 65  1  0  0  0
 48118  1  0  0  0
 49 50  1  0  0  0
 49 53  1  0  0  0
 49 64  1  0  0  0
 49119  1  0  0  0
 50 51  1  0  0  0
 50120  1  0  0  0
 50121  1  0  0  0
 51 52  1  0  0  0
 51122  1  0  0  0
 51123  1  0  0  0
 52124  1  0  0  0
 52125  1  0  0  0
 53 54  1  0  0  0
 54 55  2  0  0  0
 54126  1  0  0  0
 55 57  1  0  0  0
 55127  1  0  0  0
 56 69  2  0  0  0
 57 58  2  0  0  0
 57128  1  0  0  0
 58129  1  0  0  0
 59 60  1  0  0  0
 59 61  1  0  0  0
 59 62  1  0  0  0
 60130  1  0  0  0
 60131  1  0  0  0
 60132  1  0  0  0
 61133  1  0  0  0
 61134  1  0  0  0
 61135  1  0  0  0
 62136  1  0  0  0
 62137  1  0  0  0
 62138  1  0  0  0
 63 65  1  0  0  0
 63139  1  0  0  0
 63140  1  0  0  0
 63141  1  0  0  0
 64142  1  0  0  0
 65143  1  0  0  0
 68 78  1  0  0  0
 71 73  2  0  0  0
 71 75  1  0  0  0
 71 83  1  0  0  0
 72 74  1  0  0  0
 72 76  1  0  0  0
 72 82  2  0  0  0
 73 77  1  0  0  0
 73 82  1  0  0  0
 74 78  1  0  0  0
 74 83  2  0  0  0
 75144  1  0  0  0
 75145  1  0  0  0
 75146  1  0  0  0
 76147  1  0  0  0
 76148  1  0  0  0
 76149  1  0  0  0
 77 79  1  0  0  0
 77150  1  0  0  0
 77151  1  0  0  0
 78152  1  0  0  0
 78153  1  0  0  0
 79 80  1  0  0  0
 79154  1  0  0  0
 79155  1  0  0  0
 80 81  1  0  0  0
 80156  1  0  0  0
 80157  1  0  0  0
 81 84  1  0  0  0
 81158  1  0  0  0
 81159  1  0  0  0
 84160  1  0  0  0
M  ISO  4   1 100  68 101  78 101  84 100
M  END
> <chiral flag>
0

> <version>
0

> <s_m_source_file>
/data/baiqing/PycharmProjects/Reinvent-master-3.2/result/LINK_invent/BTK/process_docking_weight1_custom_sum_contain_oxygen_bond_distance_aromatic_linkinvent_7_9_3/rearranged_h_0044.sdf

> <i_m_source_file_index>
38

> <r_mmod_Potential_Energy-OPLS-2005>
34.586856842041

> <r_mmod_Stretch_Energy-OPLS-2005>
47.0945358276367

> <r_mmod_Bend_Energy-OPLS-2005>
123.294738769531

> <r_mmod_Torsional_Energy-OPLS-2005>
205.510345458984

> <r_mmod_Improper_Torsional_Energy-OPLS-2005>
2.86179423332214

> <r_mmod_Van_der_Waal_Energy-OPLS-2005>
180.096618652344

> <r_mmod_Electrostatic_Energy-OPLS-2005>
-323.388977050781

> <r_mmod_Solvation_Energy-OPLS-2005>
-226.424270629883

> <b_mmod_Minimization_Converged-OPLS-2005>
0

> <r_mmod_RMS_Derivative-OPLS-2005>
2.44460821151733

$$$$
38
                    3D
 Structure written by MMmdl.
150158  0  0  1  0            999 V2000
  -30.6477  -14.7379   20.4752 C   0  0  0  0  0  0
  -30.4276  -12.4558   19.4646 C   0  0  0  0  0  0
  -29.5055  -12.5068   18.2278 C   0  0  0  0  0  0
  -28.0372  -12.3215   18.6519 C   0  0  0  0  0  0
  -27.6434  -13.2308   19.8447 C   0  0  2  0  0  0
  -28.6916  -13.1921   20.9782 C   0  0  0  0  0  0
  -25.2536  -13.8187   20.5676 C   0  0  0  0  0  0
  -24.1824  -13.0437   20.9200 C   0  0  0  0  0  0
  -24.6430  -11.6914   20.8769 C   0  0  0  0  0  0
  -23.9109  -10.4285   21.0421 C   0  0  0  0  0  0
  -24.3647   -9.4193   21.9201 C   0  0  0  0  0  0
  -23.6303   -8.2233   22.0776 C   0  0  0  0  0  0
  -22.4290   -8.0277   21.3555 C   0  0  0  0  0  0
  -21.9933   -9.0263   20.4671 C   0  0  0  0  0  0
  -22.7274  -10.2121   20.3079 C   0  0  0  0  0  0
  -21.6859   -6.0727   22.5272 C   0  0  0  0  0  0
  -21.4012   -6.5637   23.8198 C   0  0  0  0  0  0
  -21.3658   -5.6793   24.9171 C   0  0  0  0  0  0
  -21.6042   -4.3052   24.7215 C   0  0  0  0  0  0
  -21.8823   -3.8142   23.4335 C   0  0  0  0  0  0
  -21.9179   -4.6963   22.3398 C   0  0  0  0  0  0
  -22.7842  -13.5228   21.1816 C   0  0  0  0  0  0
  -22.1674   -4.2155   21.0980 F   0  0  0  0  0  0
  -21.5625   -3.4534   25.7728 F   0  0  0  0  0  0
  -29.9923  -13.5296   20.3861 N   0  0  0  0  0  0
  -26.2968  -12.9397   20.3258 N   0  0  0  0  0  0
  -25.9359  -11.6544   20.5760 N   0  0  0  0  0  0
  -22.0488  -12.8256   22.0380 N   0  0  0  0  0  0
  -25.4198  -15.1904   20.4091 N   0  0  0  0  0  0
  -31.8434  -14.8147   20.1864 O   0  0  0  0  0  0
  -21.6645   -6.8875   21.4242 O   0  0  0  0  0  0
  -22.3552  -14.5541   20.6634 O   0  0  0  0  0  0
  -24.6336  -31.8565   23.2010 C   0  0  0  0  0  0
  -25.9165  -32.4755   23.8341 C   0  0  1  0  0  0
  -27.1885  -27.2330   20.1084 C   0  0  0  0  0  0
  -25.5954  -33.8548   24.2264 N   0  0  0  0  0  0
  -23.4289  -30.4860   21.5475 C   0  0  2  0  0  0
  -24.8707  -28.9457   20.1051 C   0  0  0  0  0  0
  -22.7508  -29.4612   22.4910 C   0  0  0  0  0  0
  -18.0287  -28.1403   22.8502 C   0  0  0  0  0  0
  -24.1491  -36.7276   23.2634 C   0  0  0  0  0  0
  -25.9812  -30.7584   21.3883 C   0  0  0  0  0  0
  -26.0487  -29.3836   20.7227 C   0  0  0  0  0  0
  -27.2128  -28.5402   20.7177 C   0  0  0  0  0  0
  -25.9837  -26.8941   19.4434 C   0  0  0  0  0  0
  -24.8456  -27.7125   19.4509 C   0  0  0  0  0  0
  -23.6467  -29.8363   20.1579 C   0  0  0  0  0  0
  -25.4116  -36.3053   24.0317 C   0  0  1  0  0  0
  -20.5895  -28.3710   23.1270 C   0  0  2  0  0  0
  -20.6774  -26.9425   22.5403 C   0  0  0  0  0  0
  -19.5735  -26.6397   21.5218 C   0  0  0  0  0  0
  -18.1932  -26.7944   22.1648 C   0  0  0  0  0  0
  -19.1560  -28.8870   23.2885 C   0  0  0  0  0  0
  -18.9470  -30.1486   23.8894 C   0  0  0  0  0  0
  -17.6471  -30.6595   24.0569 C   0  0  0  0  0  0
  -25.9057  -34.9427   23.5082 C   0  0  0  0  0  0
  -16.5355  -29.9090   23.6340 C   0  0  0  0  0  0
  -16.7295  -28.6514   23.0351 C   0  0  0  0  0  0
  -26.4532  -31.6563   25.0720 C   0  0  0  0  0  0
  -25.3751  -31.3713   26.1434 C   0  0  0  0  0  0
  -27.0372  -30.2973   24.6203 C   0  0  0  0  0  0
  -27.6082  -32.4301   25.7502 C   0  0  0  0  0  0
  -27.5574  -37.1794   24.8463 C   0  0  0  0  0  0
  -21.4216  -29.3055   22.3654 N   0  0  0  0  0  0
  -26.4276  -37.3770   23.9417 N   0  0  0  0  0  0
  -24.7015  -31.0501   22.1028 N   0  0  0  0  0  0
  -23.4218  -28.8112   23.2976 O   0  0  0  0  0  0
  -28.2342  -26.2642   20.1737 O   0  0  0  0  0  0
  -26.5624  -34.8912   22.4652 O   0  0  0  0  0  0
  -23.5486  -32.1380   23.7318 O   0  0  0  0  0  0
  -28.3990  -22.3922   20.6719 C   0  0  0  0  0  0
  -30.0216  -23.4593   19.7541 C   0  0  0  0  0  0
  -29.4668  -21.4815   20.5777 C   0  0  0  0  0  0
  -29.7080  -20.0293   21.1759 C   0  0  0  0  0  0
  -29.6792  -18.6423   20.3372 C   0  0  0  0  0  0
  -30.3763  -17.3216   20.9950 C   0  0  0  0  0  0
  -27.8345  -24.8645   19.8765 C   0  0  0  0  0  0
  -30.4994  -22.2153   19.9745 N   0  0  0  0  0  0
  -28.7534  -23.6736   20.1434 N   0  0  0  0  0  0
  -29.9093  -15.8886   20.7021 N   0  0  0  0  0  0
  -31.4712  -12.5683   19.1704 H   0  0  0  0  0  0
  -30.3486  -11.4844   19.9559 H   0  0  0  0  0  0
  -29.7827  -11.7348   17.5079 H   0  0  0  0  0  0
  -29.6197  -13.4612   17.7092 H   0  0  0  0  0  0
  -27.9046  -11.2723   18.9191 H   0  0  0  0  0  0
  -27.3743  -12.5034   17.8047 H   0  0  0  0  0  0
  -27.6298  -14.2433   19.4421 H   0  0  0  0  0  0
  -28.7344  -12.2102   21.4546 H   0  0  0  0  0  0
  -28.4281  -13.9021   21.7638 H   0  0  0  0  0  0
  -25.2777   -9.5646   22.4798 H   0  0  0  0  0  0
  -23.9980   -7.4622   22.7505 H   0  0  0  0  0  0
  -21.0852   -8.8806   19.8989 H   0  0  0  0  0  0
  -22.3745  -10.9684   19.6209 H   0  0  0  0  0  0
  -21.2042   -7.6152   23.9707 H   0  0  0  0  0  0
  -21.1482   -6.0531   25.9067 H   0  0  0  0  0  0
  -22.0603   -2.7609   23.2841 H   0  0  0  0  0  0
  -22.4098  -11.9949   22.4832 H   0  0  0  0  0  0
  -21.1106  -13.1303   22.2567 H   0  0  0  0  0  0
  -24.6392  -15.8310   20.4993 H   0  0  0  0  0  0
  -26.2573  -15.6347   20.0543 H   0  0  0  0  0  0
  -26.7218  -32.5405   23.1069 H   0  0  0  0  0  0
  -25.0093  -33.9693   25.0399 H   0  0  0  0  0  0
  -22.7257  -31.3118   21.4097 H   0  0  0  0  0  0
  -23.3734  -35.9626   23.3285 H   0  0  0  0  0  0
  -24.3575  -36.8913   22.2049 H   0  0  0  0  0  0
  -23.7263  -37.6477   23.6670 H   0  0  0  0  0  0
  -26.1236  -31.5215   20.6218 H   0  0  0  0  0  0
  -26.8574  -30.8031   22.0222 H   0  0  0  0  0  0
  -28.1125  -28.8612   21.2239 H   0  0  0  0  0  0
  -25.8558  -25.9634   18.9132 H   0  0  0  0  0  0
  -23.9476  -27.3822   18.9460 H   0  0  0  0  0  0
  -23.7758  -30.6204   19.4104 H   0  0  0  0  0  0
  -22.7608  -29.2797   19.8453 H   0  0  0  0  0  0
  -25.1304  -36.1879   25.0806 H   0  0  0  0  0  0
  -21.0022  -28.3287   24.1378 H   0  0  0  0  0  0
  -20.5664  -26.2328   23.3617 H   0  0  0  0  0  0
  -21.6644  -26.7434   22.1203 H   0  0  0  0  0  0
  -19.6872  -25.6304   21.1254 H   0  0  0  0  0  0
  -19.6649  -27.3210   20.6748 H   0  0  0  0  0  0
  -17.4189  -26.6712   21.4055 H   0  0  0  0  0  0
  -18.0318  -26.0083   22.9043 H   0  0  0  0  0  0
  -19.7943  -30.7321   24.2233 H   0  0  0  0  0  0
  -17.5009  -31.6269   24.5186 H   0  0  0  0  0  0
  -15.5353  -30.2983   23.7649 H   0  0  0  0  0  0
  -15.8699  -28.0828   22.7039 H   0  0  0  0  0  0
  -24.5946  -30.7043   25.7764 H   0  0  0  0  0  0
  -24.8916  -32.2873   26.4830 H   0  0  0  0  0  0
  -25.8065  -30.8915   27.0224 H   0  0  0  0  0  0
  -26.2947  -29.6719   24.1228 H   0  0  0  0  0  0
  -27.4048  -29.7248   25.4725 H   0  0  0  0  0  0
  -27.8843  -30.4233   23.9454 H   0  0  0  0  0  0
  -27.2685  -33.3614   26.2052 H   0  0  0  0  0  0
  -28.3911  -32.6831   25.0339 H   0  0  0  0  0  0
  -28.0715  -31.8424   26.5439 H   0  0  0  0  0  0
  -28.2584  -38.0104   24.7518 H   0  0  0  0  0  0
  -28.1082  -36.2624   24.6275 H   0  0  0  0  0  0
  -27.2290  -37.1432   25.8870 H   0  0  0  0  0  0
  -20.9382  -29.8839   21.6918 H   0  0  0  0  0  0
  -26.0130  -38.2830   24.1444 H   0  0  0  0  0  0
  -27.4044  -22.2324   21.0691 H   0  0  0  0  0  0
  -30.5998  -24.2252   19.2555 H   0  0  0  0  0  0
  -29.0301  -19.8915   22.0197 H   0  0  0  0  0  0
  -30.6910  -20.0578   21.6467 H   0  0  0  0  0  0
  -30.1879  -18.8336   19.3931 H   0  0  0  0  0  0
  -28.6460  -18.4244   20.0713 H   0  0  0  0  0  0
  -30.3087  -17.4282   22.0785 H   0  0  0  0  0  0
  -31.4476  -17.3797   20.7913 H   0  0  0  0  0  0
  -27.6269  -24.8025   18.8057 H   0  0  0  0  0  0
  -26.9123  -24.6403   20.4166 H   0  0  0  0  0  0
  -28.9231  -15.7222   20.8282 H   0  0  0  0  0  0
  1 25  1  0  0  0
  1 30  2  0  0  0
  1 80  1  0  0  0
  2  3  1  0  0  0
  2 25  1  0  0  0
  2 81  1  0  0  0
  2 82  1  0  0  0
  3  4  1  0  0  0
  3 83  1  0  0  0
  3 84  1  0  0  0
  4  5  1  0  0  0
  4 85  1  0  0  0
  4 86  1  0  0  0
  5  6  1  0  0  0
  5 26  1  0  0  0
  5 87  1  0  0  0
  6 25  1  0  0  0
  6 88  1  0  0  0
  6 89  1  0  0  0
  7  8  2  0  0  0
  7 26  1  0  0  0
  7 29  1  0  0  0
  8  9  1  0  0  0
  8 22  1  0  0  0
  9 10  1  0  0  0
  9 27  2  0  0  0
 10 11  2  0  0  0
 10 15  1  0  0  0
 11 12  1  0  0  0
 11 90  1  0  0  0
 12 13  2  0  0  0
 12 91  1  0  0  0
 13 14  1  0  0  0
 13 31  1  0  0  0
 14 15  2  0  0  0
 14 92  1  0  0  0
 15 93  1  0  0  0
 16 17  2  0  0  0
 16 21  1  0  0  0
 16 31  1  0  0  0
 17 18  1  0  0  0
 17 94  1  0  0  0
 18 19  2  0  0  0
 18 95  1  0  0  0
 19 20  1  0  0  0
 19 24  1  0  0  0
 20 21  2  0  0  0
 20 96  1  0  0  0
 21 23  1  0  0  0
 22 28  1  0  0  0
 22 32  2  0  0  0
 26 27  1  0  0  0
 28 97  1  0  0  0
 28 98  1  0  0  0
 29 99  1  0  0  0
 29100  1  0  0  0
 33 34  1  0  0  0
 33 66  1  0  0  0
 33 70  2  0  0  0
 34 36  1  0  0  0
 34 59  1  0  0  0
 34101  1  0  0  0
 35 44  2  0  0  0
 35 45  1  0  0  0
 35 68  1  0  0  0
 36 56  1  0  0  0
 36102  1  0  0  0
 37 39  1  0  0  0
 37 47  1  0  0  0
 37 66  1  0  0  0
 37103  1  0  0  0
 38 43  2  0  0  0
 38 46  1  0  0  0
 38 47  1  0  0  0
 39 64  1  0  0  0
 39 67  2  0  0  0
 40 52  1  0  0  0
 40 53  2  0  0  0
 40 58  1  0  0  0
 41104  1  0  0  0
 41105  1  0  0  0
 41106  1  0  0  0
 41 48  1  0  0  0
 42 43  1  0  0  0
 42 66  1  0  0  0
 42107  1  0  0  0
 42108  1  0  0  0
 43 44  1  0  0  0
 44109  1  0  0  0
 45 46  2  0  0  0
 45110  1  0  0  0
 46111  1  0  0  0
 47112  1  0  0  0
 47113  1  0  0  0
 48 56  1  0  0  0
 48 65  1  0  0  0
 48114  1  0  0  0
 49 50  1  0  0  0
 49 53  1  0  0  0
 49 64  1  0  0  0
 49115  1  0  0  0
 50 51  1  0  0  0
 50116  1  0  0  0
 50117  1  0  0  0
 51 52  1  0  0  0
 51118  1  0  0  0
 51119  1  0  0  0
 52120  1  0  0  0
 52121  1  0  0  0
 53 54  1  0  0  0
 54 55  2  0  0  0
 54122  1  0  0  0
 55 57  1  0  0  0
 55123  1  0  0  0
 56 69  2  0  0  0
 57 58  2  0  0  0
 57124  1  0  0  0
 58125  1  0  0  0
 59 60  1  0  0  0
 59 61  1  0  0  0
 59 62  1  0  0  0
 60126  1  0  0  0
 60127  1  0  0  0
 60128  1  0  0  0
 61129  1  0  0  0
 61130  1  0  0  0
 61131  1  0  0  0
 62132  1  0  0  0
 62133  1  0  0  0
 62134  1  0  0  0
 63 65  1  0  0  0
 63135  1  0  0  0
 63136  1  0  0  0
 63137  1  0  0  0
 64138  1  0  0  0
 65139  1  0  0  0
 68 77  1  0  0  0
 71 73  2  0  0  0
 71 79  1  0  0  0
 71140  1  0  0  0
 72 78  2  0  0  0
 72 79  1  0  0  0
 72141  1  0  0  0
 73 74  1  0  0  0
 73 78  1  0  0  0
 74 75  1  0  0  0
 74142  1  0  0  0
 74143  1  0  0  0
 75 76  1  0  0  0
 75144  1  0  0  0
 75145  1  0  0  0
 76 80  1  0  0  0
 76146  1  0  0  0
 76147  1  0  0  0
 77 79  1  0  0  0
 77148  1  0  0  0
 77149  1  0  0  0
 80150  1  0  0  0
M  ISO  4   1 100  68 101  77 101  80 100
M  END
> <chiral flag>
0

> <version>
0

> <s_m_source_file>
/data/baiqing/PycharmProjects/Reinvent-master-3.2/result/LINK_invent/BTK/process_docking_weight1_custom_sum_contain_oxygen_bond_distance_aromatic_linkinvent_7_9_3/rearranged_h_0044.sdf

> <i_m_source_file_index>
39

> <r_mmod_Potential_Energy-OPLS-2005>
150.319763183594

> <r_mmod_Stretch_Energy-OPLS-2005>
127.851470947266

> <r_mmod_Bend_Energy-OPLS-2005>
190.630630493164

> <r_mmod_Torsional_Energy-OPLS-2005>
205.339370727539

> <r_mmod_Improper_Torsional_Energy-OPLS-2005>
6.70502805709839

> <r_mmod_Van_der_Waal_Energy-OPLS-2005>
127.493171691895

> <r_mmod_Electrostatic_Energy-OPLS-2005>
-371.287506103516

> <r_mmod_Solvation_Energy-OPLS-2005>
-237.317337036133

> <b_mmod_Minimization_Converged-OPLS-2005>
0

> <r_mmod_RMS_Derivative-OPLS-2005>
4.38026189804077

$$$$
39
                    3D
 Structure written by MMmdl.
152160  0  0  1  0            999 V2000
  -30.5388  -14.9703   20.4153 C   0  0  0  0  0  0
  -30.4400  -12.6020   19.5027 C   0  0  0  0  0  0
  -29.5247  -12.5312   18.2585 C   0  0  0  0  0  0
  -28.0570  -12.3172   18.6743 C   0  0  0  0  0  0
  -27.6288  -13.2519   19.8364 C   0  0  2  0  0  0
  -28.6704  -13.2918   20.9744 C   0  0  0  0  0  0
  -25.2455  -13.8223   20.5712 C   0  0  0  0  0  0
  -24.1777  -13.0440   20.9228 C   0  0  0  0  0  0
  -24.6401  -11.6926   20.8748 C   0  0  0  0  0  0
  -23.9087  -10.4293   21.0406 C   0  0  0  0  0  0
  -24.3635   -9.4206   21.9181 C   0  0  0  0  0  0
  -23.6303   -8.2245   22.0753 C   0  0  0  0  0  0
  -22.4284   -8.0285   21.3546 C   0  0  0  0  0  0
  -21.9924   -9.0260   20.4648 C   0  0  0  0  0  0
  -22.7260  -10.2135   20.3055 C   0  0  0  0  0  0
  -21.6858   -6.0737   22.5278 C   0  0  0  0  0  0
  -21.4017   -6.5640   23.8210 C   0  0  0  0  0  0
  -21.3661   -5.6794   24.9174 C   0  0  0  0  0  0
  -21.6045   -4.3055   24.7225 C   0  0  0  0  0  0
  -21.8819   -3.8147   23.4345 C   0  0  0  0  0  0
  -21.9194   -4.6963   22.3402 C   0  0  0  0  0  0
  -22.7795  -13.5206   21.1881 C   0  0  0  0  0  0
  -22.1662   -4.2149   21.0978 F   0  0  0  0  0  0
  -21.5630   -3.4538   25.7737 F   0  0  0  0  0  0
  -29.9436  -13.7080   20.3731 N   0  0  0  0  0  0
  -26.2884  -12.9462   20.3235 N   0  0  0  0  0  0
  -25.9336  -11.6588   20.5732 N   0  0  0  0  0  0
  -22.0448  -12.8193   22.0439 N   0  0  0  0  0  0
  -25.4104  -15.1954   20.4128 N   0  0  0  0  0  0
  -31.7442  -15.0263   20.1504 O   0  0  0  0  0  0
  -21.6646   -6.8882   21.4242 O   0  0  0  0  0  0
  -22.3474  -14.5506   20.6719 O   0  0  0  0  0  0
  -24.6463  -31.8417   23.1867 C   0  0  0  0  0  0
  -25.9223  -32.4683   23.8264 C   0  0  1  0  0  0
  -27.2141  -27.1085   20.1525 C   0  0  0  0  0  0
  -25.5958  -33.8490   24.2176 N   0  0  0  0  0  0
  -23.4513  -30.4617   21.5324 C   0  0  2  0  0  0
  -24.9015  -28.8869   20.1086 C   0  0  0  0  0  0
  -22.7583  -29.4537   22.4841 C   0  0  0  0  0  0
  -18.0308  -28.1397   22.8476 C   0  0  0  0  0  0
  -24.1492  -36.7251   23.2642 C   0  0  0  0  0  0
  -26.0104  -30.7063   21.3914 C   0  0  0  0  0  0
  -26.0804  -29.3158   20.7313 C   0  0  0  0  0  0
  -27.2372  -28.4435   20.7363 C   0  0  0  0  0  0
  -26.0097  -26.7940   19.4826 C   0  0  0  0  0  0
  -24.8812  -27.6406   19.4676 C   0  0  0  0  0  0
  -23.6797  -29.7921   20.1518 C   0  0  0  0  0  0
  -25.4126  -36.3025   24.0312 C   0  0  1  0  0  0
  -20.5922  -28.3727   23.1224 C   0  0  2  0  0  0
  -20.6790  -26.9426   22.5401 C   0  0  0  0  0  0
  -19.5763  -26.6381   21.5210 C   0  0  0  0  0  0
  -18.1946  -26.7935   22.1623 C   0  0  0  0  0  0
  -19.1566  -28.8881   23.2842 C   0  0  0  0  0  0
  -18.9480  -30.1475   23.8871 C   0  0  0  0  0  0
  -17.6476  -30.6592   24.0559 C   0  0  0  0  0  0
  -25.9078  -34.9400   23.5053 C   0  0  0  0  0  0
  -16.5367  -29.9083   23.6337 C   0  0  0  0  0  0
  -16.7292  -28.6502   23.0358 C   0  0  0  0  0  0
  -26.4529  -31.6565   25.0721 C   0  0  0  0  0  0
  -25.3701  -31.3769   26.1407 C   0  0  0  0  0  0
  -27.0402  -30.2953   24.6338 C   0  0  0  0  0  0
  -27.6049  -32.4343   25.7510 C   0  0  0  0  0  0
  -27.5575  -37.1783   24.8464 C   0  0  0  0  0  0
  -21.4271  -29.3050   22.3592 N   0  0  0  0  0  0
  -26.4286  -37.3741   23.9406 N   0  0  0  0  0  0
  -24.7226  -31.0250   22.0915 N   0  0  0  0  0  0
  -23.4212  -28.8084   23.3002 O   0  0  0  0  0  0
  -28.2438  -26.0902   20.2397 O   0  0  0  0  0  0
  -26.5668  -34.8901   22.4636 O   0  0  0  0  0  0
  -23.5575  -32.1305   23.7069 O   0  0  0  0  0  0
  -30.1089  -23.3975   20.9492 C   0  0  0  0  0  0
  -28.5009  -21.8031   20.1693 C   0  0  0  0  0  0
  -28.8352  -23.2415   20.3707 C   0  0  0  0  0  0
  -30.9061  -22.2738   21.2841 C   0  0  0  0  0  0
  -29.3747  -20.6518   20.5194 C   0  0  0  0  0  0
  -32.2598  -22.4947   21.9255 C   0  0  0  0  0  0
  -27.9035  -24.5724   20.0274 C   0  0  0  0  0  0
  -29.0341  -19.0214   20.4851 C   0  0  0  0  0  0
  -30.1304  -17.7183   20.4441 C   0  0  0  0  0  0
  -30.5568  -20.9711   21.0921 N   0  0  0  0  0  0
  -29.7675  -16.1661   20.5450 N   0  0  0  0  0  0
  -31.4744  -12.7587   19.1927 H   0  0  0  0  0  0
  -30.4342  -11.6544   20.0435 H   0  0  0  0  0  0
  -29.8480  -11.7284   17.5944 H   0  0  0  0  0  0
  -29.6131  -13.4568   17.6874 H   0  0  0  0  0  0
  -27.9535  -11.2765   18.9828 H   0  0  0  0  0  0
  -27.3962  -12.4477   17.8162 H   0  0  0  0  0  0
  -27.5885  -14.2522   19.4043 H   0  0  0  0  0  0
  -28.7622  -12.3200   21.4616 H   0  0  0  0  0  0
  -28.3668  -13.9993   21.7473 H   0  0  0  0  0  0
  -25.2778   -9.5681   22.4758 H   0  0  0  0  0  0
  -24.0010   -7.4638   22.7474 H   0  0  0  0  0  0
  -21.0855   -8.8783   19.8954 H   0  0  0  0  0  0
  -22.3719  -10.9675   19.6164 H   0  0  0  0  0  0
  -21.2008   -7.6148   23.9714 H   0  0  0  0  0  0
  -21.1484   -6.0523   25.9077 H   0  0  0  0  0  0
  -22.0595   -2.7609   23.2845 H   0  0  0  0  0  0
  -22.4080  -11.9869   22.4842 H   0  0  0  0  0  0
  -21.1056  -13.1198   22.2627 H   0  0  0  0  0  0
  -24.6372  -15.8429   20.5220 H   0  0  0  0  0  0
  -26.2463  -15.6373   20.0533 H   0  0  0  0  0  0
  -26.7291  -32.5276   23.0991 H   0  0  0  0  0  0
  -25.0074  -33.9602   25.0301 H   0  0  0  0  0  0
  -22.7554  -31.2887   21.3771 H   0  0  0  0  0  0
  -23.3759  -35.9578   23.3290 H   0  0  0  0  0  0
  -24.3575  -36.8902   22.2061 H   0  0  0  0  0  0
  -23.7245  -37.6440   23.6693 H   0  0  0  0  0  0
  -26.1723  -31.4606   20.6202 H   0  0  0  0  0  0
  -26.8782  -30.7544   22.0375 H   0  0  0  0  0  0
  -28.1317  -28.7650   21.2509 H   0  0  0  0  0  0
  -25.8975  -25.8449   18.9812 H   0  0  0  0  0  0
  -23.9832  -27.3089   18.9646 H   0  0  0  0  0  0
  -23.8187  -30.5672   19.3972 H   0  0  0  0  0  0
  -22.7936  -29.2366   19.8392 H   0  0  0  0  0  0
  -25.1316  -36.1848   25.0804 H   0  0  0  0  0  0
  -21.0017  -28.3321   24.1343 H   0  0  0  0  0  0
  -20.5678  -26.2343   23.3624 H   0  0  0  0  0  0
  -21.6656  -26.7424   22.1202 H   0  0  0  0  0  0
  -19.6922  -25.6283   21.1260 H   0  0  0  0  0  0
  -19.6699  -27.3173   20.6724 H   0  0  0  0  0  0
  -17.4212  -26.6677   21.4030 H   0  0  0  0  0  0
  -18.0348  -26.0083   22.9028 H   0  0  0  0  0  0
  -19.7955  -30.7301   24.2228 H   0  0  0  0  0  0
  -17.5027  -31.6269   24.5166 H   0  0  0  0  0  0
  -15.5365  -30.2976   23.7675 H   0  0  0  0  0  0
  -15.8693  -28.0812   22.7087 H   0  0  0  0  0  0
  -24.5888  -30.7110   25.7725 H   0  0  0  0  0  0
  -24.8882  -32.2957   26.4760 H   0  0  0  0  0  0
  -25.7971  -30.8989   27.0233 H   0  0  0  0  0  0
  -26.3031  -29.6668   24.1330 H   0  0  0  0  0  0
  -27.3976  -29.7268   25.4934 H   0  0  0  0  0  0
  -27.8955  -30.4174   23.9690 H   0  0  0  0  0  0
  -27.2631  -33.3664   26.2022 H   0  0  0  0  0  0
  -28.3893  -32.6875   25.0366 H   0  0  0  0  0  0
  -28.0681  -31.8517   26.5484 H   0  0  0  0  0  0
  -28.2583  -38.0088   24.7509 H   0  0  0  0  0  0
  -28.1081  -36.2617   24.6293 H   0  0  0  0  0  0
  -27.2291  -37.1430   25.8866 H   0  0  0  0  0  0
  -20.9483  -29.8765   21.6772 H   0  0  0  0  0  0
  -26.0150  -38.2808   24.1408 H   0  0  0  0  0  0
  -30.4747  -24.3957   21.1528 H   0  0  0  0  0  0
  -27.5282  -21.5756   19.7535 H   0  0  0  0  0  0
  -32.1590  -23.1112   22.8188 H   0  0  0  0  0  0
  -32.9275  -23.0056   21.2316 H   0  0  0  0  0  0
  -32.7285  -21.5549   22.2187 H   0  0  0  0  0  0
  -26.9690  -24.3924   20.5595 H   0  0  0  0  0  0
  -27.6611  -24.4650   18.9701 H   0  0  0  0  0  0
  -28.3647  -18.8905   19.6351 H   0  0  0  0  0  0
  -28.3993  -18.8600   21.3559 H   0  0  0  0  0  0
  -30.8402  -17.8930   21.2531 H   0  0  0  0  0  0
  -30.7211  -17.8318   19.5348 H   0  0  0  0  0  0
  -28.7892  -15.9841   20.7154 H   0  0  0  0  0  0
  1 25  1  0  0  0
  1 30  2  0  0  0
  1 81  1  0  0  0
  2  3  1  0  0  0
  2 25  1  0  0  0
  2 82  1  0  0  0
  2 83  1  0  0  0
  3  4  1  0  0  0
  3 84  1  0  0  0
  3 85  1  0  0  0
  4  5  1  0  0  0
  4 86  1  0  0  0
  4 87  1  0  0  0
  5  6  1  0  0  0
  5 26  1  0  0  0
  5 88  1  0  0  0
  6 25  1  0  0  0
  6 89  1  0  0  0
  6 90  1  0  0  0
  7  8  2  0  0  0
  7 26  1  0  0  0
  7 29  1  0  0  0
  8  9  1  0  0  0
  8 22  1  0  0  0
  9 10  1  0  0  0
  9 27  2  0  0  0
 10 11  2  0  0  0
 10 15  1  0  0  0
 11 12  1  0  0  0
 11 91  1  0  0  0
 12 13  2  0  0  0
 12 92  1  0  0  0
 13 14  1  0  0  0
 13 31  1  0  0  0
 14 15  2  0  0  0
 14 93  1  0  0  0
 15 94  1  0  0  0
 16 17  2  0  0  0
 16 21  1  0  0  0
 16 31  1  0  0  0
 17 18  1  0  0  0
 17 95  1  0  0  0
 18 19  2  0  0  0
 18 96  1  0  0  0
 19 20  1  0  0  0
 19 24  1  0  0  0
 20 21  2  0  0  0
 20 97  1  0  0  0
 21 23  1  0  0  0
 22 28  1  0  0  0
 22 32  2  0  0  0
 26 27  1  0  0  0
 28 98  1  0  0  0
 28 99  1  0  0  0
 29100  1  0  0  0
 29101  1  0  0  0
 33 34  1  0  0  0
 33 66  1  0  0  0
 33 70  2  0  0  0
 34 36  1  0  0  0
 34 59  1  0  0  0
 34102  1  0  0  0
 35 44  2  0  0  0
 35 45  1  0  0  0
 35 68  1  0  0  0
 36 56  1  0  0  0
 36103  1  0  0  0
 37 39  1  0  0  0
 37 47  1  0  0  0
 37 66  1  0  0  0
 37104  1  0  0  0
 38 43  2  0  0  0
 38 46  1  0  0  0
 38 47  1  0  0  0
 39 64  1  0  0  0
 39 67  2  0  0  0
 40 52  1  0  0  0
 40 53  2  0  0  0
 40 58  1  0  0  0
 41105  1  0  0  0
 41106  1  0  0  0
 41107  1  0  0  0
 41 48  1  0  0  0
 42 43  1  0  0  0
 42 66  1  0  0  0
 42108  1  0  0  0
 42109  1  0  0  0
 43 44  1  0  0  0
 44110  1  0  0  0
 45 46  2  0  0  0
 45111  1  0  0  0
 46112  1  0  0  0
 47113  1  0  0  0
 47114  1  0  0  0
 48 56  1  0  0  0
 48 65  1  0  0  0
 48115  1  0  0  0
 49 50  1  0  0  0
 49 53  1  0  0  0
 49 64  1  0  0  0
 49116  1  0  0  0
 50 51  1  0  0  0
 50117  1  0  0  0
 50118  1  0  0  0
 51 52  1  0  0  0
 51119  1  0  0  0
 51120  1  0  0  0
 52121  1  0  0  0
 52122  1  0  0  0
 53 54  1  0  0  0
 54 55  2  0  0  0
 54123  1  0  0  0
 55 57  1  0  0  0
 55124  1  0  0  0
 56 69  2  0  0  0
 57 58  2  0  0  0
 57125  1  0  0  0
 58126  1  0  0  0
 59 60  1  0  0  0
 59 61  1  0  0  0
 59 62  1  0  0  0
 60127  1  0  0  0
 60128  1  0  0  0
 60129  1  0  0  0
 61130  1  0  0  0
 61131  1  0  0  0
 61132  1  0  0  0
 62133  1  0  0  0
 62134  1  0  0  0
 62135  1  0  0  0
 63 65  1  0  0  0
 63136  1  0  0  0
 63137  1  0  0  0
 63138  1  0  0  0
 64139  1  0  0  0
 65140  1  0  0  0
 68 77  1  0  0  0
 71 73  2  0  0  0
 71 74  1  0  0  0
 71141  1  0  0  0
 72 73  1  0  0  0
 72 75  2  0  0  0
 72142  1  0  0  0
 73 77  1  0  0  0
 74 76  1  0  0  0
 74 80  2  0  0  0
 75 78  1  0  0  0
 75 80  1  0  0  0
 76143  1  0  0  0
 76144  1  0  0  0
 76145  1  0  0  0
 77146  1  0  0  0
 77147  1  0  0  0
 78 79  1  0  0  0
 78148  1  0  0  0
 78149  1  0  0  0
 79 81  1  0  0  0
 79150  1  0  0  0
 79151  1  0  0  0
 81152  1  0  0  0
M  ISO  4   1 100  68 101  77 101  81 100
M  END
> <chiral flag>
0

> <version>
0

> <s_m_source_file>
/data/baiqing/PycharmProjects/Reinvent-master-3.2/result/LINK_invent/BTK/process_docking_weight1_custom_sum_contain_oxygen_bond_distance_aromatic_linkinvent_7_9_3/rearranged_h_0044.sdf

> <i_m_source_file_index>
40

> <r_mmod_Potential_Energy-OPLS-2005>
362.217590332031

> <r_mmod_Stretch_Energy-OPLS-2005>
279.386871337891

> <r_mmod_Bend_Energy-OPLS-2005>
248.093475341797

> <r_mmod_Torsional_Energy-OPLS-2005>
211.178970336914

> <r_mmod_Improper_Torsional_Energy-OPLS-2005>
4.99006128311157

> <r_mmod_Van_der_Waal_Energy-OPLS-2005>
132.476989746094

> <r_mmod_Electrostatic_Energy-OPLS-2005>
-495.792236328125

> <r_mmod_Solvation_Energy-OPLS-2005>
-233.995208740234

> <b_mmod_Minimization_Converged-OPLS-2005>
0

> <r_mmod_RMS_Derivative-OPLS-2005>
0.47812694311142

$$$$
40
                    3D
 Structure written by MMmdl.
166174  0  0  1  0            999 V2000
  -30.7435  -14.3949   20.6605 C   0  0  0  0  0  0
  -30.4222  -12.3000   19.3950 C   0  0  0  0  0  0
  -29.4851  -12.5147   18.1918 C   0  0  0  0  0  0
  -28.0089  -12.3737   18.6079 C   0  0  0  0  0  0
  -27.6644  -13.1997   19.8743 C   0  0  2  0  0  0
  -28.7027  -12.9418   20.9882 C   0  0  0  0  0  0
  -25.2597  -13.8146   20.5663 C   0  0  0  0  0  0
  -24.1832  -13.0430   20.9167 C   0  0  0  0  0  0
  -24.6370  -11.6905   20.8724 C   0  0  0  0  0  0
  -23.9034  -10.4290   21.0395 C   0  0  0  0  0  0
  -24.3596   -9.4217   21.9173 C   0  0  0  0  0  0
  -23.6280   -8.2250   22.0749 C   0  0  0  0  0  0
  -22.4264   -8.0275   21.3530 C   0  0  0  0  0  0
  -21.9897   -9.0252   20.4632 C   0  0  0  0  0  0
  -22.7220  -10.2132   20.3040 C   0  0  0  0  0  0
  -21.6856   -6.0732   22.5275 C   0  0  0  0  0  0
  -21.4013   -6.5644   23.8213 C   0  0  0  0  0  0
  -21.3656   -5.6790   24.9177 C   0  0  0  0  0  0
  -21.6044   -4.3053   24.7236 C   0  0  0  0  0  0
  -21.8820   -3.8150   23.4356 C   0  0  0  0  0  0
  -21.9197   -4.6953   22.3402 C   0  0  0  0  0  0
  -22.7863  -13.5237   21.1846 C   0  0  0  0  0  0
  -22.1667   -4.2142   21.0972 F   0  0  0  0  0  0
  -21.5631   -3.4530   25.7758 F   0  0  0  0  0  0
  -30.0414  -13.2512   20.4486 N   0  0  0  0  0  0
  -26.3017  -12.9296   20.3339 N   0  0  0  0  0  0
  -25.9279  -11.6469   20.5732 N   0  0  0  0  0  0
  -22.0500  -12.8221   22.0401 N   0  0  0  0  0  0
  -25.4360  -15.1856   20.4084 N   0  0  0  0  0  0
  -31.8067  -14.6561   20.0902 O   0  0  0  0  0  0
  -21.6635   -6.8874   21.4231 O   0  0  0  0  0  0
  -22.3568  -14.5556   20.6718 O   0  0  0  0  0  0
  -24.6127  -31.8736   23.2167 C   0  0  0  0  0  0
  -25.9037  -32.4850   23.8448 C   0  0  1  0  0  0
  -27.2307  -27.4447   20.0762 C   0  0  0  0  0  0
  -25.5841  -33.8643   24.2344 N   0  0  0  0  0  0
  -23.4009  -30.4968   21.5593 C   0  0  2  0  0  0
  -24.8452  -28.9728   20.1170 C   0  0  0  0  0  0
  -22.7429  -29.4665   22.5054 C   0  0  0  0  0  0
  -18.0256  -28.1359   22.8482 C   0  0  0  0  0  0
  -24.1490  -36.7320   23.2633 C   0  0  0  0  0  0
  -25.9330  -30.8391   21.3750 C   0  0  0  0  0  0
  -26.0080  -29.4777   20.7116 C   0  0  0  0  0  0
  -27.2017  -28.7192   20.6912 C   0  0  0  0  0  0
  -26.0436  -26.9642   19.4690 C   0  0  0  0  0  0
  -24.8579  -27.7132   19.4978 C   0  0  0  0  0  0
  -23.6070  -29.8366   20.1732 C   0  0  0  0  0  0
  -25.4117  -36.3132   24.0320 C   0  0  1  0  0  0
  -20.5848  -28.3662   23.1338 C   0  0  2  0  0  0
  -20.6783  -26.9408   22.5432 C   0  0  0  0  0  0
  -19.5756  -26.6380   21.5242 C   0  0  0  0  0  0
  -18.1920  -26.7896   22.1627 C   0  0  0  0  0  0
  -19.1514  -28.8827   23.2891 C   0  0  0  0  0  0
  -18.9471  -30.1422   23.8915 C   0  0  0  0  0  0
  -17.6488  -30.6588   24.0552 C   0  0  0  0  0  0
  -25.9024  -34.9491   23.5152 C   0  0  0  0  0  0
  -16.5361  -29.9099   23.6320 C   0  0  0  0  0  0
  -16.7253  -28.6498   23.0354 C   0  0  0  0  0  0
  -26.4449  -31.6624   25.0782 C   0  0  0  0  0  0
  -25.3666  -31.3760   26.1509 C   0  0  0  0  0  0
  -27.0266  -30.3039   24.6166 C   0  0  0  0  0  0
  -27.6024  -32.4346   25.7536 C   0  0  0  0  0  0
  -27.5589  -37.1830   24.8455 C   0  0  0  0  0  0
  -21.4158  -29.3023   22.3791 N   0  0  0  0  0  0
  -26.4313  -37.3795   23.9383 N   0  0  0  0  0  0
  -24.6668  -31.0831   22.1071 N   0  0  0  0  0  0
  -23.4216  -28.8208   23.3082 O   0  0  0  0  0  0
  -28.4069  -26.7162   20.1047 O   0  0  0  0  0  0
  -26.5654  -34.8951   22.4751 O   0  0  0  0  0  0
  -23.5339  -32.1505   23.7568 O   0  0  0  0  0  0
  -28.9892  -20.1464   19.1880 C   0  0  0  0  0  0
  -28.7284  -19.3130   20.3077 C   0  0  0  0  0  0
  -27.5172  -21.0260   21.2918 C   0  0  0  0  0  0
  -27.7314  -21.8392   20.1434 C   0  0  0  0  0  0
  -29.7866  -19.6827   17.9846 C   0  0  0  0  0  0
  -26.9142  -20.7475   23.7840 C   0  0  0  0  0  0
  -26.6113  -21.4494   22.4450 C   0  0  0  0  0  0
  -29.1756  -17.8579   20.4158 C   0  0  0  0  0  0
  -27.0048  -23.1644   19.9322 C   0  0  0  0  0  0
  -30.5926  -17.6847   21.0036 C   0  0  0  0  0  0
  -27.6387  -24.4036   20.6038 C   0  0  0  0  0  0
  -30.7481  -16.5126   21.9998 C   0  0  0  0  0  0
  -28.3937  -25.3571   19.6424 C   0  0  0  0  0  0
  -28.4988  -21.4089   19.1118 N   0  0  0  0  0  0
  -28.0128  -19.7668   21.3605 N   0  0  0  0  0  0
  -30.1866  -15.2451   21.5319 N   0  0  0  0  0  0
  -31.4636  -12.4162   19.0883 H   0  0  0  0  0  0
  -30.3386  -11.2800   19.7728 H   0  0  0  0  0  0
  -29.7208  -11.7972   17.4043 H   0  0  0  0  0  0
  -29.6528  -13.5049   17.7644 H   0  0  0  0  0  0
  -27.8160  -11.3150   18.7910 H   0  0  0  0  0  0
  -27.3572  -12.6598   17.7814 H   0  0  0  0  0  0
  -27.7212  -14.2536   19.5976 H   0  0  0  0  0  0
  -28.6707  -11.8934   21.2895 H   0  0  0  0  0  0
  -28.4479  -13.5038   21.8873 H   0  0  0  0  0  0
  -25.2737   -9.5717   22.4751 H   0  0  0  0  0  0
  -24.0003   -7.4650   22.7461 H   0  0  0  0  0  0
  -21.0845   -8.8747   19.8935 H   0  0  0  0  0  0
  -22.3661  -10.9663   19.6152 H   0  0  0  0  0  0
  -21.1994   -7.6158   23.9717 H   0  0  0  0  0  0
  -21.1474   -6.0526   25.9084 H   0  0  0  0  0  0
  -22.0600   -2.7606   23.2857 H   0  0  0  0  0  0
  -22.4120  -11.9879   22.4782 H   0  0  0  0  0  0
  -21.1099  -13.1221   22.2560 H   0  0  0  0  0  0
  -24.6747  -15.8463   20.5191 H   0  0  0  0  0  0
  -26.2962  -15.6191   20.0987 H   0  0  0  0  0  0
  -26.7107  -32.5600   23.1231 H   0  0  0  0  0  0
  -24.9898  -33.9796   25.0431 H   0  0  0  0  0  0
  -22.6846  -31.3129   21.4261 H   0  0  0  0  0  0
  -23.3762  -35.9647   23.3306 H   0  0  0  0  0  0
  -24.3577  -36.8943   22.2042 H   0  0  0  0  0  0
  -23.7272  -37.6526   23.6677 H   0  0  0  0  0  0
  -26.0544  -31.6145   20.6153 H   0  0  0  0  0  0
  -26.8154  -30.8826   22.0026 H   0  0  0  0  0  0
  -28.0984  -29.1033   21.1608 H   0  0  0  0  0  0
  -25.9959  -26.0068   18.9744 H   0  0  0  0  0  0
  -23.9625  -27.3174   19.0359 H   0  0  0  0  0  0
  -23.7118  -30.6178   19.4179 H   0  0  0  0  0  0
  -22.7316  -29.2531   19.8810 H   0  0  0  0  0  0
  -25.1301  -36.2000   25.0805 H   0  0  0  0  0  0
  -20.9905  -28.3276   24.1470 H   0  0  0  0  0  0
  -20.5775  -26.2270   23.3629 H   0  0  0  0  0  0
  -21.6645  -26.7525   22.1174 H   0  0  0  0  0  0
  -19.6964  -25.6321   21.1215 H   0  0  0  0  0  0
  -19.6691  -27.3244   20.6818 H   0  0  0  0  0  0
  -17.4198  -26.6639   21.3999 H   0  0  0  0  0  0
  -18.0283  -26.0057   22.9021 H   0  0  0  0  0  0
  -19.7978  -30.7165   24.2331 H   0  0  0  0  0  0
  -17.5082  -31.6280   24.5144 H   0  0  0  0  0  0
  -15.5371  -30.3014   23.7670 H   0  0  0  0  0  0
  -15.8635  -28.0833   22.7088 H   0  0  0  0  0  0
  -24.5808  -30.7145   25.7837 H   0  0  0  0  0  0
  -24.8883  -32.2917   26.4974 H   0  0  0  0  0  0
  -25.7948  -30.8901   27.0280 H   0  0  0  0  0  0
  -26.2838  -29.6850   24.1106 H   0  0  0  0  0  0
  -27.3869  -29.7224   25.4667 H   0  0  0  0  0  0
  -27.8747  -30.4306   23.9440 H   0  0  0  0  0  0
  -27.2624  -33.3642   26.2123 H   0  0  0  0  0  0
  -28.3815  -32.6912   25.0340 H   0  0  0  0  0  0
  -28.0701  -31.8460   26.5445 H   0  0  0  0  0  0
  -28.2601  -38.0132   24.7480 H   0  0  0  0  0  0
  -28.1070  -36.2640   24.6288 H   0  0  0  0  0  0
  -27.2258  -37.1466   25.8848 H   0  0  0  0  0  0
  -20.9393  -29.8724   21.6955 H   0  0  0  0  0  0
  -26.0205  -38.2873   24.1390 H   0  0  0  0  0  0
  -29.1128  -19.3539   17.1934 H   0  0  0  0  0  0
  -30.4576  -18.8595   18.2252 H   0  0  0  0  0  0
  -30.3972  -20.4982   17.5966 H   0  0  0  0  0  0
  -26.2536  -21.1131   24.5694 H   0  0  0  0  0  0
  -27.9412  -20.9185   24.1045 H   0  0  0  0  0  0
  -26.7656  -19.6684   23.7126 H   0  0  0  0  0  0
  -25.5764  -21.2756   22.1517 H   0  0  0  0  0  0
  -26.7179  -22.5242   22.5977 H   0  0  0  0  0  0
  -29.1024  -17.3655   19.4452 H   0  0  0  0  0  0
  -28.4532  -17.3424   21.0509 H   0  0  0  0  0  0
  -25.9855  -23.0340   20.2987 H   0  0  0  0  0  0
  -26.8729  -23.3342   18.8626 H   0  0  0  0  0  0
  -30.8788  -18.5961   21.5301 H   0  0  0  0  0  0
  -31.3138  -17.5872   20.1899 H   0  0  0  0  0  0
  -28.2630  -24.1303   21.4535 H   0  0  0  0  0  0
  -26.8058  -24.9524   21.0420 H   0  0  0  0  0  0
  -30.2395  -16.7661   22.9303 H   0  0  0  0  0  0
  -31.8005  -16.3796   22.2636 H   0  0  0  0  0  0
  -28.0018  -25.3163   18.6263 H   0  0  0  0  0  0
  -29.4278  -25.0227   19.5578 H   0  0  0  0  0  0
  -29.3155  -14.9503   21.9503 H   0  0  0  0  0  0
  1 25  1  0  0  0
  1 30  2  0  0  0
  1 86  1  0  0  0
  2  3  1  0  0  0
  2 25  1  0  0  0
  2 87  1  0  0  0
  2 88  1  0  0  0
  3  4  1  0  0  0
  3 89  1  0  0  0
  3 90  1  0  0  0
  4  5  1  0  0  0
  4 91  1  0  0  0
  4 92  1  0  0  0
  5  6  1  0  0  0
  5 26  1  0  0  0
  5 93  1  0  0  0
  6 25  1  0  0  0
  6 94  1  0  0  0
  6 95  1  0  0  0
  7  8  2  0  0  0
  7 26  1  0  0  0
  7 29  1  0  0  0
  8  9  1  0  0  0
  8 22  1  0  0  0
  9 10  1  0  0  0
  9 27  2  0  0  0
 10 11  2  0  0  0
 10 15  1  0  0  0
 11 12  1  0  0  0
 11 96  1  0  0  0
 12 13  2  0  0  0
 12 97  1  0  0  0
 13 14  1  0  0  0
 13 31  1  0  0  0
 14 15  2  0  0  0
 14 98  1  0  0  0
 15 99  1  0  0  0
 16 17  2  0  0  0
 16 21  1  0  0  0
 16 31  1  0  0  0
 17 18  1  0  0  0
 17100  1  0  0  0
 18 19  2  0  0  0
 18101  1  0  0  0
 19 20  1  0  0  0
 19 24  1  0  0  0
 20 21  2  0  0  0
 20102  1  0  0  0
 21 23  1  0  0  0
 22 28  1  0  0  0
 22 32  2  0  0  0
 26 27  1  0  0  0
 28103  1  0  0  0
 28104  1  0  0  0
 29105  1  0  0  0
 29106  1  0  0  0
 33 34  1  0  0  0
 33 66  1  0  0  0
 33 70  2  0  0  0
 34 36  1  0  0  0
 34 59  1  0  0  0
 34107  1  0  0  0
 35 44  2  0  0  0
 35 45  1  0  0  0
 35 68  1  0  0  0
 36 56  1  0  0  0
 36108  1  0  0  0
 37 39  1  0  0  0
 37 47  1  0  0  0
 37 66  1  0  0  0
 37109  1  0  0  0
 38 43  2  0  0  0
 38 46  1  0  0  0
 38 47  1  0  0  0
 39 64  1  0  0  0
 39 67  2  0  0  0
 40 52  1  0  0  0
 40 53  2  0  0  0
 40 58  1  0  0  0
 41110  1  0  0  0
 41111  1  0  0  0
 41112  1  0  0  0
 41 48  1  0  0  0
 42 43  1  0  0  0
 42 66  1  0  0  0
 42113  1  0  0  0
 42114  1  0  0  0
 43 44  1  0  0  0
 44115  1  0  0  0
 45 46  2  0  0  0
 45116  1  0  0  0
 46117  1  0  0  0
 47118  1  0  0  0
 47119  1  0  0  0
 48 56  1  0  0  0
 48 65  1  0  0  0
 48120  1  0  0  0
 49 50  1  0  0  0
 49 53  1  0  0  0
 49 64  1  0  0  0
 49121  1  0  0  0
 50 51  1  0  0  0
 50122  1  0  0  0
 50123  1  0  0  0
 51 52  1  0  0  0
 51124  1  0  0  0
 51125  1  0  0  0
 52126  1  0  0  0
 52127  1  0  0  0
 53 54  1  0  0  0
 54 55  2  0  0  0
 54128  1  0  0  0
 55 57  1  0  0  0
 55129  1  0  0  0
 56 69  2  0  0  0
 57 58  2  0  0  0
 57130  1  0  0  0
 58131  1  0  0  0
 59 60  1  0  0  0
 59 61  1  0  0  0
 59 62  1  0  0  0
 60132  1  0  0  0
 60133  1  0  0  0
 60134  1  0  0  0
 61135  1  0  0  0
 61136  1  0  0  0
 61137  1  0  0  0
 62138  1  0  0  0
 62139  1  0  0  0
 62140  1  0  0  0
 63 65  1  0  0  0
 63141  1  0  0  0
 63142  1  0  0  0
 63143  1  0  0  0
 64144  1  0  0  0
 65145  1  0  0  0
 68 83  1  0  0  0
 71 72  2  0  0  0
 71 75  1  0  0  0
 71 84  1  0  0  0
 72 78  1  0  0  0
 72 85  1  0  0  0
 73 74  1  0  0  0
 73 77  1  0  0  0
 73 85  2  0  0  0
 74 79  1  0  0  0
 74 84  2  0  0  0
 75146  1  0  0  0
 75147  1  0  0  0
 75148  1  0  0  0
 76 77  1  0  0  0
 76149  1  0  0  0
 76150  1  0  0  0
 76151  1  0  0  0
 77152  1  0  0  0
 77153  1  0  0  0
 78 80  1  0  0  0
 78154  1  0  0  0
 78155  1  0  0  0
 79 81  1  0  0  0
 79156  1  0  0  0
 79157  1  0  0  0
 80 82  1  0  0  0
 80158  1  0  0  0
 80159  1  0  0  0
 81 83  1  0  0  0
 81160  1  0  0  0
 81161  1  0  0  0
 82 86  1  0  0  0
 82162  1  0  0  0
 82163  1  0  0  0
 83164  1  0  0  0
 83165  1  0  0  0
 86166  1  0  0  0
M  ISO  4   1 100  68 101  83 101  86 100
M  END
> <chiral flag>
0

> <version>
0

> <s_m_source_file>
/data/baiqing/PycharmProjects/Reinvent-master-3.2/result/LINK_invent/BTK/process_docking_weight1_custom_sum_contain_oxygen_bond_distance_aromatic_linkinvent_7_9_3/rearranged_h_0044.sdf

> <i_m_source_file_index>
41

> <r_mmod_Potential_Energy-OPLS-2005>
-75.8577346801758

> <r_mmod_Stretch_Energy-OPLS-2005>
37.4318962097168

> <r_mmod_Bend_Energy-OPLS-2005>
103.396675109863

> <r_mmod_Torsional_Energy-OPLS-2005>
201.486267089844

> <r_mmod_Improper_Torsional_Energy-OPLS-2005>
2.53431606292725

> <r_mmod_Van_der_Waal_Energy-OPLS-2005>
163.593704223633

> <r_mmod_Electrostatic_Energy-OPLS-2005>
-378.172454833984

> <r_mmod_Solvation_Energy-OPLS-2005>
-215.422973632812

> <b_mmod_Minimization_Converged-OPLS-2005>
0

> <r_mmod_RMS_Derivative-OPLS-2005>
3.44527673721313

$$$$
41
                    3D
 Structure written by MMmdl.
146154  0  0  1  0            999 V2000
  -30.5155  -15.0525   20.3957 C   0  0  0  0  0  0
  -30.4357  -12.6593   19.5060 C   0  0  0  0  0  0
  -29.5231  -12.5447   18.2626 C   0  0  0  0  0  0
  -28.0601  -12.3132   18.6831 C   0  0  0  0  0  0
  -27.6209  -13.2597   19.8304 C   0  0  2  0  0  0
  -28.6620  -13.3416   20.9668 C   0  0  0  0  0  0
  -25.2428  -13.8232   20.5718 C   0  0  0  0  0  0
  -24.1764  -13.0439   20.9245 C   0  0  0  0  0  0
  -24.6394  -11.6928   20.8749 C   0  0  0  0  0  0
  -23.9079  -10.4295   21.0400 C   0  0  0  0  0  0
  -24.3630   -9.4211   21.9179 C   0  0  0  0  0  0
  -23.6302   -8.2249   22.0752 C   0  0  0  0  0  0
  -22.4284   -8.0286   21.3546 C   0  0  0  0  0  0
  -21.9922   -9.0255   20.4641 C   0  0  0  0  0  0
  -22.7251  -10.2133   20.3047 C   0  0  0  0  0  0
  -21.6859   -6.0732   22.5272 C   0  0  0  0  0  0
  -21.4014   -6.5633   23.8204 C   0  0  0  0  0  0
  -21.3663   -5.6787   24.9167 C   0  0  0  0  0  0
  -21.6048   -4.3050   24.7221 C   0  0  0  0  0  0
  -21.8822   -3.8141   23.4342 C   0  0  0  0  0  0
  -21.9197   -4.6958   22.3396 C   0  0  0  0  0  0
  -22.7785  -13.5198   21.1894 C   0  0  0  0  0  0
  -22.1671   -4.2144   21.0975 F   0  0  0  0  0  0
  -21.5633   -3.4538   25.7736 F   0  0  0  0  0  0
  -29.9221  -13.7809   20.3548 N   0  0  0  0  0  0
  -26.2848  -12.9479   20.3222 N   0  0  0  0  0  0
  -25.9326  -11.6594   20.5720 N   0  0  0  0  0  0
  -22.0444  -12.8174   22.0447 N   0  0  0  0  0  0
  -25.4085  -15.1967   20.4132 N   0  0  0  0  0  0
  -31.7283  -15.0796   20.1564 O   0  0  0  0  0  0
  -21.6650   -6.8882   21.4238 O   0  0  0  0  0  0
  -22.3460  -14.5503   20.6739 O   0  0  0  0  0  0
  -24.6499  -31.8366   23.1808 C   0  0  0  0  0  0
  -25.9242  -32.4654   23.8226 C   0  0  1  0  0  0
  -27.2177  -27.0639   20.1652 C   0  0  0  0  0  0
  -25.5961  -33.8463   24.2140 N   0  0  0  0  0  0
  -23.4571  -30.4521   21.5282 C   0  0  2  0  0  0
  -24.9088  -28.8640   20.1110 C   0  0  0  0  0  0
  -22.7598  -29.4509   22.4842 C   0  0  0  0  0  0
  -18.0309  -28.1398   22.8478 C   0  0  0  0  0  0
  -24.1495  -36.7237   23.2645 C   0  0  0  0  0  0
  -26.0176  -30.6882   21.3906 C   0  0  0  0  0  0
  -26.0882  -29.2917   20.7334 C   0  0  0  0  0  0
  -27.2424  -28.4097   20.7382 C   0  0  0  0  0  0
  -26.0107  -26.7526   19.5032 C   0  0  0  0  0  0
  -24.8873  -27.6114   19.4782 C   0  0  0  0  0  0
  -23.6877  -29.7740   20.1508 C   0  0  0  0  0  0
  -25.4133  -36.3010   24.0308 C   0  0  1  0  0  0
  -20.5926  -28.3728   23.1226 C   0  0  2  0  0  0
  -20.6793  -26.9424   22.5407 C   0  0  0  0  0  0
  -19.5765  -26.6380   21.5216 C   0  0  0  0  0  0
  -18.1946  -26.7938   22.1623 C   0  0  0  0  0  0
  -19.1567  -28.8883   23.2842 C   0  0  0  0  0  0
  -18.9482  -30.1479   23.8869 C   0  0  0  0  0  0
  -17.6475  -30.6594   24.0556 C   0  0  0  0  0  0
  -25.9086  -34.9386   23.5037 C   0  0  0  0  0  0
  -16.5366  -29.9080   23.6346 C   0  0  0  0  0  0
  -16.7292  -28.6500   23.0366 C   0  0  0  0  0  0
  -26.4541  -31.6549   25.0699 C   0  0  0  0  0  0
  -25.3707  -31.3756   26.1380 C   0  0  0  0  0  0
  -27.0416  -30.2932   24.6339 C   0  0  0  0  0  0
  -27.6054  -32.4333   25.7497 C   0  0  0  0  0  0
  -27.5580  -37.1777   24.8467 C   0  0  0  0  0  0
  -21.4284  -29.3039   22.3588 N   0  0  0  0  0  0
  -26.4293  -37.3731   23.9405 N   0  0  0  0  0  0
  -24.7285  -31.0152   22.0881 N   0  0  0  0  0  0
  -23.4211  -28.8080   23.3033 O   0  0  0  0  0  0
  -28.2567  -26.0419   20.2378 O   0  0  0  0  0  0
  -26.5681  -34.8901   22.4623 O   0  0  0  0  0  0
  -23.5600  -32.1276   23.6983 O   0  0  0  0  0  0
  -27.9650  -19.5987   20.2693 C   0  0  0  0  0  0
  -29.3664  -19.2852   20.3566 C   0  0  0  0  0  0
  -30.2127  -17.8233   20.3742 C   0  0  0  0  0  0
  -29.0906  -23.1659   20.4049 C   0  0  0  0  0  0
  -28.0033  -24.4722   20.1104 C   0  0  0  0  0  0
  -27.6833  -20.9109   20.2532 N   0  0  0  0  0  0
  -29.9080  -20.5446   20.3875 N   0  0  0  0  0  0
  -28.8853  -21.5595   20.3097 N   0  0  0  0  0  0
  -29.7656  -16.2825   20.4929 N   0  0  0  0  0  0
  -31.4654  -12.8285   19.1883 H   0  0  0  0  0  0
  -30.4500  -11.7230   20.0657 H   0  0  0  0  0  0
  -29.8606  -11.7347   17.6141 H   0  0  0  0  0  0
  -29.5961  -13.4608   17.6741 H   0  0  0  0  0  0
  -27.9725  -11.2760   19.0083 H   0  0  0  0  0  0
  -27.3960  -12.4198   17.8244 H   0  0  0  0  0  0
  -27.5659  -14.2503   19.3779 H   0  0  0  0  0  0
  -28.7752  -12.3814   21.4722 H   0  0  0  0  0  0
  -28.3427  -14.0586   21.7251 H   0  0  0  0  0  0
  -25.2772   -9.5695   22.4755 H   0  0  0  0  0  0
  -24.0016   -7.4636   22.7464 H   0  0  0  0  0  0
  -21.0860   -8.8764   19.8934 H   0  0  0  0  0  0
  -22.3706  -10.9672   19.6154 H   0  0  0  0  0  0
  -21.2003   -7.6141   23.9706 H   0  0  0  0  0  0
  -21.1489   -6.0517   25.9069 H   0  0  0  0  0  0
  -22.0600   -2.7605   23.2839 H   0  0  0  0  0  0
  -22.4079  -11.9849   22.4844 H   0  0  0  0  0  0
  -21.1046  -13.1166   22.2626 H   0  0  0  0  0  0
  -24.6378  -15.8479   20.5188 H   0  0  0  0  0  0
  -26.2438  -15.6312   20.0443 H   0  0  0  0  0  0
  -26.7309  -32.5238   23.0950 H   0  0  0  0  0  0
  -25.0081  -33.9563   25.0270 H   0  0  0  0  0  0
  -22.7634  -31.2800   21.3673 H   0  0  0  0  0  0
  -23.3766  -35.9560   23.3289 H   0  0  0  0  0  0
  -24.3578  -36.8891   22.2064 H   0  0  0  0  0  0
  -23.7242  -37.6421   23.6700 H   0  0  0  0  0  0
  -26.1805  -31.4397   20.6168 H   0  0  0  0  0  0
  -26.8842  -30.7406   22.0380 H   0  0  0  0  0  0
  -28.1393  -28.7329   21.2480 H   0  0  0  0  0  0
  -25.9044  -25.7930   19.0190 H   0  0  0  0  0  0
  -23.9875  -27.2788   18.9792 H   0  0  0  0  0  0
  -23.8266  -30.5443   19.3915 H   0  0  0  0  0  0
  -22.8016  -29.2165   19.8418 H   0  0  0  0  0  0
  -25.1325  -36.1830   25.0800 H   0  0  0  0  0  0
  -21.0011  -28.3323   24.1351 H   0  0  0  0  0  0
  -20.5684  -26.2339   23.3631 H   0  0  0  0  0  0
  -21.6658  -26.7420   22.1207 H   0  0  0  0  0  0
  -19.6920  -25.6282   21.1264 H   0  0  0  0  0  0
  -19.6706  -27.3179   20.6738 H   0  0  0  0  0  0
  -17.4216  -26.6687   21.4025 H   0  0  0  0  0  0
  -18.0338  -26.0086   22.9024 H   0  0  0  0  0  0
  -19.7955  -30.7305   24.2227 H   0  0  0  0  0  0
  -17.5025  -31.6276   24.5153 H   0  0  0  0  0  0
  -15.5365  -30.2964   23.7693 H   0  0  0  0  0  0
  -15.8697  -28.0803   22.7100 H   0  0  0  0  0  0
  -24.5901  -30.7092   25.7695 H   0  0  0  0  0  0
  -24.8884  -32.2941   26.4732 H   0  0  0  0  0  0
  -25.7977  -30.8976   27.0205 H   0  0  0  0  0  0
  -26.3048  -29.6638   24.1336 H   0  0  0  0  0  0
  -27.3983  -29.7261   25.4947 H   0  0  0  0  0  0
  -27.8978  -30.4140   23.9699 H   0  0  0  0  0  0
  -27.2633  -33.3659   26.1995 H   0  0  0  0  0  0
  -28.3913  -32.6849   25.0362 H   0  0  0  0  0  0
  -28.0671  -31.8510   26.5481 H   0  0  0  0  0  0
  -28.2585  -38.0086   24.7514 H   0  0  0  0  0  0
  -28.1089  -36.2612   24.6296 H   0  0  0  0  0  0
  -27.2292  -37.1427   25.8869 H   0  0  0  0  0  0
  -20.9512  -29.8729   21.6738 H   0  0  0  0  0  0
  -26.0152  -38.2797   24.1401 H   0  0  0  0  0  0
  -27.1571  -18.8818   20.2136 H   0  0  0  0  0  0
  -30.9564  -17.9209   21.1651 H   0  0  0  0  0  0
  -30.8196  -17.8285   19.4679 H   0  0  0  0  0  0
  -29.4631  -23.3297   21.4152 H   0  0  0  0  0  0
  -29.9540  -23.3671   19.7722 H   0  0  0  0  0  0
  -27.1322  -24.2755   20.7360 H   0  0  0  0  0  0
  -27.6482  -24.3217   19.0912 H   0  0  0  0  0  0
  -28.7775  -16.1505   20.6450 H   0  0  0  0  0  0
  1 25  1  0  0  0
  1 30  2  0  0  0
  1 79  1  0  0  0
  2  3  1  0  0  0
  2 25  1  0  0  0
  2 80  1  0  0  0
  2 81  1  0  0  0
  3  4  1  0  0  0
  3 82  1  0  0  0
  3 83  1  0  0  0
  4  5  1  0  0  0
  4 84  1  0  0  0
  4 85  1  0  0  0
  5  6  1  0  0  0
  5 26  1  0  0  0
  5 86  1  0  0  0
  6 25  1  0  0  0
  6 87  1  0  0  0
  6 88  1  0  0  0
  7  8  2  0  0  0
  7 26  1  0  0  0
  7 29  1  0  0  0
  8  9  1  0  0  0
  8 22  1  0  0  0
  9 10  1  0  0  0
  9 27  2  0  0  0
 10 11  2  0  0  0
 10 15  1  0  0  0
 11 12  1  0  0  0
 11 89  1  0  0  0
 12 13  2  0  0  0
 12 90  1  0  0  0
 13 14  1  0  0  0
 13 31  1  0  0  0
 14 15  2  0  0  0
 14 91  1  0  0  0
 15 92  1  0  0  0
 16 17  2  0  0  0
 16 21  1  0  0  0
 16 31  1  0  0  0
 17 18  1  0  0  0
 17 93  1  0  0  0
 18 19  2  0  0  0
 18 94  1  0  0  0
 19 20  1  0  0  0
 19 24  1  0  0  0
 20 21  2  0  0  0
 20 95  1  0  0  0
 21 23  1  0  0  0
 22 28  1  0  0  0
 22 32  2  0  0  0
 26 27  1  0  0  0
 28 96  1  0  0  0
 28 97  1  0  0  0
 29 98  1  0  0  0
 29 99  1  0  0  0
 33 34  1  0  0  0
 33 66  1  0  0  0
 33 70  2  0  0  0
 34 36  1  0  0  0
 34 59  1  0  0  0
 34100  1  0  0  0
 35 44  2  0  0  0
 35 45  1  0  0  0
 35 68  1  0  0  0
 36 56  1  0  0  0
 36101  1  0  0  0
 37 39  1  0  0  0
 37 47  1  0  0  0
 37 66  1  0  0  0
 37102  1  0  0  0
 38 43  2  0  0  0
 38 46  1  0  0  0
 38 47  1  0  0  0
 39 64  1  0  0  0
 39 67  2  0  0  0
 40 52  1  0  0  0
 40 53  2  0  0  0
 40 58  1  0  0  0
 41103  1  0  0  0
 41104  1  0  0  0
 41105  1  0  0  0
 41 48  1  0  0  0
 42 43  1  0  0  0
 42 66  1  0  0  0
 42106  1  0  0  0
 42107  1  0  0  0
 43 44  1  0  0  0
 44108  1  0  0  0
 45 46  2  0  0  0
 45109  1  0  0  0
 46110  1  0  0  0
 47111  1  0  0  0
 47112  1  0  0  0
 48 56  1  0  0  0
 48 65  1  0  0  0
 48113  1  0  0  0
 49 50  1  0  0  0
 49 53  1  0  0  0
 49 64  1  0  0  0
 49114  1  0  0  0
 50 51  1  0  0  0
 50115  1  0  0  0
 50116  1  0  0  0
 51 52  1  0  0  0
 51117  1  0  0  0
 51118  1  0  0  0
 52119  1  0  0  0
 52120  1  0  0  0
 53 54  1  0  0  0
 54 55  2  0  0  0
 54121  1  0  0  0
 55 57  1  0  0  0
 55122  1  0  0  0
 56 69  2  0  0  0
 57 58  2  0  0  0
 57123  1  0  0  0
 58124  1  0  0  0
 59 60  1  0  0  0
 59 61  1  0  0  0
 59 62  1  0  0  0
 60125  1  0  0  0
 60126  1  0  0  0
 60127  1  0  0  0
 61128  1  0  0  0
 61129  1  0  0  0
 61130  1  0  0  0
 62131  1  0  0  0
 62132  1  0  0  0
 62133  1  0  0  0
 63 65  1  0  0  0
 63134  1  0  0  0
 63135  1  0  0  0
 63136  1  0  0  0
 64137  1  0  0  0
 65138  1  0  0  0
 68 75  1  0  0  0
 71 72  1  0  0  0
 71 76  2  0  0  0
 71139  1  0  0  0
 72 73  1  0  0  0
 72 77  2  0  0  0
 73 79  1  0  0  0
 73140  1  0  0  0
 73141  1  0  0  0
 74 75  1  0  0  0
 74 78  1  0  0  0
 74142  1  0  0  0
 74143  1  0  0  0
 75144  1  0  0  0
 75145  1  0  0  0
 76 78  1  0  0  0
 77 78  1  0  0  0
 79146  1  0  0  0
M  ISO  4   1 100  68 101  75 101  79 100
M  END
> <chiral flag>
0

> <version>
0

> <s_m_source_file>
/data/baiqing/PycharmProjects/Reinvent-master-3.2/result/LINK_invent/BTK/process_docking_weight1_custom_sum_contain_oxygen_bond_distance_aromatic_linkinvent_7_9_3/rearranged_h_0044.sdf

> <i_m_source_file_index>
42

> <r_mmod_Potential_Energy-OPLS-2005>
604.106628417969

> <r_mmod_Stretch_Energy-OPLS-2005>
341.559844970703

> <r_mmod_Bend_Energy-OPLS-2005>
318.322204589844

> <r_mmod_Torsional_Energy-OPLS-2005>
208.18115234375

> <r_mmod_Improper_Torsional_Energy-OPLS-2005>
4.63476371765137

> <r_mmod_Van_der_Waal_Energy-OPLS-2005>
108.694938659668

> <r_mmod_Electrostatic_Energy-OPLS-2005>
-408.842102050781

> <r_mmod_Solvation_Energy-OPLS-2005>
-236.158599853516

> <b_mmod_Minimization_Converged-OPLS-2005>
0

> <r_mmod_RMS_Derivative-OPLS-2005>
0.94613915681839

$$$$
42
                    3D
 Structure written by MMmdl.
157165  0  0  1  0            999 V2000
  -30.6260  -14.6523   20.5069 C   0  0  0  0  0  0
  -30.4324  -12.4114   19.4377 C   0  0  0  0  0  0
  -29.4999  -12.5107   18.2109 C   0  0  0  0  0  0
  -28.0248  -12.3428   18.6278 C   0  0  0  0  0  0
  -27.6451  -13.2197   19.8516 C   0  0  2  0  0  0
  -28.6913  -13.0920   20.9791 C   0  0  0  0  0  0
  -25.2524  -13.8183   20.5681 C   0  0  0  0  0  0
  -24.1814  -13.0437   20.9208 C   0  0  0  0  0  0
  -24.6392  -11.6918   20.8744 C   0  0  0  0  0  0
  -23.9058  -10.4300   21.0408 C   0  0  0  0  0  0
  -24.3622   -9.4217   21.9181 C   0  0  0  0  0  0
  -23.6308   -8.2243   22.0755 C   0  0  0  0  0  0
  -22.4287   -8.0278   21.3545 C   0  0  0  0  0  0
  -21.9912   -9.0252   20.4642 C   0  0  0  0  0  0
  -22.7242  -10.2127   20.3045 C   0  0  0  0  0  0
  -21.6851   -6.0738   22.5289 C   0  0  0  0  0  0
  -21.4008   -6.5646   23.8230 C   0  0  0  0  0  0
  -21.3641   -5.6801   24.9189 C   0  0  0  0  0  0
  -21.6045   -4.3062   24.7240 C   0  0  0  0  0  0
  -21.8815   -3.8153   23.4370 C   0  0  0  0  0  0
  -21.9202   -4.6970   22.3420 C   0  0  0  0  0  0
  -22.7840  -13.5228   21.1884 C   0  0  0  0  0  0
  -22.1664   -4.2159   21.0996 F   0  0  0  0  0  0
  -21.5624   -3.4533   25.7744 F   0  0  0  0  0  0
  -29.9979  -13.4393   20.4042 N   0  0  0  0  0  0
  -26.2947  -12.9360   20.3267 N   0  0  0  0  0  0
  -25.9304  -11.6508   20.5728 N   0  0  0  0  0  0
  -22.0466  -12.8209   22.0416 N   0  0  0  0  0  0
  -25.4226  -15.1907   20.4093 N   0  0  0  0  0  0
  -31.8078  -14.7889   20.1798 O   0  0  0  0  0  0
  -21.6644   -6.8882   21.4252 O   0  0  0  0  0  0
  -22.3525  -14.5548   20.6755 O   0  0  0  0  0  0
  -24.6286  -31.8577   23.1997 C   0  0  0  0  0  0
  -25.9147  -32.4759   23.8327 C   0  0  1  0  0  0
  -27.2108  -27.3051   20.1293 C   0  0  0  0  0  0
  -25.6004  -33.8567   24.2290 N   0  0  0  0  0  0
  -23.4236  -30.4824   21.5375 C   0  0  2  0  0  0
  -24.8712  -28.9368   20.1017 C   0  0  0  0  0  0
  -22.7489  -29.4630   22.4851 C   0  0  0  0  0  0
  -18.0291  -28.1413   22.8488 C   0  0  0  0  0  0
  -24.1470  -36.7211   23.2638 C   0  0  0  0  0  0
  -25.9653  -30.7902   21.3661 C   0  0  0  0  0  0
  -26.0410  -29.4148   20.7121 C   0  0  0  0  0  0
  -27.2200  -28.6086   20.7190 C   0  0  0  0  0  0
  -26.0282  -26.8837   19.4899 C   0  0  0  0  0  0
  -24.8677  -27.6776   19.4791 C   0  0  0  0  0  0
  -23.6431  -29.8191   20.1507 C   0  0  0  0  0  0
  -25.4114  -36.3051   24.0341 C   0  0  1  0  0  0
  -20.5908  -28.3720   23.1261 C   0  0  2  0  0  0
  -20.6806  -26.9438   22.5401 C   0  0  0  0  0  0
  -19.5768  -26.6424   21.5204 C   0  0  0  0  0  0
  -18.1940  -26.7977   22.1601 C   0  0  0  0  0  0
  -19.1555  -28.8887   23.2881 C   0  0  0  0  0  0
  -18.9474  -30.1485   23.8892 C   0  0  0  0  0  0
  -17.6479  -30.6616   24.0566 C   0  0  0  0  0  0
  -25.9065  -34.9444   23.5101 C   0  0  0  0  0  0
  -16.5366  -29.9116   23.6337 C   0  0  0  0  0  0
  -16.7286  -28.6533   23.0359 C   0  0  0  0  0  0
  -26.4540  -31.6541   25.0668 C   0  0  0  0  0  0
  -25.3787  -31.3684   26.1393 C   0  0  0  0  0  0
  -27.0363  -30.2977   24.6094 C   0  0  0  0  0  0
  -27.6133  -32.4221   25.7461 C   0  0  0  0  0  0
  -27.5547  -37.1761   24.8492 C   0  0  0  0  0  0
  -21.4209  -29.3067   22.3629 N   0  0  0  0  0  0
  -26.4250  -37.3770   23.9453 N   0  0  0  0  0  0
  -24.6917  -31.0611   22.0921 N   0  0  0  0  0  0
  -23.4218  -28.8150   23.2925 O   0  0  0  0  0  0
  -28.2613  -26.3808   20.1879 O   0  0  0  0  0  0
  -26.5554  -34.8937   22.4609 O   0  0  0  0  0  0
  -23.5456  -32.1336   23.7356 O   0  0  0  0  0  0
  -28.6452  -21.8012   19.6653 C   0  0  0  0  0  0
  -28.6102  -22.9221   22.1100 C   0  0  0  0  0  0
  -28.7875  -20.9643   20.8198 C   0  0  0  0  0  0
  -28.4558  -23.7708   20.9633 C   0  0  0  0  0  0
  -28.5856  -21.1854   18.2821 C   0  0  0  0  0  0
  -28.4525  -23.4318   23.5320 C   0  0  0  0  0  0
  -28.6847  -19.3830   20.8513 C   0  0  0  0  0  0
  -28.0236  -25.2884   21.1611 C   0  0  0  0  0  0
  -29.8625  -18.4299   20.3627 C   0  0  0  0  0  0
  -30.2653  -17.1336   21.2193 C   0  0  0  0  0  0
  -28.8003  -21.5704   22.0325 N   0  0  0  0  0  0
  -28.4962  -23.1744   19.7307 N   0  0  0  0  0  0
  -29.8464  -15.7369   20.8274 N   0  0  0  0  0  0
  -31.4727  -12.5447   19.1299 H   0  0  0  0  0  0
  -30.3767  -11.4194   19.8890 H   0  0  0  0  0  0
  -29.7690  -11.7583   17.4683 H   0  0  0  0  0  0
  -29.6345  -13.4799   17.7273 H   0  0  0  0  0  0
  -27.8656  -11.2897   18.8607 H   0  0  0  0  0  0
  -27.3686  -12.5679   17.7855 H   0  0  0  0  0  0
  -27.6578  -14.2528   19.5017 H   0  0  0  0  0  0
  -28.7140  -12.0737   21.3683 H   0  0  0  0  0  0
  -28.4371  -13.7331   21.8236 H   0  0  0  0  0  0
  -25.2763   -9.5695   22.4752 H   0  0  0  0  0  0
  -24.0027   -7.4622   22.7454 H   0  0  0  0  0  0
  -21.0854   -8.8768   19.8932 H   0  0  0  0  0  0
  -22.3718  -10.9661   19.6144 H   0  0  0  0  0  0
  -21.1980   -7.6147   23.9742 H   0  0  0  0  0  0
  -21.1453   -6.0519   25.9098 H   0  0  0  0  0  0
  -22.0602   -2.7618   23.2867 H   0  0  0  0  0  0
  -22.4069  -11.9853   22.4784 H   0  0  0  0  0  0
  -21.1073  -13.1218   22.2616 H   0  0  0  0  0  0
  -24.6522  -15.8422   20.5137 H   0  0  0  0  0  0
  -26.2739  -15.6338   20.0881 H   0  0  0  0  0  0
  -26.7221  -32.5437   23.1081 H   0  0  0  0  0  0
  -25.0392  -33.9714   25.0600 H   0  0  0  0  0  0
  -22.7192  -31.3041   21.3944 H   0  0  0  0  0  0
  -23.3774  -35.9487   23.3292 H   0  0  0  0  0  0
  -24.3574  -36.8793   22.2041 H   0  0  0  0  0  0
  -23.7167  -37.6412   23.6626 H   0  0  0  0  0  0
  -26.0951  -31.5508   20.5947 H   0  0  0  0  0  0
  -26.8491  -30.8444   21.9907 H   0  0  0  0  0  0
  -28.1131  -28.9635   21.2133 H   0  0  0  0  0  0
  -25.9955  -25.9017   19.0365 H   0  0  0  0  0  0
  -23.9724  -27.3030   19.0036 H   0  0  0  0  0  0
  -23.7717  -30.5948   19.3961 H   0  0  0  0  0  0
  -22.7644  -29.2491   19.8404 H   0  0  0  0  0  0
  -25.1290  -36.1849   25.0826 H   0  0  0  0  0  0
  -21.0013  -28.3267   24.1377 H   0  0  0  0  0  0
  -20.5725  -26.2312   23.3596 H   0  0  0  0  0  0
  -21.6670  -26.7474   22.1160 H   0  0  0  0  0  0
  -19.6913  -25.6336   21.1228 H   0  0  0  0  0  0
  -19.6718  -27.3244   20.6741 H   0  0  0  0  0  0
  -17.4226  -26.6731   21.3976 H   0  0  0  0  0  0
  -18.0285  -26.0144   22.9004 H   0  0  0  0  0  0
  -19.7955  -30.7308   24.2237 H   0  0  0  0  0  0
  -17.5042  -31.6278   24.5183 H   0  0  0  0  0  0
  -15.5370  -30.3014   23.7729 H   0  0  0  0  0  0
  -15.8660  -28.0871   22.7078 H   0  0  0  0  0  0
  -24.6069  -30.6891   25.7757 H   0  0  0  0  0  0
  -24.8856  -32.2840   26.4663 H   0  0  0  0  0  0
  -25.8148  -30.9025   27.0238 H   0  0  0  0  0  0
  -26.2889  -29.6728   24.1202 H   0  0  0  0  0  0
  -27.4177  -29.7237   25.4545 H   0  0  0  0  0  0
  -27.8723  -30.4286   23.9224 H   0  0  0  0  0  0
  -27.2851  -33.3660   26.1834 H   0  0  0  0  0  0
  -28.4100  -32.6490   25.0356 H   0  0  0  0  0  0
  -28.0605  -31.8403   26.5532 H   0  0  0  0  0  0
  -28.2570  -38.0053   24.7561 H   0  0  0  0  0  0
  -28.1018  -36.2585   24.6277 H   0  0  0  0  0  0
  -27.2275  -37.1348   25.8898 H   0  0  0  0  0  0
  -20.9358  -29.8756   21.6828 H   0  0  0  0  0  0
  -26.0098  -38.2811   24.1545 H   0  0  0  0  0  0
  -29.3931  -20.4657   18.1534 H   0  0  0  0  0  0
  -28.6859  -21.9377   17.5001 H   0  0  0  0  0  0
  -27.6355  -20.6703   18.1386 H   0  0  0  0  0  0
  -29.0989  -24.2864   23.7260 H   0  0  0  0  0  0
  -28.7083  -22.6604   24.2614 H   0  0  0  0  0  0
  -27.4157  -23.7184   23.7152 H   0  0  0  0  0  0
  -27.7788  -19.1115   20.3072 H   0  0  0  0  0  0
  -28.4549  -19.1085   21.8814 H   0  0  0  0  0  0
  -28.5209  -25.6467   22.0595 H   0  0  0  0  0  0
  -26.9682  -25.2458   21.4361 H   0  0  0  0  0  0
  -30.7528  -19.0609   20.3624 H   0  0  0  0  0  0
  -29.7202  -18.1636   19.3145 H   0  0  0  0  0  0
  -29.9411  -17.2839   22.2495 H   0  0  0  0  0  0
  -31.3552  -17.1298   21.2854 H   0  0  0  0  0  0
  -28.8789  -15.5088   21.0038 H   0  0  0  0  0  0
  1 25  1  0  0  0
  1 30  2  0  0  0
  1 83  1  0  0  0
  2  3  1  0  0  0
  2 25  1  0  0  0
  2 84  1  0  0  0
  2 85  1  0  0  0
  3  4  1  0  0  0
  3 86  1  0  0  0
  3 87  1  0  0  0
  4  5  1  0  0  0
  4 88  1  0  0  0
  4 89  1  0  0  0
  5  6  1  0  0  0
  5 26  1  0  0  0
  5 90  1  0  0  0
  6 25  1  0  0  0
  6 91  1  0  0  0
  6 92  1  0  0  0
  7  8  2  0  0  0
  7 26  1  0  0  0
  7 29  1  0  0  0
  8  9  1  0  0  0
  8 22  1  0  0  0
  9 10  1  0  0  0
  9 27  2  0  0  0
 10 11  2  0  0  0
 10 15  1  0  0  0
 11 12  1  0  0  0
 11 93  1  0  0  0
 12 13  2  0  0  0
 12 94  1  0  0  0
 13 14  1  0  0  0
 13 31  1  0  0  0
 14 15  2  0  0  0
 14 95  1  0  0  0
 15 96  1  0  0  0
 16 17  2  0  0  0
 16 21  1  0  0  0
 16 31  1  0  0  0
 17 18  1  0  0  0
 17 97  1  0  0  0
 18 19  2  0  0  0
 18 98  1  0  0  0
 19 20  1  0  0  0
 19 24  1  0  0  0
 20 21  2  0  0  0
 20 99  1  0  0  0
 21 23  1  0  0  0
 22 28  1  0  0  0
 22 32  2  0  0  0
 26 27  1  0  0  0
 28100  1  0  0  0
 28101  1  0  0  0
 29102  1  0  0  0
 29103  1  0  0  0
 33 34  1  0  0  0
 33 66  1  0  0  0
 33 70  2  0  0  0
 34 36  1  0  0  0
 34 59  1  0  0  0
 34104  1  0  0  0
 35 44  2  0  0  0
 35 45  1  0  0  0
 35 68  1  0  0  0
 36 56  1  0  0  0
 36105  1  0  0  0
 37 39  1  0  0  0
 37 47  1  0  0  0
 37 66  1  0  0  0
 37106  1  0  0  0
 38 43  2  0  0  0
 38 46  1  0  0  0
 38 47  1  0  0  0
 39 64  1  0  0  0
 39 67  2  0  0  0
 40 52  1  0  0  0
 40 53  2  0  0  0
 40 58  1  0  0  0
 41107  1  0  0  0
 41108  1  0  0  0
 41109  1  0  0  0
 41 48  1  0  0  0
 42 43  1  0  0  0
 42 66  1  0  0  0
 42110  1  0  0  0
 42111  1  0  0  0
 43 44  1  0  0  0
 44112  1  0  0  0
 45 46  2  0  0  0
 45113  1  0  0  0
 46114  1  0  0  0
 47115  1  0  0  0
 47116  1  0  0  0
 48 56  1  0  0  0
 48 65  1  0  0  0
 48117  1  0  0  0
 49 50  1  0  0  0
 49 53  1  0  0  0
 49 64  1  0  0  0
 49118  1  0  0  0
 50 51  1  0  0  0
 50119  1  0  0  0
 50120  1  0  0  0
 51 52  1  0  0  0
 51121  1  0  0  0
 51122  1  0  0  0
 52123  1  0  0  0
 52124  1  0  0  0
 53 54  1  0  0  0
 54 55  2  0  0  0
 54125  1  0  0  0
 55 57  1  0  0  0
 55126  1  0  0  0
 56 69  2  0  0  0
 57 58  2  0  0  0
 57127  1  0  0  0
 58128  1  0  0  0
 59 60  1  0  0  0
 59 61  1  0  0  0
 59 62  1  0  0  0
 60129  1  0  0  0
 60130  1  0  0  0
 60131  1  0  0  0
 61132  1  0  0  0
 61133  1  0  0  0
 61134  1  0  0  0
 62135  1  0  0  0
 62136  1  0  0  0
 62137  1  0  0  0
 63 65  1  0  0  0
 63138  1  0  0  0
 63139  1  0  0  0
 63140  1  0  0  0
 64141  1  0  0  0
 65142  1  0  0  0
 68 78  1  0  0  0
 71 73  2  0  0  0
 71 75  1  0  0  0
 71 82  1  0  0  0
 72 74  1  0  0  0
 72 76  1  0  0  0
 72 81  2  0  0  0
 73 77  1  0  0  0
 73 81  1  0  0  0
 74 78  1  0  0  0
 74 82  2  0  0  0
 75143  1  0  0  0
 75144  1  0  0  0
 75145  1  0  0  0
 76146  1  0  0  0
 76147  1  0  0  0
 76148  1  0  0  0
 77 79  1  0  0  0
 77149  1  0  0  0
 77150  1  0  0  0
 78151  1  0  0  0
 78152  1  0  0  0
 79 80  1  0  0  0
 79153  1  0  0  0
 79154  1  0  0  0
 80 83  1  0  0  0
 80155  1  0  0  0
 80156  1  0  0  0
 83157  1  0  0  0
M  ISO  4   1 100  68 101  78 101  83 100
M  END
> <chiral flag>
0

> <version>
0

> <s_m_source_file>
/data/baiqing/PycharmProjects/Reinvent-master-3.2/result/LINK_invent/BTK/process_docking_weight1_custom_sum_contain_oxygen_bond_distance_aromatic_linkinvent_7_9_3/rearranged_h_0044.sdf

> <i_m_source_file_index>
43

> <r_mmod_Potential_Energy-OPLS-2005>
167.364944458008

> <r_mmod_Stretch_Energy-OPLS-2005>
92.1641006469727

> <r_mmod_Bend_Energy-OPLS-2005>
166.018447875977

> <r_mmod_Torsional_Energy-OPLS-2005>
254.584533691406

> <r_mmod_Improper_Torsional_Energy-OPLS-2005>
6.2575159072876

> <r_mmod_Van_der_Waal_Energy-OPLS-2005>
142.520492553711

> <r_mmod_Electrostatic_Energy-OPLS-2005>
-327.729766845703

> <r_mmod_Solvation_Energy-OPLS-2005>
-228.3935546875

> <b_mmod_Minimization_Converged-OPLS-2005>
0

> <r_mmod_RMS_Derivative-OPLS-2005>
3.78403210639954

$$$$
43
                    3D
 Structure written by MMmdl.
156164  0  0  1  0            999 V2000
  -30.6214  -14.7344   20.4689 C   0  0  0  0  0  0
  -30.4329  -12.4534   19.4649 C   0  0  0  0  0  0
  -29.5075  -12.5020   18.2301 C   0  0  0  0  0  0
  -28.0343  -12.3273   18.6473 C   0  0  0  0  0  0
  -27.6416  -13.2293   19.8478 C   0  0  2  0  0  0
  -28.6882  -13.1632   20.9809 C   0  0  0  0  0  0
  -25.2519  -13.8195   20.5686 C   0  0  0  0  0  0
  -24.1810  -13.0439   20.9199 C   0  0  0  0  0  0
  -24.6393  -11.6914   20.8749 C   0  0  0  0  0  0
  -23.9066  -10.4293   21.0407 C   0  0  0  0  0  0
  -24.3619   -9.4209   21.9183 C   0  0  0  0  0  0
  -23.6295   -8.2244   22.0753 C   0  0  0  0  0  0
  -22.4278   -8.0280   21.3540 C   0  0  0  0  0  0
  -21.9909   -9.0254   20.4644 C   0  0  0  0  0  0
  -22.7239  -10.2133   20.3056 C   0  0  0  0  0  0
  -21.6856   -6.0733   22.5275 C   0  0  0  0  0  0
  -21.4017   -6.5637   23.8208 C   0  0  0  0  0  0
  -21.3658   -5.6790   24.9169 C   0  0  0  0  0  0
  -21.6049   -4.3054   24.7222 C   0  0  0  0  0  0
  -21.8821   -3.8142   23.4343 C   0  0  0  0  0  0
  -21.9195   -4.6960   22.3399 C   0  0  0  0  0  0
  -22.7836  -13.5222   21.1857 C   0  0  0  0  0  0
  -22.1667   -4.2145   21.0978 F   0  0  0  0  0  0
  -21.5625   -3.4538   25.7733 F   0  0  0  0  0  0
  -29.9865  -13.5161   20.3941 N   0  0  0  0  0  0
  -26.2939  -12.9393   20.3272 N   0  0  0  0  0  0
  -25.9320  -11.6536   20.5744 N   0  0  0  0  0  0
  -22.0483  -12.8218   22.0420 N   0  0  0  0  0  0
  -25.4215  -15.1920   20.4091 N   0  0  0  0  0  0
  -31.8148  -14.8247   20.1687 O   0  0  0  0  0  0
  -21.6643   -6.8876   21.4236 O   0  0  0  0  0  0
  -22.3514  -14.5519   20.6690 O   0  0  0  0  0  0
  -24.6306  -31.8553   23.1985 C   0  0  0  0  0  0
  -25.9130  -32.4758   23.8332 C   0  0  1  0  0  0
  -27.2216  -27.2694   20.1366 C   0  0  0  0  0  0
  -25.5928  -33.8560   24.2258 N   0  0  0  0  0  0
  -23.4285  -30.4779   21.5408 C   0  0  2  0  0  0
  -24.8791  -28.9259   20.1094 C   0  0  0  0  0  0
  -22.7504  -29.4608   22.4904 C   0  0  0  0  0  0
  -18.0296  -28.1386   22.8488 C   0  0  0  0  0  0
  -24.1489  -36.7287   23.2638 C   0  0  0  0  0  0
  -25.9737  -30.7716   21.3780 C   0  0  0  0  0  0
  -26.0500  -29.3940   20.7218 C   0  0  0  0  0  0
  -27.2278  -28.5782   20.7241 C   0  0  0  0  0  0
  -26.0342  -26.8714   19.4869 C   0  0  0  0  0  0
  -24.8758  -27.6721   19.4797 C   0  0  0  0  0  0
  -23.6479  -29.8109   20.1571 C   0  0  0  0  0  0
  -25.4115  -36.3072   24.0326 C   0  0  1  0  0  0
  -20.5900  -28.3703   23.1262 C   0  0  2  0  0  0
  -20.6789  -26.9419   22.5405 C   0  0  0  0  0  0
  -19.5762  -26.6383   21.5210 C   0  0  0  0  0  0
  -18.1941  -26.7929   22.1625 C   0  0  0  0  0  0
  -19.1548  -28.8861   23.2872 C   0  0  0  0  0  0
  -18.9468  -30.1461   23.8894 C   0  0  0  0  0  0
  -17.6466  -30.6587   24.0565 C   0  0  0  0  0  0
  -25.9053  -34.9441   23.5094 C   0  0  0  0  0  0
  -16.5359  -29.9082   23.6334 C   0  0  0  0  0  0
  -16.7281  -28.6500   23.0356 C   0  0  0  0  0  0
  -26.4496  -31.6580   25.0720 C   0  0  0  0  0  0
  -25.3713  -31.3732   26.1438 C   0  0  0  0  0  0
  -27.0346  -30.2996   24.6203 C   0  0  0  0  0  0
  -27.6052  -32.4318   25.7492 C   0  0  0  0  0  0
  -27.5575  -37.1800   24.8464 C   0  0  0  0  0  0
  -21.4208  -29.3051   22.3649 N   0  0  0  0  0  0
  -26.4291  -37.3769   23.9402 N   0  0  0  0  0  0
  -24.6965  -31.0525   22.0959 N   0  0  0  0  0  0
  -23.4208  -28.8147   23.2997 O   0  0  0  0  0  0
  -28.2887  -26.3444   20.1680 O   0  0  0  0  0  0
  -26.5627  -34.8914   22.4663 O   0  0  0  0  0  0
  -23.5455  -32.1368   23.7285 O   0  0  0  0  0  0
  -28.6306  -23.6348   20.4320 C   0  0  0  0  0  0
  -29.0289  -23.1298   19.1544 C   0  0  0  0  0  0
  -28.8369  -22.4949   21.2182 C   0  0  0  0  0  0
  -29.0341  -23.8712   17.8495 C   0  0  0  0  0  0
  -28.6193  -22.3452   22.6893 C   0  0  0  0  0  0
  -28.0073  -25.0425   20.8604 C   0  0  0  0  0  0
  -29.4204  -18.6071   20.4221 C   0  0  0  0  0  0
  -29.9496  -20.0680   20.8840 C   0  0  0  0  0  0
  -30.3409  -17.3268   20.8268 C   0  0  0  0  0  0
  -29.4420  -21.8478   19.1783 N   0  0  0  0  0  0
  -29.3309  -21.4050   20.4561 N   0  0  0  0  0  0
  -29.8654  -15.8774   20.6864 N   0  0  0  0  0  0
  -31.4717  -12.5819   19.1570 H   0  0  0  0  0  0
  -30.3824  -11.4771   19.9492 H   0  0  0  0  0  0
  -29.7878  -11.7264   17.5160 H   0  0  0  0  0  0
  -29.6349  -13.4538   17.7129 H   0  0  0  0  0  0
  -27.8929  -11.2789   18.9121 H   0  0  0  0  0  0
  -27.3754  -12.5182   17.7993 H   0  0  0  0  0  0
  -27.6358  -14.2501   19.4660 H   0  0  0  0  0  0
  -28.7261  -12.1640   21.4175 H   0  0  0  0  0  0
  -28.4249  -13.8442   21.7914 H   0  0  0  0  0  0
  -25.2766   -9.5689   22.4754 H   0  0  0  0  0  0
  -24.0006   -7.4637   22.7475 H   0  0  0  0  0  0
  -21.0839   -8.8770   19.8951 H   0  0  0  0  0  0
  -22.3696  -10.9669   19.6164 H   0  0  0  0  0  0
  -21.2013   -7.6144   23.9709 H   0  0  0  0  0  0
  -21.1480   -6.0520   25.9071 H   0  0  0  0  0  0
  -22.0602   -2.7604   23.2844 H   0  0  0  0  0  0
  -22.4100  -11.9886   22.4826 H   0  0  0  0  0  0
  -21.1091  -13.1236   22.2599 H   0  0  0  0  0  0
  -24.6514  -15.8442   20.5122 H   0  0  0  0  0  0
  -26.2621  -15.6297   20.0544 H   0  0  0  0  0  0
  -26.7203  -32.5414   23.1083 H   0  0  0  0  0  0
  -25.0073  -33.9695   25.0404 H   0  0  0  0  0  0
  -22.7250  -31.3002   21.3934 H   0  0  0  0  0  0
  -23.3746  -35.9624   23.3305 H   0  0  0  0  0  0
  -24.3581  -36.8907   22.2051 H   0  0  0  0  0  0
  -23.7251  -37.6493   23.6661 H   0  0  0  0  0  0
  -26.1100  -31.5323   20.6084 H   0  0  0  0  0  0
  -26.8518  -30.8230   22.0101 H   0  0  0  0  0  0
  -28.1234  -28.9278   21.2184 H   0  0  0  0  0  0
  -25.9913  -25.9073   19.0003 H   0  0  0  0  0  0
  -23.9820  -27.3109   18.9898 H   0  0  0  0  0  0
  -23.7695  -30.5858   19.3994 H   0  0  0  0  0  0
  -22.7673  -29.2417   19.8540 H   0  0  0  0  0  0
  -25.1298  -36.1920   25.0820 H   0  0  0  0  0  0
  -21.0001  -28.3284   24.1379 H   0  0  0  0  0  0
  -20.5692  -26.2310   23.3612 H   0  0  0  0  0  0
  -21.6655  -26.7447   22.1195 H   0  0  0  0  0  0
  -19.6924  -25.6290   21.1245 H   0  0  0  0  0  0
  -19.6695  -27.3190   20.6736 H   0  0  0  0  0  0
  -17.4212  -26.6676   21.4029 H   0  0  0  0  0  0
  -18.0348  -26.0068   22.9019 H   0  0  0  0  0  0
  -19.7940  -30.7279   24.2262 H   0  0  0  0  0  0
  -17.5017  -31.6267   24.5163 H   0  0  0  0  0  0
  -15.5359  -30.2984   23.7650 H   0  0  0  0  0  0
  -15.8684  -28.0813   22.7075 H   0  0  0  0  0  0
  -24.5894  -30.7077   25.7761 H   0  0  0  0  0  0
  -24.8896  -32.2903   26.4837 H   0  0  0  0  0  0
  -25.8022  -30.8924   27.0229 H   0  0  0  0  0  0
  -26.2933  -29.6742   24.1215 H   0  0  0  0  0  0
  -27.4019  -29.7262   25.4725 H   0  0  0  0  0  0
  -27.8815  -30.4274   23.9457 H   0  0  0  0  0  0
  -27.2664  -33.3625   26.2055 H   0  0  0  0  0  0
  -28.3869  -32.6864   25.0323 H   0  0  0  0  0  0
  -28.0710  -31.8449   26.5419 H   0  0  0  0  0  0
  -28.2598  -38.0091   24.7502 H   0  0  0  0  0  0
  -28.1069  -36.2623   24.6307 H   0  0  0  0  0  0
  -27.2295  -37.1472   25.8869 H   0  0  0  0  0  0
  -20.9391  -29.8771   21.6852 H   0  0  0  0  0  0
  -26.0171  -38.2844   24.1393 H   0  0  0  0  0  0
  -28.9797  -23.1950   16.9963 H   0  0  0  0  0  0
  -29.9423  -24.4641   17.7435 H   0  0  0  0  0  0
  -28.1877  -24.5546   17.7820 H   0  0  0  0  0  0
  -29.5603  -22.4425   23.2310 H   0  0  0  0  0  0
  -28.1890  -21.3725   22.9270 H   0  0  0  0  0  0
  -27.9337  -23.1027   23.0680 H   0  0  0  0  0  0
  -28.2944  -25.2357   21.8946 H   0  0  0  0  0  0
  -26.9281  -24.9074   20.9306 H   0  0  0  0  0  0
  -29.2948  -18.6140   19.3392 H   0  0  0  0  0  0
  -28.4210  -18.4668   20.8336 H   0  0  0  0  0  0
  -30.9973  -20.1263   20.5878 H   0  0  0  0  0  0
  -29.9834  -20.0663   21.9730 H   0  0  0  0  0  0
  -31.2854  -17.4208   20.2891 H   0  0  0  0  0  0
  -30.6076  -17.4425   21.8785 H   0  0  0  0  0  0
  -28.8829  -15.7149   20.8513 H   0  0  0  0  0  0
  1 25  1  0  0  0
  1 30  2  0  0  0
  1 82  1  0  0  0
  2  3  1  0  0  0
  2 25  1  0  0  0
  2 83  1  0  0  0
  2 84  1  0  0  0
  3  4  1  0  0  0
  3 85  1  0  0  0
  3 86  1  0  0  0
  4  5  1  0  0  0
  4 87  1  0  0  0
  4 88  1  0  0  0
  5  6  1  0  0  0
  5 26  1  0  0  0
  5 89  1  0  0  0
  6 25  1  0  0  0
  6 90  1  0  0  0
  6 91  1  0  0  0
  7  8  2  0  0  0
  7 26  1  0  0  0
  7 29  1  0  0  0
  8  9  1  0  0  0
  8 22  1  0  0  0
  9 10  1  0  0  0
  9 27  2  0  0  0
 10 11  2  0  0  0
 10 15  1  0  0  0
 11 12  1  0  0  0
 11 92  1  0  0  0
 12 13  2  0  0  0
 12 93  1  0  0  0
 13 14  1  0  0  0
 13 31  1  0  0  0
 14 15  2  0  0  0
 14 94  1  0  0  0
 15 95  1  0  0  0
 16 17  2  0  0  0
 16 21  1  0  0  0
 16 31  1  0  0  0
 17 18  1  0  0  0
 17 96  1  0  0  0
 18 19  2  0  0  0
 18 97  1  0  0  0
 19 20  1  0  0  0
 19 24  1  0  0  0
 20 21  2  0  0  0
 20 98  1  0  0  0
 21 23  1  0  0  0
 22 28  1  0  0  0
 22 32  2  0  0  0
 26 27  1  0  0  0
 28 99  1  0  0  0
 28100  1  0  0  0
 29101  1  0  0  0
 29102  1  0  0  0
 33 34  1  0  0  0
 33 66  1  0  0  0
 33 70  2  0  0  0
 34 36  1  0  0  0
 34 59  1  0  0  0
 34103  1  0  0  0
 35 44  2  0  0  0
 35 45  1  0  0  0
 35 68  1  0  0  0
 36 56  1  0  0  0
 36104  1  0  0  0
 37 39  1  0  0  0
 37 47  1  0  0  0
 37 66  1  0  0  0
 37105  1  0  0  0
 38 43  2  0  0  0
 38 46  1  0  0  0
 38 47  1  0  0  0
 39 64  1  0  0  0
 39 67  2  0  0  0
 40 52  1  0  0  0
 40 53  2  0  0  0
 40 58  1  0  0  0
 41106  1  0  0  0
 41107  1  0  0  0
 41108  1  0  0  0
 41 48  1  0  0  0
 42 43  1  0  0  0
 42 66  1  0  0  0
 42109  1  0  0  0
 42110  1  0  0  0
 43 44  1  0  0  0
 44111  1  0  0  0
 45 46  2  0  0  0
 45112  1  0  0  0
 46113  1  0  0  0
 47114  1  0  0  0
 47115  1  0  0  0
 48 56  1  0  0  0
 48 65  1  0  0  0
 48116  1  0  0  0
 49 50  1  0  0  0
 49 53  1  0  0  0
 49 64  1  0  0  0
 49117  1  0  0  0
 50 51  1  0  0  0
 50118  1  0  0  0
 50119  1  0  0  0
 51 52  1  0  0  0
 51120  1  0  0  0
 51121  1  0  0  0
 52122  1  0  0  0
 52123  1  0  0  0
 53 54  1  0  0  0
 54 55  2  0  0  0
 54124  1  0  0  0
 55 57  1  0  0  0
 55125  1  0  0  0
 56 69  2  0  0  0
 57 58  2  0  0  0
 57126  1  0  0  0
 58127  1  0  0  0
 59 60  1  0  0  0
 59 61  1  0  0  0
 59 62  1  0  0  0
 60128  1  0  0  0
 60129  1  0  0  0
 60130  1  0  0  0
 61131  1  0  0  0
 61132  1  0  0  0
 61133  1  0  0  0
 62134  1  0  0  0
 62135  1  0  0  0
 62136  1  0  0  0
 63 65  1  0  0  0
 63137  1  0  0  0
 63138  1  0  0  0
 63139  1  0  0  0
 64140  1  0  0  0
 65141  1  0  0  0
 68 76  1  0  0  0
 71 72  1  0  0  0
 71 73  2  0  0  0
 71 76  1  0  0  0
 72 74  1  0  0  0
 72 80  2  0  0  0
 73 75  1  0  0  0
 73 81  1  0  0  0
 74142  1  0  0  0
 74143  1  0  0  0
 74144  1  0  0  0
 75145  1  0  0  0
 75146  1  0  0  0
 75147  1  0  0  0
 76148  1  0  0  0
 76149  1  0  0  0
 77 78  1  0  0  0
 77 79  1  0  0  0
 77150  1  0  0  0
 77151  1  0  0  0
 78 81  1  0  0  0
 78152  1  0  0  0
 78153  1  0  0  0
 79 82  1  0  0  0
 79154  1  0  0  0
 79155  1  0  0  0
 80 81  1  0  0  0
 82156  1  0  0  0
M  ISO  4   1 100  68 101  76 101  82 100
M  END
> <chiral flag>
0

> <version>
0

> <s_m_source_file>
/data/baiqing/PycharmProjects/Reinvent-master-3.2/result/LINK_invent/BTK/process_docking_weight1_custom_sum_contain_oxygen_bond_distance_aromatic_linkinvent_7_9_3/rearranged_h_0044.sdf

> <i_m_source_file_index>
44

> <r_mmod_Potential_Energy-OPLS-2005>
107.32430267334

> <r_mmod_Stretch_Energy-OPLS-2005>
117.642372131348

> <r_mmod_Bend_Energy-OPLS-2005>
168.810165405273

> <r_mmod_Torsional_Energy-OPLS-2005>
243.847763061523

> <r_mmod_Improper_Torsional_Energy-OPLS-2005>
5.97320461273193

> <r_mmod_Van_der_Waal_Energy-OPLS-2005>
111.455322265625

> <r_mmod_Electrostatic_Energy-OPLS-2005>
-401.481567382812

> <r_mmod_Solvation_Energy-OPLS-2005>
-223.267059326172

> <b_mmod_Minimization_Converged-OPLS-2005>
0

> <r_mmod_RMS_Derivative-OPLS-2005>
0.847140192985535

$$$$
44
                    3D
 Structure written by MMmdl.
153161  0  0  1  0            999 V2000
  -30.4099  -15.1988   20.3766 C   0  0  0  0  0  0
  -30.4423  -12.7446   19.5576 C   0  0  0  0  0  0
  -29.5460  -12.5688   18.3047 C   0  0  0  0  0  0
  -28.0887  -12.2999   18.7221 C   0  0  0  0  0  0
  -27.6127  -13.2715   19.8299 C   0  0  2  0  0  0
  -28.6355  -13.4084   20.9753 C   0  0  0  0  0  0
  -25.2368  -13.8242   20.5750 C   0  0  0  0  0  0
  -24.1718  -13.0454   20.9251 C   0  0  0  0  0  0
  -24.6374  -11.6949   20.8774 C   0  0  0  0  0  0
  -23.9065  -10.4311   21.0415 C   0  0  0  0  0  0
  -24.3623   -9.4230   21.9199 C   0  0  0  0  0  0
  -23.6310   -8.2256   22.0757 C   0  0  0  0  0  0
  -22.4282   -8.0298   21.3552 C   0  0  0  0  0  0
  -21.9917   -9.0276   20.4661 C   0  0  0  0  0  0
  -22.7232  -10.2151   20.3081 C   0  0  0  0  0  0
  -21.6853   -6.0759   22.5272 C   0  0  0  0  0  0
  -21.4008   -6.5639   23.8202 C   0  0  0  0  0  0
  -21.3665   -5.6790   24.9155 C   0  0  0  0  0  0
  -21.6059   -4.3054   24.7192 C   0  0  0  0  0  0
  -21.8803   -3.8155   23.4301 C   0  0  0  0  0  0
  -21.9188   -4.6996   22.3375 C   0  0  0  0  0  0
  -22.7721  -13.5221   21.1911 C   0  0  0  0  0  0
  -22.1666   -4.2219   21.0948 F   0  0  0  0  0  0
  -21.5650   -3.4505   25.7673 F   0  0  0  0  0  0
  -29.8958  -13.8788   20.3799 N   0  0  0  0  0  0
  -26.2797  -12.9519   20.3203 N   0  0  0  0  0  0
  -25.9306  -11.6635   20.5709 N   0  0  0  0  0  0
  -22.0355  -12.8252   22.0471 N   0  0  0  0  0  0
  -25.4118  -15.1970   20.4272 N   0  0  0  0  0  0
  -31.6157  -15.2411   20.0904 O   0  0  0  0  0  0
  -21.6639   -6.8905   21.4234 O   0  0  0  0  0  0
  -22.3402  -14.5485   20.6700 O   0  0  0  0  0  0
  -24.6575  -31.8328   23.1669 C   0  0  0  0  0  0
  -25.9299  -32.4643   23.8114 C   0  0  1  0  0  0
  -27.2050  -26.9785   20.1707 C   0  0  0  0  0  0
  -25.5990  -33.8440   24.2085 N   0  0  0  0  0  0
  -23.4656  -30.4404   21.5266 C   0  0  2  0  0  0
  -24.9099  -28.8279   20.1168 C   0  0  0  0  0  0
  -22.7607  -29.4505   22.4900 C   0  0  0  0  0  0
  -18.0301  -28.1475   22.8478 C   0  0  0  0  0  0
  -24.1486  -36.7224   23.2631 C   0  0  0  0  0  0
  -26.0278  -30.6566   21.3789 C   0  0  0  0  0  0
  -26.0978  -29.2455   20.7313 C   0  0  0  0  0  0
  -27.2467  -28.3447   20.7194 C   0  0  0  0  0  0
  -25.9818  -26.6898   19.5292 C   0  0  0  0  0  0
  -24.8733  -27.5688   19.4997 C   0  0  0  0  0  0
  -23.6958  -29.7519   20.1548 C   0  0  0  0  0  0
  -25.4115  -36.2986   24.0308 C   0  0  1  0  0  0
  -20.5890  -28.3806   23.1253 C   0  0  2  0  0  0
  -20.6796  -26.9508   22.5416 C   0  0  0  0  0  0
  -19.5784  -26.6441   21.5232 C   0  0  0  0  0  0
  -18.1964  -26.8003   22.1623 C   0  0  0  0  0  0
  -19.1535  -28.8948   23.2861 C   0  0  0  0  0  0
  -18.9460  -30.1539   23.8893 C   0  0  0  0  0  0
  -17.6472  -30.6646   24.0570 C   0  0  0  0  0  0
  -25.9091  -34.9388   23.5006 C   0  0  0  0  0  0
  -16.5376  -29.9146   23.6348 C   0  0  0  0  0  0
  -16.7286  -28.6568   23.0353 C   0  0  0  0  0  0
  -26.4540  -31.6511   25.0602 C   0  0  0  0  0  0
  -25.3691  -31.3744   26.1280 C   0  0  0  0  0  0
  -27.0347  -30.2871   24.6200 C   0  0  0  0  0  0
  -27.6033  -32.4278   25.7442 C   0  0  0  0  0  0
  -27.5562  -37.1760   24.8469 C   0  0  0  0  0  0
  -21.4285  -29.3070   22.3597 N   0  0  0  0  0  0
  -26.4263  -37.3715   23.9421 N   0  0  0  0  0  0
  -24.7396  -30.9971   22.0823 N   0  0  0  0  0  0
  -23.4157  -28.8116   23.3176 O   0  0  0  0  0  0
  -28.2495  -25.9388   20.1436 O   0  0  0  0  0  0
  -26.5673  -34.8891   22.4589 O   0  0  0  0  0  0
  -23.5663  -32.1325   23.6797 O   0  0  0  0  0  0
  -28.6891  -21.3955   19.5603 C   0  0  0  0  0  0
  -28.4953  -22.9817   19.6297 C   0  0  0  0  0  0
  -28.3491  -21.2429   18.2234 C   0  0  0  0  0  0
  -27.8191  -20.1099   17.4029 C   0  0  0  0  0  0
  -30.1536  -18.3021   18.5773 C   0  0  0  0  0  0
  -28.8987  -19.8975   20.4367 C   0  0  0  0  0  0
  -28.1253  -24.3670   20.5557 C   0  0  0  0  0  0
  -29.5442  -16.6918   20.6262 C   0  0  0  0  0  0
  -29.7845  -18.3720   20.0676 C   0  0  1  0  0  0
  -28.5369  -23.4486   18.3917 N   0  0  0  0  0  0
  -28.4081  -22.3875   17.5190 O   0  0  0  0  0  0
  -31.4733  -12.9298   19.2585 H   0  0  0  0  0  0
  -30.4636  -11.8242   20.1451 H   0  0  0  0  0  0
  -29.9180  -11.7488   17.6879 H   0  0  0  0  0  0
  -29.5954  -13.4700   17.6869 H   0  0  0  0  0  0
  -28.0432  -11.2796   19.1057 H   0  0  0  0  0  0
  -27.4293  -12.3403   17.8546 H   0  0  0  0  0  0
  -27.5358  -14.2431   19.3407 H   0  0  0  0  0  0
  -28.7708  -12.4603   21.4986 H   0  0  0  0  0  0
  -28.2783  -14.1227   21.7206 H   0  0  0  0  0  0
  -25.2736   -9.5737   22.4814 H   0  0  0  0  0  0
  -24.0034   -7.4630   22.7468 H   0  0  0  0  0  0
  -21.0840   -8.8790   19.8966 H   0  0  0  0  0  0
  -22.3657  -10.9720   19.6237 H   0  0  0  0  0  0
  -21.2006   -7.6137   23.9734 H   0  0  0  0  0  0
  -21.1508   -6.0498   25.9069 H   0  0  0  0  0  0
  -22.0596   -2.7632   23.2743 H   0  0  0  0  0  0
  -22.3909  -11.9888   22.4823 H   0  0  0  0  0  0
  -21.0975  -13.1277   22.2732 H   0  0  0  0  0  0
  -24.6648  -15.8707   20.5559 H   0  0  0  0  0  0
  -26.2738  -15.6140   20.1043 H   0  0  0  0  0  0
  -26.7390  -32.5221   23.0853 H   0  0  0  0  0  0
  -25.0108  -33.9520   25.0215 H   0  0  0  0  0  0
  -22.7769  -31.2726   21.3580 H   0  0  0  0  0  0
  -23.3757  -35.9545   23.3273 H   0  0  0  0  0  0
  -24.3565  -36.8858   22.2039 H   0  0  0  0  0  0
  -23.7225  -37.6405   23.6693 H   0  0  0  0  0  0
  -26.1742  -31.4008   20.5918 H   0  0  0  0  0  0
  -26.9052  -30.7342   22.0108 H   0  0  0  0  0  0
  -28.1657  -28.6679   21.1834 H   0  0  0  0  0  0
  -25.8610  -25.7260   19.0522 H   0  0  0  0  0  0
  -23.9611  -27.2431   19.0186 H   0  0  0  0  0  0
  -23.8493  -30.5210   19.3979 H   0  0  0  0  0  0
  -22.8037  -29.2087   19.8456 H   0  0  0  0  0  0
  -25.1298  -36.1784   25.0802 H   0  0  0  0  0  0
  -20.9964  -28.3437   24.1397 H   0  0  0  0  0  0
  -20.5737  -26.2429   23.3642 H   0  0  0  0  0  0
  -21.6668  -26.7586   22.1193 H   0  0  0  0  0  0
  -19.6962  -25.6347   21.1310 H   0  0  0  0  0  0
  -19.6714  -27.3208   20.6742 H   0  0  0  0  0  0
  -17.4223  -26.6746   21.4048 H   0  0  0  0  0  0
  -18.0377  -26.0151   22.9026 H   0  0  0  0  0  0
  -19.7929  -30.7357   24.2238 H   0  0  0  0  0  0
  -17.5023  -31.6304   24.5222 H   0  0  0  0  0  0
  -15.5376  -30.3053   23.7673 H   0  0  0  0  0  0
  -15.8684  -28.0896   22.7081 H   0  0  0  0  0  0
  -24.5911  -30.7028   25.7636 H   0  0  0  0  0  0
  -24.8821  -32.2910   26.4600 H   0  0  0  0  0  0
  -25.7975  -30.9011   27.0117 H   0  0  0  0  0  0
  -26.2945  -29.6656   24.1135 H   0  0  0  0  0  0
  -27.3840  -29.7114   25.4779 H   0  0  0  0  0  0
  -27.8906  -30.4052   23.9552 H   0  0  0  0  0  0
  -27.2593  -33.3598   26.1938 H   0  0  0  0  0  0
  -28.3901  -32.6802   25.0335 H   0  0  0  0  0  0
  -28.0608  -31.8423   26.5416 H   0  0  0  0  0  0
  -28.2568  -38.0061   24.7487 H   0  0  0  0  0  0
  -28.1056  -36.2585   24.6329 H   0  0  0  0  0  0
  -27.2277  -37.1437   25.8867 H   0  0  0  0  0  0
  -20.9575  -29.8649   21.6607 H   0  0  0  0  0  0
  -26.0115  -38.2772   24.1436 H   0  0  0  0  0  0
  -28.5384  -19.7612   16.6627 H   0  0  0  0  0  0
  -26.9386  -20.4467   16.8469 H   0  0  0  0  0  0
  -27.4882  -19.2753   18.0221 H   0  0  0  0  0  0
  -29.3200  -17.9578   17.9691 H   0  0  0  0  0  0
  -30.9642  -17.5884   18.4168 H   0  0  0  0  0  0
  -30.4961  -19.2670   18.1951 H   0  0  0  0  0  0
  -27.8835  -19.5336   20.5987 H   0  0  0  0  0  0
  -29.2084  -20.1639   21.4498 H   0  0  0  0  0  0
  -28.6899  -24.2930   21.4876 H   0  0  0  0  0  0
  -27.0929  -24.2548   20.8754 H   0  0  0  0  0  0
  -28.5179  -16.4424   20.3591 H   0  0  0  0  0  0
  -29.5011  -16.7606   21.7152 H   0  0  0  0  0  0
  -30.7519  -18.5915   20.5223 H   0  0  0  0  0  0
  1 25  1  0  0  0
  1 30  2  0  0  0
  1 78  1  0  0  0
  2  3  1  0  0  0
  2 25  1  0  0  0
  2 82  1  0  0  0
  2 83  1  0  0  0
  3  4  1  0  0  0
  3 84  1  0  0  0
  3 85  1  0  0  0
  4  5  1  0  0  0
  4 86  1  0  0  0
  4 87  1  0  0  0
  5  6  1  0  0  0
  5 26  1  0  0  0
  5 88  1  0  0  0
  6 25  1  0  0  0
  6 89  1  0  0  0
  6 90  1  0  0  0
  7  8  2  0  0  0
  7 26  1  0  0  0
  7 29  1  0  0  0
  8  9  1  0  0  0
  8 22  1  0  0  0
  9 10  1  0  0  0
  9 27  2  0  0  0
 10 11  2  0  0  0
 10 15  1  0  0  0
 11 12  1  0  0  0
 11 91  1  0  0  0
 12 13  2  0  0  0
 12 92  1  0  0  0
 13 14  1  0  0  0
 13 31  1  0  0  0
 14 15  2  0  0  0
 14 93  1  0  0  0
 15 94  1  0  0  0
 16 17  2  0  0  0
 16 21  1  0  0  0
 16 31  1  0  0  0
 17 18  1  0  0  0
 17 95  1  0  0  0
 18 19  2  0  0  0
 18 96  1  0  0  0
 19 20  1  0  0  0
 19 24  1  0  0  0
 20 21  2  0  0  0
 20 97  1  0  0  0
 21 23  1  0  0  0
 22 28  1  0  0  0
 22 32  2  0  0  0
 26 27  1  0  0  0
 28 98  1  0  0  0
 28 99  1  0  0  0
 29100  1  0  0  0
 29101  1  0  0  0
 33 34  1  0  0  0
 33 66  1  0  0  0
 33 70  2  0  0  0
 34 36  1  0  0  0
 34 59  1  0  0  0
 34102  1  0  0  0
 35 44  2  0  0  0
 35 45  1  0  0  0
 35 68  1  0  0  0
 36 56  1  0  0  0
 36103  1  0  0  0
 37 39  1  0  0  0
 37 47  1  0  0  0
 37 66  1  0  0  0
 37104  1  0  0  0
 38 43  2  0  0  0
 38 46  1  0  0  0
 38 47  1  0  0  0
 39 64  1  0  0  0
 39 67  2  0  0  0
 40 52  1  0  0  0
 40 53  2  0  0  0
 40 58  1  0  0  0
 41105  1  0  0  0
 41106  1  0  0  0
 41107  1  0  0  0
 41 48  1  0  0  0
 42 43  1  0  0  0
 42 66  1  0  0  0
 42108  1  0  0  0
 42109  1  0  0  0
 43 44  1  0  0  0
 44110  1  0  0  0
 45 46  2  0  0  0
 45111  1  0  0  0
 46112  1  0  0  0
 47113  1  0  0  0
 47114  1  0  0  0
 48 56  1  0  0  0
 48 65  1  0  0  0
 48115  1  0  0  0
 49 50  1  0  0  0
 49 53  1  0  0  0
 49 64  1  0  0  0
 49116  1  0  0  0
 50 51  1  0  0  0
 50117  1  0  0  0
 50118  1  0  0  0
 51 52  1  0  0  0
 51119  1  0  0  0
 51120  1  0  0  0
 52121  1  0  0  0
 52122  1  0  0  0
 53 54  1  0  0  0
 54 55  2  0  0  0
 54123  1  0  0  0
 55 57  1  0  0  0
 55124  1  0  0  0
 56 69  2  0  0  0
 57 58  2  0  0  0
 57125  1  0  0  0
 58126  1  0  0  0
 59 60  1  0  0  0
 59 61  1  0  0  0
 59 62  1  0  0  0
 60127  1  0  0  0
 60128  1  0  0  0
 60129  1  0  0  0
 61130  1  0  0  0
 61131  1  0  0  0
 61132  1  0  0  0
 62133  1  0  0  0
 62134  1  0  0  0
 62135  1  0  0  0
 63 65  1  0  0  0
 63136  1  0  0  0
 63137  1  0  0  0
 63138  1  0  0  0
 64139  1  0  0  0
 65140  1  0  0  0
 68 77  1  0  0  0
 71 72  1  0  0  0
 71 73  2  0  0  0
 71 76  1  0  0  0
 72 77  1  0  0  0
 72 80  2  0  0  0
 73 74  1  0  0  0
 73 81  1  0  0  0
 74141  1  0  0  0
 74142  1  0  0  0
 74143  1  0  0  0
 75144  1  0  0  0
 75145  1  0  0  0
 75146  1  0  0  0
 75 79  1  0  0  0
 76 79  1  0  0  0
 76147  1  0  0  0
 76148  1  0  0  0
 77149  1  0  0  0
 77150  1  0  0  0
 78 79  1  0  0  0
 78151  1  0  0  0
 78152  1  0  0  0
 79153  1  0  0  0
 80 81  1  0  0  0
M  ISO  4   1 100  68 101  77 101  78 100
M  END
> <chiral flag>
0

> <version>
0

> <s_m_source_file>
/data/baiqing/PycharmProjects/Reinvent-master-3.2/result/LINK_invent/BTK/process_docking_weight1_custom_sum_contain_oxygen_bond_distance_aromatic_linkinvent_7_9_3/rearranged_h_0044.sdf

> <i_m_source_file_index>
45

> <r_mmod_Potential_Energy-OPLS-2005>
1212.09130859375

> <r_mmod_Stretch_Energy-OPLS-2005>
572.732849121094

> <r_mmod_Bend_Energy-OPLS-2005>
440.245025634766

> <r_mmod_Torsional_Energy-OPLS-2005>
221.310272216797

> <r_mmod_Improper_Torsional_Energy-OPLS-2005>
4.63481569290161

> <r_mmod_Van_der_Waal_Energy-OPLS-2005>
103.386085510254

> <r_mmod_Electrostatic_Energy-OPLS-2005>
-296.827819824219

> <r_mmod_Solvation_Energy-OPLS-2005>
-215.777755737305

> <b_mmod_Minimization_Converged-OPLS-2005>
0

> <r_mmod_RMS_Derivative-OPLS-2005>
6.55374097824097

$$$$
45
                    3D
 Structure written by MMmdl.
157165  0  0  1  0            999 V2000
  -30.6108  -14.7152   20.4795 C   0  0  0  0  0  0
  -30.4418  -12.4422   19.4458 C   0  0  0  0  0  0
  -29.4955  -12.4622   18.2240 C   0  0  0  0  0  0
  -28.0294  -12.2871   18.6658 C   0  0  0  0  0  0
  -27.6400  -13.2136   19.8454 C   0  0  2  0  0  0
  -28.6952  -13.1398   20.9703 C   0  0  0  0  0  0
  -25.2542  -13.8136   20.5751 C   0  0  0  0  0  0
  -24.1807  -13.0398   20.9228 C   0  0  0  0  0  0
  -24.6384  -11.6885   20.8786 C   0  0  0  0  0  0
  -23.9064  -10.4267   21.0404 C   0  0  0  0  0  0
  -24.3603   -9.4192   21.9200 C   0  0  0  0  0  0
  -23.6273   -8.2230   22.0789 C   0  0  0  0  0  0
  -22.4273   -8.0251   21.3546 C   0  0  0  0  0  0
  -21.9910   -9.0235   20.4655 C   0  0  0  0  0  0
  -22.7236  -10.2106   20.3056 C   0  0  0  0  0  0
  -21.6852   -6.0699   22.5274 C   0  0  0  0  0  0
  -21.3990   -6.5611   23.8208 C   0  0  0  0  0  0
  -21.3659   -5.6774   24.9174 C   0  0  0  0  0  0
  -21.6044   -4.3040   24.7236 C   0  0  0  0  0  0
  -21.8816   -3.8125   23.4364 C   0  0  0  0  0  0
  -21.9205   -4.6929   22.3402 C   0  0  0  0  0  0
  -22.7838  -13.5192   21.1883 C   0  0  0  0  0  0
  -22.1667   -4.2114   21.0981 F   0  0  0  0  0  0
  -21.5654   -3.4543   25.7762 F   0  0  0  0  0  0
  -29.9904  -13.4944   20.3788 N   0  0  0  0  0  0
  -26.2945  -12.9322   20.3344 N   0  0  0  0  0  0
  -25.9294  -11.6478   20.5804 N   0  0  0  0  0  0
  -22.0484  -12.8165   22.0415 N   0  0  0  0  0  0
  -25.4219  -15.1857   20.4178 N   0  0  0  0  0  0
  -31.8109  -14.8311   20.2137 O   0  0  0  0  0  0
  -21.6627   -6.8839   21.4235 O   0  0  0  0  0  0
  -22.3559  -14.5516   20.6755 O   0  0  0  0  0  0
  -24.6344  -31.8548   23.1964 C   0  0  0  0  0  0
  -25.9155  -32.4747   23.8292 C   0  0  1  0  0  0
  -27.2185  -27.2468   20.1219 C   0  0  0  0  0  0
  -25.5969  -33.8542   24.2251 N   0  0  0  0  0  0
  -23.4252  -30.4783   21.5464 C   0  0  2  0  0  0
  -24.8717  -28.9276   20.1109 C   0  0  0  0  0  0
  -22.7499  -29.4582   22.4984 C   0  0  0  0  0  0
  -18.0288  -28.1346   22.8497 C   0  0  0  0  0  0
  -24.1474  -36.7214   23.2650 C   0  0  0  0  0  0
  -25.9764  -30.7651   21.3747 C   0  0  0  0  0  0
  -26.0471  -29.3888   20.7157 C   0  0  0  0  0  0
  -27.2195  -28.5616   20.7100 C   0  0  0  0  0  0
  -26.0126  -26.8631   19.4881 C   0  0  0  0  0  0
  -24.8636  -27.6741   19.4875 C   0  0  0  0  0  0
  -23.6353  -29.8041   20.1680 C   0  0  0  0  0  0
  -25.4126  -36.3046   24.0320 C   0  0  1  0  0  0
  -20.5878  -28.3634   23.1311 C   0  0  2  0  0  0
  -20.6798  -26.9374   22.5385 C   0  0  0  0  0  0
  -19.5749  -26.6369   21.5207 C   0  0  0  0  0  0
  -18.1925  -26.7896   22.1604 C   0  0  0  0  0  0
  -19.1541  -28.8821   23.2868 C   0  0  0  0  0  0
  -18.9451  -30.1447   23.8814 C   0  0  0  0  0  0
  -17.6471  -30.6553   24.0566 C   0  0  0  0  0  0
  -25.9062  -34.9430   23.5080 C   0  0  0  0  0  0
  -16.5364  -29.9025   23.6415 C   0  0  0  0  0  0
  -16.7270  -28.6467   23.0375 C   0  0  0  0  0  0
  -26.4568  -31.6580   25.0671 C   0  0  0  0  0  0
  -25.3798  -31.3556   26.1368 C   0  0  0  0  0  0
  -27.0560  -30.3120   24.6075 C   0  0  0  0  0  0
  -27.6070  -32.4437   25.7429 C   0  0  0  0  0  0
  -27.5538  -37.1762   24.8513 C   0  0  0  0  0  0
  -21.4207  -29.2993   22.3727 N   0  0  0  0  0  0
  -26.4296  -37.3758   23.9416 N   0  0  0  0  0  0
  -24.6976  -31.0479   22.0953 N   0  0  0  0  0  0
  -23.4242  -28.8149   23.3062 O   0  0  0  0  0  0
  -28.3262  -26.3623   20.2179 O   0  0  0  0  0  0
  -26.5575  -34.8899   22.4618 O   0  0  0  0  0  0
  -23.5495  -32.1380   23.7279 O   0  0  0  0  0  0
  -28.6722  -22.2983   20.0618 C   0  0  0  0  0  0
  -29.1061  -21.2304   20.9351 C   0  0  0  0  0  0
  -28.7894  -23.6787   20.5010 C   0  0  0  0  0  0
  -29.6744  -22.8710   22.4766 C   0  0  0  0  0  0
  -28.0710  -21.9663   18.6972 C   0  0  0  0  0  0
  -30.1019  -23.1812   23.9009 C   0  0  0  0  0  0
  -28.8021  -19.6694   20.7914 C   0  0  0  0  0  0
  -28.3224  -24.9582   19.6554 C   0  0  0  0  0  0
  -29.8686  -18.5581   20.3043 C   0  0  0  0  0  0
  -30.1682  -17.2234   21.1765 C   0  0  0  0  0  0
  -29.6138  -21.5803   22.1368 N   0  0  0  0  0  0
  -29.3067  -23.9107   21.7266 N   0  0  0  0  0  0
  -29.8127  -15.8200   20.7063 N   0  0  0  0  0  0
  -31.4739  -12.5929   19.1263 H   0  0  0  0  0  0
  -30.4214  -11.4699   19.9410 H   0  0  0  0  0  0
  -29.7617  -11.6594   17.5340 H   0  0  0  0  0  0
  -29.6106  -13.3950   17.6685 H   0  0  0  0  0  0
  -27.9148  -11.2470   18.9785 H   0  0  0  0  0  0
  -27.3491  -12.4225   17.8239 H   0  0  0  0  0  0
  -27.6320  -14.2269   19.4455 H   0  0  0  0  0  0
  -28.7393  -12.1327   21.3930 H   0  0  0  0  0  0
  -28.4421  -13.8071   21.7966 H   0  0  0  0  0  0
  -25.2720   -9.5671   22.4825 H   0  0  0  0  0  0
  -23.9972   -7.4619   22.7526 H   0  0  0  0  0  0
  -21.0857   -8.8700   19.8955 H   0  0  0  0  0  0
  -22.3663  -10.9634   19.6183 H   0  0  0  0  0  0
  -21.1928   -7.6116   23.9686 H   0  0  0  0  0  0
  -21.1493   -6.0516   25.9073 H   0  0  0  0  0  0
  -22.0594   -2.7588   23.2879 H   0  0  0  0  0  0
  -22.4096  -11.9752   22.4670 H   0  0  0  0  0  0
  -21.1127  -13.1194   22.2682 H   0  0  0  0  0  0
  -24.6511  -15.8334   20.5327 H   0  0  0  0  0  0
  -26.2617  -15.6293   20.0714 H   0  0  0  0  0  0
  -26.7170  -32.5425   23.0964 H   0  0  0  0  0  0
  -25.0316  -33.9710   25.0528 H   0  0  0  0  0  0
  -22.7184  -31.2989   21.3980 H   0  0  0  0  0  0
  -23.3791  -35.9487   23.3316 H   0  0  0  0  0  0
  -24.3559  -36.8860   22.2065 H   0  0  0  0  0  0
  -23.7181  -37.6387   23.6689 H   0  0  0  0  0  0
  -26.1036  -31.5211   20.5997 H   0  0  0  0  0  0
  -26.8612  -30.8213   21.9962 H   0  0  0  0  0  0
  -28.1207  -28.9049   21.2005 H   0  0  0  0  0  0
  -25.8773  -25.9121   19.0073 H   0  0  0  0  0  0
  -23.9590  -27.3073   19.0197 H   0  0  0  0  0  0
  -23.7238  -30.5716   19.3990 H   0  0  0  0  0  0
  -22.7585  -29.2127   19.8905 H   0  0  0  0  0  0
  -25.1308  -36.1861   25.0814 H   0  0  0  0  0  0
  -20.9945  -28.3137   24.1428 H   0  0  0  0  0  0
  -20.5800  -26.2167   23.3517 H   0  0  0  0  0  0
  -21.6638  -26.7441   22.1087 H   0  0  0  0  0  0
  -19.6921  -25.6305   21.1170 H   0  0  0  0  0  0
  -19.6718  -27.3210   20.6772 H   0  0  0  0  0  0
  -17.4222  -26.6713   21.3986 H   0  0  0  0  0  0
  -18.0269  -26.0010   22.8940 H   0  0  0  0  0  0
  -19.7932  -30.7328   24.2096 H   0  0  0  0  0  0
  -17.5007  -31.6224   24.5142 H   0  0  0  0  0  0
  -15.5364  -30.2861   23.7845 H   0  0  0  0  0  0
  -15.8676  -28.0807   22.7089 H   0  0  0  0  0  0
  -24.5923  -30.7042   25.7546 H   0  0  0  0  0  0
  -24.9040  -32.2631   26.5068 H   0  0  0  0  0  0
  -25.8131  -30.8446   26.9964 H   0  0  0  0  0  0
  -26.3183  -29.6702   24.1276 H   0  0  0  0  0  0
  -27.4595  -29.7521   25.4496 H   0  0  0  0  0  0
  -27.8788  -30.4568   23.9097 H   0  0  0  0  0  0
  -27.2649  -33.3779   26.1873 H   0  0  0  0  0  0
  -28.3865  -32.7001   25.0239 H   0  0  0  0  0  0
  -28.0711  -31.8675   26.5425 H   0  0  0  0  0  0
  -28.2601  -38.0012   24.7597 H   0  0  0  0  0  0
  -28.1021  -36.2575   24.6389 H   0  0  0  0  0  0
  -27.2217  -37.1418   25.8904 H   0  0  0  0  0  0
  -20.9373  -29.8735   21.6959 H   0  0  0  0  0  0
  -26.0157  -38.2824   24.1479 H   0  0  0  0  0  0
  -28.4338  -21.0108   18.3160 H   0  0  0  0  0  0
  -28.3360  -22.7149   17.9503 H   0  0  0  0  0  0
  -26.9818  -21.9155   18.7352 H   0  0  0  0  0  0
  -30.2358  -22.2799   24.5006 H   0  0  0  0  0  0
  -29.3398  -23.7809   24.4005 H   0  0  0  0  0  0
  -31.0340  -23.7467   23.9323 H   0  0  0  0  0  0
  -27.9088  -19.5605   20.1745 H   0  0  0  0  0  0
  -28.4560  -19.3602   21.7782 H   0  0  0  0  0  0
  -27.3740  -24.6621   19.2247 H   0  0  0  0  0  0
  -28.9909  -24.9960   18.7930 H   0  0  0  0  0  0
  -30.8208  -19.0819   20.1982 H   0  0  0  0  0  0
  -29.6170  -18.2637   19.2846 H   0  0  0  0  0  0
  -29.6975  -17.3442   22.1539 H   0  0  0  0  0  0
  -31.2382  -17.2087   21.4006 H   0  0  0  0  0  0
  -28.8274  -15.6040   20.7487 H   0  0  0  0  0  0
  1 25  1  0  0  0
  1 30  2  0  0  0
  1 83  1  0  0  0
  2  3  1  0  0  0
  2 25  1  0  0  0
  2 84  1  0  0  0
  2 85  1  0  0  0
  3  4  1  0  0  0
  3 86  1  0  0  0
  3 87  1  0  0  0
  4  5  1  0  0  0
  4 88  1  0  0  0
  4 89  1  0  0  0
  5  6  1  0  0  0
  5 26  1  0  0  0
  5 90  1  0  0  0
  6 25  1  0  0  0
  6 91  1  0  0  0
  6 92  1  0  0  0
  7  8  2  0  0  0
  7 26  1  0  0  0
  7 29  1  0  0  0
  8  9  1  0  0  0
  8 22  1  0  0  0
  9 10  1  0  0  0
  9 27  2  0  0  0
 10 11  2  0  0  0
 10 15  1  0  0  0
 11 12  1  0  0  0
 11 93  1  0  0  0
 12 13  2  0  0  0
 12 94  1  0  0  0
 13 14  1  0  0  0
 13 31  1  0  0  0
 14 15  2  0  0  0
 14 95  1  0  0  0
 15 96  1  0  0  0
 16 17  2  0  0  0
 16 21  1  0  0  0
 16 31  1  0  0  0
 17 18  1  0  0  0
 17 97  1  0  0  0
 18 19  2  0  0  0
 18 98  1  0  0  0
 19 20  1  0  0  0
 19 24  1  0  0  0
 20 21  2  0  0  0
 20 99  1  0  0  0
 21 23  1  0  0  0
 22 28  1  0  0  0
 22 32  2  0  0  0
 26 27  1  0  0  0
 28100  1  0  0  0
 28101  1  0  0  0
 29102  1  0  0  0
 29103  1  0  0  0
 33 34  1  0  0  0
 33 66  1  0  0  0
 33 70  2  0  0  0
 34 36  1  0  0  0
 34 59  1  0  0  0
 34104  1  0  0  0
 35 44  2  0  0  0
 35 45  1  0  0  0
 35 68  1  0  0  0
 36 56  1  0  0  0
 36105  1  0  0  0
 37 39  1  0  0  0
 37 47  1  0  0  0
 37 66  1  0  0  0
 37106  1  0  0  0
 38 43  2  0  0  0
 38 46  1  0  0  0
 38 47  1  0  0  0
 39 64  1  0  0  0
 39 67  2  0  0  0
 40 52  1  0  0  0
 40 53  2  0  0  0
 40 58  1  0  0  0
 41107  1  0  0  0
 41108  1  0  0  0
 41109  1  0  0  0
 41 48  1  0  0  0
 42 43  1  0  0  0
 42 66  1  0  0  0
 42110  1  0  0  0
 42111  1  0  0  0
 43 44  1  0  0  0
 44112  1  0  0  0
 45 46  2  0  0  0
 45113  1  0  0  0
 46114  1  0  0  0
 47115  1  0  0  0
 47116  1  0  0  0
 48 56  1  0  0  0
 48 65  1  0  0  0
 48117  1  0  0  0
 49 50  1  0  0  0
 49 53  1  0  0  0
 49 64  1  0  0  0
 49118  1  0  0  0
 50 51  1  0  0  0
 50119  1  0  0  0
 50120  1  0  0  0
 51 52  1  0  0  0
 51121  1  0  0  0
 51122  1  0  0  0
 52123  1  0  0  0
 52124  1  0  0  0
 53 54  1  0  0  0
 54 55  2  0  0  0
 54125  1  0  0  0
 55 57  1  0  0  0
 55126  1  0  0  0
 56 69  2  0  0  0
 57 58  2  0  0  0
 57127  1  0  0  0
 58128  1  0  0  0
 59 60  1  0  0  0
 59 61  1  0  0  0
 59 62  1  0  0  0
 60129  1  0  0  0
 60130  1  0  0  0
 60131  1  0  0  0
 61132  1  0  0  0
 61133  1  0  0  0
 61134  1  0  0  0
 62135  1  0  0  0
 62136  1  0  0  0
 62137  1  0  0  0
 63 65  1  0  0  0
 63138  1  0  0  0
 63139  1  0  0  0
 63140  1  0  0  0
 64141  1  0  0  0
 65142  1  0  0  0
 68 78  1  0  0  0
 71 72  2  0  0  0
 71 73  1  0  0  0
 71 75  1  0  0  0
 72 77  1  0  0  0
 72 81  1  0  0  0
 73 78  1  0  0  0
 73 82  2  0  0  0
 74 76  1  0  0  0
 74 81  2  0  0  0
 74 82  1  0  0  0
 75143  1  0  0  0
 75144  1  0  0  0
 75145  1  0  0  0
 76146  1  0  0  0
 76147  1  0  0  0
 76148  1  0  0  0
 77 79  1  0  0  0
 77149  1  0  0  0
 77150  1  0  0  0
 78151  1  0  0  0
 78152  1  0  0  0
 79 80  1  0  0  0
 79153  1  0  0  0
 79154  1  0  0  0
 80 83  1  0  0  0
 80155  1  0  0  0
 80156  1  0  0  0
 83157  1  0  0  0
M  ISO  4   1 100  68 101  78 101  83 100
M  END
> <chiral flag>
0

> <version>
0

> <s_m_source_file>
/data/baiqing/PycharmProjects/Reinvent-master-3.2/result/LINK_invent/BTK/process_docking_weight1_custom_sum_contain_oxygen_bond_distance_aromatic_linkinvent_7_9_3/rearranged_h_0044.sdf

> <i_m_source_file_index>
46

> <r_mmod_Potential_Energy-OPLS-2005>
-212.054260253906

> <r_mmod_Stretch_Energy-OPLS-2005>
121.020347595215

> <r_mmod_Bend_Energy-OPLS-2005>
186.625045776367

> <r_mmod_Torsional_Energy-OPLS-2005>
229.389801025391

> <r_mmod_Improper_Torsional_Energy-OPLS-2005>
5.85590553283691

> <r_mmod_Van_der_Waal_Energy-OPLS-2005>
149.167739868164

> <r_mmod_Electrostatic_Energy-OPLS-2005>
-742.43505859375

> <r_mmod_Solvation_Energy-OPLS-2005>
-246.410507202148

> <b_mmod_Minimization_Converged-OPLS-2005>
0

> <r_mmod_RMS_Derivative-OPLS-2005>
6.09617328643799

$$$$
46
                    3D
 Structure written by MMmdl.
151159  0  0  1  0            999 V2000
  -30.4990  -14.9678   20.4118 C   0  0  0  0  0  0
  -30.4645  -12.5945   19.4978 C   0  0  0  0  0  0
  -29.5334  -12.5316   18.2610 C   0  0  0  0  0  0
  -28.0652  -12.3065   18.6761 C   0  0  0  0  0  0
  -27.6378  -13.2393   19.8358 C   0  0  2  0  0  0
  -28.6812  -13.2587   20.9720 C   0  0  0  0  0  0
  -25.2556  -13.8191   20.5715 C   0  0  0  0  0  0
  -24.1847  -13.0432   20.9196 C   0  0  0  0  0  0
  -24.6438  -11.6910   20.8737 C   0  0  0  0  0  0
  -23.9106  -10.4286   21.0404 C   0  0  0  0  0  0
  -24.3652   -9.4201   21.9190 C   0  0  0  0  0  0
  -23.6305   -8.2248   22.0774 C   0  0  0  0  0  0
  -22.4280   -8.0297   21.3562 C   0  0  0  0  0  0
  -21.9917   -9.0278   20.4671 C   0  0  0  0  0  0
  -22.7270  -10.2145   20.3063 C   0  0  0  0  0  0
  -21.6866   -6.0751   22.5280 C   0  0  0  0  0  0
  -21.4015   -6.5655   23.8211 C   0  0  0  0  0  0
  -21.3646   -5.6805   24.9171 C   0  0  0  0  0  0
  -21.6024   -4.3063   24.7229 C   0  0  0  0  0  0
  -21.8815   -3.8162   23.4352 C   0  0  0  0  0  0
  -21.9200   -4.6978   22.3408 C   0  0  0  0  0  0
  -22.7876  -13.5221   21.1879 C   0  0  0  0  0  0
  -22.1670   -4.2161   21.0989 F   0  0  0  0  0  0
  -21.5620   -3.4544   25.7744 F   0  0  0  0  0  0
  -29.9686  -13.6750   20.3956 N   0  0  0  0  0  0
  -26.2960  -12.9397   20.3237 N   0  0  0  0  0  0
  -25.9368  -11.6533   20.5710 N   0  0  0  0  0  0
  -22.0539  -12.8204   22.0432 N   0  0  0  0  0  0
  -25.4281  -15.1916   20.4203 N   0  0  0  0  0  0
  -31.6962  -15.0761   20.1166 O   0  0  0  0  0  0
  -21.6649   -6.8899   21.4242 O   0  0  0  0  0  0
  -22.3566  -14.5541   20.6752 O   0  0  0  0  0  0
  -24.6441  -31.8438   23.1875 C   0  0  0  0  0  0
  -25.9199  -32.4694   23.8287 C   0  0  1  0  0  0
  -27.2346  -27.1408   20.1519 C   0  0  0  0  0  0
  -25.5956  -33.8489   24.2215 N   0  0  0  0  0  0
  -23.4522  -30.4633   21.5292 C   0  0  2  0  0  0
  -24.9051  -28.8889   20.1067 C   0  0  0  0  0  0
  -22.7587  -29.4557   22.4802 C   0  0  0  0  0  0
  -18.0335  -28.1379   22.8459 C   0  0  0  0  0  0
  -24.1496  -36.7249   23.2645 C   0  0  0  0  0  0
  -26.0071  -30.7203   21.3869 C   0  0  0  0  0  0
  -26.0805  -29.3309   20.7287 C   0  0  0  0  0  0
  -27.2430  -28.4736   20.7337 C   0  0  0  0  0  0
  -26.0352  -26.8048   19.4829 C   0  0  0  0  0  0
  -24.8956  -27.6402   19.4673 C   0  0  0  0  0  0
  -23.6791  -29.7881   20.1502 C   0  0  0  0  0  0
  -25.4122  -36.3017   24.0325 C   0  0  1  0  0  0
  -20.5952  -28.3713   23.1206 C   0  0  2  0  0  0
  -20.6839  -26.9450   22.5286 C   0  0  0  0  0  0
  -19.5799  -26.6511   21.5074 C   0  0  0  0  0  0
  -18.1986  -26.7960   22.1504 C   0  0  0  0  0  0
  -19.1586  -28.8834   23.2879 C   0  0  0  0  0  0
  -18.9498  -30.1421   23.8937 C   0  0  0  0  0  0
  -17.6484  -30.6554   24.0570 C   0  0  0  0  0  0
  -25.9067  -34.9401   23.5073 C   0  0  0  0  0  0
  -16.5386  -29.9054   23.6306 C   0  0  0  0  0  0
  -16.7304  -28.6470   23.0333 C   0  0  0  0  0  0
  -26.4523  -31.6555   25.0734 C   0  0  0  0  0  0
  -25.3722  -31.3760   26.1440 C   0  0  0  0  0  0
  -27.0395  -30.2950   24.6332 C   0  0  0  0  0  0
  -27.6058  -32.4321   25.7514 C   0  0  0  0  0  0
  -27.5573  -37.1780   24.8461 C   0  0  0  0  0  0
  -21.4261  -29.3102   22.3593 N   0  0  0  0  0  0
  -26.4276  -37.3737   23.9417 N   0  0  0  0  0  0
  -24.7200  -31.0302   22.0904 N   0  0  0  0  0  0
  -23.4233  -28.8054   23.2918 O   0  0  0  0  0  0
  -28.2959  -26.1618   20.2483 O   0  0  0  0  0  0
  -26.5633  -34.8879   22.4643 O   0  0  0  0  0  0
  -23.5547  -32.1304   23.7088 O   0  0  0  0  0  0
  -30.3639  -20.0337   21.1536 C   0  0  0  0  0  0
  -29.7851  -17.9522   20.5025 C   0  0  0  0  0  0
  -29.0373  -18.9892   19.8533 C   0  0  0  0  0  0
  -27.9513  -18.7938   18.8431 C   0  0  0  0  0  0
  -29.5377  -16.3169   20.6314 C   0  0  0  0  0  0
  -28.9719  -23.2908   20.4687 C   0  0  0  0  0  0
  -28.7510  -21.7389   19.8390 C   0  0  0  0  0  0
  -28.0937  -24.6444   19.9449 C   0  0  0  0  0  0
  -30.6315  -18.7113   21.3360 N   0  0  0  0  0  0
  -29.3703  -20.3417   20.2920 N   0  0  0  0  0  0
  -31.4915  -12.7785   19.1776 H   0  0  0  0  0  0
  -30.4800  -11.6378   20.0216 H   0  0  0  0  0  0
  -29.8573  -11.7359   17.5893 H   0  0  0  0  0  0
  -29.6104  -13.4628   17.6985 H   0  0  0  0  0  0
  -27.9666  -11.2662   18.9882 H   0  0  0  0  0  0
  -27.4018  -12.4312   17.8196 H   0  0  0  0  0  0
  -27.5984  -14.2380   19.4061 H   0  0  0  0  0  0
  -28.7642  -12.2794   21.4454 H   0  0  0  0  0  0
  -28.3686  -13.9495   21.7557 H   0  0  0  0  0  0
  -25.2811   -9.5660   22.4760 H   0  0  0  0  0  0
  -24.0012   -7.4628   22.7488 H   0  0  0  0  0  0
  -21.0848   -8.8800   19.8988 H   0  0  0  0  0  0
  -22.3735  -10.9689   19.6171 H   0  0  0  0  0  0
  -21.2004   -7.6165   23.9708 H   0  0  0  0  0  0
  -21.1470   -6.0548   25.9070 H   0  0  0  0  0  0
  -22.0606   -2.7626   23.2853 H   0  0  0  0  0  0
  -22.4156  -11.9839   22.4781 H   0  0  0  0  0  0
  -21.1173  -13.1240   22.2677 H   0  0  0  0  0  0
  -24.6706  -15.8517   20.5605 H   0  0  0  0  0  0
  -26.2868  -15.6343   20.1194 H   0  0  0  0  0  0
  -26.7289  -32.5304   23.1029 H   0  0  0  0  0  0
  -25.0080  -33.9615   25.0342 H   0  0  0  0  0  0
  -22.7592  -31.2924   21.3699 H   0  0  0  0  0  0
  -23.3755  -35.9579   23.3273 H   0  0  0  0  0  0
  -24.3606  -36.8903   22.2071 H   0  0  0  0  0  0
  -23.7239  -37.6442   23.6685 H   0  0  0  0  0  0
  -26.1650  -31.4786   20.6184 H   0  0  0  0  0  0
  -26.8769  -30.7721   22.0313 H   0  0  0  0  0  0
  -28.1347  -28.8081   21.2421 H   0  0  0  0  0  0
  -25.9436  -25.8515   18.9834 H   0  0  0  0  0  0
  -24.0000  -27.3013   18.9670 H   0  0  0  0  0  0
  -23.8076  -30.5578   19.3886 H   0  0  0  0  0  0
  -22.7983  -29.2229   19.8447 H   0  0  0  0  0  0
  -25.1303  -36.1856   25.0818 H   0  0  0  0  0  0
  -21.0099  -28.3228   24.1314 H   0  0  0  0  0  0
  -20.5768  -26.2295   23.3459 H   0  0  0  0  0  0
  -21.6701  -26.7486   22.1053 H   0  0  0  0  0  0
  -19.6709  -27.3492   20.6729 H   0  0  0  0  0  0
  -19.6980  -25.6496   21.0898 H   0  0  0  0  0  0
  -17.4293  -26.6811   21.3838 H   0  0  0  0  0  0
  -18.0354  -26.0028   22.8799 H   0  0  0  0  0  0
  -19.7948  -30.7222   24.2352 H   0  0  0  0  0  0
  -17.5024  -31.6223   24.5184 H   0  0  0  0  0  0
  -15.5384  -30.2948   23.7636 H   0  0  0  0  0  0
  -15.8722  -28.0781   22.7036 H   0  0  0  0  0  0
  -24.5895  -30.7094   25.7792 H   0  0  0  0  0  0
  -24.8901  -32.2945   26.4803 H   0  0  0  0  0  0
  -25.8016  -30.8997   27.0259 H   0  0  0  0  0  0
  -26.3021  -29.6665   24.1322 H   0  0  0  0  0  0
  -27.3989  -29.7263   25.4922 H   0  0  0  0  0  0
  -27.8932  -30.4196   23.9663 H   0  0  0  0  0  0
  -27.2649  -33.3630   26.2045 H   0  0  0  0  0  0
  -28.3877  -32.6863   25.0351 H   0  0  0  0  0  0
  -28.0702  -31.8478   26.5464 H   0  0  0  0  0  0
  -28.2575  -38.0092   24.7501 H   0  0  0  0  0  0
  -28.1081  -36.2618   24.6276 H   0  0  0  0  0  0
  -27.2292  -37.1411   25.8864 H   0  0  0  0  0  0
  -20.9432  -29.8950   21.6907 H   0  0  0  0  0  0
  -26.0139  -38.2805   24.1411 H   0  0  0  0  0  0
  -30.9030  -20.8025   21.6885 H   0  0  0  0  0  0
  -28.0056  -17.8021   18.3930 H   0  0  0  0  0  0
  -28.0421  -19.5126   18.0272 H   0  0  0  0  0  0
  -26.9643  -18.9089   19.2928 H   0  0  0  0  0  0
  -28.7051  -16.1107   19.9642 H   0  0  0  0  0  0
  -29.1136  -16.1623   21.6221 H   0  0  0  0  0  0
  -28.8140  -23.2201   21.5450 H   0  0  0  0  0  0
  -30.0311  -23.5265   20.3599 H   0  0  0  0  0  0
  -28.9991  -21.8240   18.7814 H   0  0  0  0  0  0
  -27.6732  -21.5772   19.8494 H   0  0  0  0  0  0
  -27.0700  -24.4190   20.2431 H   0  0  0  0  0  0
  -28.0859  -24.5881   18.8568 H   0  0  0  0  0  0
  1 25  1  0  0  0
  1 30  2  0  0  0
  1 75  1  0  0  0
  2  3  1  0  0  0
  2 25  1  0  0  0
  2 81  1  0  0  0
  2 82  1  0  0  0
  3  4  1  0  0  0
  3 83  1  0  0  0
  3 84  1  0  0  0
  4  5  1  0  0  0
  4 85  1  0  0  0
  4 86  1  0  0  0
  5  6  1  0  0  0
  5 26  1  0  0  0
  5 87  1  0  0  0
  6 25  1  0  0  0
  6 88  1  0  0  0
  6 89  1  0  0  0
  7  8  2  0  0  0
  7 26  1  0  0  0
  7 29  1  0  0  0
  8  9  1  0  0  0
  8 22  1  0  0  0
  9 10  1  0  0  0
  9 27  2  0  0  0
 10 11  2  0  0  0
 10 15  1  0  0  0
 11 12  1  0  0  0
 11 90  1  0  0  0
 12 13  2  0  0  0
 12 91  1  0  0  0
 13 14  1  0  0  0
 13 31  1  0  0  0
 14 15  2  0  0  0
 14 92  1  0  0  0
 15 93  1  0  0  0
 16 17  2  0  0  0
 16 21  1  0  0  0
 16 31  1  0  0  0
 17 18  1  0  0  0
 17 94  1  0  0  0
 18 19  2  0  0  0
 18 95  1  0  0  0
 19 20  1  0  0  0
 19 24  1  0  0  0
 20 21  2  0  0  0
 20 96  1  0  0  0
 21 23  1  0  0  0
 22 28  1  0  0  0
 22 32  2  0  0  0
 26 27  1  0  0  0
 28 97  1  0  0  0
 28 98  1  0  0  0
 29 99  1  0  0  0
 29100  1  0  0  0
 33 34  1  0  0  0
 33 66  1  0  0  0
 33 70  2  0  0  0
 34 36  1  0  0  0
 34 59  1  0  0  0
 34101  1  0  0  0
 35 44  2  0  0  0
 35 45  1  0  0  0
 35 68  1  0  0  0
 36 56  1  0  0  0
 36102  1  0  0  0
 37 39  1  0  0  0
 37 47  1  0  0  0
 37 66  1  0  0  0
 37103  1  0  0  0
 38 43  2  0  0  0
 38 46  1  0  0  0
 38 47  1  0  0  0
 39 64  1  0  0  0
 39 67  2  0  0  0
 40 52  1  0  0  0
 40 53  2  0  0  0
 40 58  1  0  0  0
 41104  1  0  0  0
 41105  1  0  0  0
 41106  1  0  0  0
 41 48  1  0  0  0
 42 43  1  0  0  0
 42 66  1  0  0  0
 42107  1  0  0  0
 42108  1  0  0  0
 43 44  1  0  0  0
 44109  1  0  0  0
 45 46  2  0  0  0
 45110  1  0  0  0
 46111  1  0  0  0
 47112  1  0  0  0
 47113  1  0  0  0
 48 56  1  0  0  0
 48 65  1  0  0  0
 48114  1  0  0  0
 49 50  1  0  0  0
 49 53  1  0  0  0
 49 64  1  0  0  0
 49115  1  0  0  0
 50 51  1  0  0  0
 50116  1  0  0  0
 50117  1  0  0  0
 51 52  1  0  0  0
 51118  1  0  0  0
 51119  1  0  0  0
 52120  1  0  0  0
 52121  1  0  0  0
 53 54  1  0  0  0
 54 55  2  0  0  0
 54122  1  0  0  0
 55 57  1  0  0  0
 55123  1  0  0  0
 56 69  2  0  0  0
 57 58  2  0  0  0
 57124  1  0  0  0
 58125  1  0  0  0
 59 60  1  0  0  0
 59 61  1  0  0  0
 59 62  1  0  0  0
 60126  1  0  0  0
 60127  1  0  0  0
 60128  1  0  0  0
 61129  1  0  0  0
 61130  1  0  0  0
 61131  1  0  0  0
 62132  1  0  0  0
 62133  1  0  0  0
 62134  1  0  0  0
 63 65  1  0  0  0
 63135  1  0  0  0
 63136  1  0  0  0
 63137  1  0  0  0
 64138  1  0  0  0
 65139  1  0  0  0
 68 78  1  0  0  0
 71 79  2  0  0  0
 71 80  1  0  0  0
 71140  1  0  0  0
 72 73  2  0  0  0
 72 75  1  0  0  0
 72 79  1  0  0  0
 73 74  1  0  0  0
 73 80  1  0  0  0
 74141  1  0  0  0
 74142  1  0  0  0
 74143  1  0  0  0
 75144  1  0  0  0
 75145  1  0  0  0
 76 77  1  0  0  0
 76 78  1  0  0  0
 76146  1  0  0  0
 76147  1  0  0  0
 77 80  1  0  0  0
 77148  1  0  0  0
 77149  1  0  0  0
 78150  1  0  0  0
 78151  1  0  0  0
M  ISO  4   1 100  68 101  75 100  78 101
M  END
> <chiral flag>
0

> <version>
0

> <s_m_source_file>
/data/baiqing/PycharmProjects/Reinvent-master-3.2/result/LINK_invent/BTK/process_docking_weight1_custom_sum_contain_oxygen_bond_distance_aromatic_linkinvent_7_9_3/rearranged_h_0044.sdf

> <i_m_source_file_index>
47

> <r_mmod_Potential_Energy-OPLS-2005>
579.760437011719

> <r_mmod_Stretch_Energy-OPLS-2005>
270.465850830078

> <r_mmod_Bend_Energy-OPLS-2005>
293.800598144531

> <r_mmod_Torsional_Energy-OPLS-2005>
195.797866821289

> <r_mmod_Improper_Torsional_Energy-OPLS-2005>
5.40885019302368

> <r_mmod_Van_der_Waal_Energy-OPLS-2005>
106.872024536133

> <r_mmod_Electrostatic_Energy-OPLS-2005>
-262.008422851562

> <r_mmod_Solvation_Energy-OPLS-2005>
-229.80029296875

> <b_mmod_Minimization_Converged-OPLS-2005>
0

> <r_mmod_RMS_Derivative-OPLS-2005>
3.39297652244568

$$$$
47
                    3D
 Structure written by MMmdl.
159167  0  0  1  0            999 V2000
  -30.5932  -14.7591   20.4660 C   0  0  0  0  0  0
  -30.4381  -12.4673   19.4610 C   0  0  0  0  0  0
  -29.5110  -12.5161   18.2267 C   0  0  0  0  0  0
  -28.0339  -12.3481   18.6361 C   0  0  0  0  0  0
  -27.6403  -13.2376   19.8468 C   0  0  2  0  0  0
  -28.6870  -13.1550   20.9784 C   0  0  0  0  0  0
  -25.2488  -13.8213   20.5706 C   0  0  0  0  0  0
  -24.1795  -13.0436   20.9209 C   0  0  0  0  0  0
  -24.6407  -11.6922   20.8738 C   0  0  0  0  0  0
  -23.9091  -10.4285   21.0398 C   0  0  0  0  0  0
  -24.3647   -9.4192   21.9169 C   0  0  0  0  0  0
  -23.6310   -8.2234   22.0734 C   0  0  0  0  0  0
  -22.4291   -8.0273   21.3526 C   0  0  0  0  0  0
  -21.9927   -9.0255   20.4645 C   0  0  0  0  0  0
  -22.7264  -10.2131   20.3047 C   0  0  0  0  0  0
  -21.6863   -6.0735   22.5280 C   0  0  0  0  0  0
  -21.4022   -6.5635   23.8215 C   0  0  0  0  0  0
  -21.3659   -5.6788   24.9172 C   0  0  0  0  0  0
  -21.6039   -4.3047   24.7230 C   0  0  0  0  0  0
  -21.8820   -3.8140   23.4355 C   0  0  0  0  0  0
  -21.9190   -4.6963   22.3407 C   0  0  0  0  0  0
  -22.7804  -13.5212   21.1865 C   0  0  0  0  0  0
  -22.1660   -4.2144   21.0986 F   0  0  0  0  0  0
  -21.5620   -3.4535   25.7741 F   0  0  0  0  0  0
  -29.9831  -13.5247   20.3936 N   0  0  0  0  0  0
  -26.2927  -12.9435   20.3261 N   0  0  0  0  0  0
  -25.9332  -11.6572   20.5714 N   0  0  0  0  0  0
  -22.0454  -12.8211   22.0430 N   0  0  0  0  0  0
  -25.4147  -15.1944   20.4152 N   0  0  0  0  0  0
  -31.7869  -14.8743   20.1823 O   0  0  0  0  0  0
  -21.6639   -6.8881   21.4238 O   0  0  0  0  0  0
  -22.3477  -14.5497   20.6674 O   0  0  0  0  0  0
  -24.6317  -31.8533   23.1958 C   0  0  0  0  0  0
  -25.9131  -32.4746   23.8312 C   0  0  1  0  0  0
  -27.2283  -27.2510   20.1437 C   0  0  0  0  0  0
  -25.5923  -33.8551   24.2228 N   0  0  0  0  0  0
  -23.4302  -30.4740   21.5384 C   0  0  2  0  0  0
  -24.8822  -28.9137   20.1121 C   0  0  0  0  0  0
  -22.7502  -29.4603   22.4901 C   0  0  0  0  0  0
  -18.0283  -28.1396   22.8481 C   0  0  0  0  0  0
  -24.1482  -36.7285   23.2638 C   0  0  0  0  0  0
  -25.9757  -30.7633   21.3766 C   0  0  0  0  0  0
  -26.0523  -29.3825   20.7230 C   0  0  0  0  0  0
  -27.2300  -28.5654   20.7238 C   0  0  0  0  0  0
  -26.0371  -26.8500   19.5015 C   0  0  0  0  0  0
  -24.8795  -27.6557   19.4879 C   0  0  0  0  0  0
  -23.6514  -29.8017   20.1568 C   0  0  0  0  0  0
  -25.4110  -36.3070   24.0319 C   0  0  1  0  0  0
  -20.5890  -28.3715   23.1266 C   0  0  2  0  0  0
  -20.6773  -26.9430   22.5419 C   0  0  0  0  0  0
  -19.5760  -26.6386   21.5214 C   0  0  0  0  0  0
  -18.1934  -26.7931   22.1623 C   0  0  0  0  0  0
  -19.1541  -28.8868   23.2866 C   0  0  0  0  0  0
  -18.9464  -30.1464   23.8898 C   0  0  0  0  0  0
  -17.6472  -30.6597   24.0565 C   0  0  0  0  0  0
  -25.9056  -34.9440   23.5079 C   0  0  0  0  0  0
  -16.5359  -29.9103   23.6334 C   0  0  0  0  0  0
  -16.7273  -28.6515   23.0356 C   0  0  0  0  0  0
  -26.4499  -31.6584   25.0712 C   0  0  0  0  0  0
  -25.3716  -31.3767   26.1435 C   0  0  0  0  0  0
  -27.0334  -30.2989   24.6222 C   0  0  0  0  0  0
  -27.6024  -32.4349   25.7506 C   0  0  0  0  0  0
  -27.5572  -37.1803   24.8460 C   0  0  0  0  0  0
  -21.4205  -29.3058   22.3647 N   0  0  0  0  0  0
  -26.4282  -37.3772   23.9408 N   0  0  0  0  0  0
  -24.6977  -31.0489   22.0935 N   0  0  0  0  0  0
  -23.4188  -28.8140   23.3004 O   0  0  0  0  0  0
  -28.3174  -26.3455   20.1649 O   0  0  0  0  0  0
  -26.5640  -34.8927   22.4659 O   0  0  0  0  0  0
  -23.5468  -32.1362   23.7249 O   0  0  0  0  0  0
  -30.8200  -23.5251   21.0484 C   0  0  0  0  0  0
  -31.1643  -20.7729   21.3355 C   0  0  0  0  0  0
  -29.7567  -22.6882   20.6262 C   0  0  0  0  0  0
  -32.0007  -23.0294   21.6286 C   0  0  0  0  0  0
  -29.9552  -21.2219   20.7505 C   0  0  0  0  0  0
  -32.1662  -21.6466   21.7772 C   0  0  0  0  0  0
  -33.0790  -23.9791   22.1162 C   0  0  0  0  0  0
  -28.5263  -23.5216   20.0624 C   0  0  0  0  0  0
  -28.9826  -20.0261   20.3988 C   0  0  0  0  0  0
  -29.4896  -18.5209   19.9606 C   0  0  0  0  0  0
  -30.0933  -17.3595   20.9258 C   0  0  0  0  0  0
  -28.0911  -24.9594   20.7236 C   0  0  0  0  0  0
  -29.7868  -15.8729   20.6726 N   0  0  0  0  0  0
  -33.2882  -21.1487   22.3521 F   0  0  0  0  0  0
  -31.4742  -12.6100   19.1515 H   0  0  0  0  0  0
  -30.4019  -11.4887   19.9421 H   0  0  0  0  0  0
  -29.7934  -11.7443   17.5094 H   0  0  0  0  0  0
  -29.6392  -13.4692   17.7120 H   0  0  0  0  0  0
  -27.8747  -11.2980   18.8833 H   0  0  0  0  0  0
  -27.3876  -12.5590   17.7816 H   0  0  0  0  0  0
  -27.6348  -14.2648   19.4800 H   0  0  0  0  0  0
  -28.7249  -12.1502   21.4007 H   0  0  0  0  0  0
  -28.4188  -13.8185   21.8014 H   0  0  0  0  0  0
  -25.2802   -9.5657   22.4734 H   0  0  0  0  0  0
  -24.0013   -7.4631   22.7465 H   0  0  0  0  0  0
  -21.0838   -8.8798   19.8982 H   0  0  0  0  0  0
  -22.3724  -10.9667   19.6154 H   0  0  0  0  0  0
  -21.2025   -7.6144   23.9720 H   0  0  0  0  0  0
  -21.1474   -6.0513   25.9076 H   0  0  0  0  0  0
  -22.0601   -2.7607   23.2847 H   0  0  0  0  0  0
  -22.4083  -11.9921   22.4894 H   0  0  0  0  0  0
  -21.1051  -13.1200   22.2584 H   0  0  0  0  0  0
  -24.6454  -15.8453   20.5315 H   0  0  0  0  0  0
  -26.2567  -15.6387   20.0723 H   0  0  0  0  0  0
  -26.7199  -32.5391   23.1055 H   0  0  0  0  0  0
  -25.0053  -33.9694   25.0363 H   0  0  0  0  0  0
  -22.7278  -31.2966   21.3890 H   0  0  0  0  0  0
  -23.3749  -35.9612   23.3296 H   0  0  0  0  0  0
  -24.3569  -36.8919   22.2054 H   0  0  0  0  0  0
  -23.7235  -37.6482   23.6674 H   0  0  0  0  0  0
  -26.1119  -31.5194   20.6018 H   0  0  0  0  0  0
  -26.8537  -30.8180   22.0087 H   0  0  0  0  0  0
  -28.1256  -28.9209   21.2122 H   0  0  0  0  0  0
  -25.9926  -25.8833   19.0207 H   0  0  0  0  0  0
  -23.9840  -27.2937   19.0008 H   0  0  0  0  0  0
  -23.7770  -30.5746   19.3980 H   0  0  0  0  0  0
  -22.7700  -29.2348   19.8517 H   0  0  0  0  0  0
  -25.1297  -36.1906   25.0812 H   0  0  0  0  0  0
  -20.9984  -28.3303   24.1389 H   0  0  0  0  0  0
  -20.5675  -26.2330   23.3629 H   0  0  0  0  0  0
  -21.6645  -26.7454   22.1226 H   0  0  0  0  0  0
  -19.6932  -25.6294   21.1259 H   0  0  0  0  0  0
  -19.6700  -27.3183   20.6739 H   0  0  0  0  0  0
  -17.4207  -26.6674   21.4016 H   0  0  0  0  0  0
  -18.0337  -26.0071   22.9022 H   0  0  0  0  0  0
  -19.7945  -30.7261   24.2280 H   0  0  0  0  0  0
  -17.5034  -31.6277   24.5168 H   0  0  0  0  0  0
  -15.5361  -30.3014   23.7654 H   0  0  0  0  0  0
  -15.8667  -28.0837   22.7088 H   0  0  0  0  0  0
  -24.5886  -30.7115   25.7787 H   0  0  0  0  0  0
  -24.8918  -32.2949   26.4827 H   0  0  0  0  0  0
  -25.8027  -30.8979   27.0235 H   0  0  0  0  0  0
  -26.2920  -29.6748   24.1215 H   0  0  0  0  0  0
  -27.3960  -29.7248   25.4762 H   0  0  0  0  0  0
  -27.8826  -30.4238   23.9495 H   0  0  0  0  0  0
  -27.2595  -33.3653   26.2049 H   0  0  0  0  0  0
  -28.3859  -32.6909   25.0360 H   0  0  0  0  0  0
  -28.0666  -31.8503   26.5461 H   0  0  0  0  0  0
  -28.2590  -38.0101   24.7504 H   0  0  0  0  0  0
  -28.1066  -36.2631   24.6278 H   0  0  0  0  0  0
  -27.2299  -37.1450   25.8867 H   0  0  0  0  0  0
  -20.9394  -29.8772   21.6846 H   0  0  0  0  0  0
  -26.0152  -38.2840   24.1427 H   0  0  0  0  0  0
  -30.7255  -24.5959   20.9354 H   0  0  0  0  0  0
  -31.3366  -19.7195   21.4825 H   0  0  0  0  0  0
  -32.9667  -24.9728   21.6817 H   0  0  0  0  0  0
  -34.0723  -23.6084   21.8550 H   0  0  0  0  0  0
  -33.0282  -24.0773   23.2016 H   0  0  0  0  0  0
  -27.6663  -22.8574   20.1488 H   0  0  0  0  0  0
  -28.6672  -23.6585   18.9904 H   0  0  0  0  0  0
  -28.3650  -20.3953   19.5788 H   0  0  0  0  0  0
  -28.2926  -19.9242   21.2362 H   0  0  0  0  0  0
  -30.1670  -18.6319   19.1138 H   0  0  0  0  0  0
  -28.6007  -18.0677   19.5227 H   0  0  0  0  0  0
  -29.7399  -17.5574   21.9382 H   0  0  0  0  0  0
  -31.1775  -17.4795   20.9710 H   0  0  0  0  0  0
  -28.4904  -24.9821   21.7384 H   0  0  0  0  0  0
  -27.0201  -24.8603   20.9036 H   0  0  0  0  0  0
  -28.8143  -15.6297   20.7970 H   0  0  0  0  0  0
  1 25  1  0  0  0
  1 30  2  0  0  0
  1 83  1  0  0  0
  2  3  1  0  0  0
  2 25  1  0  0  0
  2 85  1  0  0  0
  2 86  1  0  0  0
  3  4  1  0  0  0
  3 87  1  0  0  0
  3 88  1  0  0  0
  4  5  1  0  0  0
  4 89  1  0  0  0
  4 90  1  0  0  0
  5  6  1  0  0  0
  5 26  1  0  0  0
  5 91  1  0  0  0
  6 25  1  0  0  0
  6 92  1  0  0  0
  6 93  1  0  0  0
  7  8  2  0  0  0
  7 26  1  0  0  0
  7 29  1  0  0  0
  8  9  1  0  0  0
  8 22  1  0  0  0
  9 10  1  0  0  0
  9 27  2  0  0  0
 10 11  2  0  0  0
 10 15  1  0  0  0
 11 12  1  0  0  0
 11 94  1  0  0  0
 12 13  2  0  0  0
 12 95  1  0  0  0
 13 14  1  0  0  0
 13 31  1  0  0  0
 14 15  2  0  0  0
 14 96  1  0  0  0
 15 97  1  0  0  0
 16 17  2  0  0  0
 16 21  1  0  0  0
 16 31  1  0  0  0
 17 18  1  0  0  0
 17 98  1  0  0  0
 18 19  2  0  0  0
 18 99  1  0  0  0
 19 20  1  0  0  0
 19 24  1  0  0  0
 20 21  2  0  0  0
 20100  1  0  0  0
 21 23  1  0  0  0
 22 28  1  0  0  0
 22 32  2  0  0  0
 26 27  1  0  0  0
 28101  1  0  0  0
 28102  1  0  0  0
 29103  1  0  0  0
 29104  1  0  0  0
 33 34  1  0  0  0
 33 66  1  0  0  0
 33 70  2  0  0  0
 34 36  1  0  0  0
 34 59  1  0  0  0
 34105  1  0  0  0
 35 44  2  0  0  0
 35 45  1  0  0  0
 35 68  1  0  0  0
 36 56  1  0  0  0
 36106  1  0  0  0
 37 39  1  0  0  0
 37 47  1  0  0  0
 37 66  1  0  0  0
 37107  1  0  0  0
 38 43  2  0  0  0
 38 46  1  0  0  0
 38 47  1  0  0  0
 39 64  1  0  0  0
 39 67  2  0  0  0
 40 52  1  0  0  0
 40 53  2  0  0  0
 40 58  1  0  0  0
 41108  1  0  0  0
 41109  1  0  0  0
 41110  1  0  0  0
 41 48  1  0  0  0
 42 43  1  0  0  0
 42 66  1  0  0  0
 42111  1  0  0  0
 42112  1  0  0  0
 43 44  1  0  0  0
 44113  1  0  0  0
 45 46  2  0  0  0
 45114  1  0  0  0
 46115  1  0  0  0
 47116  1  0  0  0
 47117  1  0  0  0
 48 56  1  0  0  0
 48 65  1  0  0  0
 48118  1  0  0  0
 49 50  1  0  0  0
 49 53  1  0  0  0
 49 64  1  0  0  0
 49119  1  0  0  0
 50 51  1  0  0  0
 50120  1  0  0  0
 50121  1  0  0  0
 51 52  1  0  0  0
 51122  1  0  0  0
 51123  1  0  0  0
 52124  1  0  0  0
 52125  1  0  0  0
 53 54  1  0  0  0
 54 55  2  0  0  0
 54126  1  0  0  0
 55 57  1  0  0  0
 55127  1  0  0  0
 56 69  2  0  0  0
 57 58  2  0  0  0
 57128  1  0  0  0
 58129  1  0  0  0
 59 60  1  0  0  0
 59 61  1  0  0  0
 59 62  1  0  0  0
 60130  1  0  0  0
 60131  1  0  0  0
 60132  1  0  0  0
 61133  1  0  0  0
 61134  1  0  0  0
 61135  1  0  0  0
 62136  1  0  0  0
 62137  1  0  0  0
 62138  1  0  0  0
 63 65  1  0  0  0
 63139  1  0  0  0
 63140  1  0  0  0
 63141  1  0  0  0
 64142  1  0  0  0
 65143  1  0  0  0
 68 82  1  0  0  0
 71 73  2  0  0  0
 71 74  1  0  0  0
 71144  1  0  0  0
 72 75  2  0  0  0
 72 76  1  0  0  0
 72145  1  0  0  0
 73 75  1  0  0  0
 73 78  1  0  0  0
 74 76  2  0  0  0
 74 77  1  0  0  0
 75 79  1  0  0  0
 76 84  1  0  0  0
 77146  1  0  0  0
 77147  1  0  0  0
 77148  1  0  0  0
 78 82  1  0  0  0
 78149  1  0  0  0
 78150  1  0  0  0
 79 80  1  0  0  0
 79151  1  0  0  0
 79152  1  0  0  0
 80 81  1  0  0  0
 80153  1  0  0  0
 80154  1  0  0  0
 81 83  1  0  0  0
 81155  1  0  0  0
 81156  1  0  0  0
 82157  1  0  0  0
 82158  1  0  0  0
 83159  1  0  0  0
M  ISO  4   1 100  68 101  82 101  83 100
M  END
> <chiral flag>
0

> <version>
0

> <s_m_source_file>
/data/baiqing/PycharmProjects/Reinvent-master-3.2/result/LINK_invent/BTK/process_docking_weight1_custom_sum_contain_oxygen_bond_distance_aromatic_linkinvent_7_9_3/rearranged_h_0044.sdf

> <i_m_source_file_index>
48

> <r_mmod_Potential_Energy-OPLS-2005>
268.488494873047

> <r_mmod_Stretch_Energy-OPLS-2005>
146.446182250977

> <r_mmod_Bend_Energy-OPLS-2005>
223.016647338867

> <r_mmod_Torsional_Energy-OPLS-2005>
241.287796020508

> <r_mmod_Improper_Torsional_Energy-OPLS-2005>
4.37652921676636

> <r_mmod_Van_der_Waal_Energy-OPLS-2005>
134.428924560547

> <r_mmod_Electrostatic_Energy-OPLS-2005>
-365.431915283203

> <r_mmod_Solvation_Energy-OPLS-2005>
-207.377410888672

> <b_mmod_Minimization_Converged-OPLS-2005>
0

> <r_mmod_RMS_Derivative-OPLS-2005>
2.56644463539124

$$$$
48
                    3D
 Structure written by MMmdl.
153161  0  0  1  0            999 V2000
  -30.4945  -14.9869   20.3805 C   0  0  0  0  0  0
  -30.4515  -12.6129   19.5040 C   0  0  0  0  0  0
  -29.5238  -12.5173   18.2697 C   0  0  0  0  0  0
  -28.0653  -12.2807   18.7127 C   0  0  0  0  0  0
  -27.6323  -13.2399   19.8519 C   0  0  2  0  0  0
  -28.6767  -13.2746   20.9884 C   0  0  0  0  0  0
  -25.2502  -13.8220   20.5819 C   0  0  0  0  0  0
  -24.1796  -13.0454   20.9267 C   0  0  0  0  0  0
  -24.6385  -11.6933   20.8827 C   0  0  0  0  0  0
  -23.9082  -10.4311   21.0484 C   0  0  0  0  0  0
  -24.3603   -9.4201   21.9236 C   0  0  0  0  0  0
  -23.6273   -8.2237   22.0780 C   0  0  0  0  0  0
  -22.4289   -8.0270   21.3536 C   0  0  0  0  0  0
  -21.9938   -9.0276   20.4677 C   0  0  0  0  0  0
  -22.7268  -10.2141   20.3121 C   0  0  0  0  0  0
  -21.6843   -6.0746   22.5276 C   0  0  0  0  0  0
  -21.4007   -6.5655   23.8216 C   0  0  0  0  0  0
  -21.3658   -5.6785   24.9171 C   0  0  0  0  0  0
  -21.6032   -4.3059   24.7204 C   0  0  0  0  0  0
  -21.8816   -3.8163   23.4340 C   0  0  0  0  0  0
  -21.9192   -4.6979   22.3401 C   0  0  0  0  0  0
  -22.7799  -13.5256   21.1805 C   0  0  0  0  0  0
  -22.1656   -4.2174   21.0974 F   0  0  0  0  0  0
  -21.5624   -3.4535   25.7731 F   0  0  0  0  0  0
  -29.9377  -13.7082   20.3758 N   0  0  0  0  0  0
  -26.2912  -12.9408   20.3374 N   0  0  0  0  0  0
  -25.9324  -11.6550   20.5841 N   0  0  0  0  0  0
  -22.0384  -12.8343   22.0372 N   0  0  0  0  0  0
  -25.4210  -15.1936   20.4264 N   0  0  0  0  0  0
  -31.6998  -15.0669   20.1140 O   0  0  0  0  0  0
  -21.6627   -6.8877   21.4246 O   0  0  0  0  0  0
  -22.3538  -14.5539   20.6576 O   0  0  0  0  0  0
  -24.6418  -31.8453   23.1824 C   0  0  0  0  0  0
  -25.9235  -32.4679   23.8183 C   0  0  1  0  0  0
  -27.2045  -27.1379   20.1325 C   0  0  0  0  0  0
  -25.6008  -33.8475   24.2125 N   0  0  0  0  0  0
  -23.4394  -30.4590   21.5348 C   0  0  2  0  0  0
  -24.8836  -28.8880   20.0992 C   0  0  0  0  0  0
  -22.7505  -29.4532   22.4880 C   0  0  0  0  0  0
  -18.0319  -28.1411   22.8511 C   0  0  0  0  0  0
  -24.1529  -36.7216   23.2638 C   0  0  0  0  0  0
  -25.9946  -30.7177   21.3813 C   0  0  0  0  0  0
  -26.0608  -29.3311   20.7144 C   0  0  0  0  0  0
  -27.2181  -28.4707   20.7152 C   0  0  0  0  0  0
  -26.0012  -26.7853   19.4876 C   0  0  0  0  0  0
  -24.8666  -27.6292   19.4754 C   0  0  0  0  0  0
  -23.6579  -29.7890   20.1513 C   0  0  0  0  0  0
  -25.4169  -36.2998   24.0294 C   0  0  1  0  0  0
  -20.5915  -28.3730   23.1281 C   0  0  2  0  0  0
  -20.6788  -26.9410   22.5493 C   0  0  0  0  0  0
  -19.5746  -26.6334   21.5289 C   0  0  0  0  0  0
  -18.1930  -26.7924   22.1723 C   0  0  0  0  0  0
  -19.1569  -28.8878   23.2868 C   0  0  0  0  0  0
  -18.9535  -30.1488   23.8892 C   0  0  0  0  0  0
  -17.6527  -30.6584   24.0587 C   0  0  0  0  0  0
  -25.9134  -34.9395   23.5011 C   0  0  0  0  0  0
  -16.5421  -29.9096   23.6343 C   0  0  0  0  0  0
  -16.7295  -28.6538   23.0378 C   0  0  0  0  0  0
  -26.4573  -31.6552   25.0621 C   0  0  0  0  0  0
  -25.3729  -31.3699   26.1256 C   0  0  0  0  0  0
  -27.0463  -30.2946   24.6241 C   0  0  0  0  0  0
  -27.6093  -32.4322   25.7418 C   0  0  0  0  0  0
  -27.5591  -37.1772   24.8481 C   0  0  0  0  0  0
  -21.4219  -29.3032   22.3618 N   0  0  0  0  0  0
  -26.4317  -37.3717   23.9410 N   0  0  0  0  0  0
  -24.7110  -31.0313   22.0853 N   0  0  0  0  0  0
  -23.4103  -28.8069   23.3051 O   0  0  0  0  0  0
  -28.2765  -26.1848   20.2335 O   0  0  0  0  0  0
  -26.5689  -34.8894   22.4576 O   0  0  0  0  0  0
  -23.5558  -32.1332   23.7082 O   0  0  0  0  0  0
  -26.8103  -23.6708   21.4061 C   0  0  0  0  0  0
  -27.9117  -23.3864   20.5551 C   0  0  0  0  0  0
  -28.1543  -21.9469   20.7698 C   0  0  0  0  0  0
  -27.1137  -20.4805   22.6432 C   0  0  0  0  0  0
  -28.3550  -24.7168   19.6996 C   0  0  0  0  0  0
  -29.1268  -20.6704   20.3161 C   0  0  0  0  0  0
  -28.8253  -18.9788   20.4028 C   0  0  0  0  0  0
  -29.9568  -17.7139   20.2436 C   0  0  0  0  0  0
  -26.4449  -22.6724   22.1615 N   0  0  0  0  0  0
  -27.2719  -21.6704   21.8292 N   0  0  0  0  0  0
  -29.6780  -16.1582   20.4608 N   0  0  0  0  0  0
  -31.4812  -12.7914   19.1884 H   0  0  0  0  0  0
  -30.4671  -11.6673   20.0476 H   0  0  0  0  0  0
  -29.8503  -11.7144   17.6076 H   0  0  0  0  0  0
  -29.5864  -13.4402   17.6981 H   0  0  0  0  0  0
  -28.0096  -11.2506   19.0645 H   0  0  0  0  0  0
  -27.3771  -12.3456   17.8706 H   0  0  0  0  0  0
  -27.5938  -14.2335   19.4054 H   0  0  0  0  0  0
  -28.7838  -12.2937   21.4515 H   0  0  0  0  0  0
  -28.3789  -13.9581   21.7860 H   0  0  0  0  0  0
  -25.2725   -9.5657   22.4839 H   0  0  0  0  0  0
  -23.9960   -7.4644   22.7545 H   0  0  0  0  0  0
  -21.0850   -8.8817   19.8992 H   0  0  0  0  0  0
  -22.3747  -10.9686   19.6241 H   0  0  0  0  0  0
  -21.1994   -7.6154   23.9721 H   0  0  0  0  0  0
  -21.1479   -6.0519   25.9059 H   0  0  0  0  0  0
  -22.0602   -2.7636   23.2831 H   0  0  0  0  0  0
  -22.3930  -12.0047   22.4862 H   0  0  0  0  0  0
  -21.0989  -13.1425   22.2449 H   0  0  0  0  0  0
  -24.6492  -15.8421   20.5440 H   0  0  0  0  0  0
  -26.2503  -15.6389   20.0548 H   0  0  0  0  0  0
  -26.7311  -32.5279   23.0904 H   0  0  0  0  0  0
  -25.0216  -33.9600   25.0310 H   0  0  0  0  0  0
  -22.7376  -31.2818   21.3858 H   0  0  0  0  0  0
  -23.3811  -35.9534   23.3302 H   0  0  0  0  0  0
  -24.3604  -36.8839   22.2056 H   0  0  0  0  0  0
  -23.7304  -37.6405   23.6691 H   0  0  0  0  0  0
  -26.1720  -31.4790   20.6207 H   0  0  0  0  0  0
  -26.8539  -30.7427   22.0374 H   0  0  0  0  0  0
  -28.1161  -28.8100   21.2156 H   0  0  0  0  0  0
  -25.9012  -25.8075   19.0393 H   0  0  0  0  0  0
  -23.9577  -27.2797   19.0047 H   0  0  0  0  0  0
  -23.7843  -30.5656   19.3956 H   0  0  0  0  0  0
  -22.7750  -29.2234   19.8466 H   0  0  0  0  0  0
  -25.1388  -36.1785   25.0788 H   0  0  0  0  0  0
  -21.0009  -28.3493   24.1414 H   0  0  0  0  0  0
  -20.5645  -26.2362   23.3718 H   0  0  0  0  0  0
  -21.6673  -26.7347   22.1385 H   0  0  0  0  0  0
  -19.6902  -25.6242   21.1315 H   0  0  0  0  0  0
  -19.6574  -27.3205   20.6846 H   0  0  0  0  0  0
  -17.4171  -26.6639   21.4162 H   0  0  0  0  0  0
  -18.0371  -26.0157   22.9211 H   0  0  0  0  0  0
  -19.8013  -30.7300   24.2273 H   0  0  0  0  0  0
  -17.5083  -31.6212   24.5298 H   0  0  0  0  0  0
  -15.5449  -30.3031   23.7721 H   0  0  0  0  0  0
  -15.8666  -28.0886   22.7149 H   0  0  0  0  0  0
  -24.5950  -30.7068   25.7447 H   0  0  0  0  0  0
  -24.8890  -32.2875   26.4599 H   0  0  0  0  0  0
  -25.7933  -30.8834   27.0069 H   0  0  0  0  0  0
  -26.3094  -29.6605   24.1303 H   0  0  0  0  0  0
  -27.4135  -29.7291   25.4821 H   0  0  0  0  0  0
  -27.8975  -30.4135   23.9532 H   0  0  0  0  0  0
  -27.2710  -33.3664   26.1902 H   0  0  0  0  0  0
  -28.3951  -32.6805   25.0275 H   0  0  0  0  0  0
  -28.0744  -31.8519   26.5396 H   0  0  0  0  0  0
  -28.2599  -38.0064   24.7513 H   0  0  0  0  0  0
  -28.1094  -36.2597   24.6369 H   0  0  0  0  0  0
  -27.2289  -37.1489   25.8867 H   0  0  0  0  0  0
  -20.9439  -29.8658   21.6708 H   0  0  0  0  0  0
  -26.0164  -38.2775   24.1390 H   0  0  0  0  0  0
  -26.2772  -24.6053   21.5165 H   0  0  0  0  0  0
  -28.0894  -20.1087   22.9608 H   0  0  0  0  0  0
  -26.5583  -19.7293   22.0838 H   0  0  0  0  0  0
  -26.5427  -20.6928   23.5475 H   0  0  0  0  0  0
  -27.8584  -24.7062   18.7294 H   0  0  0  0  0  0
  -29.4011  -24.6030   19.4206 H   0  0  0  0  0  0
  -30.0321  -20.7846   20.9110 H   0  0  0  0  0  0
  -29.4587  -20.8784   19.2963 H   0  0  0  0  0  0
  -27.9972  -18.7736   19.7182 H   0  0  0  0  0  0
  -28.4169  -18.7659   21.3819 H   0  0  0  0  0  0
  -30.7711  -17.9451   20.9322 H   0  0  0  0  0  0
  -30.4050  -17.8160   19.2507 H   0  0  0  0  0  0
  -28.7151  -15.9438   20.6747 H   0  0  0  0  0  0
  1 25  1  0  0  0
  1 30  2  0  0  0
  1 81  1  0  0  0
  2  3  1  0  0  0
  2 25  1  0  0  0
  2 82  1  0  0  0
  2 83  1  0  0  0
  3  4  1  0  0  0
  3 84  1  0  0  0
  3 85  1  0  0  0
  4  5  1  0  0  0
  4 86  1  0  0  0
  4 87  1  0  0  0
  5  6  1  0  0  0
  5 26  1  0  0  0
  5 88  1  0  0  0
  6 25  1  0  0  0
  6 89  1  0  0  0
  6 90  1  0  0  0
  7  8  2  0  0  0
  7 26  1  0  0  0
  7 29  1  0  0  0
  8  9  1  0  0  0
  8 22  1  0  0  0
  9 10  1  0  0  0
  9 27  2  0  0  0
 10 11  2  0  0  0
 10 15  1  0  0  0
 11 12  1  0  0  0
 11 91  1  0  0  0
 12 13  2  0  0  0
 12 92  1  0  0  0
 13 14  1  0  0  0
 13 31  1  0  0  0
 14 15  2  0  0  0
 14 93  1  0  0  0
 15 94  1  0  0  0
 16 17  2  0  0  0
 16 21  1  0  0  0
 16 31  1  0  0  0
 17 18  1  0  0  0
 17 95  1  0  0  0
 18 19  2  0  0  0
 18 96  1  0  0  0
 19 20  1  0  0  0
 19 24  1  0  0  0
 20 21  2  0  0  0
 20 97  1  0  0  0
 21 23  1  0  0  0
 22 28  1  0  0  0
 22 32  2  0  0  0
 26 27  1  0  0  0
 28 98  1  0  0  0
 28 99  1  0  0  0
 29100  1  0  0  0
 29101  1  0  0  0
 33 34  1  0  0  0
 33 66  1  0  0  0
 33 70  2  0  0  0
 34 36  1  0  0  0
 34 59  1  0  0  0
 34102  1  0  0  0
 35 44  2  0  0  0
 35 45  1  0  0  0
 35 68  1  0  0  0
 36 56  1  0  0  0
 36103  1  0  0  0
 37 39  1  0  0  0
 37 47  1  0  0  0
 37 66  1  0  0  0
 37104  1  0  0  0
 38 43  2  0  0  0
 38 46  1  0  0  0
 38 47  1  0  0  0
 39 64  1  0  0  0
 39 67  2  0  0  0
 40 52  1  0  0  0
 40 53  2  0  0  0
 40 58  1  0  0  0
 41105  1  0  0  0
 41106  1  0  0  0
 41107  1  0  0  0
 41 48  1  0  0  0
 42 43  1  0  0  0
 42 66  1  0  0  0
 42108  1  0  0  0
 42109  1  0  0  0
 43 44  1  0  0  0
 44110  1  0  0  0
 45 46  2  0  0  0
 45111  1  0  0  0
 46112  1  0  0  0
 47113  1  0  0  0
 47114  1  0  0  0
 48 56  1  0  0  0
 48 65  1  0  0  0
 48115  1  0  0  0
 49 50  1  0  0  0
 49 53  1  0  0  0
 49 64  1  0  0  0
 49116  1  0  0  0
 50 51  1  0  0  0
 50117  1  0  0  0
 50118  1  0  0  0
 51 52  1  0  0  0
 51119  1  0  0  0
 51120  1  0  0  0
 52121  1  0  0  0
 52122  1  0  0  0
 53 54  1  0  0  0
 54 55  2  0  0  0
 54123  1  0  0  0
 55 57  1  0  0  0
 55124  1  0  0  0
 56 69  2  0  0  0
 57 58  2  0  0  0
 57125  1  0  0  0
 58126  1  0  0  0
 59 60  1  0  0  0
 59 61  1  0  0  0
 59 62  1  0  0  0
 60127  1  0  0  0
 60128  1  0  0  0
 60129  1  0  0  0
 61130  1  0  0  0
 61131  1  0  0  0
 61132  1  0  0  0
 62133  1  0  0  0
 62134  1  0  0  0
 62135  1  0  0  0
 63 65  1  0  0  0
 63136  1  0  0  0
 63137  1  0  0  0
 63138  1  0  0  0
 64139  1  0  0  0
 65140  1  0  0  0
 68 75  1  0  0  0
 71 72  1  0  0  0
 71 79  2  0  0  0
 71141  1  0  0  0
 72 73  2  0  0  0
 72 75  1  0  0  0
 73 76  1  0  0  0
 73 80  1  0  0  0
 74 80  1  0  0  0
 74142  1  0  0  0
 74143  1  0  0  0
 74144  1  0  0  0
 75145  1  0  0  0
 75146  1  0  0  0
 76 77  1  0  0  0
 76147  1  0  0  0
 76148  1  0  0  0
 77 78  1  0  0  0
 77149  1  0  0  0
 77150  1  0  0  0
 78 81  1  0  0  0
 78151  1  0  0  0
 78152  1  0  0  0
 79 80  1  0  0  0
 81153  1  0  0  0
M  ISO  4   1 100  68 101  75 101  81 100
M  END
> <chiral flag>
0

> <version>
0

> <s_m_source_file>
/data/baiqing/PycharmProjects/Reinvent-master-3.2/result/LINK_invent/BTK/process_docking_weight1_custom_sum_contain_oxygen_bond_distance_aromatic_linkinvent_7_9_3/rearranged_h_0044.sdf

> <i_m_source_file_index>
49

> <r_mmod_Potential_Energy-OPLS-2005>
556.967468261719

> <r_mmod_Stretch_Energy-OPLS-2005>
307.865936279297

> <r_mmod_Bend_Energy-OPLS-2005>
312.107757568359

> <r_mmod_Torsional_Energy-OPLS-2005>
210.499420166016

> <r_mmod_Improper_Torsional_Energy-OPLS-2005>
5.47538709640503

> <r_mmod_Van_der_Waal_Energy-OPLS-2005>
115.66820526123

> <r_mmod_Electrostatic_Energy-OPLS-2005>
-371.005340576172

> <r_mmod_Solvation_Energy-OPLS-2005>
-231.435729980469

> <b_mmod_Minimization_Converged-OPLS-2005>
0

> <r_mmod_RMS_Derivative-OPLS-2005>
6.97066307067871

$$$$
49
                    3D
 Structure written by MMmdl.
157165  0  0  1  0            999 V2000
  -30.6409  -14.7094   20.4896 C   0  0  0  0  0  0
  -30.4339  -12.4381   19.4813 C   0  0  0  0  0  0
  -29.5162  -12.5199   18.2427 C   0  0  0  0  0  0
  -28.0403  -12.3457   18.6534 C   0  0  0  0  0  0
  -27.6467  -13.2359   19.8637 C   0  0  2  0  0  0
  -28.6909  -13.1549   21.0007 C   0  0  0  0  0  0
  -25.2511  -13.8188   20.5703 C   0  0  0  0  0  0
  -24.1804  -13.0441   20.9200 C   0  0  0  0  0  0
  -24.6394  -11.6914   20.8749 C   0  0  0  0  0  0
  -23.9077  -10.4294   21.0406 C   0  0  0  0  0  0
  -24.3627   -9.4210   21.9181 C   0  0  0  0  0  0
  -23.6308   -8.2246   22.0755 C   0  0  0  0  0  0
  -22.4293   -8.0276   21.3545 C   0  0  0  0  0  0
  -21.9927   -9.0253   20.4648 C   0  0  0  0  0  0
  -22.7252  -10.2135   20.3060 C   0  0  0  0  0  0
  -21.6859   -6.0744   22.5280 C   0  0  0  0  0  0
  -21.4017   -6.5645   23.8213 C   0  0  0  0  0  0
  -21.3670   -5.6790   24.9174 C   0  0  0  0  0  0
  -21.6055   -4.3055   24.7221 C   0  0  0  0  0  0
  -21.8814   -3.8153   23.4339 C   0  0  0  0  0  0
  -21.9193   -4.6974   22.3399 C   0  0  0  0  0  0
  -22.7824  -13.5215   21.1855 C   0  0  0  0  0  0
  -22.1651   -4.2164   21.0975 F   0  0  0  0  0  0
  -21.5644   -3.4528   25.7731 F   0  0  0  0  0  0
  -29.9997  -13.4932   20.4245 N   0  0  0  0  0  0
  -26.2967  -12.9415   20.3348 N   0  0  0  0  0  0
  -25.9339  -11.6542   20.5770 N   0  0  0  0  0  0
  -22.0485  -12.8205   22.0413 N   0  0  0  0  0  0
  -25.4160  -15.1918   20.4113 N   0  0  0  0  0  0
  -31.8178  -14.8093   20.1341 O   0  0  0  0  0  0
  -21.6646   -6.8886   21.4241 O   0  0  0  0  0  0
  -22.3509  -14.5532   20.6712 O   0  0  0  0  0  0
  -24.6300  -31.8579   23.2035 C   0  0  0  0  0  0
  -25.9145  -32.4777   23.8338 C   0  0  1  0  0  0
  -27.2097  -27.2769   20.1137 C   0  0  0  0  0  0
  -25.5942  -33.8582   24.2253 N   0  0  0  0  0  0
  -23.4238  -30.4882   21.5468 C   0  0  2  0  0  0
  -24.8687  -28.9513   20.1038 C   0  0  0  0  0  0
  -22.7490  -29.4625   22.4900 C   0  0  0  0  0  0
  -18.0299  -28.1403   22.8481 C   0  0  0  0  0  0
  -24.1493  -36.7293   23.2629 C   0  0  0  0  0  0
  -25.9712  -30.7770   21.3814 C   0  0  0  0  0  0
  -26.0418  -29.4035   20.7202 C   0  0  0  0  0  0
  -27.2123  -28.5771   20.7227 C   0  0  0  0  0  0
  -26.0160  -26.9174   19.4366 C   0  0  0  0  0  0
  -24.8615  -27.7152   19.4493 C   0  0  0  0  0  0
  -23.6396  -29.8356   20.1583 C   0  0  0  0  0  0
  -25.4118  -36.3072   24.0310 C   0  0  1  0  0  0
  -20.5903  -28.3714   23.1266 C   0  0  2  0  0  0
  -20.6797  -26.9429   22.5418 C   0  0  0  0  0  0
  -19.5767  -26.6377   21.5227 C   0  0  0  0  0  0
  -18.1941  -26.7942   22.1627 C   0  0  0  0  0  0
  -19.1550  -28.8873   23.2871 C   0  0  0  0  0  0
  -18.9471  -30.1476   23.8889 C   0  0  0  0  0  0
  -17.6472  -30.6601   24.0567 C   0  0  0  0  0  0
  -25.9062  -34.9453   23.5073 C   0  0  0  0  0  0
  -16.5362  -29.9098   23.6345 C   0  0  0  0  0  0
  -16.7282  -28.6523   23.0342 C   0  0  0  0  0  0
  -26.4514  -31.6595   25.0718 C   0  0  0  0  0  0
  -25.3728  -31.3747   26.1423 C   0  0  0  0  0  0
  -27.0350  -30.3009   24.6193 C   0  0  0  0  0  0
  -27.6065  -32.4323   25.7500 C   0  0  0  0  0  0
  -27.5583  -37.1783   24.8444 C   0  0  0  0  0  0
  -21.4200  -29.3052   22.3637 N   0  0  0  0  0  0
  -26.4280  -37.3785   23.9415 N   0  0  0  0  0  0
  -24.6948  -31.0567   22.1006 N   0  0  0  0  0  0
  -23.4199  -28.8146   23.2980 O   0  0  0  0  0  0
  -28.2899  -26.3590   20.2064 O   0  0  0  0  0  0
  -26.5636  -34.8923   22.4644 O   0  0  0  0  0  0
  -23.5454  -32.1397   23.7338 O   0  0  0  0  0  0
  -27.5437  -22.5996   18.1151 C   0  0  0  0  0  0
  -28.4375  -22.3086   19.1760 C   0  0  0  0  0  0
  -28.8786  -20.9059   19.1801 C   0  0  0  0  0  0
  -27.8582  -20.6033   17.1140 C   0  0  0  0  0  0
  -27.6334  -19.7067   15.9152 C   0  0  0  0  0  0
  -28.8269  -23.5653   20.0849 C   0  0  0  0  0  0
  -29.6951  -20.0218   20.2052 C   0  0  0  0  0  0
  -29.2994  -18.4371   20.3022 C   0  0  0  0  0  0
  -30.3506  -17.3032   20.7515 C   0  0  0  0  0  0
  -28.0560  -24.9580   19.7355 C   0  0  0  0  0  0
  -27.2603  -21.7730   17.1042 N   0  0  0  0  0  0
  -28.6268  -20.1513   18.0868 N   0  0  0  0  0  0
  -29.9013  -15.8427   20.7660 N   0  0  0  0  0  0
  -31.4769  -12.5535   19.1837 H   0  0  0  0  0  0
  -30.3652  -11.4552   19.9501 H   0  0  0  0  0  0
  -29.7976  -11.7610   17.5119 H   0  0  0  0  0  0
  -29.6516  -13.4838   17.7490 H   0  0  0  0  0  0
  -27.8904  -11.2950   18.9033 H   0  0  0  0  0  0
  -27.3846  -12.5533   17.8069 H   0  0  0  0  0  0
  -27.6450  -14.2626   19.4955 H   0  0  0  0  0  0
  -28.7133  -12.1540   21.4368 H   0  0  0  0  0  0
  -28.4313  -13.8337   21.8155 H   0  0  0  0  0  0
  -25.2779   -9.5685   22.4744 H   0  0  0  0  0  0
  -24.0027   -7.4635   22.7474 H   0  0  0  0  0  0
  -21.0861   -8.8778   19.8946 H   0  0  0  0  0  0
  -22.3719  -10.9678   19.6167 H   0  0  0  0  0  0
  -21.1998   -7.6151   23.9721 H   0  0  0  0  0  0
  -21.1507   -6.0520   25.9077 H   0  0  0  0  0  0
  -22.0588   -2.7617   23.2830 H   0  0  0  0  0  0
  -22.4125  -11.9886   22.4817 H   0  0  0  0  0  0
  -21.1113  -13.1235   22.2630 H   0  0  0  0  0  0
  -24.6431  -15.8391   20.5223 H   0  0  0  0  0  0
  -26.2622  -15.6389   20.0830 H   0  0  0  0  0  0
  -26.7208  -32.5441   23.1078 H   0  0  0  0  0  0
  -25.0083  -33.9729   25.0383 H   0  0  0  0  0  0
  -22.7198  -31.3114   21.4080 H   0  0  0  0  0  0
  -23.3771  -35.9607   23.3254 H   0  0  0  0  0  0
  -24.3585  -36.8968   22.2052 H   0  0  0  0  0  0
  -23.7236  -37.6467   23.6698 H   0  0  0  0  0  0
  -26.1010  -31.5386   20.6104 H   0  0  0  0  0  0
  -26.8541  -30.8278   22.0078 H   0  0  0  0  0  0
  -28.1053  -28.9162   21.2281 H   0  0  0  0  0  0
  -25.9146  -25.9949   18.8881 H   0  0  0  0  0  0
  -23.9696  -27.3744   18.9404 H   0  0  0  0  0  0
  -23.7574  -30.6182   19.4067 H   0  0  0  0  0  0
  -22.7580  -29.2693   19.8528 H   0  0  0  0  0  0
  -25.1298  -36.1890   25.0800 H   0  0  0  0  0  0
  -21.0013  -28.3315   24.1377 H   0  0  0  0  0  0
  -20.5709  -26.2325   23.3628 H   0  0  0  0  0  0
  -21.6663  -26.7450   22.1201 H   0  0  0  0  0  0
  -19.6931  -25.6272   21.1283 H   0  0  0  0  0  0
  -19.6725  -27.3170   20.6742 H   0  0  0  0  0  0
  -17.4213  -26.6687   21.4024 H   0  0  0  0  0  0
  -18.0338  -26.0092   22.9030 H   0  0  0  0  0  0
  -19.7943  -30.7303   24.2241 H   0  0  0  0  0  0
  -17.5019  -31.6280   24.5168 H   0  0  0  0  0  0
  -15.5362  -30.2992   23.7675 H   0  0  0  0  0  0
  -15.8682  -28.0850   22.7041 H   0  0  0  0  0  0
  -24.5925  -30.7077   25.7741 H   0  0  0  0  0  0
  -24.8902  -32.2924   26.4796 H   0  0  0  0  0  0
  -25.8030  -30.8954   27.0227 H   0  0  0  0  0  0
  -26.2928  -29.6756   24.1220 H   0  0  0  0  0  0
  -27.4036  -29.7266   25.4705 H   0  0  0  0  0  0
  -27.8805  -30.4273   23.9427 H   0  0  0  0  0  0
  -27.2689  -33.3646   26.2035 H   0  0  0  0  0  0
  -28.3917  -32.6838   25.0357 H   0  0  0  0  0  0
  -28.0689  -31.8464   26.5451 H   0  0  0  0  0  0
  -28.2536  -38.0139   24.7573 H   0  0  0  0  0  0
  -28.1138  -36.2675   24.6164 H   0  0  0  0  0  0
  -27.2312  -37.1304   25.8843 H   0  0  0  0  0  0
  -20.9362  -29.8776   21.6858 H   0  0  0  0  0  0
  -26.0142  -38.2828   24.1501 H   0  0  0  0  0  0
  -27.0273  -23.5363   18.0011 H   0  0  0  0  0  0
  -26.9664  -20.1694   15.1863 H   0  0  0  0  0  0
  -27.1887  -18.7604   16.2193 H   0  0  0  0  0  0
  -28.5785  -19.5039   15.4126 H   0  0  0  0  0  0
  -29.8997  -23.7258   19.9814 H   0  0  0  0  0  0
  -28.6580  -23.3090   21.1309 H   0  0  0  0  0  0
  -29.6177  -20.4771   21.1932 H   0  0  0  0  0  0
  -30.7451  -20.1080   19.9246 H   0  0  0  0  0  0
  -28.9724  -18.0935   19.3233 H   0  0  0  0  0  0
  -28.4090  -18.3642   20.9262 H   0  0  0  0  0  0
  -30.6961  -17.5396   21.7581 H   0  0  0  0  0  0
  -31.2346  -17.3857   20.1158 H   0  0  0  0  0  0
  -27.0317  -24.6924   19.9902 H   0  0  0  0  0  0
  -28.1386  -25.1079   18.6605 H   0  0  0  0  0  0
  -28.9462  -15.6783   21.0503 H   0  0  0  0  0  0
  1 25  1  0  0  0
  1 30  2  0  0  0
  1 83  1  0  0  0
  2  3  1  0  0  0
  2 25  1  0  0  0
  2 84  1  0  0  0
  2 85  1  0  0  0
  3  4  1  0  0  0
  3 86  1  0  0  0
  3 87  1  0  0  0
  4  5  1  0  0  0
  4 88  1  0  0  0
  4 89  1  0  0  0
  5  6  1  0  0  0
  5 26  1  0  0  0
  5 90  1  0  0  0
  6 25  1  0  0  0
  6 91  1  0  0  0
  6 92  1  0  0  0
  7  8  2  0  0  0
  7 26  1  0  0  0
  7 29  1  0  0  0
  8  9  1  0  0  0
  8 22  1  0  0  0
  9 10  1  0  0  0
  9 27  2  0  0  0
 10 11  2  0  0  0
 10 15  1  0  0  0
 11 12  1  0  0  0
 11 93  1  0  0  0
 12 13  2  0  0  0
 12 94  1  0  0  0
 13 14  1  0  0  0
 13 31  1  0  0  0
 14 15  2  0  0  0
 14 95  1  0  0  0
 15 96  1  0  0  0
 16 17  2  0  0  0
 16 21  1  0  0  0
 16 31  1  0  0  0
 17 18  1  0  0  0
 17 97  1  0  0  0
 18 19  2  0  0  0
 18 98  1  0  0  0
 19 20  1  0  0  0
 19 24  1  0  0  0
 20 21  2  0  0  0
 20 99  1  0  0  0
 21 23  1  0  0  0
 22 28  1  0  0  0
 22 32  2  0  0  0
 26 27  1  0  0  0
 28100  1  0  0  0
 28101  1  0  0  0
 29102  1  0  0  0
 29103  1  0  0  0
 33 34  1  0  0  0
 33 66  1  0  0  0
 33 70  2  0  0  0
 34 36  1  0  0  0
 34 59  1  0  0  0
 34104  1  0  0  0
 35 44  2  0  0  0
 35 45  1  0  0  0
 35 68  1  0  0  0
 36 56  1  0  0  0
 36105  1  0  0  0
 37 39  1  0  0  0
 37 47  1  0  0  0
 37 66  1  0  0  0
 37106  1  0  0  0
 38 43  2  0  0  0
 38 46  1  0  0  0
 38 47  1  0  0  0
 39 64  1  0  0  0
 39 67  2  0  0  0
 40 52  1  0  0  0
 40 53  2  0  0  0
 40 58  1  0  0  0
 41107  1  0  0  0
 41108  1  0  0  0
 41109  1  0  0  0
 41 48  1  0  0  0
 42 43  1  0  0  0
 42 66  1  0  0  0
 42110  1  0  0  0
 42111  1  0  0  0
 43 44  1  0  0  0
 44112  1  0  0  0
 45 46  2  0  0  0
 45113  1  0  0  0
 46114  1  0  0  0
 47115  1  0  0  0
 47116  1  0  0  0
 48 56  1  0  0  0
 48 65  1  0  0  0
 48117  1  0  0  0
 49 50  1  0  0  0
 49 53  1  0  0  0
 49 64  1  0  0  0
 49118  1  0  0  0
 50 51  1  0  0  0
 50119  1  0  0  0
 50120  1  0  0  0
 51 52  1  0  0  0
 51121  1  0  0  0
 51122  1  0  0  0
 52123  1  0  0  0
 52124  1  0  0  0
 53 54  1  0  0  0
 54 55  2  0  0  0
 54125  1  0  0  0
 55 57  1  0  0  0
 55126  1  0  0  0
 56 69  2  0  0  0
 57 58  2  0  0  0
 57127  1  0  0  0
 58128  1  0  0  0
 59 60  1  0  0  0
 59 61  1  0  0  0
 59 62  1  0  0  0
 60129  1  0  0  0
 60130  1  0  0  0
 60131  1  0  0  0
 61132  1  0  0  0
 61133  1  0  0  0
 61134  1  0  0  0
 62135  1  0  0  0
 62136  1  0  0  0
 62137  1  0  0  0
 63 65  1  0  0  0
 63138  1  0  0  0
 63139  1  0  0  0
 63140  1  0  0  0
 64141  1  0  0  0
 65142  1  0  0  0
 68 80  1  0  0  0
 71 72  2  0  0  0
 71 81  1  0  0  0
 71143  1  0  0  0
 72 73  1  0  0  0
 72 76  1  0  0  0
 73 77  1  0  0  0
 73 82  2  0  0  0
 74 75  1  0  0  0
 74 81  2  0  0  0
 74 82  1  0  0  0
 75144  1  0  0  0
 75145  1  0  0  0
 75146  1  0  0  0
 76 80  1  0  0  0
 76147  1  0  0  0
 76148  1  0  0  0
 77 78  1  0  0  0
 77149  1  0  0  0
 77150  1  0  0  0
 78 79  1  0  0  0
 78151  1  0  0  0
 78152  1  0  0  0
 79 83  1  0  0  0
 79153  1  0  0  0
 79154  1  0  0  0
 80155  1  0  0  0
 80156  1  0  0  0
 83157  1  0  0  0
M  ISO  4   1 100  68 101  80 101  83 100
M  END
> <chiral flag>
0

> <version>
0

> <s_m_source_file>
/data/baiqing/PycharmProjects/Reinvent-master-3.2/result/LINK_invent/BTK/process_docking_weight1_custom_sum_contain_oxygen_bond_distance_aromatic_linkinvent_7_9_3/rearranged_h_0044.sdf

> <i_m_source_file_index>
50

> <r_mmod_Potential_Energy-OPLS-2005>
-235.907638549805

> <r_mmod_Stretch_Energy-OPLS-2005>
126.420593261719

> <r_mmod_Bend_Energy-OPLS-2005>
211.434326171875

> <r_mmod_Torsional_Energy-OPLS-2005>
209.019653320312

> <r_mmod_Improper_Torsional_Energy-OPLS-2005>
4.43929147720337

> <r_mmod_Van_der_Waal_Energy-OPLS-2005>
173.815246582031

> <r_mmod_Electrostatic_Energy-OPLS-2005>
-803.985290527344

> <r_mmod_Solvation_Energy-OPLS-2005>
-234.287796020508

> <b_mmod_Minimization_Converged-OPLS-2005>
0

> <r_mmod_RMS_Derivative-OPLS-2005>
2.54220676422119

$$$$
50
                    3D
 Structure written by MMmdl.
154162  0  0  1  0            999 V2000
  -30.6201  -14.7319   20.4507 C   0  0  0  0  0  0
  -30.4220  -12.4351   19.4914 C   0  0  0  0  0  0
  -29.5143  -12.5091   18.2458 C   0  0  0  0  0  0
  -28.0364  -12.3420   18.6466 C   0  0  0  0  0  0
  -27.6409  -13.2350   19.8536 C   0  0  2  0  0  0
  -28.6835  -13.1768   20.9910 C   0  0  0  0  0  0
  -25.2500  -13.8205   20.5686 C   0  0  0  0  0  0
  -24.1810  -13.0430   20.9184 C   0  0  0  0  0  0
  -24.6412  -11.6907   20.8721 C   0  0  0  0  0  0
  -23.9086  -10.4282   21.0383 C   0  0  0  0  0  0
  -24.3634   -9.4190   21.9167 C   0  0  0  0  0  0
  -23.6298   -8.2233   22.0756 C   0  0  0  0  0  0
  -22.4271   -8.0275   21.3550 C   0  0  0  0  0  0
  -21.9907   -9.0252   20.4651 C   0  0  0  0  0  0
  -22.7252  -10.2122   20.3050 C   0  0  0  0  0  0
  -21.6851   -6.0734   22.5278 C   0  0  0  0  0  0
  -21.4024   -6.5649   23.8213 C   0  0  0  0  0  0
  -21.3661   -5.6805   24.9175 C   0  0  0  0  0  0
  -21.6033   -4.3067   24.7222 C   0  0  0  0  0  0
  -21.8820   -3.8152   23.4350 C   0  0  0  0  0  0
  -21.9193   -4.6963   22.3401 C   0  0  0  0  0  0
  -22.7830  -13.5181   21.1886 C   0  0  0  0  0  0
  -22.1655   -4.2147   21.0977 F   0  0  0  0  0  0
  -21.5621   -3.4554   25.7735 F   0  0  0  0  0  0
  -29.9867  -13.5113   20.4079 N   0  0  0  0  0  0
  -26.2932  -12.9425   20.3286 N   0  0  0  0  0  0
  -25.9345  -11.6557   20.5738 N   0  0  0  0  0  0
  -22.0551  -12.8134   22.0463 N   0  0  0  0  0  0
  -25.4150  -15.1942   20.4107 N   0  0  0  0  0  0
  -31.8105  -14.8182   20.1367 O   0  0  0  0  0  0
  -21.6635   -6.8869   21.4240 O   0  0  0  0  0  0
  -22.3473  -14.5492   20.6749 O   0  0  0  0  0  0
  -24.6319  -31.8539   23.1978 C   0  0  0  0  0  0
  -25.9151  -32.4734   23.8313 C   0  0  1  0  0  0
  -27.2081  -27.2489   20.1103 C   0  0  0  0  0  0
  -25.5947  -33.8542   24.2225 N   0  0  0  0  0  0
  -23.4275  -30.4781   21.5428 C   0  0  2  0  0  0
  -24.8693  -28.9269   20.1085 C   0  0  0  0  0  0
  -22.7486  -29.4614   22.4917 C   0  0  0  0  0  0
  -18.0291  -28.1364   22.8467 C   0  0  0  0  0  0
  -24.1486  -36.7244   23.2637 C   0  0  0  0  0  0
  -25.9763  -30.7620   21.3806 C   0  0  0  0  0  0
  -26.0450  -29.3873   20.7138 C   0  0  0  0  0  0
  -27.2149  -28.5593   20.7033 C   0  0  0  0  0  0
  -25.9966  -26.8517   19.5006 C   0  0  0  0  0  0
  -24.8497  -27.6670   19.4966 C   0  0  0  0  0  0
  -23.6422  -29.8129   20.1597 C   0  0  0  0  0  0
  -25.4119  -36.3049   24.0315 C   0  0  1  0  0  0
  -20.5885  -28.3698   23.1256 C   0  0  2  0  0  0
  -20.6800  -26.9420   22.5407 C   0  0  0  0  0  0
  -19.5785  -26.6342   21.5214 C   0  0  0  0  0  0
  -18.1972  -26.7883   22.1636 C   0  0  0  0  0  0
  -19.1539  -28.8849   23.2836 C   0  0  0  0  0  0
  -18.9454  -30.1437   23.8866 C   0  0  0  0  0  0
  -17.6452  -30.6558   24.0549 C   0  0  0  0  0  0
  -25.9067  -34.9421   23.5068 C   0  0  0  0  0  0
  -16.5343  -29.9049   23.6348 C   0  0  0  0  0  0
  -16.7267  -28.6470   23.0347 C   0  0  0  0  0  0
  -26.4492  -31.6592   25.0732 C   0  0  0  0  0  0
  -25.3684  -31.3785   26.1432 C   0  0  0  0  0  0
  -27.0345  -30.2983   24.6295 C   0  0  0  0  0  0
  -27.6028  -32.4340   25.7526 C   0  0  0  0  0  0
  -27.5564  -37.1784   24.8466 C   0  0  0  0  0  0
  -21.4197  -29.3045   22.3650 N   0  0  0  0  0  0
  -26.4283  -37.3757   23.9406 N   0  0  0  0  0  0
  -24.6977  -31.0498   22.0961 N   0  0  0  0  0  0
  -23.4182  -28.8168   23.3024 O   0  0  0  0  0  0
  -28.3041  -26.3553   20.1988 O   0  0  0  0  0  0
  -26.5647  -34.8923   22.4643 O   0  0  0  0  0  0
  -23.5465  -32.1372   23.7277 O   0  0  0  0  0  0
  -29.3047  -22.5172   19.5735 C   0  0  0  0  0  0
  -28.5990  -23.6416   20.0270 C   0  0  0  0  0  0
  -28.3039  -21.8574   21.4117 C   0  0  0  0  0  0
  -27.8511  -21.0775   22.6052 C   0  0  0  0  0  0
  -28.4102  -25.0844   19.4009 C   0  0  0  0  0  0
  -29.2781  -18.5905   20.5322 C   0  0  0  0  0  0
  -29.9196  -20.0820   20.4418 C   0  0  0  0  0  0
  -30.3107  -17.3345   20.4553 C   0  0  0  0  0  0
  -29.1352  -21.4269   20.4390 N   0  0  0  0  0  0
  -27.9809  -23.1516   21.1562 N   0  3  0  0  0  0
  -29.8624  -15.8798   20.6272 N   0  0  0  0  0  0
  -31.4709  -12.5328   19.2098 H   0  0  0  0  0  0
  -30.3341  -11.4597   19.9741 H   0  0  0  0  0  0
  -29.7954  -11.7431   17.5224 H   0  0  0  0  0  0
  -29.6557  -13.4703   17.7495 H   0  0  0  0  0  0
  -27.8829  -11.2918   18.8957 H   0  0  0  0  0  0
  -27.3869  -12.5503   17.7945 H   0  0  0  0  0  0
  -27.6319  -14.2567   19.4745 H   0  0  0  0  0  0
  -28.7083  -12.1877   21.4505 H   0  0  0  0  0  0
  -28.4269  -13.8824   21.7829 H   0  0  0  0  0  0
  -25.2802   -9.5663   22.4722 H   0  0  0  0  0  0
  -24.0013   -7.4633   22.7493 H   0  0  0  0  0  0
  -21.0833   -8.8789   19.8956 H   0  0  0  0  0  0
  -22.3735  -10.9660   19.6153 H   0  0  0  0  0  0
  -21.2033   -7.6164   23.9706 H   0  0  0  0  0  0
  -21.1477   -6.0544   25.9073 H   0  0  0  0  0  0
  -22.0595   -2.7614   23.2855 H   0  0  0  0  0  0
  -22.4213  -11.9741   22.4724 H   0  0  0  0  0  0
  -21.1203  -13.1147   22.2799 H   0  0  0  0  0  0
  -24.6451  -15.8461   20.5184 H   0  0  0  0  0  0
  -26.2608  -15.6395   20.0807 H   0  0  0  0  0  0
  -26.7214  -32.5350   23.1049 H   0  0  0  0  0  0
  -25.0066  -33.9665   25.0350 H   0  0  0  0  0  0
  -22.7231  -31.3012   21.3995 H   0  0  0  0  0  0
  -23.3758  -35.9565   23.3315 H   0  0  0  0  0  0
  -24.3561  -36.8857   22.2047 H   0  0  0  0  0  0
  -23.7253  -37.6450   23.6659 H   0  0  0  0  0  0
  -26.1276  -31.5297   20.6204 H   0  0  0  0  0  0
  -26.8472  -30.7948   22.0240 H   0  0  0  0  0  0
  -28.1155  -28.9073   21.1899 H   0  0  0  0  0  0
  -25.8681  -25.8771   19.0619 H   0  0  0  0  0  0
  -23.9385  -27.3007   19.0429 H   0  0  0  0  0  0
  -23.7594  -30.5878   19.4016 H   0  0  0  0  0  0
  -22.7606  -29.2429   19.8613 H   0  0  0  0  0  0
  -25.1315  -36.1861   25.0804 H   0  0  0  0  0  0
  -20.9936  -28.3272   24.1388 H   0  0  0  0  0  0
  -20.5742  -26.2288   23.3597 H   0  0  0  0  0  0
  -21.6670  -26.7494   22.1180 H   0  0  0  0  0  0
  -19.6968  -25.6235   21.1297 H   0  0  0  0  0  0
  -19.6754  -27.3091   20.6701 H   0  0  0  0  0  0
  -17.4235  -26.6535   21.4063 H   0  0  0  0  0  0
  -18.0427  -26.0056   22.9072 H   0  0  0  0  0  0
  -19.7918  -30.7271   24.2231 H   0  0  0  0  0  0
  -17.5015  -31.6230   24.5165 H   0  0  0  0  0  0
  -15.5352  -30.2947   23.7699 H   0  0  0  0  0  0
  -15.8668  -28.0765   22.7073 H   0  0  0  0  0  0
  -24.5859  -30.7136   25.7756 H   0  0  0  0  0  0
  -24.8878  -32.2985   26.4771 H   0  0  0  0  0  0
  -25.7960  -30.9018   27.0265 H   0  0  0  0  0  0
  -26.2988  -29.6740   24.1211 H   0  0  0  0  0  0
  -27.3858  -29.7238   25.4880 H   0  0  0  0  0  0
  -27.8932  -30.4206   23.9690 H   0  0  0  0  0  0
  -27.2617  -33.3640   26.2086 H   0  0  0  0  0  0
  -28.3871  -32.6902   25.0391 H   0  0  0  0  0  0
  -28.0665  -31.8481   26.5471 H   0  0  0  0  0  0
  -28.2591  -38.0066   24.7491 H   0  0  0  0  0  0
  -28.1056  -36.2599   24.6329 H   0  0  0  0  0  0
  -27.2274  -37.1475   25.8867 H   0  0  0  0  0  0
  -20.9401  -29.8676   21.6773 H   0  0  0  0  0  0
  -26.0141  -38.2822   24.1417 H   0  0  0  0  0  0
  -29.9415  -22.4377   18.7036 H   0  0  0  0  0  0
  -27.0904  -21.6488   23.1379 H   0  0  0  0  0  0
  -28.7069  -20.9093   23.2592 H   0  0  0  0  0  0
  -27.4285  -20.1297   22.2744 H   0  0  0  0  0  0
  -27.6394  -25.0053   18.6401 H   0  0  0  0  0  0
  -29.3035  -25.2438   18.7985 H   0  0  0  0  0  0
  -28.7251  -18.5014   21.4657 H   0  0  0  0  0  0
  -28.5379  -18.4824   19.7386 H   0  0  0  0  0  0
  -30.5551  -20.1118   19.5557 H   0  0  0  0  0  0
  -30.6163  -20.1740   21.2752 H   0  0  0  0  0  0
  -31.0948  -17.5002   21.1973 H   0  0  0  0  0  0
  -30.8139  -17.3947   19.4886 H   0  0  0  0  0  0
  -27.3600  -23.7043   21.7344 H   0  0  0  0  0  0
  -28.8886  -15.7339   20.8486 H   0  0  0  0  0  0
  1 25  1  0  0  0
  1 30  2  0  0  0
  1 81  1  0  0  0
  2  3  1  0  0  0
  2 25  1  0  0  0
  2 82  1  0  0  0
  2 83  1  0  0  0
  3  4  1  0  0  0
  3 84  1  0  0  0
  3 85  1  0  0  0
  4  5  1  0  0  0
  4 86  1  0  0  0
  4 87  1  0  0  0
  5  6  1  0  0  0
  5 26  1  0  0  0
  5 88  1  0  0  0
  6 25  1  0  0  0
  6 89  1  0  0  0
  6 90  1  0  0  0
  7  8  2  0  0  0
  7 26  1  0  0  0
  7 29  1  0  0  0
  8  9  1  0  0  0
  8 22  1  0  0  0
  9 10  1  0  0  0
  9 27  2  0  0  0
 10 11  2  0  0  0
 10 15  1  0  0  0
 11 12  1  0  0  0
 11 91  1  0  0  0
 12 13  2  0  0  0
 12 92  1  0  0  0
 13 14  1  0  0  0
 13 31  1  0  0  0
 14 15  2  0  0  0
 14 93  1  0  0  0
 15 94  1  0  0  0
 16 17  2  0  0  0
 16 21  1  0  0  0
 16 31  1  0  0  0
 17 18  1  0  0  0
 17 95  1  0  0  0
 18 19  2  0  0  0
 18 96  1  0  0  0
 19 20  1  0  0  0
 19 24  1  0  0  0
 20 21  2  0  0  0
 20 97  1  0  0  0
 21 23  1  0  0  0
 22 28  1  0  0  0
 22 32  2  0  0  0
 26 27  1  0  0  0
 28 98  1  0  0  0
 28 99  1  0  0  0
 29100  1  0  0  0
 29101  1  0  0  0
 33 34  1  0  0  0
 33 66  1  0  0  0
 33 70  2  0  0  0
 34 36  1  0  0  0
 34 59  1  0  0  0
 34102  1  0  0  0
 35 44  2  0  0  0
 35 45  1  0  0  0
 35 68  1  0  0  0
 36 56  1  0  0  0
 36103  1  0  0  0
 37 39  1  0  0  0
 37 47  1  0  0  0
 37 66  1  0  0  0
 37104  1  0  0  0
 38 43  2  0  0  0
 38 46  1  0  0  0
 38 47  1  0  0  0
 39 64  1  0  0  0
 39 67  2  0  0  0
 40 52  1  0  0  0
 40 53  2  0  0  0
 40 58  1  0  0  0
 41105  1  0  0  0
 41106  1  0  0  0
 41107  1  0  0  0
 41 48  1  0  0  0
 42 43  1  0  0  0
 42 66  1  0  0  0
 42108  1  0  0  0
 42109  1  0  0  0
 43 44  1  0  0  0
 44110  1  0  0  0
 45 46  2  0  0  0
 45111  1  0  0  0
 46112  1  0  0  0
 47113  1  0  0  0
 47114  1  0  0  0
 48 56  1  0  0  0
 48 65  1  0  0  0
 48115  1  0  0  0
 49 50  1  0  0  0
 49 53  1  0  0  0
 49 64  1  0  0  0
 49116  1  0  0  0
 50 51  1  0  0  0
 50117  1  0  0  0
 50118  1  0  0  0
 51 52  1  0  0  0
 51119  1  0  0  0
 51120  1  0  0  0
 52121  1  0  0  0
 52122  1  0  0  0
 53 54  1  0  0  0
 54 55  2  0  0  0
 54123  1  0  0  0
 55 57  1  0  0  0
 55124  1  0  0  0
 56 69  2  0  0  0
 57 58  2  0  0  0
 57125  1  0  0  0
 58126  1  0  0  0
 59 60  1  0  0  0
 59 61  1  0  0  0
 59 62  1  0  0  0
 60127  1  0  0  0
 60128  1  0  0  0
 60129  1  0  0  0
 61130  1  0  0  0
 61131  1  0  0  0
 61132  1  0  0  0
 62133  1  0  0  0
 62134  1  0  0  0
 62135  1  0  0  0
 63 65  1  0  0  0
 63136  1  0  0  0
 63137  1  0  0  0
 63138  1  0  0  0
 64139  1  0  0  0
 65140  1  0  0  0
 68 75  1  0  0  0
 71 72  2  0  0  0
 71 79  1  0  0  0
 71141  1  0  0  0
 72 75  1  0  0  0
 72 80  1  0  0  0
 73 74  1  0  0  0
 73 79  1  0  0  0
 73 80  2  0  0  0
 74142  1  0  0  0
 74143  1  0  0  0
 74144  1  0  0  0
 75145  1  0  0  0
 75146  1  0  0  0
 76 77  1  0  0  0
 76 78  1  0  0  0
 76147  1  0  0  0
 76148  1  0  0  0
 77 79  1  0  0  0
 77149  1  0  0  0
 77150  1  0  0  0
 78 81  1  0  0  0
 78151  1  0  0  0
 78152  1  0  0  0
 80153  1  0  0  0
 81154  1  0  0  0
M  CHG  1  80   1
M  ISO  4   1 100  68 101  75 101  81 100
M  END
> <chiral flag>
0

> <version>
0

> <s_m_source_file>
/data/baiqing/PycharmProjects/Reinvent-master-3.2/result/LINK_invent/BTK/process_docking_weight1_custom_sum_contain_oxygen_bond_distance_aromatic_linkinvent_7_9_3/rearranged_h_0044.sdf

> <i_m_source_file_index>
51

> <r_mmod_Potential_Energy-OPLS-2005>
56.987174987793

> <r_mmod_Stretch_Energy-OPLS-2005>
121.571891784668

> <r_mmod_Bend_Energy-OPLS-2005>
185.225463867188

> <r_mmod_Torsional_Energy-OPLS-2005>
217.068969726562

> <r_mmod_Improper_Torsional_Energy-OPLS-2005>
6.7200288772583

> <r_mmod_Van_der_Waal_Energy-OPLS-2005>
117.891777038574

> <r_mmod_Electrostatic_Energy-OPLS-2005>
-249.810333251953

> <r_mmod_Solvation_Energy-OPLS-2005>
-429.086639404297

> <b_mmod_Minimization_Converged-OPLS-2005>
0

> <r_mmod_RMS_Derivative-OPLS-2005>
2.84259438514709

$$$$
51
                    3D
 Structure written by MMmdl.
157165  0  0  1  0            999 V2000
  -30.6409  -14.7094   20.4896 C   0  0  0  0  0  0
  -30.4339  -12.4381   19.4813 C   0  0  0  0  0  0
  -29.5162  -12.5199   18.2427 C   0  0  0  0  0  0
  -28.0403  -12.3457   18.6534 C   0  0  0  0  0  0
  -27.6467  -13.2359   19.8637 C   0  0  2  0  0  0
  -28.6909  -13.1549   21.0007 C   0  0  0  0  0  0
  -25.2511  -13.8188   20.5703 C   0  0  0  0  0  0
  -24.1804  -13.0441   20.9200 C   0  0  0  0  0  0
  -24.6394  -11.6914   20.8749 C   0  0  0  0  0  0
  -23.9077  -10.4294   21.0406 C   0  0  0  0  0  0
  -24.3627   -9.4210   21.9181 C   0  0  0  0  0  0
  -23.6308   -8.2246   22.0755 C   0  0  0  0  0  0
  -22.4293   -8.0276   21.3545 C   0  0  0  0  0  0
  -21.9927   -9.0253   20.4648 C   0  0  0  0  0  0
  -22.7252  -10.2135   20.3060 C   0  0  0  0  0  0
  -21.6859   -6.0744   22.5280 C   0  0  0  0  0  0
  -21.4017   -6.5645   23.8213 C   0  0  0  0  0  0
  -21.3670   -5.6790   24.9174 C   0  0  0  0  0  0
  -21.6055   -4.3055   24.7221 C   0  0  0  0  0  0
  -21.8814   -3.8153   23.4339 C   0  0  0  0  0  0
  -21.9193   -4.6974   22.3399 C   0  0  0  0  0  0
  -22.7824  -13.5215   21.1855 C   0  0  0  0  0  0
  -22.1651   -4.2164   21.0975 F   0  0  0  0  0  0
  -21.5644   -3.4528   25.7731 F   0  0  0  0  0  0
  -29.9997  -13.4932   20.4245 N   0  0  0  0  0  0
  -26.2967  -12.9415   20.3348 N   0  0  0  0  0  0
  -25.9339  -11.6542   20.5770 N   0  0  0  0  0  0
  -22.0485  -12.8205   22.0413 N   0  0  0  0  0  0
  -25.4160  -15.1918   20.4113 N   0  0  0  0  0  0
  -31.8178  -14.8093   20.1341 O   0  0  0  0  0  0
  -21.6646   -6.8886   21.4241 O   0  0  0  0  0  0
  -22.3509  -14.5532   20.6712 O   0  0  0  0  0  0
  -24.6300  -31.8579   23.2035 C   0  0  0  0  0  0
  -25.9145  -32.4777   23.8338 C   0  0  1  0  0  0
  -27.2097  -27.2769   20.1137 C   0  0  0  0  0  0
  -25.5942  -33.8582   24.2253 N   0  0  0  0  0  0
  -23.4238  -30.4882   21.5468 C   0  0  2  0  0  0
  -24.8687  -28.9513   20.1038 C   0  0  0  0  0  0
  -22.7490  -29.4625   22.4900 C   0  0  0  0  0  0
  -18.0299  -28.1403   22.8481 C   0  0  0  0  0  0
  -24.1493  -36.7293   23.2629 C   0  0  0  0  0  0
  -25.9712  -30.7770   21.3814 C   0  0  0  0  0  0
  -26.0418  -29.4035   20.7202 C   0  0  0  0  0  0
  -27.2123  -28.5771   20.7227 C   0  0  0  0  0  0
  -26.0160  -26.9174   19.4366 C   0  0  0  0  0  0
  -24.8615  -27.7152   19.4493 C   0  0  0  0  0  0
  -23.6396  -29.8356   20.1583 C   0  0  0  0  0  0
  -25.4118  -36.3072   24.0310 C   0  0  1  0  0  0
  -20.5903  -28.3714   23.1266 C   0  0  2  0  0  0
  -20.6797  -26.9429   22.5418 C   0  0  0  0  0  0
  -19.5767  -26.6377   21.5227 C   0  0  0  0  0  0
  -18.1941  -26.7942   22.1627 C   0  0  0  0  0  0
  -19.1550  -28.8873   23.2871 C   0  0  0  0  0  0
  -18.9471  -30.1476   23.8889 C   0  0  0  0  0  0
  -17.6472  -30.6601   24.0567 C   0  0  0  0  0  0
  -25.9062  -34.9453   23.5073 C   0  0  0  0  0  0
  -16.5362  -29.9098   23.6345 C   0  0  0  0  0  0
  -16.7282  -28.6523   23.0342 C   0  0  0  0  0  0
  -26.4514  -31.6595   25.0718 C   0  0  0  0  0  0
  -25.3728  -31.3747   26.1423 C   0  0  0  0  0  0
  -27.0350  -30.3009   24.6193 C   0  0  0  0  0  0
  -27.6065  -32.4323   25.7500 C   0  0  0  0  0  0
  -27.5583  -37.1783   24.8444 C   0  0  0  0  0  0
  -21.4200  -29.3052   22.3637 N   0  0  0  0  0  0
  -26.4280  -37.3785   23.9415 N   0  0  0  0  0  0
  -24.6948  -31.0567   22.1006 N   0  0  0  0  0  0
  -23.4199  -28.8146   23.2980 O   0  0  0  0  0  0
  -28.2899  -26.3590   20.2064 O   0  0  0  0  0  0
  -26.5636  -34.8923   22.4644 O   0  0  0  0  0  0
  -23.5454  -32.1397   23.7338 O   0  0  0  0  0  0
  -27.5437  -22.5996   18.1151 C   0  0  0  0  0  0
  -28.4375  -22.3086   19.1760 C   0  0  0  0  0  0
  -28.8786  -20.9059   19.1801 C   0  0  0  0  0  0
  -27.8582  -20.6033   17.1140 C   0  0  0  0  0  0
  -27.6334  -19.7067   15.9152 C   0  0  0  0  0  0
  -28.8269  -23.5653   20.0849 C   0  0  0  0  0  0
  -29.6951  -20.0218   20.2052 C   0  0  0  0  0  0
  -29.2994  -18.4371   20.3022 C   0  0  0  0  0  0
  -30.3506  -17.3032   20.7515 C   0  0  0  0  0  0
  -28.0560  -24.9580   19.7355 C   0  0  0  0  0  0
  -27.2603  -21.7730   17.1042 N   0  0  0  0  0  0
  -28.6268  -20.1513   18.0868 N   0  0  0  0  0  0
  -29.9013  -15.8427   20.7660 N   0  0  0  0  0  0
  -31.4769  -12.5535   19.1837 H   0  0  0  0  0  0
  -30.3652  -11.4552   19.9501 H   0  0  0  0  0  0
  -29.7976  -11.7610   17.5119 H   0  0  0  0  0  0
  -29.6516  -13.4838   17.7490 H   0  0  0  0  0  0
  -27.8904  -11.2950   18.9033 H   0  0  0  0  0  0
  -27.3846  -12.5533   17.8069 H   0  0  0  0  0  0
  -27.6450  -14.2626   19.4955 H   0  0  0  0  0  0
  -28.7133  -12.1540   21.4368 H   0  0  0  0  0  0
  -28.4313  -13.8337   21.8155 H   0  0  0  0  0  0
  -25.2779   -9.5685   22.4744 H   0  0  0  0  0  0
  -24.0027   -7.4635   22.7474 H   0  0  0  0  0  0
  -21.0861   -8.8778   19.8946 H   0  0  0  0  0  0
  -22.3719  -10.9678   19.6167 H   0  0  0  0  0  0
  -21.1998   -7.6151   23.9721 H   0  0  0  0  0  0
  -21.1507   -6.0520   25.9077 H   0  0  0  0  0  0
  -22.0588   -2.7617   23.2830 H   0  0  0  0  0  0
  -22.4125  -11.9886   22.4817 H   0  0  0  0  0  0
  -21.1113  -13.1235   22.2630 H   0  0  0  0  0  0
  -24.6431  -15.8391   20.5223 H   0  0  0  0  0  0
  -26.2622  -15.6389   20.0830 H   0  0  0  0  0  0
  -26.7208  -32.5441   23.1078 H   0  0  0  0  0  0
  -25.0083  -33.9729   25.0383 H   0  0  0  0  0  0
  -22.7198  -31.3114   21.4080 H   0  0  0  0  0  0
  -23.3771  -35.9607   23.3254 H   0  0  0  0  0  0
  -24.3585  -36.8968   22.2052 H   0  0  0  0  0  0
  -23.7236  -37.6467   23.6698 H   0  0  0  0  0  0
  -26.1010  -31.5386   20.6104 H   0  0  0  0  0  0
  -26.8541  -30.8278   22.0078 H   0  0  0  0  0  0
  -28.1053  -28.9162   21.2281 H   0  0  0  0  0  0
  -25.9146  -25.9949   18.8881 H   0  0  0  0  0  0
  -23.9696  -27.3744   18.9404 H   0  0  0  0  0  0
  -23.7574  -30.6182   19.4067 H   0  0  0  0  0  0
  -22.7580  -29.2693   19.8528 H   0  0  0  0  0  0
  -25.1298  -36.1890   25.0800 H   0  0  0  0  0  0
  -21.0013  -28.3315   24.1377 H   0  0  0  0  0  0
  -20.5709  -26.2325   23.3628 H   0  0  0  0  0  0
  -21.6663  -26.7450   22.1201 H   0  0  0  0  0  0
  -19.6931  -25.6272   21.1283 H   0  0  0  0  0  0
  -19.6725  -27.3170   20.6742 H   0  0  0  0  0  0
  -17.4213  -26.6687   21.4024 H   0  0  0  0  0  0
  -18.0338  -26.0092   22.9030 H   0  0  0  0  0  0
  -19.7943  -30.7303   24.2241 H   0  0  0  0  0  0
  -17.5019  -31.6280   24.5168 H   0  0  0  0  0  0
  -15.5362  -30.2992   23.7675 H   0  0  0  0  0  0
  -15.8682  -28.0850   22.7041 H   0  0  0  0  0  0
  -24.5925  -30.7077   25.7741 H   0  0  0  0  0  0
  -24.8902  -32.2924   26.4796 H   0  0  0  0  0  0
  -25.8030  -30.8954   27.0227 H   0  0  0  0  0  0
  -26.2928  -29.6756   24.1220 H   0  0  0  0  0  0
  -27.4036  -29.7266   25.4705 H   0  0  0  0  0  0
  -27.8805  -30.4273   23.9427 H   0  0  0  0  0  0
  -27.2689  -33.3646   26.2035 H   0  0  0  0  0  0
  -28.3917  -32.6838   25.0357 H   0  0  0  0  0  0
  -28.0689  -31.8464   26.5451 H   0  0  0  0  0  0
  -28.2536  -38.0139   24.7573 H   0  0  0  0  0  0
  -28.1138  -36.2675   24.6164 H   0  0  0  0  0  0
  -27.2312  -37.1304   25.8843 H   0  0  0  0  0  0
  -20.9362  -29.8776   21.6858 H   0  0  0  0  0  0
  -26.0142  -38.2828   24.1501 H   0  0  0  0  0  0
  -27.0273  -23.5363   18.0011 H   0  0  0  0  0  0
  -26.9664  -20.1694   15.1863 H   0  0  0  0  0  0
  -27.1887  -18.7604   16.2193 H   0  0  0  0  0  0
  -28.5785  -19.5039   15.4126 H   0  0  0  0  0  0
  -29.8997  -23.7258   19.9814 H   0  0  0  0  0  0
  -28.6580  -23.3090   21.1309 H   0  0  0  0  0  0
  -29.6177  -20.4771   21.1932 H   0  0  0  0  0  0
  -30.7451  -20.1080   19.9246 H   0  0  0  0  0  0
  -28.9724  -18.0935   19.3233 H   0  0  0  0  0  0
  -28.4090  -18.3642   20.9262 H   0  0  0  0  0  0
  -30.6961  -17.5396   21.7581 H   0  0  0  0  0  0
  -31.2346  -17.3857   20.1158 H   0  0  0  0  0  0
  -27.0317  -24.6924   19.9902 H   0  0  0  0  0  0
  -28.1386  -25.1079   18.6605 H   0  0  0  0  0  0
  -28.9462  -15.6783   21.0503 H   0  0  0  0  0  0
  1 25  1  0  0  0
  1 30  2  0  0  0
  1 83  1  0  0  0
  2  3  1  0  0  0
  2 25  1  0  0  0
  2 84  1  0  0  0
  2 85  1  0  0  0
  3  4  1  0  0  0
  3 86  1  0  0  0
  3 87  1  0  0  0
  4  5  1  0  0  0
  4 88  1  0  0  0
  4 89  1  0  0  0
  5  6  1  0  0  0
  5 26  1  0  0  0
  5 90  1  0  0  0
  6 25  1  0  0  0
  6 91  1  0  0  0
  6 92  1  0  0  0
  7  8  2  0  0  0
  7 26  1  0  0  0
  7 29  1  0  0  0
  8  9  1  0  0  0
  8 22  1  0  0  0
  9 10  1  0  0  0
  9 27  2  0  0  0
 10 11  2  0  0  0
 10 15  1  0  0  0
 11 12  1  0  0  0
 11 93  1  0  0  0
 12 13  2  0  0  0
 12 94  1  0  0  0
 13 14  1  0  0  0
 13 31  1  0  0  0
 14 15  2  0  0  0
 14 95  1  0  0  0
 15 96  1  0  0  0
 16 17  2  0  0  0
 16 21  1  0  0  0
 16 31  1  0  0  0
 17 18  1  0  0  0
 17 97  1  0  0  0
 18 19  2  0  0  0
 18 98  1  0  0  0
 19 20  1  0  0  0
 19 24  1  0  0  0
 20 21  2  0  0  0
 20 99  1  0  0  0
 21 23  1  0  0  0
 22 28  1  0  0  0
 22 32  2  0  0  0
 26 27  1  0  0  0
 28100  1  0  0  0
 28101  1  0  0  0
 29102  1  0  0  0
 29103  1  0  0  0
 33 34  1  0  0  0
 33 66  1  0  0  0
 33 70  2  0  0  0
 34 36  1  0  0  0
 34 59  1  0  0  0
 34104  1  0  0  0
 35 44  2  0  0  0
 35 45  1  0  0  0
 35 68  1  0  0  0
 36 56  1  0  0  0
 36105  1  0  0  0
 37 39  1  0  0  0
 37 47  1  0  0  0
 37 66  1  0  0  0
 37106  1  0  0  0
 38 43  2  0  0  0
 38 46  1  0  0  0
 38 47  1  0  0  0
 39 64  1  0  0  0
 39 67  2  0  0  0
 40 52  1  0  0  0
 40 53  2  0  0  0
 40 58  1  0  0  0
 41107  1  0  0  0
 41108  1  0  0  0
 41109  1  0  0  0
 41 48  1  0  0  0
 42 43  1  0  0  0
 42 66  1  0  0  0
 42110  1  0  0  0
 42111  1  0  0  0
 43 44  1  0  0  0
 44112  1  0  0  0
 45 46  2  0  0  0
 45113  1  0  0  0
 46114  1  0  0  0
 47115  1  0  0  0
 47116  1  0  0  0
 48 56  1  0  0  0
 48 65  1  0  0  0
 48117  1  0  0  0
 49 50  1  0  0  0
 49 53  1  0  0  0
 49 64  1  0  0  0
 49118  1  0  0  0
 50 51  1  0  0  0
 50119  1  0  0  0
 50120  1  0  0  0
 51 52  1  0  0  0
 51121  1  0  0  0
 51122  1  0  0  0
 52123  1  0  0  0
 52124  1  0  0  0
 53 54  1  0  0  0
 54 55  2  0  0  0
 54125  1  0  0  0
 55 57  1  0  0  0
 55126  1  0  0  0
 56 69  2  0  0  0
 57 58  2  0  0  0
 57127  1  0  0  0
 58128  1  0  0  0
 59 60  1  0  0  0
 59 61  1  0  0  0
 59 62  1  0  0  0
 60129  1  0  0  0
 60130  1  0  0  0
 60131  1  0  0  0
 61132  1  0  0  0
 61133  1  0  0  0
 61134  1  0  0  0
 62135  1  0  0  0
 62136  1  0  0  0
 62137  1  0  0  0
 63 65  1  0  0  0
 63138  1  0  0  0
 63139  1  0  0  0
 63140  1  0  0  0
 64141  1  0  0  0
 65142  1  0  0  0
 68 80  1  0  0  0
 71 72  2  0  0  0
 71 81  1  0  0  0
 71143  1  0  0  0
 72 73  1  0  0  0
 72 76  1  0  0  0
 73 77  1  0  0  0
 73 82  2  0  0  0
 74 75  1  0  0  0
 74 81  2  0  0  0
 74 82  1  0  0  0
 75144  1  0  0  0
 75145  1  0  0  0
 75146  1  0  0  0
 76 80  1  0  0  0
 76147  1  0  0  0
 76148  1  0  0  0
 77 78  1  0  0  0
 77149  1  0  0  0
 77150  1  0  0  0
 78 79  1  0  0  0
 78151  1  0  0  0
 78152  1  0  0  0
 79 83  1  0  0  0
 79153  1  0  0  0
 79154  1  0  0  0
 80155  1  0  0  0
 80156  1  0  0  0
 83157  1  0  0  0
M  ISO  4   1 100  68 101  80 101  83 100
M  END
> <chiral flag>
0

> <version>
0

> <s_m_source_file>
/data/baiqing/PycharmProjects/Reinvent-master-3.2/result/LINK_invent/BTK/process_docking_weight1_custom_sum_contain_oxygen_bond_distance_aromatic_linkinvent_7_9_3/rearranged_h_0044.sdf

> <i_m_source_file_index>
52

> <r_mmod_Potential_Energy-OPLS-2005>
-235.907638549805

> <r_mmod_Stretch_Energy-OPLS-2005>
126.420593261719

> <r_mmod_Bend_Energy-OPLS-2005>
211.434326171875

> <r_mmod_Torsional_Energy-OPLS-2005>
209.019653320312

> <r_mmod_Improper_Torsional_Energy-OPLS-2005>
4.43929147720337

> <r_mmod_Van_der_Waal_Energy-OPLS-2005>
173.815246582031

> <r_mmod_Electrostatic_Energy-OPLS-2005>
-803.985290527344

> <r_mmod_Solvation_Energy-OPLS-2005>
-234.287796020508

> <b_mmod_Minimization_Converged-OPLS-2005>
0

> <r_mmod_RMS_Derivative-OPLS-2005>
2.54220676422119

$$$$
52
                    3D
 Structure written by MMmdl.
179188  0  0  1  0            999 V2000
  -30.7091  -14.4181   20.3780 C   0  0  0  0  0  0
  -30.4092  -12.2259   19.4282 C   0  0  0  0  0  0
  -29.4813  -12.4132   18.2073 C   0  0  0  0  0  0
  -28.0000  -12.3235   18.6218 C   0  0  0  0  0  0
  -27.6534  -13.1978   19.8566 C   0  0  2  0  0  0
  -28.7098  -13.0540   20.9830 C   0  0  0  0  0  0
  -25.2599  -13.8121   20.5746 C   0  0  0  0  0  0
  -24.1819  -13.0430   20.9200 C   0  0  0  0  0  0
  -24.6361  -11.6890   20.8781 C   0  0  0  0  0  0
  -23.9016  -10.4280   21.0441 C   0  0  0  0  0  0
  -24.3570   -9.4201   21.9225 C   0  0  0  0  0  0
  -23.6256   -8.2252   22.0784 C   0  0  0  0  0  0
  -22.4260   -8.0275   21.3561 C   0  0  0  0  0  0
  -21.9880   -9.0255   20.4674 C   0  0  0  0  0  0
  -22.7194  -10.2124   20.3100 C   0  0  0  0  0  0
  -21.6855   -6.0709   22.5283 C   0  0  0  0  0  0
  -21.4037   -6.5632   23.8223 C   0  0  0  0  0  0
  -21.3650   -5.6783   24.9194 C   0  0  0  0  0  0
  -21.6017   -4.3054   24.7245 C   0  0  0  0  0  0
  -21.8816   -3.8144   23.4373 C   0  0  0  0  0  0
  -21.9209   -4.6948   22.3418 C   0  0  0  0  0  0
  -22.7852  -13.5267   21.1819 C   0  0  0  0  0  0
  -22.1679   -4.2140   21.1009 F   0  0  0  0  0  0
  -21.5609   -3.4543   25.7750 F   0  0  0  0  0  0
  -30.0470  -13.2463   20.4110 N   0  0  0  0  0  0
  -26.3012  -12.9284   20.3367 N   0  0  0  0  0  0
  -25.9283  -11.6465   20.5805 N   0  0  0  0  0  0
  -22.0419  -12.8347   22.0345 N   0  0  0  0  0  0
  -25.4295  -15.1840   20.4193 N   0  0  0  0  0  0
  -31.9192  -14.5357   20.1992 O   0  0  0  0  0  0
  -21.6650   -6.8852   21.4243 O   0  0  0  0  0  0
  -22.3590  -14.5575   20.6597 O   0  0  0  0  0  0
  -24.6068  -31.8742   23.2117 C   0  0  0  0  0  0
  -25.8998  -32.4856   23.8401 C   0  0  1  0  0  0
  -27.2711  -27.5063   20.1053 C   0  0  0  0  0  0
  -25.5881  -33.8652   24.2327 N   0  0  0  0  0  0
  -23.3917  -30.4873   21.5487 C   0  0  2  0  0  0
  -24.8483  -28.9472   20.1283 C   0  0  0  0  0  0
  -22.7355  -29.4675   22.5054 C   0  0  0  0  0  0
  -18.0253  -28.1384   22.8506 C   0  0  0  0  0  0
  -24.1467  -36.7294   23.2632 C   0  0  0  0  0  0
  -25.9091  -30.8620   21.3509 C   0  0  0  0  0  0
  -25.9956  -29.4937   20.7137 C   0  0  0  0  0  0
  -27.2066  -28.7798   20.6975 C   0  0  0  0  0  0
  -26.1095  -26.9478   19.5257 C   0  0  0  0  0  0
  -24.8965  -27.6702   19.5348 C   0  0  0  0  0  0
  -23.6034  -29.8039   20.1677 C   0  0  0  0  0  0
  -25.4100  -36.3130   24.0337 C   0  0  1  0  0  0
  -20.5843  -28.3654   23.1383 C   0  0  2  0  0  0
  -20.6745  -26.9395   22.5476 C   0  0  0  0  0  0
  -19.5738  -26.6394   21.5249 C   0  0  0  0  0  0
  -18.1895  -26.7960   22.1594 C   0  0  0  0  0  0
  -19.1504  -28.8827   23.2944 C   0  0  0  0  0  0
  -18.9445  -30.1446   23.8941 C   0  0  0  0  0  0
  -17.6441  -30.6603   24.0588 C   0  0  0  0  0  0
  -25.9046  -34.9503   23.5133 C   0  0  0  0  0  0
  -16.5329  -29.9097   23.6345 C   0  0  0  0  0  0
  -16.7250  -28.6525   23.0346 C   0  0  0  0  0  0
  -26.4453  -31.6625   25.0710 C   0  0  0  0  0  0
  -25.3731  -31.3721   26.1476 C   0  0  0  0  0  0
  -27.0285  -30.3079   24.6036 C   0  0  0  0  0  0
  -27.6043  -32.4347   25.7449 C   0  0  0  0  0  0
  -27.5620  -37.1767   24.8439 C   0  0  0  0  0  0
  -21.4098  -29.3018   22.3792 N   0  0  0  0  0  0
  -26.4268  -37.3839   23.9476 N   0  0  0  0  0  0
  -24.6522  -31.0876   22.0985 N   0  0  0  0  0  0
  -23.4175  -28.8257   23.3099 O   0  0  0  0  0  0
  -28.5100  -26.9281   20.0181 O   0  0  0  0  0  0
  -26.5598  -34.8952   22.4688 O   0  0  0  0  0  0
  -23.5266  -32.1450   23.7546 O   0  0  0  0  0  0
  -32.3245  -20.1315   20.8963 C   0  0  0  0  0  0
  -31.2110  -19.2834   20.9934 C   0  0  0  0  0  0
  -29.9737  -19.8901   21.2828 C   0  0  0  0  0  0
  -30.9664  -21.9414   21.1328 C   0  0  0  0  0  0
  -30.1528  -24.2003   21.9879 C   0  0  0  0  0  0
  -29.7656  -23.4652   19.5511 C   0  0  0  0  0  0
  -29.6991  -25.6133   21.5841 C   0  0  0  0  0  0
  -29.3327  -24.8878   19.1971 C   0  0  0  0  0  0
  -30.7015  -23.4002   20.7861 C   0  0  2  0  0  0
  -28.7017  -25.5860   20.4092 C   0  0  2  0  0  0
  -27.2428  -20.7833   16.6566 C   0  0  0  0  0  0
  -31.3484  -17.8053   20.6956 C   0  0  0  0  0  0
  -28.6457  -19.1456   21.3922 C   0  0  0  0  0  0
  -27.0766  -19.7454   17.7773 C   0  0  0  0  0  0
  -31.0492  -17.5167   19.2008 C   0  0  0  0  0  0
  -27.8967  -18.9012   20.0598 C   0  0  0  0  0  0
  -27.9533  -20.0317   19.0082 C   0  0  0  0  0  0
  -30.2360  -16.2546   18.8490 C   0  0  0  0  0  0
  -32.1914  -21.4692   20.9362 N   0  0  0  0  0  0
  -29.8842  -21.2204   21.3858 N   0  0  0  0  0  0
  -29.8989  -15.4027   19.9869 N   0  0  0  0  0  0
  -31.4551  -12.2914   19.1207 H   0  0  0  0  0  0
  -30.2806  -11.2387   19.8729 H   0  0  0  0  0  0
  -29.6895  -11.6525   17.4539 H   0  0  0  0  0  0
  -29.6705  -13.3712   17.7260 H   0  0  0  0  0  0
  -27.7837  -11.2747   18.8385 H   0  0  0  0  0  0
  -27.3570  -12.5904   17.7823 H   0  0  0  0  0  0
  -27.6510  -14.2227   19.4908 H   0  0  0  0  0  0
  -28.6550  -12.0722   21.4486 H   0  0  0  0  0  0
  -28.5217  -13.7826   21.7737 H   0  0  0  0  0  0
  -25.2682   -9.5719   22.4836 H   0  0  0  0  0  0
  -23.9930   -7.4681   22.7561 H   0  0  0  0  0  0
  -21.0792   -8.8799   19.9002 H   0  0  0  0  0  0
  -22.3653  -10.9684   19.6257 H   0  0  0  0  0  0
  -21.2024   -7.6152   23.9730 H   0  0  0  0  0  0
  -21.1455   -6.0529   25.9083 H   0  0  0  0  0  0
  -22.0575   -2.7611   23.2908 H   0  0  0  0  0  0
  -22.3957  -12.0003   22.4798 H   0  0  0  0  0  0
  -21.1069  -13.1498   22.2515 H   0  0  0  0  0  0
  -24.6477  -15.8211   20.5185 H   0  0  0  0  0  0
  -26.2668  -15.6371   20.0837 H   0  0  0  0  0  0
  -26.7068  -32.5603   23.1189 H   0  0  0  0  0  0
  -25.0102  -33.9844   25.0512 H   0  0  0  0  0  0
  -22.6750  -31.2985   21.4015 H   0  0  0  0  0  0
  -23.3838  -35.9518   23.3141 H   0  0  0  0  0  0
  -24.3608  -36.9071   22.2096 H   0  0  0  0  0  0
  -23.7075  -37.6370   23.6749 H   0  0  0  0  0  0
  -25.9982  -31.6279   20.5773 H   0  0  0  0  0  0
  -26.8037  -30.9327   21.9568 H   0  0  0  0  0  0
  -28.1001  -29.2154   21.1207 H   0  0  0  0  0  0
  -26.1560  -25.9833   19.0382 H   0  0  0  0  0  0
  -24.0165  -27.2439   19.0766 H   0  0  0  0  0  0
  -23.7042  -30.5724   19.4003 H   0  0  0  0  0  0
  -22.7348  -29.2110   19.8784 H   0  0  0  0  0  0
  -25.1293  -36.1950   25.0833 H   0  0  0  0  0  0
  -20.9925  -28.3189   24.1502 H   0  0  0  0  0  0
  -20.5643  -26.2252   23.3650 H   0  0  0  0  0  0
  -21.6612  -26.7439   22.1253 H   0  0  0  0  0  0
  -19.6890  -25.6300   21.1282 H   0  0  0  0  0  0
  -19.6742  -27.3223   20.6795 H   0  0  0  0  0  0
  -17.4221  -26.6814   21.3924 H   0  0  0  0  0  0
  -18.0199  -26.0061   22.8916 H   0  0  0  0  0  0
  -19.7896  -30.7278   24.2307 H   0  0  0  0  0  0
  -17.4982  -31.6281   24.5170 H   0  0  0  0  0  0
  -15.5332  -30.3020   23.7652 H   0  0  0  0  0  0
  -15.8642  -28.0889   22.7017 H   0  0  0  0  0  0
  -24.5916  -30.7051   25.7822 H   0  0  0  0  0  0
  -24.8906  -32.2868   26.4924 H   0  0  0  0  0  0
  -25.8094  -30.8904   27.0230 H   0  0  0  0  0  0
  -26.2796  -29.6825   24.1164 H   0  0  0  0  0  0
  -27.4163  -29.7343   25.4460 H   0  0  0  0  0  0
  -27.8572  -30.4433   23.9089 H   0  0  0  0  0  0
  -27.2707  -33.3704   26.1957 H   0  0  0  0  0  0
  -28.3884  -32.6818   25.0279 H   0  0  0  0  0  0
  -28.0668  -31.8510   26.5419 H   0  0  0  0  0  0
  -28.2497  -38.0197   24.7717 H   0  0  0  0  0  0
  -28.1245  -36.2761   24.5951 H   0  0  0  0  0  0
  -27.2390  -37.1035   25.8830 H   0  0  0  0  0  0
  -20.9240  -29.8734   21.7025 H   0  0  0  0  0  0
  -26.0149  -38.2868   24.1641 H   0  0  0  0  0  0
  -33.3095  -19.7430   20.6866 H   0  0  0  0  0  0
  -29.3095  -23.6681   22.4264 H   0  0  0  0  0  0
  -30.9139  -24.2551   22.7677 H   0  0  0  0  0  0
  -30.2400  -22.9834   18.6961 H   0  0  0  0  0  0
  -28.8597  -22.8936   19.7476 H   0  0  0  0  0  0
  -30.5735  -26.2002   21.2999 H   0  0  0  0  0  0
  -29.2597  -26.1215   22.4426 H   0  0  0  0  0  0
  -28.6235  -24.8669   18.3687 H   0  0  0  0  0  0
  -30.1980  -25.4544   18.8509 H   0  0  0  0  0  0
  -31.6531  -23.8544   20.5014 H   0  0  0  0  0  0
  -27.7751  -25.0935   20.7130 H   0  0  0  0  0  0
  -26.5867  -20.5612   15.8141 H   0  0  0  0  0  0
  -28.2643  -20.7990   16.2783 H   0  0  0  0  0  0
  -26.9980  -21.7894   16.9985 H   0  0  0  0  0  0
  -30.6983  -17.2722   21.3830 H   0  0  0  0  0  0
  -32.3616  -17.4774   20.9437 H   0  0  0  0  0  0
  -27.9938  -19.7320   22.0417 H   0  0  0  0  0  0
  -28.7850  -18.2038   21.9203 H   0  0  0  0  0  0
  -27.3051  -18.7574   17.3767 H   0  0  0  0  0  0
  -26.0293  -19.7174   18.0813 H   0  0  0  0  0  0
  -31.9841  -17.5221   18.6362 H   0  0  0  0  0  0
  -30.4894  -18.3538   18.7851 H   0  0  0  0  0  0
  -26.8599  -18.6576   20.2866 H   0  0  0  0  0  0
  -28.3073  -18.0016   19.6127 H   0  0  0  0  0  0
  -27.6317  -20.9713   19.4582 H   0  0  0  0  0  0
  -28.9867  -20.1832   18.6860 H   0  0  0  0  0  0
  -30.7751  -15.6743   18.0937 H   0  0  0  0  0  0
  -29.3038  -16.5249   18.3475 H   0  0  0  0  0  0
  -28.9180  -15.2430   20.1495 H   0  0  0  0  0  0
  1 25  1  0  0  0
  1 30  2  0  0  0
  1 91  1  0  0  0
  2  3  1  0  0  0
  2 25  1  0  0  0
  2 92  1  0  0  0
  2 93  1  0  0  0
  3  4  1  0  0  0
  3 94  1  0  0  0
  3 95  1  0  0  0
  4  5  1  0  0  0
  4 96  1  0  0  0
  4 97  1  0  0  0
  5  6  1  0  0  0
  5 26  1  0  0  0
  5 98  1  0  0  0
  6 25  1  0  0  0
  6 99  1  0  0  0
  6100  1  0  0  0
  7  8  2  0  0  0
  7 26  1  0  0  0
  7 29  1  0  0  0
  8  9  1  0  0  0
  8 22  1  0  0  0
  9 10  1  0  0  0
  9 27  2  0  0  0
 10 11  2  0  0  0
 10 15  1  0  0  0
 11 12  1  0  0  0
 11101  1  0  0  0
 12 13  2  0  0  0
 12102  1  0  0  0
 13 14  1  0  0  0
 13 31  1  0  0  0
 14 15  2  0  0  0
 14103  1  0  0  0
 15104  1  0  0  0
 16 17  2  0  0  0
 16 21  1  0  0  0
 16 31  1  0  0  0
 17 18  1  0  0  0
 17105  1  0  0  0
 18 19  2  0  0  0
 18106  1  0  0  0
 19 20  1  0  0  0
 19 24  1  0  0  0
 20 21  2  0  0  0
 20107  1  0  0  0
 21 23  1  0  0  0
 22 28  1  0  0  0
 22 32  2  0  0  0
 26 27  1  0  0  0
 28108  1  0  0  0
 28109  1  0  0  0
 29110  1  0  0  0
 29111  1  0  0  0
 33 34  1  0  0  0
 33 66  1  0  0  0
 33 70  2  0  0  0
 34 36  1  0  0  0
 34 59  1  0  0  0
 34112  1  0  0  0
 35 44  2  0  0  0
 35 45  1  0  0  0
 35 68  1  0  0  0
 36 56  1  0  0  0
 36113  1  0  0  0
 37 39  1  0  0  0
 37 47  1  0  0  0
 37 66  1  0  0  0
 37114  1  0  0  0
 38 43  2  0  0  0
 38 46  1  0  0  0
 38 47  1  0  0  0
 39 64  1  0  0  0
 39 67  2  0  0  0
 40 52  1  0  0  0
 40 53  2  0  0  0
 40 58  1  0  0  0
 41115  1  0  0  0
 41116  1  0  0  0
 41117  1  0  0  0
 41 48  1  0  0  0
 42 43  1  0  0  0
 42 66  1  0  0  0
 42118  1  0  0  0
 42119  1  0  0  0
 43 44  1  0  0  0
 44120  1  0  0  0
 45 46  2  0  0  0
 45121  1  0  0  0
 46122  1  0  0  0
 47123  1  0  0  0
 47124  1  0  0  0
 48 56  1  0  0  0
 48 65  1  0  0  0
 48125  1  0  0  0
 49 50  1  0  0  0
 49 53  1  0  0  0
 49 64  1  0  0  0
 49126  1  0  0  0
 50 51  1  0  0  0
 50127  1  0  0  0
 50128  1  0  0  0
 51 52  1  0  0  0
 51129  1  0  0  0
 51130  1  0  0  0
 52131  1  0  0  0
 52132  1  0  0  0
 53 54  1  0  0  0
 54 55  2  0  0  0
 54133  1  0  0  0
 55 57  1  0  0  0
 55134  1  0  0  0
 56 69  2  0  0  0
 57 58  2  0  0  0
 57135  1  0  0  0
 58136  1  0  0  0
 59 60  1  0  0  0
 59 61  1  0  0  0
 59 62  1  0  0  0
 60137  1  0  0  0
 60138  1  0  0  0
 60139  1  0  0  0
 61140  1  0  0  0
 61141  1  0  0  0
 61142  1  0  0  0
 62143  1  0  0  0
 62144  1  0  0  0
 62145  1  0  0  0
 63 65  1  0  0  0
 63146  1  0  0  0
 63147  1  0  0  0
 63148  1  0  0  0
 64149  1  0  0  0
 65150  1  0  0  0
 68 80  1  0  0  0
 71 72  2  0  0  0
 71 89  1  0  0  0
 71151  1  0  0  0
 72 73  1  0  0  0
 72 82  1  0  0  0
 73 83  1  0  0  0
 73 90  2  0  0  0
 74 89  2  0  0  0
 74 90  1  0  0  0
 74 79  1  0  0  0
 75 77  1  0  0  0
 75 79  1  0  0  0
 75152  1  0  0  0
 75153  1  0  0  0
 76 78  1  0  0  0
 76 79  1  0  0  0
 76154  1  0  0  0
 76155  1  0  0  0
 77 80  1  0  0  0
 77156  1  0  0  0
 77157  1  0  0  0
 78 80  1  0  0  0
 78158  1  0  0  0
 78159  1  0  0  0
 79160  1  0  0  0
 80161  1  0  0  0
 81 84  1  0  0  0
 81162  1  0  0  0
 81163  1  0  0  0
 81164  1  0  0  0
 82 85  1  0  0  0
 82165  1  0  0  0
 82166  1  0  0  0
 83 86  1  0  0  0
 83167  1  0  0  0
 83168  1  0  0  0
 84 87  1  0  0  0
 84169  1  0  0  0
 84170  1  0  0  0
 85 88  1  0  0  0
 85171  1  0  0  0
 85172  1  0  0  0
 86 87  1  0  0  0
 86173  1  0  0  0
 86174  1  0  0  0
 87175  1  0  0  0
 87176  1  0  0  0
 88 91  1  0  0  0
 88177  1  0  0  0
 88178  1  0  0  0
 91179  1  0  0  0
M  ISO  4   1 100  68 101  80 101  91 100
M  END
> <chiral flag>
0

> <version>
0

> <s_m_source_file>
/data/baiqing/PycharmProjects/Reinvent-master-3.2/result/LINK_invent/BTK/process_docking_weight1_custom_sum_contain_oxygen_bond_distance_aromatic_linkinvent_7_9_3/rearranged_h_0044.sdf

> <i_m_source_file_index>
53

> <r_mmod_Potential_Energy-OPLS-2005>
-301.049591064453

> <r_mmod_Stretch_Energy-OPLS-2005>
31.1044673919678

> <r_mmod_Bend_Energy-OPLS-2005>
115.581436157227

> <r_mmod_Torsional_Energy-OPLS-2005>
284.434326171875

> <r_mmod_Improper_Torsional_Energy-OPLS-2005>
22.7996063232422

> <r_mmod_Van_der_Waal_Energy-OPLS-2005>
160.067321777344

> <r_mmod_Electrostatic_Energy-OPLS-2005>
-724.559936523438

> <r_mmod_Solvation_Energy-OPLS-2005>
-219.324935913086

> <b_mmod_Minimization_Converged-OPLS-2005>
0

> <r_mmod_RMS_Derivative-OPLS-2005>
5.16773700714111

$$$$
53
                    3D
 Structure written by MMmdl.
160168  0  0  1  0            999 V2000
  -30.7205  -14.4153   20.5456 C   0  0  0  0  0  0
  -30.4165  -12.2624   19.4181 C   0  0  0  0  0  0
  -29.4940  -12.5007   18.2042 C   0  0  0  0  0  0
  -28.0124  -12.3763   18.6133 C   0  0  0  0  0  0
  -27.6662  -13.2049   19.8811 C   0  0  2  0  0  0
  -28.7102  -12.9685   20.9988 C   0  0  0  0  0  0
  -25.2606  -13.8157   20.5720 C   0  0  0  0  0  0
  -24.1849  -13.0432   20.9203 C   0  0  0  0  0  0
  -24.6400  -11.6898   20.8746 C   0  0  0  0  0  0
  -23.9049  -10.4286   21.0417 C   0  0  0  0  0  0
  -24.3601   -9.4195   21.9184 C   0  0  0  0  0  0
  -23.6285   -8.2221   22.0729 C   0  0  0  0  0  0
  -22.4262   -8.0270   21.3526 C   0  0  0  0  0  0
  -21.9908   -9.0256   20.4636 C   0  0  0  0  0  0
  -22.7229  -10.2136   20.3059 C   0  0  0  0  0  0
  -21.6842   -6.0735   22.5284 C   0  0  0  0  0  0
  -21.4011   -6.5632   23.8226 C   0  0  0  0  0  0
  -21.3662   -5.6784   24.9185 C   0  0  0  0  0  0
  -21.6053   -4.3048   24.7232 C   0  0  0  0  0  0
  -21.8816   -3.8138   23.4346 C   0  0  0  0  0  0
  -21.9188   -4.6959   22.3408 C   0  0  0  0  0  0
  -22.7876  -13.5245   21.1874 C   0  0  0  0  0  0
  -22.1657   -4.2143   21.0990 F   0  0  0  0  0  0
  -21.5625   -3.4539   25.7748 F   0  0  0  0  0  0
  -30.0464  -13.2435   20.4449 N   0  0  0  0  0  0
  -26.3053  -12.9322   20.3425 N   0  0  0  0  0  0
  -25.9330  -11.6474   20.5795 N   0  0  0  0  0  0
  -22.0512  -12.8239   22.0426 N   0  0  0  0  0  0
  -25.4323  -15.1879   20.4121 N   0  0  0  0  0  0
  -31.8539  -14.5921   20.0925 O   0  0  0  0  0  0
  -21.6607   -6.8873   21.4242 O   0  0  0  0  0  0
  -22.3583  -14.5563   20.6716 O   0  0  0  0  0  0
  -24.6093  -31.8690   23.2110 C   0  0  0  0  0  0
  -25.9020  -32.4825   23.8383 C   0  0  1  0  0  0
  -27.2393  -27.4691   20.0901 C   0  0  0  0  0  0
  -25.5884  -33.8620   24.2318 N   0  0  0  0  0  0
  -23.3977  -30.4901   21.5515 C   0  0  2  0  0  0
  -24.8460  -28.9582   20.1122 C   0  0  0  0  0  0
  -22.7394  -29.4633   22.4982 C   0  0  0  0  0  0
  -18.0287  -28.1350   22.8509 C   0  0  0  0  0  0
  -24.1485  -36.7332   23.2630 C   0  0  0  0  0  0
  -25.9209  -30.8423   21.3595 C   0  0  0  0  0  0
  -26.0005  -29.4767   20.7137 C   0  0  0  0  0  0
  -27.2008  -28.7368   20.7094 C   0  0  0  0  0  0
  -26.0787  -26.9598   19.4762 C   0  0  0  0  0  0
  -24.8784  -27.6963   19.4901 C   0  0  0  0  0  0
  -23.6052  -29.8217   20.1637 C   0  0  0  0  0  0
  -25.4106  -36.3119   24.0344 C   0  0  1  0  0  0
  -20.5875  -28.3639   23.1337 C   0  0  2  0  0  0
  -20.6752  -26.9356   22.5477 C   0  0  0  0  0  0
  -19.5748  -26.6309   21.5257 C   0  0  0  0  0  0
  -18.1937  -26.7892   22.1652 C   0  0  0  0  0  0
  -19.1530  -28.8816   23.2916 C   0  0  0  0  0  0
  -18.9447  -30.1415   23.8928 C   0  0  0  0  0  0
  -17.6449  -30.6560   24.0567 C   0  0  0  0  0  0
  -25.9023  -34.9474   23.5135 C   0  0  0  0  0  0
  -16.5347  -29.9067   23.6307 C   0  0  0  0  0  0
  -16.7273  -28.6473   23.0364 C   0  0  0  0  0  0
  -26.4460  -31.6590   25.0695 C   0  0  0  0  0  0
  -25.3742  -31.3737   26.1460 C   0  0  0  0  0  0
  -27.0250  -30.3019   24.6050 C   0  0  0  0  0  0
  -27.6036  -32.4295   25.7460 C   0  0  0  0  0  0
  -27.5594  -37.1816   24.8463 C   0  0  0  0  0  0
  -21.4133  -29.3017   22.3744 N   0  0  0  0  0  0
  -26.4293  -37.3806   23.9425 N   0  0  0  0  0  0
  -24.6611  -31.0815   22.0999 N   0  0  0  0  0  0
  -23.4192  -28.8159   23.3001 O   0  0  0  0  0  0
  -28.3828  -26.7139   20.0673 O   0  0  0  0  0  0
  -26.5580  -34.8921   22.4692 O   0  0  0  0  0  0
  -23.5295  -32.1400   23.7542 O   0  0  0  0  0  0
  -26.9075  -21.6455   21.5973 C   0  0  0  0  0  0
  -28.8762  -21.6776   20.5645 C   0  0  0  0  0  0
  -27.3227  -20.3479   21.4962 C   0  0  0  0  0  0
  -28.5978  -20.3637   20.8346 C   0  0  0  0  0  0
  -26.5226  -19.1668   21.9884 C   0  0  0  0  0  0
  -29.5253  -19.2293   20.4353 C   0  0  0  0  0  0
  -29.2047  -17.8213   20.9724 C   0  0  0  0  0  0
  -28.9965  -24.6932   21.2709 C   0  0  0  0  0  0
  -27.7230  -23.9172   20.8888 C   0  0  0  0  0  0
  -30.3214  -16.8329   20.6115 C   0  0  0  0  0  0
  -28.7661  -26.2121   21.3466 C   0  0  0  0  0  0
  -27.8497  -22.4732   21.0278 N   0  0  0  0  0  0
  -29.9838  -15.4539   20.9559 N   0  0  0  0  0  0
  -31.4650  -12.3384   19.1216 H   0  0  0  0  0  0
  -30.2896  -11.2493   19.8067 H   0  0  0  0  0  0
  -29.7244  -11.7885   17.4099 H   0  0  0  0  0  0
  -29.6785  -13.4938   17.7898 H   0  0  0  0  0  0
  -27.8096  -11.3205   18.7938 H   0  0  0  0  0  0
  -27.3659  -12.6748   17.7872 H   0  0  0  0  0  0
  -27.7137  -14.2555   19.5927 H   0  0  0  0  0  0
  -28.6717  -11.9366   21.3469 H   0  0  0  0  0  0
  -28.4947  -13.5809   21.8770 H   0  0  0  0  0  0
  -25.2748   -9.5662   22.4753 H   0  0  0  0  0  0
  -23.9992   -7.4606   22.7450 H   0  0  0  0  0  0
  -21.0818   -8.8787   19.8958 H   0  0  0  0  0  0
  -22.3691  -10.9676   19.6160 H   0  0  0  0  0  0
  -21.1993   -7.6140   23.9737 H   0  0  0  0  0  0
  -21.1494   -6.0506   25.9097 H   0  0  0  0  0  0
  -22.0589   -2.7596   23.2850 H   0  0  0  0  0  0
  -22.4081  -11.9880   22.4830 H   0  0  0  0  0  0
  -21.1144  -13.1294   22.2644 H   0  0  0  0  0  0
  -24.6633  -15.8397   20.5147 H   0  0  0  0  0  0
  -26.2851  -15.6254   20.0844 H   0  0  0  0  0  0
  -26.7095  -32.5557   23.1150 H   0  0  0  0  0  0
  -25.0070  -33.9777   25.0482 H   0  0  0  0  0  0
  -22.6848  -31.3055   21.4165 H   0  0  0  0  0  0
  -23.3733  -35.9670   23.3282 H   0  0  0  0  0  0
  -24.3572  -36.8935   22.2036 H   0  0  0  0  0  0
  -23.7232  -37.6551   23.6620 H   0  0  0  0  0  0
  -26.0243  -31.6057   20.5872 H   0  0  0  0  0  0
  -26.8100  -30.8976   21.9740 H   0  0  0  0  0  0
  -28.0944  -29.1371   21.1693 H   0  0  0  0  0  0
  -26.1064  -25.9978   18.9864 H   0  0  0  0  0  0
  -23.9960  -27.2929   19.0102 H   0  0  0  0  0  0
  -23.7102  -30.5959   19.4029 H   0  0  0  0  0  0
  -22.7296  -29.2395   19.8708 H   0  0  0  0  0  0
  -25.1274  -36.1993   25.0837 H   0  0  0  0  0  0
  -20.9975  -28.3212   24.1455 H   0  0  0  0  0  0
  -20.5587  -26.2283   23.3690 H   0  0  0  0  0  0
  -21.6644  -26.7336   22.1348 H   0  0  0  0  0  0
  -19.6893  -25.6202   21.1342 H   0  0  0  0  0  0
  -19.6711  -27.3082   20.6760 H   0  0  0  0  0  0
  -17.4222  -26.6646   21.4038 H   0  0  0  0  0  0
  -18.0307  -26.0023   22.9038 H   0  0  0  0  0  0
  -19.7932  -30.7229   24.2293 H   0  0  0  0  0  0
  -17.5029  -31.6251   24.5166 H   0  0  0  0  0  0
  -15.5358  -30.3006   23.7599 H   0  0  0  0  0  0
  -15.8682  -28.0803   22.7070 H   0  0  0  0  0  0
  -24.5915  -30.7054   25.7856 H   0  0  0  0  0  0
  -24.8921  -32.2902   26.4869 H   0  0  0  0  0  0
  -25.8099  -30.8970   27.0244 H   0  0  0  0  0  0
  -26.2759  -29.6827   24.1084 H   0  0  0  0  0  0
  -27.3993  -29.7227   25.4505 H   0  0  0  0  0  0
  -27.8623  -30.4343   23.9191 H   0  0  0  0  0  0
  -27.2651  -33.3580   26.2085 H   0  0  0  0  0  0
  -28.3823  -32.6875   25.0267 H   0  0  0  0  0  0
  -28.0718  -31.8377   26.5339 H   0  0  0  0  0  0
  -28.2632  -38.0103   24.7515 H   0  0  0  0  0  0
  -28.1074  -36.2635   24.6271 H   0  0  0  0  0  0
  -27.2318  -37.1463   25.8870 H   0  0  0  0  0  0
  -20.9251  -29.8849   21.7071 H   0  0  0  0  0  0
  -26.0189  -38.2894   24.1403 H   0  0  0  0  0  0
  -26.0003  -22.0595   22.0208 H   0  0  0  0  0  0
  -29.7279  -22.1181   20.0631 H   0  0  0  0  0  0
  -25.6149  -19.5008   22.4914 H   0  0  0  0  0  0
  -27.0884  -18.5738   22.7048 H   0  0  0  0  0  0
  -26.2240  -18.5276   21.1575 H   0  0  0  0  0  0
  -30.5341  -19.5066   20.7518 H   0  0  0  0  0  0
  -29.5557  -19.1967   19.3445 H   0  0  0  0  0  0
  -28.2580  -17.4763   20.5524 H   0  0  0  0  0  0
  -29.0993  -17.8459   22.0572 H   0  0  0  0  0  0
  -29.7921  -24.4840   20.5545 H   0  0  0  0  0  0
  -29.3506  -24.3465   22.2424 H   0  0  0  0  0  0
  -27.4458  -24.1342   19.8585 H   0  0  0  0  0  0
  -26.8894  -24.2477   21.5101 H   0  0  0  0  0  0
  -31.2555  -17.1163   21.0982 H   0  0  0  0  0  0
  -30.5018  -16.8862   19.5367 H   0  0  0  0  0  0
  -29.6829  -26.7144   21.6568 H   0  0  0  0  0  0
  -28.0226  -26.4219   22.1197 H   0  0  0  0  0  0
  -29.0573  -15.2551   21.2989 H   0  0  0  0  0  0
  1 25  1  0  0  0
  1 30  2  0  0  0
  1 83  1  0  0  0
  2  3  1  0  0  0
  2 25  1  0  0  0
  2 84  1  0  0  0
  2 85  1  0  0  0
  3  4  1  0  0  0
  3 86  1  0  0  0
  3 87  1  0  0  0
  4  5  1  0  0  0
  4 88  1  0  0  0
  4 89  1  0  0  0
  5  6  1  0  0  0
  5 26  1  0  0  0
  5 90  1  0  0  0
  6 25  1  0  0  0
  6 91  1  0  0  0
  6 92  1  0  0  0
  7  8  2  0  0  0
  7 26  1  0  0  0
  7 29  1  0  0  0
  8  9  1  0  0  0
  8 22  1  0  0  0
  9 10  1  0  0  0
  9 27  2  0  0  0
 10 11  2  0  0  0
 10 15  1  0  0  0
 11 12  1  0  0  0
 11 93  1  0  0  0
 12 13  2  0  0  0
 12 94  1  0  0  0
 13 14  1  0  0  0
 13 31  1  0  0  0
 14 15  2  0  0  0
 14 95  1  0  0  0
 15 96  1  0  0  0
 16 17  2  0  0  0
 16 21  1  0  0  0
 16 31  1  0  0  0
 17 18  1  0  0  0
 17 97  1  0  0  0
 18 19  2  0  0  0
 18 98  1  0  0  0
 19 20  1  0  0  0
 19 24  1  0  0  0
 20 21  2  0  0  0
 20 99  1  0  0  0
 21 23  1  0  0  0
 22 28  1  0  0  0
 22 32  2  0  0  0
 26 27  1  0  0  0
 28100  1  0  0  0
 28101  1  0  0  0
 29102  1  0  0  0
 29103  1  0  0  0
 33 34  1  0  0  0
 33 66  1  0  0  0
 33 70  2  0  0  0
 34 36  1  0  0  0
 34 59  1  0  0  0
 34104  1  0  0  0
 35 44  2  0  0  0
 35 45  1  0  0  0
 35 68  1  0  0  0
 36 56  1  0  0  0
 36105  1  0  0  0
 37 39  1  0  0  0
 37 47  1  0  0  0
 37 66  1  0  0  0
 37106  1  0  0  0
 38 43  2  0  0  0
 38 46  1  0  0  0
 38 47  1  0  0  0
 39 64  1  0  0  0
 39 67  2  0  0  0
 40 52  1  0  0  0
 40 53  2  0  0  0
 40 58  1  0  0  0
 41107  1  0  0  0
 41108  1  0  0  0
 41109  1  0  0  0
 41 48  1  0  0  0
 42 43  1  0  0  0
 42 66  1  0  0  0
 42110  1  0  0  0
 42111  1  0  0  0
 43 44  1  0  0  0
 44112  1  0  0  0
 45 46  2  0  0  0
 45113  1  0  0  0
 46114  1  0  0  0
 47115  1  0  0  0
 47116  1  0  0  0
 48 56  1  0  0  0
 48 65  1  0  0  0
 48117  1  0  0  0
 49 50  1  0  0  0
 49 53  1  0  0  0
 49 64  1  0  0  0
 49118  1  0  0  0
 50 51  1  0  0  0
 50119  1  0  0  0
 50120  1  0  0  0
 51 52  1  0  0  0
 51121  1  0  0  0
 51122  1  0  0  0
 52123  1  0  0  0
 52124  1  0  0  0
 53 54  1  0  0  0
 54 55  2  0  0  0
 54125  1  0  0  0
 55 57  1  0  0  0
 55126  1  0  0  0
 56 69  2  0  0  0
 57 58  2  0  0  0
 57127  1  0  0  0
 58128  1  0  0  0
 59 60  1  0  0  0
 59 61  1  0  0  0
 59 62  1  0  0  0
 60129  1  0  0  0
 60130  1  0  0  0
 60131  1  0  0  0
 61132  1  0  0  0
 61133  1  0  0  0
 61134  1  0  0  0
 62135  1  0  0  0
 62136  1  0  0  0
 62137  1  0  0  0
 63 65  1  0  0  0
 63138  1  0  0  0
 63139  1  0  0  0
 63140  1  0  0  0
 64141  1  0  0  0
 65142  1  0  0  0
 68 81  1  0  0  0
 71 73  2  0  0  0
 71 82  1  0  0  0
 71143  1  0  0  0
 72 74  2  0  0  0
 72 82  1  0  0  0
 72144  1  0  0  0
 73 74  1  0  0  0
 73 75  1  0  0  0
 74 76  1  0  0  0
 75145  1  0  0  0
 75146  1  0  0  0
 75147  1  0  0  0
 76 77  1  0  0  0
 76148  1  0  0  0
 76149  1  0  0  0
 77 80  1  0  0  0
 77150  1  0  0  0
 77151  1  0  0  0
 78 79  1  0  0  0
 78 81  1  0  0  0
 78152  1  0  0  0
 78153  1  0  0  0
 79 82  1  0  0  0
 79154  1  0  0  0
 79155  1  0  0  0
 80 83  1  0  0  0
 80156  1  0  0  0
 80157  1  0  0  0
 81158  1  0  0  0
 81159  1  0  0  0
 83160  1  0  0  0
M  ISO  4   1 100  68 101  81 101  83 100
M  END
> <chiral flag>
0

> <version>
0

> <s_m_source_file>
/data/baiqing/PycharmProjects/Reinvent-master-3.2/result/LINK_invent/BTK/process_docking_weight1_custom_sum_contain_oxygen_bond_distance_aromatic_linkinvent_7_9_3/rearranged_h_0044.sdf

> <i_m_source_file_index>
54

> <r_mmod_Potential_Energy-OPLS-2005>
-109.932693481445

> <r_mmod_Stretch_Energy-OPLS-2005>
30.3443088531494

> <r_mmod_Bend_Energy-OPLS-2005>
93.1721954345703

> <r_mmod_Torsional_Energy-OPLS-2005>
236.792816162109

> <r_mmod_Improper_Torsional_Energy-OPLS-2005>
6.28221225738525

> <r_mmod_Van_der_Waal_Energy-OPLS-2005>
125.542144775391

> <r_mmod_Electrostatic_Energy-OPLS-2005>
-402.567474365234

> <r_mmod_Solvation_Energy-OPLS-2005>
-209.464370727539

> <b_mmod_Minimization_Converged-OPLS-2005>
0

> <r_mmod_RMS_Derivative-OPLS-2005>
3.2649393081665

$$$$
54
                    3D
 Structure written by MMmdl.
159167  0  0  1  0            999 V2000
  -30.7292  -14.4932   20.5750 C   0  0  0  0  0  0
  -30.4181  -12.3268   19.4435 C   0  0  0  0  0  0
  -29.4955  -12.5097   18.2207 C   0  0  0  0  0  0
  -28.0191  -12.3598   18.6310 C   0  0  0  0  0  0
  -27.6569  -13.2157   19.8743 C   0  0  2  0  0  0
  -28.6987  -13.0365   21.0033 C   0  0  0  0  0  0
  -25.2534  -13.8175   20.5695 C   0  0  0  0  0  0
  -24.1790  -13.0441   20.9178 C   0  0  0  0  0  0
  -24.6355  -11.6909   20.8723 C   0  0  0  0  0  0
  -23.9018  -10.4291   21.0398 C   0  0  0  0  0  0
  -24.3577   -9.4212   21.9178 C   0  0  0  0  0  0
  -23.6268   -8.2237   22.0752 C   0  0  0  0  0  0
  -22.4255   -8.0269   21.3537 C   0  0  0  0  0  0
  -21.9875   -9.0243   20.4646 C   0  0  0  0  0  0
  -22.7187  -10.2127   20.3054 C   0  0  0  0  0  0
  -21.6851   -6.0729   22.5267 C   0  0  0  0  0  0
  -21.4026   -6.5636   23.8201 C   0  0  0  0  0  0
  -21.3658   -5.6787   24.9166 C   0  0  0  0  0  0
  -21.6038   -4.3043   24.7207 C   0  0  0  0  0  0
  -21.8819   -3.8140   23.4326 C   0  0  0  0  0  0
  -21.9192   -4.6965   22.3388 C   0  0  0  0  0  0
  -22.7810  -13.5251   21.1833 C   0  0  0  0  0  0
  -22.1663   -4.2148   21.0963 F   0  0  0  0  0  0
  -21.5628   -3.4531   25.7721 F   0  0  0  0  0  0
  -30.0303  -13.3291   20.4514 N   0  0  0  0  0  0
  -26.2983  -12.9362   20.3370 N   0  0  0  0  0  0
  -25.9288  -11.6515   20.5750 N   0  0  0  0  0  0
  -22.0433  -12.8274   22.0398 N   0  0  0  0  0  0
  -25.4240  -15.1902   20.4127 N   0  0  0  0  0  0
  -31.8522  -14.6431   20.0901 O   0  0  0  0  0  0
  -21.6629   -6.8864   21.4223 O   0  0  0  0  0  0
  -22.3495  -14.5551   20.6669 O   0  0  0  0  0  0
  -24.6173  -31.8646   23.2050 C   0  0  0  0  0  0
  -25.9078  -32.4801   23.8335 C   0  0  1  0  0  0
  -27.2425  -27.4275   20.0916 C   0  0  0  0  0  0
  -25.5933  -33.8594   24.2284 N   0  0  0  0  0  0
  -23.4037  -30.4877   21.5439 C   0  0  2  0  0  0
  -24.8501  -28.9437   20.1130 C   0  0  0  0  0  0
  -22.7427  -29.4676   22.4974 C   0  0  0  0  0  0
  -18.0292  -28.1397   22.8497 C   0  0  0  0  0  0
  -24.1482  -36.7314   23.2632 C   0  0  0  0  0  0
  -25.9309  -30.8269   21.3568 C   0  0  0  0  0  0
  -26.0079  -29.4572   20.7106 C   0  0  0  0  0  0
  -27.2034  -28.7047   20.6983 C   0  0  0  0  0  0
  -26.0665  -26.9291   19.4855 C   0  0  0  0  0  0
  -24.8743  -27.6780   19.4996 C   0  0  0  0  0  0
  -23.6125  -29.8120   20.1602 C   0  0  0  0  0  0
  -25.4100  -36.3105   24.0329 C   0  0  1  0  0  0
  -20.5878  -28.3699   23.1316 C   0  0  2  0  0  0
  -20.6789  -26.9433   22.5429 C   0  0  0  0  0  0
  -19.5762  -26.6411   21.5228 C   0  0  0  0  0  0
  -18.1943  -26.7945   22.1638 C   0  0  0  0  0  0
  -19.1536  -28.8860   23.2903 C   0  0  0  0  0  0
  -18.9467  -30.1469   23.8908 C   0  0  0  0  0  0
  -17.6473  -30.6599   24.0585 C   0  0  0  0  0  0
  -25.9037  -34.9473   23.5106 C   0  0  0  0  0  0
  -16.5358  -29.9108   23.6318 C   0  0  0  0  0  0
  -16.7283  -28.6534   23.0332 C   0  0  0  0  0  0
  -26.4481  -31.6575   25.0671 C   0  0  0  0  0  0
  -25.3748  -31.3712   26.1433 C   0  0  0  0  0  0
  -27.0282  -30.3010   24.6045 C   0  0  0  0  0  0
  -27.6054  -32.4275   25.7458 C   0  0  0  0  0  0
  -27.5567  -37.1808   24.8460 C   0  0  0  0  0  0
  -21.4151  -29.3049   22.3712 N   0  0  0  0  0  0
  -26.4279  -37.3798   23.9399 N   0  0  0  0  0  0
  -24.6689  -31.0751   22.0927 N   0  0  0  0  0  0
  -23.4191  -28.8225   23.3029 O   0  0  0  0  0  0
  -28.4347  -26.7312   20.0876 O   0  0  0  0  0  0
  -26.5605  -34.8951   22.4674 O   0  0  0  0  0  0
  -23.5384  -32.1399   23.7464 O   0  0  0  0  0  0
  -30.3457  -21.8001   20.6184 C   0  0  0  0  0  0
  -30.0282  -20.4623   20.5744 C   0  0  0  0  0  0
  -29.3921  -20.3365   19.2950 C   0  0  0  0  0  0
  -28.8487  -19.1246   18.5899 C   0  0  0  0  0  0
  -30.3752  -19.4652   21.6863 C   0  0  0  0  0  0
  -29.7548  -18.0341   21.6901 C   0  0  0  0  0  0
  -28.9343  -24.6714   18.8106 C   0  0  0  0  0  0
  -30.1816  -23.7625   18.9631 C   0  0  0  0  0  0
  -30.6245  -16.9330   21.0260 C   0  0  0  0  0  0
  -28.4174  -25.2935   20.1264 C   0  0  0  0  0  0
  -29.3367  -21.4972   18.6440 N   0  0  0  0  0  0
  -29.9314  -22.4025   19.4476 N   0  0  0  0  0  0
  -30.0894  -15.5528   21.1158 N   0  0  0  0  0  0
  -31.4645  -12.4136   19.1467 H   0  0  0  0  0  0
  -30.3165  -11.3244   19.8626 H   0  0  0  0  0  0
  -29.7494  -11.7824   17.4484 H   0  0  0  0  0  0
  -29.6561  -13.4950   17.7811 H   0  0  0  0  0  0
  -27.8432  -11.3054   18.8471 H   0  0  0  0  0  0
  -27.3666  -12.6111   17.7942 H   0  0  0  0  0  0
  -27.6901  -14.2567   19.5529 H   0  0  0  0  0  0
  -28.6725  -12.0126   21.3808 H   0  0  0  0  0  0
  -28.4553  -13.6701   21.8568 H   0  0  0  0  0  0
  -25.2724   -9.5715   22.4743 H   0  0  0  0  0  0
  -23.9998   -7.4636   22.7472 H   0  0  0  0  0  0
  -21.0808   -8.8733   19.8954 H   0  0  0  0  0  0
  -22.3625  -10.9659   19.6155 H   0  0  0  0  0  0
  -21.2025   -7.6143   23.9711 H   0  0  0  0  0  0
  -21.1489   -6.0510   25.9067 H   0  0  0  0  0  0
  -22.0600   -2.7605   23.2813 H   0  0  0  0  0  0
  -22.4063  -11.9986   22.4871 H   0  0  0  0  0  0
  -21.1041  -13.1319   22.2542 H   0  0  0  0  0  0
  -24.6569  -15.8452   20.5171 H   0  0  0  0  0  0
  -26.2772  -15.6278   20.0864 H   0  0  0  0  0  0
  -26.7157  -32.5515   23.1099 H   0  0  0  0  0  0
  -25.0137  -33.9701   25.0479 H   0  0  0  0  0  0
  -22.6959  -31.3063   21.3999 H   0  0  0  0  0  0
  -23.3727  -35.9666   23.3328 H   0  0  0  0  0  0
  -24.3581  -36.8910   22.2042 H   0  0  0  0  0  0
  -23.7258  -37.6547   23.6607 H   0  0  0  0  0  0
  -26.0413  -31.5886   20.5833 H   0  0  0  0  0  0
  -26.8186  -30.8844   21.9746 H   0  0  0  0  0  0
  -28.0964  -29.0939   21.1657 H   0  0  0  0  0  0
  -26.0695  -25.9723   18.9830 H   0  0  0  0  0  0
  -23.9860  -27.2780   19.0282 H   0  0  0  0  0  0
  -23.7256  -30.5785   19.3925 H   0  0  0  0  0  0
  -22.7340  -29.2345   19.8665 H   0  0  0  0  0  0
  -25.1287  -36.1962   25.0820 H   0  0  0  0  0  0
  -20.9976  -28.3275   24.1432 H   0  0  0  0  0  0
  -20.5730  -26.2304   23.3617 H   0  0  0  0  0  0
  -21.6656  -26.7502   22.1190 H   0  0  0  0  0  0
  -19.6923  -25.6328   21.1248 H   0  0  0  0  0  0
  -19.6688  -27.3228   20.6755 H   0  0  0  0  0  0
  -17.4213  -26.6709   21.4040 H   0  0  0  0  0  0
  -18.0334  -26.0086   22.9031 H   0  0  0  0  0  0
  -19.7944  -30.7296   24.2265 H   0  0  0  0  0  0
  -17.5023  -31.6263   24.5219 H   0  0  0  0  0  0
  -15.5360  -30.3024   23.7616 H   0  0  0  0  0  0
  -15.8692  -28.0870   22.6995 H   0  0  0  0  0  0
  -24.5918  -30.7052   25.7787 H   0  0  0  0  0  0
  -24.8945  -32.2892   26.4830 H   0  0  0  0  0  0
  -25.8135  -30.8931   27.0206 H   0  0  0  0  0  0
  -26.2818  -29.6812   24.1064 H   0  0  0  0  0  0
  -27.4023  -29.7209   25.4488 H   0  0  0  0  0  0
  -27.8668  -30.4323   23.9205 H   0  0  0  0  0  0
  -27.2655  -33.3553   26.2071 H   0  0  0  0  0  0
  -28.3862  -32.6862   25.0286 H   0  0  0  0  0  0
  -28.0706  -31.8369   26.5365 H   0  0  0  0  0  0
  -28.2607  -38.0079   24.7492 H   0  0  0  0  0  0
  -28.1052  -36.2625   24.6307 H   0  0  0  0  0  0
  -27.2304  -37.1508   25.8871 H   0  0  0  0  0  0
  -20.9330  -29.8765   21.6921 H   0  0  0  0  0  0
  -26.0185  -38.2895   24.1370 H   0  0  0  0  0  0
  -30.8699  -22.3670   21.3763 H   0  0  0  0  0  0
  -29.6434  -18.5792   18.0825 H   0  0  0  0  0  0
  -28.1146  -19.4042   17.8338 H   0  0  0  0  0  0
  -28.3488  -18.4377   19.2658 H   0  0  0  0  0  0
  -30.0818  -19.9235   22.6330 H   0  0  0  0  0  0
  -31.4591  -19.3739   21.7741 H   0  0  0  0  0  0
  -28.7267  -18.0429   21.3373 H   0  0  0  0  0  0
  -29.6790  -17.7504   22.7410 H   0  0  0  0  0  0
  -28.1340  -24.1317   18.3024 H   0  0  0  0  0  0
  -29.2024  -25.4824   18.1328 H   0  0  0  0  0  0
  -30.9198  -24.2401   19.6094 H   0  0  0  0  0  0
  -30.6659  -23.6759   17.9901 H   0  0  0  0  0  0
  -31.6154  -16.9441   21.4871 H   0  0  0  0  0  0
  -30.7756  -17.1823   19.9751 H   0  0  0  0  0  0
  -29.0813  -25.0017   20.9408 H   0  0  0  0  0  0
  -27.4469  -24.8784   20.3982 H   0  0  0  0  0  0
  -29.1679  -15.4105   21.5009 H   0  0  0  0  0  0
  1 25  1  0  0  0
  1 30  2  0  0  0
  1 83  1  0  0  0
  2  3  1  0  0  0
  2 25  1  0  0  0
  2 84  1  0  0  0
  2 85  1  0  0  0
  3  4  1  0  0  0
  3 86  1  0  0  0
  3 87  1  0  0  0
  4  5  1  0  0  0
  4 88  1  0  0  0
  4 89  1  0  0  0
  5  6  1  0  0  0
  5 26  1  0  0  0
  5 90  1  0  0  0
  6 25  1  0  0  0
  6 91  1  0  0  0
  6 92  1  0  0  0
  7  8  2  0  0  0
  7 26  1  0  0  0
  7 29  1  0  0  0
  8  9  1  0  0  0
  8 22  1  0  0  0
  9 10  1  0  0  0
  9 27  2  0  0  0
 10 11  2  0  0  0
 10 15  1  0  0  0
 11 12  1  0  0  0
 11 93  1  0  0  0
 12 13  2  0  0  0
 12 94  1  0  0  0
 13 14  1  0  0  0
 13 31  1  0  0  0
 14 15  2  0  0  0
 14 95  1  0  0  0
 15 96  1  0  0  0
 16 17  2  0  0  0
 16 21  1  0  0  0
 16 31  1  0  0  0
 17 18  1  0  0  0
 17 97  1  0  0  0
 18 19  2  0  0  0
 18 98  1  0  0  0
 19 20  1  0  0  0
 19 24  1  0  0  0
 20 21  2  0  0  0
 20 99  1  0  0  0
 21 23  1  0  0  0
 22 28  1  0  0  0
 22 32  2  0  0  0
 26 27  1  0  0  0
 28100  1  0  0  0
 28101  1  0  0  0
 29102  1  0  0  0
 29103  1  0  0  0
 33 34  1  0  0  0
 33 66  1  0  0  0
 33 70  2  0  0  0
 34 36  1  0  0  0
 34 59  1  0  0  0
 34104  1  0  0  0
 35 44  2  0  0  0
 35 45  1  0  0  0
 35 68  1  0  0  0
 36 56  1  0  0  0
 36105  1  0  0  0
 37 39  1  0  0  0
 37 47  1  0  0  0
 37 66  1  0  0  0
 37106  1  0  0  0
 38 43  2  0  0  0
 38 46  1  0  0  0
 38 47  1  0  0  0
 39 64  1  0  0  0
 39 67  2  0  0  0
 40 52  1  0  0  0
 40 53  2  0  0  0
 40 58  1  0  0  0
 41107  1  0  0  0
 41108  1  0  0  0
 41109  1  0  0  0
 41 48  1  0  0  0
 42 43  1  0  0  0
 42 66  1  0  0  0
 42110  1  0  0  0
 42111  1  0  0  0
 43 44  1  0  0  0
 44112  1  0  0  0
 45 46  2  0  0  0
 45113  1  0  0  0
 46114  1  0  0  0
 47115  1  0  0  0
 47116  1  0  0  0
 48 56  1  0  0  0
 48 65  1  0  0  0
 48117  1  0  0  0
 49 50  1  0  0  0
 49 53  1  0  0  0
 49 64  1  0  0  0
 49118  1  0  0  0
 50 51  1  0  0  0
 50119  1  0  0  0
 50120  1  0  0  0
 51 52  1  0  0  0
 51121  1  0  0  0
 51122  1  0  0  0
 52123  1  0  0  0
 52124  1  0  0  0
 53 54  1  0  0  0
 54 55  2  0  0  0
 54125  1  0  0  0
 55 57  1  0  0  0
 55126  1  0  0  0
 56 69  2  0  0  0
 57 58  2  0  0  0
 57127  1  0  0  0
 58128  1  0  0  0
 59 60  1  0  0  0
 59 61  1  0  0  0
 59 62  1  0  0  0
 60129  1  0  0  0
 60130  1  0  0  0
 60131  1  0  0  0
 61132  1  0  0  0
 61133  1  0  0  0
 61134  1  0  0  0
 62135  1  0  0  0
 62136  1  0  0  0
 62137  1  0  0  0
 63 65  1  0  0  0
 63138  1  0  0  0
 63139  1  0  0  0
 63140  1  0  0  0
 64141  1  0  0  0
 65142  1  0  0  0
 68 80  1  0  0  0
 71 72  2  0  0  0
 71 82  1  0  0  0
 71143  1  0  0  0
 72 73  1  0  0  0
 72 75  1  0  0  0
 73 74  1  0  0  0
 73 81  2  0  0  0
 74144  1  0  0  0
 74145  1  0  0  0
 74146  1  0  0  0
 75 76  1  0  0  0
 75147  1  0  0  0
 75148  1  0  0  0
 76 79  1  0  0  0
 76149  1  0  0  0
 76150  1  0  0  0
 77 78  1  0  0  0
 77 80  1  0  0  0
 77151  1  0  0  0
 77152  1  0  0  0
 78 82  1  0  0  0
 78153  1  0  0  0
 78154  1  0  0  0
 79 83  1  0  0  0
 79155  1  0  0  0
 79156  1  0  0  0
 80157  1  0  0  0
 80158  1  0  0  0
 81 82  1  0  0  0
 83159  1  0  0  0
M  ISO  4   1 100  68 101  80 101  83 100
M  END
> <chiral flag>
0

> <version>
0

> <s_m_source_file>
/data/baiqing/PycharmProjects/Reinvent-master-3.2/result/LINK_invent/BTK/process_docking_weight1_custom_sum_contain_oxygen_bond_distance_aromatic_linkinvent_7_9_3/rearranged_h_0044.sdf

> <i_m_source_file_index>
55

> <r_mmod_Potential_Energy-OPLS-2005>
-103.110649108887

> <r_mmod_Stretch_Energy-OPLS-2005>
38.8271217346191

> <r_mmod_Bend_Energy-OPLS-2005>
117.373825073242

> <r_mmod_Torsional_Energy-OPLS-2005>
229.488800048828

> <r_mmod_Improper_Torsional_Energy-OPLS-2005>
4.00172805786133

> <r_mmod_Van_der_Waal_Energy-OPLS-2005>
124.532272338867

> <r_mmod_Electrostatic_Energy-OPLS-2005>
-409.192535400391

> <r_mmod_Solvation_Energy-OPLS-2005>
-223.33235168457

> <b_mmod_Minimization_Converged-OPLS-2005>
0

> <r_mmod_RMS_Derivative-OPLS-2005>
3.21672868728638

$$$$
55
                    3D
 Structure written by MMmdl.
165173  0  0  1  0            999 V2000
  -30.6930  -14.4818   20.4999 C   0  0  0  0  0  0
  -30.4233  -12.2877   19.4424 C   0  0  0  0  0  0
  -29.5034  -12.4865   18.2193 C   0  0  0  0  0  0
  -28.0221  -12.3559   18.6260 C   0  0  0  0  0  0
  -27.6645  -13.2051   19.8761 C   0  0  2  0  0  0
  -28.7085  -13.0113   21.0035 C   0  0  0  0  0  0
  -25.2611  -13.8153   20.5697 C   0  0  0  0  0  0
  -24.1854  -13.0429   20.9196 C   0  0  0  0  0  0
  -24.6403  -11.6899   20.8729 C   0  0  0  0  0  0
  -23.9069  -10.4284   21.0379 C   0  0  0  0  0  0
  -24.3623   -9.4214   21.9166 C   0  0  0  0  0  0
  -23.6301   -8.2246   22.0739 C   0  0  0  0  0  0
  -22.4284   -8.0283   21.3532 C   0  0  0  0  0  0
  -21.9911   -9.0250   20.4633 C   0  0  0  0  0  0
  -22.7235  -10.2132   20.3038 C   0  0  0  0  0  0
  -21.6853   -6.0740   22.5271 C   0  0  0  0  0  0
  -21.4010   -6.5632   23.8212 C   0  0  0  0  0  0
  -21.3674   -5.6776   24.9164 C   0  0  0  0  0  0
  -21.6053   -4.3039   24.7214 C   0  0  0  0  0  0
  -21.8826   -3.8150   23.4325 C   0  0  0  0  0  0
  -21.9198   -4.6969   22.3388 C   0  0  0  0  0  0
  -22.7877  -13.5233   21.1858 C   0  0  0  0  0  0
  -22.1662   -4.2162   21.0961 F   0  0  0  0  0  0
  -21.5645   -3.4526   25.7728 F   0  0  0  0  0  0
  -30.0423  -13.2892   20.4481 N   0  0  0  0  0  0
  -26.3048  -12.9324   20.3377 N   0  0  0  0  0  0
  -25.9342  -11.6487   20.5789 N   0  0  0  0  0  0
  -22.0509  -12.8217   22.0398 N   0  0  0  0  0  0
  -25.4335  -15.1873   20.4127 N   0  0  0  0  0  0
  -31.8488  -14.6396   20.1015 O   0  0  0  0  0  0
  -21.6640   -6.8883   21.4237 O   0  0  0  0  0  0
  -22.3564  -14.5538   20.6717 O   0  0  0  0  0  0
  -24.6123  -31.8718   23.2137 C   0  0  0  0  0  0
  -25.9022  -32.4850   23.8424 C   0  0  1  0  0  0
  -27.2292  -27.4590   20.0964 C   0  0  0  0  0  0
  -25.5894  -33.8651   24.2375 N   0  0  0  0  0  0
  -23.3999  -30.4950   21.5549 C   0  0  2  0  0  0
  -24.8482  -28.9706   20.1106 C   0  0  0  0  0  0
  -22.7401  -29.4668   22.5016 C   0  0  0  0  0  0
  -18.0270  -28.1375   22.8503 C   0  0  0  0  0  0
  -24.1496  -36.7315   23.2637 C   0  0  0  0  0  0
  -25.9281  -30.8436   21.3673 C   0  0  0  0  0  0
  -26.0068  -29.4821   20.7102 C   0  0  0  0  0  0
  -27.2038  -28.7326   20.7019 C   0  0  0  0  0  0
  -26.0612  -26.9629   19.4795 C   0  0  0  0  0  0
  -24.8692  -27.7094   19.4896 C   0  0  0  0  0  0
  -23.6079  -29.8319   20.1679 C   0  0  0  0  0  0
  -25.4108  -36.3126   24.0355 C   0  0  1  0  0  0
  -20.5858  -28.3659   23.1344 C   0  0  2  0  0  0
  -20.6771  -26.9403   22.5426 C   0  0  0  0  0  0
  -19.5750  -26.6386   21.5224 C   0  0  0  0  0  0
  -18.1925  -26.7927   22.1626 C   0  0  0  0  0  0
  -19.1515  -28.8825   23.2928 C   0  0  0  0  0  0
  -18.9439  -30.1431   23.8945 C   0  0  0  0  0  0
  -17.6448  -30.6591   24.0559 C   0  0  0  0  0  0
  -25.9029  -34.9491   23.5161 C   0  0  0  0  0  0
  -16.5337  -29.9092   23.6315 C   0  0  0  0  0  0
  -16.7257  -28.6500   23.0358 C   0  0  0  0  0  0
  -26.4456  -31.6600   25.0729 C   0  0  0  0  0  0
  -25.3724  -31.3697   26.1479 C   0  0  0  0  0  0
  -27.0274  -30.3047   24.6069 C   0  0  0  0  0  0
  -27.6078  -32.4260   25.7467 C   0  0  0  0  0  0
  -27.5596  -37.1811   24.8466 C   0  0  0  0  0  0
  -21.4131  -29.3031   22.3749 N   0  0  0  0  0  0
  -26.4302  -37.3801   23.9413 N   0  0  0  0  0  0
  -24.6645  -31.0826   22.1040 N   0  0  0  0  0  0
  -23.4175  -28.8202   23.3046 O   0  0  0  0  0  0
  -28.3625  -26.6839   20.1357 O   0  0  0  0  0  0
  -26.5587  -34.8918   22.4720 O   0  0  0  0  0  0
  -23.5317  -32.1465   23.7537 O   0  0  0  0  0  0
  -31.9123  -21.1269   19.5915 C   0  0  0  0  0  0
  -30.6332  -20.5218   19.4476 C   0  0  0  0  0  0
  -31.6650  -22.4732   19.6482 C   0  0  0  0  0  0
  -32.9743  -24.1238   18.2780 C   0  0  0  0  0  0
  -33.9000  -23.3109   20.4843 C   0  0  0  0  0  0
  -30.3038  -19.0822   19.1221 C   0  0  0  0  0  0
  -30.3321  -18.0607   20.2866 C   0  0  0  0  0  0
  -29.3510  -24.5377   20.8875 C   0  0  0  0  0  0
  -29.4892  -23.8483   19.5184 C   0  0  0  0  0  0
  -29.8814  -16.6806   19.7461 C   0  0  0  0  0  0
  -28.1810  -25.5265   20.9604 C   0  0  0  0  0  0
  -32.6247  -23.6299   19.6901 C   0  0  0  0  0  0
  -29.6634  -21.4266   19.4982 N   0  0  0  0  0  0
  -30.2892  -22.6266   19.5746 N   0  0  0  0  0  0
  -29.8897  -15.5445   20.6843 N   0  0  0  0  0  0
  -31.4715  -12.3717   19.1481 H   0  0  0  0  0  0
  -30.3061  -11.2836   19.8512 H   0  0  0  0  0  0
  -29.7427  -11.7530   17.4477 H   0  0  0  0  0  0
  -29.6832  -13.4682   17.7774 H   0  0  0  0  0  0
  -27.8280  -11.3015   18.8251 H   0  0  0  0  0  0
  -27.3774  -12.6285   17.7902 H   0  0  0  0  0  0
  -27.6979  -14.2472   19.5604 H   0  0  0  0  0  0
  -28.6791  -11.9870   21.3782 H   0  0  0  0  0  0
  -28.4857  -13.6506   21.8594 H   0  0  0  0  0  0
  -25.2766   -9.5705   22.4738 H   0  0  0  0  0  0
  -24.0027   -7.4636   22.7444 H   0  0  0  0  0  0
  -21.0853   -8.8758   19.8925 H   0  0  0  0  0  0
  -22.3682  -10.9673   19.6154 H   0  0  0  0  0  0
  -21.1973   -7.6132   23.9720 H   0  0  0  0  0  0
  -21.1502   -6.0492   25.9071 H   0  0  0  0  0  0
  -22.0595   -2.7615   23.2810 H   0  0  0  0  0  0
  -22.4130  -11.9883   22.4780 H   0  0  0  0  0  0
  -21.1129  -13.1252   22.2600 H   0  0  0  0  0  0
  -24.6689  -15.8437   20.5259 H   0  0  0  0  0  0
  -26.2844  -15.6308   20.0915 H   0  0  0  0  0  0
  -26.7096  -32.5565   23.1194 H   0  0  0  0  0  0
  -25.0046  -33.9818   25.0518 H   0  0  0  0  0  0
  -22.6876  -31.3113   21.4194 H   0  0  0  0  0  0
  -23.3767  -35.9640   23.3304 H   0  0  0  0  0  0
  -24.3606  -36.8914   22.2052 H   0  0  0  0  0  0
  -23.7229  -37.6517   23.6634 H   0  0  0  0  0  0
  -26.0385  -31.6120   20.6012 H   0  0  0  0  0  0
  -26.8158  -30.8966   21.9851 H   0  0  0  0  0  0
  -28.0951  -29.1158   21.1790 H   0  0  0  0  0  0
  -26.0699  -25.9946   18.9995 H   0  0  0  0  0  0
  -23.9796  -27.3111   19.0211 H   0  0  0  0  0  0
  -23.7139  -30.6107   19.4119 H   0  0  0  0  0  0
  -22.7336  -29.2499   19.8712 H   0  0  0  0  0  0
  -25.1281  -36.2018   25.0849 H   0  0  0  0  0  0
  -20.9947  -28.3217   24.1461 H   0  0  0  0  0  0
  -20.5698  -26.2261   23.3601 H   0  0  0  0  0  0
  -21.6646  -26.7476   22.1197 H   0  0  0  0  0  0
  -19.6917  -25.6297   21.1245 H   0  0  0  0  0  0
  -19.6694  -27.3212   20.6767 H   0  0  0  0  0  0
  -17.4201  -26.6692   21.4015 H   0  0  0  0  0  0
  -18.0308  -26.0053   22.8999 H   0  0  0  0  0  0
  -19.7913  -30.7233   24.2352 H   0  0  0  0  0  0
  -17.4999  -31.6280   24.5147 H   0  0  0  0  0  0
  -15.5342  -30.3014   23.7612 H   0  0  0  0  0  0
  -15.8651  -28.0822   22.7084 H   0  0  0  0  0  0
  -24.5895  -30.7054   25.7798 H   0  0  0  0  0  0
  -24.8905  -32.2851   26.4927 H   0  0  0  0  0  0
  -25.8057  -30.8843   27.0235 H   0  0  0  0  0  0
  -26.2818  -29.6824   24.1108 H   0  0  0  0  0  0
  -27.4060  -29.7253   25.4501 H   0  0  0  0  0  0
  -27.8643  -30.4384   23.9211 H   0  0  0  0  0  0
  -27.2776  -33.3553   26.2113 H   0  0  0  0  0  0
  -28.3857  -32.6817   25.0261 H   0  0  0  0  0  0
  -28.0785  -31.8321   26.5310 H   0  0  0  0  0  0
  -28.2618  -38.0103   24.7523 H   0  0  0  0  0  0
  -28.1093  -36.2642   24.6287 H   0  0  0  0  0  0
  -27.2325  -37.1465   25.8870 H   0  0  0  0  0  0
  -20.9282  -29.8739   21.6965 H   0  0  0  0  0  0
  -26.0214  -38.2891   24.1382 H   0  0  0  0  0  0
  -32.8805  -20.6468   19.5717 H   0  0  0  0  0  0
  -32.0819  -24.4416   17.7400 H   0  0  0  0  0  0
  -33.4536  -23.3408   17.6895 H   0  0  0  0  0  0
  -33.6524  -24.9768   18.3129 H   0  0  0  0  0  0
  -33.6565  -23.0034   21.5013 H   0  0  0  0  0  0
  -34.5421  -24.1889   20.5602 H   0  0  0  0  0  0
  -34.4804  -22.5137   20.0192 H   0  0  0  0  0  0
  -30.9885  -18.7409   18.3449 H   0  0  0  0  0  0
  -29.3176  -19.0463   18.6574 H   0  0  0  0  0  0
  -29.6724  -18.3897   21.0893 H   0  0  0  0  0  0
  -31.3387  -18.0011   20.7022 H   0  0  0  0  0  0
  -30.2707  -25.0459   21.1696 H   0  0  0  0  0  0
  -29.1856  -23.7715   21.6458 H   0  0  0  0  0  0
  -29.9270  -24.5326   18.7911 H   0  0  0  0  0  0
  -28.5010  -23.5936   19.1312 H   0  0  0  0  0  0
  -30.4729  -16.4370   18.8602 H   0  0  0  0  0  0
  -28.8573  -16.7738   19.3810 H   0  0  0  0  0  0
  -28.0662  -25.8588   21.9940 H   0  0  0  0  0  0
  -27.2643  -24.9881   20.7138 H   0  0  0  0  0  0
  -32.1490  -24.4610   20.2069 H   0  0  0  0  0  0
  -28.9985  -15.3231   21.1023 H   0  0  0  0  0  0
  1 25  1  0  0  0
  1 30  2  0  0  0
  1 85  1  0  0  0
  2  3  1  0  0  0
  2 25  1  0  0  0
  2 86  1  0  0  0
  2 87  1  0  0  0
  3  4  1  0  0  0
  3 88  1  0  0  0
  3 89  1  0  0  0
  4  5  1  0  0  0
  4 90  1  0  0  0
  4 91  1  0  0  0
  5  6  1  0  0  0
  5 26  1  0  0  0
  5 92  1  0  0  0
  6 25  1  0  0  0
  6 93  1  0  0  0
  6 94  1  0  0  0
  7  8  2  0  0  0
  7 26  1  0  0  0
  7 29  1  0  0  0
  8  9  1  0  0  0
  8 22  1  0  0  0
  9 10  1  0  0  0
  9 27  2  0  0  0
 10 11  2  0  0  0
 10 15  1  0  0  0
 11 12  1  0  0  0
 11 95  1  0  0  0
 12 13  2  0  0  0
 12 96  1  0  0  0
 13 14  1  0  0  0
 13 31  1  0  0  0
 14 15  2  0  0  0
 14 97  1  0  0  0
 15 98  1  0  0  0
 16 17  2  0  0  0
 16 21  1  0  0  0
 16 31  1  0  0  0
 17 18  1  0  0  0
 17 99  1  0  0  0
 18 19  2  0  0  0
 18100  1  0  0  0
 19 20  1  0  0  0
 19 24  1  0  0  0
 20 21  2  0  0  0
 20101  1  0  0  0
 21 23  1  0  0  0
 22 28  1  0  0  0
 22 32  2  0  0  0
 26 27  1  0  0  0
 28102  1  0  0  0
 28103  1  0  0  0
 29104  1  0  0  0
 29105  1  0  0  0
 33 34  1  0  0  0
 33 66  1  0  0  0
 33 70  2  0  0  0
 34 36  1  0  0  0
 34 59  1  0  0  0
 34106  1  0  0  0
 35 44  2  0  0  0
 35 45  1  0  0  0
 35 68  1  0  0  0
 36 56  1  0  0  0
 36107  1  0  0  0
 37 39  1  0  0  0
 37 47  1  0  0  0
 37 66  1  0  0  0
 37108  1  0  0  0
 38 43  2  0  0  0
 38 46  1  0  0  0
 38 47  1  0  0  0
 39 64  1  0  0  0
 39 67  2  0  0  0
 40 52  1  0  0  0
 40 53  2  0  0  0
 40 58  1  0  0  0
 41109  1  0  0  0
 41110  1  0  0  0
 41111  1  0  0  0
 41 48  1  0  0  0
 42 43  1  0  0  0
 42 66  1  0  0  0
 42112  1  0  0  0
 42113  1  0  0  0
 43 44  1  0  0  0
 44114  1  0  0  0
 45 46  2  0  0  0
 45115  1  0  0  0
 46116  1  0  0  0
 47117  1  0  0  0
 47118  1  0  0  0
 48 56  1  0  0  0
 48 65  1  0  0  0
 48119  1  0  0  0
 49 50  1  0  0  0
 49 53  1  0  0  0
 49 64  1  0  0  0
 49120  1  0  0  0
 50 51  1  0  0  0
 50121  1  0  0  0
 50122  1  0  0  0
 51 52  1  0  0  0
 51123  1  0  0  0
 51124  1  0  0  0
 52125  1  0  0  0
 52126  1  0  0  0
 53 54  1  0  0  0
 54 55  2  0  0  0
 54127  1  0  0  0
 55 57  1  0  0  0
 55128  1  0  0  0
 56 69  2  0  0  0
 57 58  2  0  0  0
 57129  1  0  0  0
 58130  1  0  0  0
 59 60  1  0  0  0
 59 61  1  0  0  0
 59 62  1  0  0  0
 60131  1  0  0  0
 60132  1  0  0  0
 60133  1  0  0  0
 61134  1  0  0  0
 61135  1  0  0  0
 61136  1  0  0  0
 62137  1  0  0  0
 62138  1  0  0  0
 62139  1  0  0  0
 63 65  1  0  0  0
 63140  1  0  0  0
 63141  1  0  0  0
 63142  1  0  0  0
 64143  1  0  0  0
 65144  1  0  0  0
 68 81  1  0  0  0
 71 72  1  0  0  0
 71 73  2  0  0  0
 71145  1  0  0  0
 72 76  1  0  0  0
 72 83  2  0  0  0
 73 82  1  0  0  0
 73 84  1  0  0  0
 74146  1  0  0  0
 74147  1  0  0  0
 74148  1  0  0  0
 74 82  1  0  0  0
 75 82  1  0  0  0
 75149  1  0  0  0
 75150  1  0  0  0
 75151  1  0  0  0
 76 77  1  0  0  0
 76152  1  0  0  0
 76153  1  0  0  0
 77 80  1  0  0  0
 77154  1  0  0  0
 77155  1  0  0  0
 78 79  1  0  0  0
 78 81  1  0  0  0
 78156  1  0  0  0
 78157  1  0  0  0
 79 84  1  0  0  0
 79158  1  0  0  0
 79159  1  0  0  0
 80 85  1  0  0  0
 80160  1  0  0  0
 80161  1  0  0  0
 81162  1  0  0  0
 81163  1  0  0  0
 82164  1  0  0  0
 83 84  1  0  0  0
 85165  1  0  0  0
M  ISO  4   1 100  68 101  81 101  85 100
M  END
> <chiral flag>
0

> <version>
0

> <s_m_source_file>
/data/baiqing/PycharmProjects/Reinvent-master-3.2/result/LINK_invent/BTK/process_docking_weight1_custom_sum_contain_oxygen_bond_distance_aromatic_linkinvent_7_9_3/rearranged_h_0044.sdf

> <i_m_source_file_index>
56

> <r_mmod_Potential_Energy-OPLS-2005>
-99.8976440429688

> <r_mmod_Stretch_Energy-OPLS-2005>
32.5707130432129

> <r_mmod_Bend_Energy-OPLS-2005>
95.7975616455078

> <r_mmod_Torsional_Energy-OPLS-2005>
262.577026367188

> <r_mmod_Improper_Torsional_Energy-OPLS-2005>
12.2634286880493

> <r_mmod_Van_der_Waal_Energy-OPLS-2005>
125.067710876465

> <r_mmod_Electrostatic_Energy-OPLS-2005>
-428.176055908203

> <r_mmod_Solvation_Energy-OPLS-2005>
-215.804931640625

> <b_mmod_Minimization_Converged-OPLS-2005>
0

> <r_mmod_RMS_Derivative-OPLS-2005>
1.98341035842896

$$$$
56
                    3D
 Structure written by MMmdl.
166174  0  0  1  0            999 V2000
  -30.6943  -14.5110   20.5381 C   0  0  0  0  0  0
  -30.4374  -12.3303   19.4275 C   0  0  0  0  0  0
  -29.4927  -12.4599   18.2133 C   0  0  0  0  0  0
  -28.0242  -12.2956   18.6469 C   0  0  0  0  0  0
  -27.6537  -13.1928   19.8598 C   0  0  2  0  0  0
  -28.6944  -13.0326   20.9871 C   0  0  0  0  0  0
  -25.2567  -13.8133   20.5646 C   0  0  0  0  0  0
  -24.1828  -13.0463   20.9140 C   0  0  0  0  0  0
  -24.6312  -11.6905   20.8671 C   0  0  0  0  0  0
  -23.8953  -10.4330   21.0345 C   0  0  0  0  0  0
  -24.3541   -9.4280   21.9143 C   0  0  0  0  0  0
  -23.6251   -8.2267   22.0716 C   0  0  0  0  0  0
  -22.4232   -8.0259   21.3518 C   0  0  0  0  0  0
  -21.9854   -9.0205   20.4599 C   0  0  0  0  0  0
  -22.7112  -10.2134   20.2994 C   0  0  0  0  0  0
  -21.6859   -6.0629   22.5222 C   0  0  0  0  0  0
  -21.4019   -6.5532   23.8153 C   0  0  0  0  0  0
  -21.3707   -5.6729   24.9136 C   0  0  0  0  0  0
  -21.6102   -4.2969   24.7231 C   0  0  0  0  0  0
  -21.8836   -3.8041   23.4336 C   0  0  0  0  0  0
  -21.9235   -4.6851   22.3403 C   0  0  0  0  0  0
  -22.7859  -13.5268   21.1861 C   0  0  0  0  0  0
  -22.1689   -4.2030   21.0965 F   0  0  0  0  0  0
  -21.5710   -3.4476   25.7742 F   0  0  0  0  0  0
  -30.0247  -13.3303   20.4267 N   0  0  0  0  0  0
  -26.2971  -12.9252   20.3264 N   0  0  0  0  0  0
  -25.9232  -11.6441   20.5719 N   0  0  0  0  0  0
  -22.0549  -12.8223   22.0386 N   0  0  0  0  0  0
  -25.4441  -15.1845   20.4019 N   0  0  0  0  0  0
  -31.8430  -14.6768   20.1339 O   0  0  0  0  0  0
  -21.6681   -6.8757   21.4180 O   0  0  0  0  0  0
  -22.3538  -14.5592   20.6725 O   0  0  0  0  0  0
  -24.6218  -31.8559   23.1950 C   0  0  0  0  0  0
  -25.9085  -32.4746   23.8228 C   0  0  1  0  0  0
  -27.2519  -27.3353   20.1150 C   0  0  0  0  0  0
  -25.5866  -33.8540   24.2156 N   0  0  0  0  0  0
  -23.4100  -30.4734   21.5428 C   0  0  2  0  0  0
  -24.8609  -28.9221   20.0905 C   0  0  0  0  0  0
  -22.7479  -29.4540   22.4985 C   0  0  0  0  0  0
  -18.0245  -28.1362   22.8486 C   0  0  0  0  0  0
  -24.1465  -36.7277   23.2631 C   0  0  0  0  0  0
  -25.9392  -30.8008   21.3315 C   0  0  0  0  0  0
  -26.0249  -29.4246   20.6862 C   0  0  0  0  0  0
  -27.2142  -28.6440   20.6899 C   0  0  0  0  0  0
  -26.0786  -26.8819   19.4799 C   0  0  0  0  0  0
  -24.8979  -27.6595   19.4708 C   0  0  0  0  0  0
  -23.6192  -29.7952   20.1547 C   0  0  0  0  0  0
  -25.4077  -36.3032   24.0327 C   0  0  1  0  0  0
  -20.5857  -28.3610   23.1358 C   0  0  2  0  0  0
  -20.6710  -26.9329   22.5466 C   0  0  0  0  0  0
  -19.5693  -26.6338   21.5234 C   0  0  0  0  0  0
  -18.1854  -26.7897   22.1603 C   0  0  0  0  0  0
  -19.1510  -28.8806   23.2893 C   0  0  0  0  0  0
  -18.9450  -30.1408   23.8917 C   0  0  0  0  0  0
  -17.6467  -30.6558   24.0589 C   0  0  0  0  0  0
  -25.9066  -34.9446   23.5055 C   0  0  0  0  0  0
  -16.5360  -29.9103   23.6296 C   0  0  0  0  0  0
  -16.7248  -28.6517   23.0315 C   0  0  0  0  0  0
  -26.4455  -31.6605   25.0619 C   0  0  0  0  0  0
  -25.3746  -31.3769   26.1405 C   0  0  0  0  0  0
  -27.0284  -30.3105   24.5877 C   0  0  0  0  0  0
  -27.6018  -32.4407   25.7347 C   0  0  0  0  0  0
  -27.5591  -37.1674   24.8395 C   0  0  0  0  0  0
  -21.4171  -29.2988   22.3815 N   0  0  0  0  0  0
  -26.4201  -37.3794   23.9536 N   0  0  0  0  0  0
  -24.6804  -31.0570   22.0865 N   0  0  0  0  0  0
  -23.4255  -28.8053   23.2998 O   0  0  0  0  0  0
  -28.4142  -26.5597   20.2445 O   0  0  0  0  0  0
  -26.5691  -34.8979   22.4644 O   0  0  0  0  0  0
  -23.5425  -32.1289   23.7396 O   0  0  0  0  0  0
  -30.7512  -22.5845   21.2785 C   0  0  0  0  0  0
  -29.7016  -21.7989   20.7520 C   0  0  0  0  0  0
  -29.8823  -20.3805   20.9422 C   0  0  0  0  0  0
  -31.9356  -20.7303   21.9398 C   0  0  0  0  0  0
  -34.0901  -20.0074   20.8809 C   0  0  0  0  0  0
  -33.3465  -18.7652   23.0065 C   0  0  0  0  0  0
  -28.5093  -22.4685   19.9816 C   0  0  0  0  0  0
  -28.8552  -19.2407   20.7565 C   0  0  0  0  0  0
  -27.9830  -23.9514   20.2826 C   0  0  0  0  0  0
  -29.3202  -17.8650   20.1395 C   0  0  0  0  0  0
  -30.2886  -16.9788   20.9954 C   0  0  0  0  0  0
  -28.6996  -25.2218   19.6785 C   0  0  0  0  0  0
  -33.3170  -20.1077   22.2082 C   0  0  0  0  0  0
  -31.8496  -22.0536   21.8570 N   0  0  0  0  0  0
  -31.0055  -19.9029   21.5054 N   0  0  0  0  0  0
  -29.9363  -15.5502   20.9569 N   0  0  0  0  0  0
  -31.4635  -12.4946   19.0954 H   0  0  0  0  0  0
  -30.4046  -11.3343   19.8704 H   0  0  0  0  0  0
  -29.7439  -11.7094   17.4652 H   0  0  0  0  0  0
  -29.6296  -13.4258   17.7310 H   0  0  0  0  0  0
  -27.8818  -11.2485   18.9169 H   0  0  0  0  0  0
  -27.3533  -12.4960   17.8132 H   0  0  0  0  0  0
  -27.6797  -14.2249   19.5105 H   0  0  0  0  0  0
  -28.6711  -12.0144   21.3820 H   0  0  0  0  0  0
  -28.4389  -13.6723   21.8335 H   0  0  0  0  0  0
  -25.2704   -9.5751   22.4655 H   0  0  0  0  0  0
  -24.0005   -7.4650   22.7404 H   0  0  0  0  0  0
  -21.0813   -8.8650   19.8869 H   0  0  0  0  0  0
  -22.3535  -10.9628   19.6053 H   0  0  0  0  0  0
  -21.1904   -7.6031   23.9558 H   0  0  0  0  0  0
  -21.1583   -6.0487   25.9038 H   0  0  0  0  0  0
  -22.0582   -2.7482   23.2896 H   0  0  0  0  0  0
  -22.4285  -11.9913   22.4748 H   0  0  0  0  0  0
  -21.1119  -13.1084   22.2547 H   0  0  0  0  0  0
  -24.7018  -15.8605   20.5169 H   0  0  0  0  0  0
  -26.2948  -15.5960   20.0355 H   0  0  0  0  0  0
  -26.7145  -32.5378   23.0971 H   0  0  0  0  0  0
  -24.9994  -33.9676   25.0273 H   0  0  0  0  0  0
  -22.6997  -31.2961   21.4036 H   0  0  0  0  0  0
  -23.3807  -35.9507   23.3121 H   0  0  0  0  0  0
  -24.3625  -36.9102   22.2083 H   0  0  0  0  0  0
  -23.7112  -37.6368   23.6812 H   0  0  0  0  0  0
  -26.0276  -31.5518   20.5423 H   0  0  0  0  0  0
  -26.8345  -30.8776   21.9332 H   0  0  0  0  0  0
  -28.0927  -29.0555   21.1647 H   0  0  0  0  0  0
  -26.0551  -25.9015   19.0309 H   0  0  0  0  0  0
  -24.0103  -27.2667   18.9995 H   0  0  0  0  0  0
  -23.7361  -30.5777   19.4040 H   0  0  0  0  0  0
  -22.7250  -29.2427   19.8461 H   0  0  0  0  0  0
  -25.1221  -36.1799   25.0809 H   0  0  0  0  0  0
  -20.9906  -28.3135   24.1497 H   0  0  0  0  0  0
  -20.5525  -26.2207   23.3658 H   0  0  0  0  0  0
  -21.6577  -26.7292   22.1287 H   0  0  0  0  0  0
  -19.6873  -25.6253   21.1210 H   0  0  0  0  0  0
  -19.6664  -27.3204   20.6829 H   0  0  0  0  0  0
  -17.4150  -26.6711   21.3983 H   0  0  0  0  0  0
  -18.0203  -25.9983   22.8940 H   0  0  0  0  0  0
  -19.7948  -30.7195   24.2275 H   0  0  0  0  0  0
  -17.5051  -31.6216   24.5209 H   0  0  0  0  0  0
  -15.5375  -30.3065   23.7579 H   0  0  0  0  0  0
  -15.8617  -28.0909   22.7005 H   0  0  0  0  0  0
  -24.5905  -30.7063   25.7855 H   0  0  0  0  0  0
  -24.8887  -32.2935   26.4794 H   0  0  0  0  0  0
  -25.8076  -30.9033   27.0217 H   0  0  0  0  0  0
  -26.2735  -29.6831   24.1095 H   0  0  0  0  0  0
  -27.4438  -29.7344   25.4149 H   0  0  0  0  0  0
  -27.8366  -30.4582   23.8707 H   0  0  0  0  0  0
  -27.2616  -33.3799   26.1743 H   0  0  0  0  0  0
  -28.3815  -32.6865   25.0124 H   0  0  0  0  0  0
  -28.0645  -31.8657   26.5355 H   0  0  0  0  0  0
  -28.2342  -38.0231   24.7899 H   0  0  0  0  0  0
  -28.1335  -36.2826   24.5603 H   0  0  0  0  0  0
  -27.2436  -37.0602   25.8793 H   0  0  0  0  0  0
  -20.9386  -29.8888   21.7170 H   0  0  0  0  0  0
  -26.0033  -38.2764   24.1911 H   0  0  0  0  0  0
  -30.7277  -23.6631   21.2312 H   0  0  0  0  0  0
  -34.1588  -21.0028   20.4405 H   0  0  0  0  0  0
  -33.5772  -19.3609   20.1611 H   0  0  0  0  0  0
  -35.1075  -19.6382   21.0267 H   0  0  0  0  0  0
  -33.0152  -18.8888   24.0370 H   0  0  0  0  0  0
  -34.3713  -18.3868   23.0672 H   0  0  0  0  0  0
  -32.7585  -17.9555   22.5691 H   0  0  0  0  0  0
  -27.6607  -21.8077   20.1570 H   0  0  0  0  0  0
  -28.6973  -22.3898   18.9110 H   0  0  0  0  0  0
  -27.9761  -19.5718   20.2074 H   0  0  0  0  0  0
  -28.4732  -19.0101   21.7530 H   0  0  0  0  0  0
  -27.8768  -24.0957   21.3557 H   0  0  0  0  0  0
  -26.9576  -23.9781   19.9045 H   0  0  0  0  0  0
  -29.7246  -17.9789   19.1367 H   0  0  0  0  0  0
  -28.4106  -17.2828   19.9787 H   0  0  0  0  0  0
  -30.2339  -17.2960   22.0390 H   0  0  0  0  0  0
  -31.3303  -17.1365   20.6811 H   0  0  0  0  0  0
  -28.7556  -25.2645   18.5827 H   0  0  0  0  0  0
  -29.7510  -25.0389   19.9243 H   0  0  0  0  0  0
  -33.8491  -20.8185   22.8380 H   0  0  0  0  0  0
  -29.0046  -15.3155   21.2496 H   0  0  0  0  0  0
  1 25  1  0  0  0
  1 30  2  0  0  0
  1 86  1  0  0  0
  2  3  1  0  0  0
  2 25  1  0  0  0
  2 87  1  0  0  0
  2 88  1  0  0  0
  3  4  1  0  0  0
  3 89  1  0  0  0
  3 90  1  0  0  0
  4  5  1  0  0  0
  4 91  1  0  0  0
  4 92  1  0  0  0
  5  6  1  0  0  0
  5 26  1  0  0  0
  5 93  1  0  0  0
  6 25  1  0  0  0
  6 94  1  0  0  0
  6 95  1  0  0  0
  7  8  2  0  0  0
  7 26  1  0  0  0
  7 29  1  0  0  0
  8  9  1  0  0  0
  8 22  1  0  0  0
  9 10  1  0  0  0
  9 27  2  0  0  0
 10 11  2  0  0  0
 10 15  1  0  0  0
 11 12  1  0  0  0
 11 96  1  0  0  0
 12 13  2  0  0  0
 12 97  1  0  0  0
 13 14  1  0  0  0
 13 31  1  0  0  0
 14 15  2  0  0  0
 14 98  1  0  0  0
 15 99  1  0  0  0
 16 17  2  0  0  0
 16 21  1  0  0  0
 16 31  1  0  0  0
 17 18  1  0  0  0
 17100  1  0  0  0
 18 19  2  0  0  0
 18101  1  0  0  0
 19 20  1  0  0  0
 19 24  1  0  0  0
 20 21  2  0  0  0
 20102  1  0  0  0
 21 23  1  0  0  0
 22 28  1  0  0  0
 22 32  2  0  0  0
 26 27  1  0  0  0
 28103  1  0  0  0
 28104  1  0  0  0
 29105  1  0  0  0
 29106  1  0  0  0
 33 34  1  0  0  0
 33 66  1  0  0  0
 33 70  2  0  0  0
 34 36  1  0  0  0
 34 59  1  0  0  0
 34107  1  0  0  0
 35 44  2  0  0  0
 35 45  1  0  0  0
 35 68  1  0  0  0
 36 56  1  0  0  0
 36108  1  0  0  0
 37 39  1  0  0  0
 37 47  1  0  0  0
 37 66  1  0  0  0
 37109  1  0  0  0
 38 43  2  0  0  0
 38 46  1  0  0  0
 38 47  1  0  0  0
 39 64  1  0  0  0
 39 67  2  0  0  0
 40 52  1  0  0  0
 40 53  2  0  0  0
 40 58  1  0  0  0
 41110  1  0  0  0
 41111  1  0  0  0
 41112  1  0  0  0
 41 48  1  0  0  0
 42 43  1  0  0  0
 42 66  1  0  0  0
 42113  1  0  0  0
 42114  1  0  0  0
 43 44  1  0  0  0
 44115  1  0  0  0
 45 46  2  0  0  0
 45116  1  0  0  0
 46117  1  0  0  0
 47118  1  0  0  0
 47119  1  0  0  0
 48 56  1  0  0  0
 48 65  1  0  0  0
 48120  1  0  0  0
 49 50  1  0  0  0
 49 53  1  0  0  0
 49 64  1  0  0  0
 49121  1  0  0  0
 50 51  1  0  0  0
 50122  1  0  0  0
 50123  1  0  0  0
 51 52  1  0  0  0
 51124  1  0  0  0
 51125  1  0  0  0
 52126  1  0  0  0
 52127  1  0  0  0
 53 54  1  0  0  0
 54 55  2  0  0  0
 54128  1  0  0  0
 55 57  1  0  0  0
 55129  1  0  0  0
 56 69  2  0  0  0
 57 58  2  0  0  0
 57130  1  0  0  0
 58131  1  0  0  0
 59 60  1  0  0  0
 59 61  1  0  0  0
 59 62  1  0  0  0
 60132  1  0  0  0
 60133  1  0  0  0
 60134  1  0  0  0
 61135  1  0  0  0
 61136  1  0  0  0
 61137  1  0  0  0
 62138  1  0  0  0
 62139  1  0  0  0
 62140  1  0  0  0
 63 65  1  0  0  0
 63141  1  0  0  0
 63142  1  0  0  0
 63143  1  0  0  0
 64144  1  0  0  0
 65145  1  0  0  0
 68 82  1  0  0  0
 71 72  2  0  0  0
 71 84  1  0  0  0
 71146  1  0  0  0
 72 73  1  0  0  0
 72 77  1  0  0  0
 73 78  1  0  0  0
 73 85  2  0  0  0
 74 83  1  0  0  0
 74 84  2  0  0  0
 74 85  1  0  0  0
 75147  1  0  0  0
 75148  1  0  0  0
 75149  1  0  0  0
 75 83  1  0  0  0
 76 83  1  0  0  0
 76150  1  0  0  0
 76151  1  0  0  0
 76152  1  0  0  0
 77 79  1  0  0  0
 77153  1  0  0  0
 77154  1  0  0  0
 78 80  1  0  0  0
 78155  1  0  0  0
 78156  1  0  0  0
 79 82  1  0  0  0
 79157  1  0  0  0
 79158  1  0  0  0
 80 81  1  0  0  0
 80159  1  0  0  0
 80160  1  0  0  0
 81 86  1  0  0  0
 81161  1  0  0  0
 81162  1  0  0  0
 82163  1  0  0  0
 82164  1  0  0  0
 83165  1  0  0  0
 86166  1  0  0  0
M  ISO  4   1 100  68 101  82 101  86 100
M  END
> <chiral flag>
0

> <version>
0

> <s_m_source_file>
/data/baiqing/PycharmProjects/Reinvent-master-3.2/result/LINK_invent/BTK/process_docking_weight1_custom_sum_contain_oxygen_bond_distance_aromatic_linkinvent_7_9_3/rearranged_h_0044.sdf

> <i_m_source_file_index>
57

> <r_mmod_Potential_Energy-OPLS-2005>
-368.538299560547

> <r_mmod_Stretch_Energy-OPLS-2005>
71.7181015014648

> <r_mmod_Bend_Energy-OPLS-2005>
190.837768554688

> <r_mmod_Torsional_Energy-OPLS-2005>
196.358932495117

> <r_mmod_Improper_Torsional_Energy-OPLS-2005>
7.2937650680542

> <r_mmod_Van_der_Waal_Energy-OPLS-2005>
143.884689331055

> <r_mmod_Electrostatic_Energy-OPLS-2005>
-783.836730957031

> <r_mmod_Solvation_Energy-OPLS-2005>
-227.93928527832

> <b_mmod_Minimization_Converged-OPLS-2005>
0

> <r_mmod_RMS_Derivative-OPLS-2005>
14.4283142089844

$$$$
57
                    3D
 Structure written by MMmdl.
164172  0  0  1  0            999 V2000
  -30.6019  -14.7098   20.4729 C   0  0  0  0  0  0
  -30.4447  -12.4372   19.4470 C   0  0  0  0  0  0
  -29.5061  -12.5062   18.2207 C   0  0  0  0  0  0
  -28.0313  -12.3348   18.6396 C   0  0  0  0  0  0
  -27.6471  -13.2206   19.8544 C   0  0  2  0  0  0
  -28.6997  -13.1130   20.9796 C   0  0  0  0  0  0
  -25.2534  -13.8166   20.5690 C   0  0  0  0  0  0
  -24.1817  -13.0431   20.9216 C   0  0  0  0  0  0
  -24.6402  -11.6909   20.8768 C   0  0  0  0  0  0
  -23.9077  -10.4293   21.0422 C   0  0  0  0  0  0
  -24.3620   -9.4206   21.9201 C   0  0  0  0  0  0
  -23.6294   -8.2244   22.0764 C   0  0  0  0  0  0
  -22.4279   -8.0286   21.3549 C   0  0  0  0  0  0
  -21.9912   -9.0265   20.4657 C   0  0  0  0  0  0
  -22.7244  -10.2146   20.3072 C   0  0  0  0  0  0
  -21.6850   -6.0740   22.5285 C   0  0  0  0  0  0
  -21.4003   -6.5638   23.8217 C   0  0  0  0  0  0
  -21.3659   -5.6797   24.9180 C   0  0  0  0  0  0
  -21.6044   -4.3060   24.7231 C   0  0  0  0  0  0
  -21.8820   -3.8150   23.4351 C   0  0  0  0  0  0
  -21.9187   -4.6968   22.3405 C   0  0  0  0  0  0
  -22.7841  -13.5227   21.1872 C   0  0  0  0  0  0
  -22.1659   -4.2155   21.0986 F   0  0  0  0  0  0
  -21.5634   -3.4544   25.7740 F   0  0  0  0  0  0
  -30.0010  -13.4756   20.3981 N   0  0  0  0  0  0
  -26.2966  -12.9361   20.3312 N   0  0  0  0  0  0
  -25.9331  -11.6521   20.5777 N   0  0  0  0  0  0
  -22.0479  -12.8222   22.0428 N   0  0  0  0  0  0
  -25.4199  -15.1885   20.4065 N   0  0  0  0  0  0
  -31.7916  -14.8571   20.1817 O   0  0  0  0  0  0
  -21.6639   -6.8883   21.4247 O   0  0  0  0  0  0
  -22.3536  -14.5535   20.6717 O   0  0  0  0  0  0
  -24.6298  -31.8552   23.2010 C   0  0  0  0  0  0
  -25.9125  -32.4745   23.8348 C   0  0  1  0  0  0
  -27.2271  -27.2719   20.1146 C   0  0  0  0  0  0
  -25.5901  -33.8546   24.2258 N   0  0  0  0  0  0
  -23.4282  -30.4789   21.5429 C   0  0  2  0  0  0
  -24.8778  -28.9308   20.1078 C   0  0  0  0  0  0
  -22.7521  -29.4586   22.4904 C   0  0  0  0  0  0
  -18.0303  -28.1394   22.8486 C   0  0  0  0  0  0
  -24.1486  -36.7294   23.2637 C   0  0  0  0  0  0
  -25.9742  -30.7695   21.3833 C   0  0  0  0  0  0
  -26.0496  -29.3950   20.7198 C   0  0  0  0  0  0
  -27.2247  -28.5759   20.7168 C   0  0  0  0  0  0
  -26.0301  -26.8807   19.4692 C   0  0  0  0  0  0
  -24.8720  -27.6810   19.4742 C   0  0  0  0  0  0
  -23.6476  -29.8143   20.1581 C   0  0  0  0  0  0
  -25.4111  -36.3064   24.0318 C   0  0  1  0  0  0
  -20.5907  -28.3701   23.1267 C   0  0  2  0  0  0
  -20.6800  -26.9418   22.5420 C   0  0  0  0  0  0
  -19.5767  -26.6391   21.5229 C   0  0  0  0  0  0
  -18.1937  -26.7932   22.1636 C   0  0  0  0  0  0
  -19.1556  -28.8864   23.2855 C   0  0  0  0  0  0
  -18.9479  -30.1461   23.8882 C   0  0  0  0  0  0
  -17.6478  -30.6594   24.0560 C   0  0  0  0  0  0
  -25.9055  -34.9429   23.5098 C   0  0  0  0  0  0
  -16.5366  -29.9099   23.6330 C   0  0  0  0  0  0
  -16.7286  -28.6514   23.0355 C   0  0  0  0  0  0
  -26.4503  -31.6571   25.0740 C   0  0  0  0  0  0
  -25.3714  -31.3710   26.1451 C   0  0  0  0  0  0
  -27.0355  -30.2977   24.6244 C   0  0  0  0  0  0
  -27.6050  -32.4318   25.7496 C   0  0  0  0  0  0
  -27.5585  -37.1790   24.8463 C   0  0  0  0  0  0
  -21.4231  -29.3020   22.3643 N   0  0  0  0  0  0
  -26.4298  -37.3758   23.9408 N   0  0  0  0  0  0
  -24.6958  -31.0530   22.0974 N   0  0  0  0  0  0
  -23.4219  -28.8107   23.2988 O   0  0  0  0  0  0
  -28.3262  -26.3796   20.1741 O   0  0  0  0  0  0
  -26.5671  -34.8911   22.4697 O   0  0  0  0  0  0
  -23.5451  -32.1353   23.7319 O   0  0  0  0  0  0
  -29.5650  -21.0468   20.1843 C   0  0  0  0  0  0
  -29.1041  -19.7013   19.8846 C   0  0  0  0  0  0
  -27.7572  -19.6275   19.4322 C   0  0  0  0  0  0
  -28.7163  -22.2127   20.0234 C   0  0  0  0  0  0
  -27.0085  -20.8180   19.2448 C   0  0  0  0  0  0
  -27.1303  -18.2788   19.0759 C   0  0  0  0  0  0
  -24.4818  -20.7460   19.6130 C   0  0  0  0  0  0
  -31.4619  -18.7096   19.4734 C   0  0  0  0  0  0
  -29.1062  -23.7278   20.3354 C   0  0  0  0  0  0
  -25.6276  -20.8200   18.5964 C   0  0  0  0  0  0
  -29.9512  -17.2672   20.9896 C   0  0  0  0  0  0
  -28.0917  -24.9173   19.9070 C   0  0  0  0  0  0
  -30.0030  -18.3720   19.8181 C   0  0  1  0  0  0
  -27.4621  -22.0476   19.5632 N   0  0  0  0  0  0
  -29.7643  -15.7807   20.6934 N   0  0  0  0  0  0
  -31.4808  -12.5811   19.1358 H   0  0  0  0  0  0
  -30.4045  -11.4512   19.9124 H   0  0  0  0  0  0
  -29.7771  -11.7394   17.4930 H   0  0  0  0  0  0
  -29.6322  -13.4661   17.7159 H   0  0  0  0  0  0
  -27.8777  -11.2833   18.8879 H   0  0  0  0  0  0
  -27.3719  -12.5454   17.7972 H   0  0  0  0  0  0
  -27.6509  -14.2483   19.4924 H   0  0  0  0  0  0
  -28.7331  -12.0982   21.3792 H   0  0  0  0  0  0
  -28.4447  -13.7576   21.8217 H   0  0  0  0  0  0
  -25.2764   -9.5679   22.4785 H   0  0  0  0  0  0
  -23.9999   -7.4630   22.7480 H   0  0  0  0  0  0
  -21.0844   -8.8801   19.8960 H   0  0  0  0  0  0
  -22.3710  -10.9699   19.6194 H   0  0  0  0  0  0
  -21.1993   -7.6146   23.9721 H   0  0  0  0  0  0
  -21.1477   -6.0526   25.9084 H   0  0  0  0  0  0
  -22.0594   -2.7614   23.2856 H   0  0  0  0  0  0
  -22.4078  -11.9872   22.4813 H   0  0  0  0  0  0
  -21.1112  -13.1276   22.2658 H   0  0  0  0  0  0
  -24.6435  -15.8325   20.5065 H   0  0  0  0  0  0
  -26.2531  -15.6260   20.0407 H   0  0  0  0  0  0
  -26.7176  -32.5422   23.1077 H   0  0  0  0  0  0
  -24.9920  -33.9668   25.0312 H   0  0  0  0  0  0
  -22.7204  -31.2973   21.3968 H   0  0  0  0  0  0
  -23.3750  -35.9627   23.3293 H   0  0  0  0  0  0
  -24.3550  -36.8958   22.2052 H   0  0  0  0  0  0
  -23.7258  -37.6489   23.6698 H   0  0  0  0  0  0
  -26.1160  -31.5362   20.6200 H   0  0  0  0  0  0
  -26.8486  -30.8150   22.0212 H   0  0  0  0  0  0
  -28.1211  -28.9197   21.2157 H   0  0  0  0  0  0
  -25.9524  -25.9309   18.9616 H   0  0  0  0  0  0
  -23.9728  -27.3231   18.9889 H   0  0  0  0  0  0
  -23.7682  -30.5918   19.4017 H   0  0  0  0  0  0
  -22.7674  -29.2433   19.8577 H   0  0  0  0  0  0
  -25.1283  -36.1907   25.0811 H   0  0  0  0  0  0
  -20.9971  -28.3321   24.1403 H   0  0  0  0  0  0
  -20.5741  -26.2310   23.3629 H   0  0  0  0  0  0
  -21.6660  -26.7475   22.1180 H   0  0  0  0  0  0
  -19.6941  -25.6301   21.1262 H   0  0  0  0  0  0
  -19.6721  -27.3213   20.6759 H   0  0  0  0  0  0
  -17.4216  -26.6677   21.4037 H   0  0  0  0  0  0
  -18.0321  -26.0072   22.9030 H   0  0  0  0  0  0
  -19.7952  -30.7267   24.2257 H   0  0  0  0  0  0
  -17.5043  -31.6277   24.5174 H   0  0  0  0  0  0
  -15.5363  -30.3001   23.7670 H   0  0  0  0  0  0
  -15.8684  -28.0843   22.7070 H   0  0  0  0  0  0
  -24.5884  -30.7072   25.7767 H   0  0  0  0  0  0
  -24.8895  -32.2864   26.4885 H   0  0  0  0  0  0
  -25.8002  -30.8871   27.0232 H   0  0  0  0  0  0
  -26.2946  -29.6685   24.1294 H   0  0  0  0  0  0
  -27.4040  -29.7279   25.4784 H   0  0  0  0  0  0
  -27.8826  -30.4222   23.9492 H   0  0  0  0  0  0
  -27.2672  -33.3647   26.2029 H   0  0  0  0  0  0
  -28.3879  -32.6839   25.0326 H   0  0  0  0  0  0
  -28.0700  -31.8473   26.5446 H   0  0  0  0  0  0
  -28.2581  -38.0106   24.7508 H   0  0  0  0  0  0
  -28.1107  -36.2633   24.6290 H   0  0  0  0  0  0
  -27.2298  -37.1431   25.8864 H   0  0  0  0  0  0
  -20.9444  -29.8715   21.6811 H   0  0  0  0  0  0
  -26.0185  -38.2839   24.1408 H   0  0  0  0  0  0
  -30.5842  -21.1976   20.5108 H   0  0  0  0  0  0
  -27.4992  -17.4743   19.7083 H   0  0  0  0  0  0
  -27.3431  -18.0252   18.0365 H   0  0  0  0  0  0
  -26.0494  -18.2770   19.2109 H   0  0  0  0  0  0
  -23.5175  -20.7519   19.1049 H   0  0  0  0  0  0
  -24.5066  -21.5968   20.2933 H   0  0  0  0  0  0
  -24.5406  -19.8364   20.2110 H   0  0  0  0  0  0
  -31.5178  -19.3174   18.5698 H   0  0  0  0  0  0
  -32.0407  -17.8040   19.2898 H   0  0  0  0  0  0
  -31.9497  -19.2576   20.2787 H   0  0  0  0  0  0
  -30.0769  -23.9157   19.8777 H   0  0  0  0  0  0
  -29.2720  -23.7925   21.4109 H   0  0  0  0  0  0
  -25.5467  -20.0129   17.8678 H   0  0  0  0  0  0
  -25.5198  -21.7325   18.0080 H   0  0  0  0  0  0
  -29.1043  -17.5285   21.6256 H   0  0  0  0  0  0
  -30.8154  -17.3871   21.6434 H   0  0  0  0  0  0
  -27.1423  -24.6574   20.3762 H   0  0  0  0  0  0
  -27.9403  -24.8228   18.8312 H   0  0  0  0  0  0
  -29.6572  -17.8510   18.9252 H   0  0  0  0  0  0
  -28.8122  -15.4754   20.8242 H   0  0  0  0  0  0
  1 25  1  0  0  0
  1 30  2  0  0  0
  1 85  1  0  0  0
  2  3  1  0  0  0
  2 25  1  0  0  0
  2 86  1  0  0  0
  2 87  1  0  0  0
  3  4  1  0  0  0
  3 88  1  0  0  0
  3 89  1  0  0  0
  4  5  1  0  0  0
  4 90  1  0  0  0
  4 91  1  0  0  0
  5  6  1  0  0  0
  5 26  1  0  0  0
  5 92  1  0  0  0
  6 25  1  0  0  0
  6 93  1  0  0  0
  6 94  1  0  0  0
  7  8  2  0  0  0
  7 26  1  0  0  0
  7 29  1  0  0  0
  8  9  1  0  0  0
  8 22  1  0  0  0
  9 10  1  0  0  0
  9 27  2  0  0  0
 10 11  2  0  0  0
 10 15  1  0  0  0
 11 12  1  0  0  0
 11 95  1  0  0  0
 12 13  2  0  0  0
 12 96  1  0  0  0
 13 14  1  0  0  0
 13 31  1  0  0  0
 14 15  2  0  0  0
 14 97  1  0  0  0
 15 98  1  0  0  0
 16 17  2  0  0  0
 16 21  1  0  0  0
 16 31  1  0  0  0
 17 18  1  0  0  0
 17 99  1  0  0  0
 18 19  2  0  0  0
 18100  1  0  0  0
 19 20  1  0  0  0
 19 24  1  0  0  0
 20 21  2  0  0  0
 20101  1  0  0  0
 21 23  1  0  0  0
 22 28  1  0  0  0
 22 32  2  0  0  0
 26 27  1  0  0  0
 28102  1  0  0  0
 28103  1  0  0  0
 29104  1  0  0  0
 29105  1  0  0  0
 33 34  1  0  0  0
 33 66  1  0  0  0
 33 70  2  0  0  0
 34 36  1  0  0  0
 34 59  1  0  0  0
 34106  1  0  0  0
 35 44  2  0  0  0
 35 45  1  0  0  0
 35 68  1  0  0  0
 36 56  1  0  0  0
 36107  1  0  0  0
 37 39  1  0  0  0
 37 47  1  0  0  0
 37 66  1  0  0  0
 37108  1  0  0  0
 38 43  2  0  0  0
 38 46  1  0  0  0
 38 47  1  0  0  0
 39 64  1  0  0  0
 39 67  2  0  0  0
 40 52  1  0  0  0
 40 53  2  0  0  0
 40 58  1  0  0  0
 41109  1  0  0  0
 41110  1  0  0  0
 41111  1  0  0  0
 41 48  1  0  0  0
 42 43  1  0  0  0
 42 66  1  0  0  0
 42112  1  0  0  0
 42113  1  0  0  0
 43 44  1  0  0  0
 44114  1  0  0  0
 45 46  2  0  0  0
 45115  1  0  0  0
 46116  1  0  0  0
 47117  1  0  0  0
 47118  1  0  0  0
 48 56  1  0  0  0
 48 65  1  0  0  0
 48119  1  0  0  0
 49 50  1  0  0  0
 49 53  1  0  0  0
 49 64  1  0  0  0
 49120  1  0  0  0
 50 51  1  0  0  0
 50121  1  0  0  0
 50122  1  0  0  0
 51 52  1  0  0  0
 51123  1  0  0  0
 51124  1  0  0  0
 52125  1  0  0  0
 52126  1  0  0  0
 53 54  1  0  0  0
 54 55  2  0  0  0
 54127  1  0  0  0
 55 57  1  0  0  0
 55128  1  0  0  0
 56 69  2  0  0  0
 57 58  2  0  0  0
 57129  1  0  0  0
 58130  1  0  0  0
 59 60  1  0  0  0
 59 61  1  0  0  0
 59 62  1  0  0  0
 60131  1  0  0  0
 60132  1  0  0  0
 60133  1  0  0  0
 61134  1  0  0  0
 61135  1  0  0  0
 61136  1  0  0  0
 62137  1  0  0  0
 62138  1  0  0  0
 62139  1  0  0  0
 63 65  1  0  0  0
 63140  1  0  0  0
 63141  1  0  0  0
 63142  1  0  0  0
 64143  1  0  0  0
 65144  1  0  0  0
 68 82  1  0  0  0
 71 72  2  0  0  0
 71 74  1  0  0  0
 71145  1  0  0  0
 72 73  1  0  0  0
 72 83  1  0  0  0
 73 75  2  0  0  0
 73 76  1  0  0  0
 74 79  1  0  0  0
 74 84  2  0  0  0
 75 80  1  0  0  0
 75 84  1  0  0  0
 76146  1  0  0  0
 76147  1  0  0  0
 76148  1  0  0  0
 77 80  1  0  0  0
 77149  1  0  0  0
 77150  1  0  0  0
 77151  1  0  0  0
 78152  1  0  0  0
 78153  1  0  0  0
 78154  1  0  0  0
 78 83  1  0  0  0
 79 82  1  0  0  0
 79155  1  0  0  0
 79156  1  0  0  0
 80157  1  0  0  0
 80158  1  0  0  0
 81 83  1  0  0  0
 81 85  1  0  0  0
 81159  1  0  0  0
 81160  1  0  0  0
 82161  1  0  0  0
 82162  1  0  0  0
 83163  1  0  0  0
 85164  1  0  0  0
M  ISO  4   1 100  68 101  82 101  85 100
M  END
> <chiral flag>
0

> <version>
0

> <s_m_source_file>
/data/baiqing/PycharmProjects/Reinvent-master-3.2/result/LINK_invent/BTK/process_docking_weight1_custom_sum_contain_oxygen_bond_distance_aromatic_linkinvent_7_9_3/rearranged_h_0044.sdf

> <i_m_source_file_index>
58

> <r_mmod_Potential_Energy-OPLS-2005>
-20.7167339324951

> <r_mmod_Stretch_Energy-OPLS-2005>
119.255126953125

> <r_mmod_Bend_Energy-OPLS-2005>
174.041610717773

> <r_mmod_Torsional_Energy-OPLS-2005>
226.512390136719

> <r_mmod_Improper_Torsional_Energy-OPLS-2005>
5.73501777648926

> <r_mmod_Van_der_Waal_Energy-OPLS-2005>
144.142425537109

> <r_mmod_Electrostatic_Energy-OPLS-2005>
-547.052551269531

> <r_mmod_Solvation_Energy-OPLS-2005>
-218.944564819336

> <b_mmod_Minimization_Converged-OPLS-2005>
0

> <r_mmod_RMS_Derivative-OPLS-2005>
2.28132295608521

$$$$
58
                    3D
 Structure written by MMmdl.
152160  0  0  1  0            999 V2000
  -30.5046  -14.9552   20.4458 C   0  0  0  0  0  0
  -30.4528  -12.5878   19.5022 C   0  0  0  0  0  0
  -29.5301  -12.5440   18.2598 C   0  0  0  0  0  0
  -28.0606  -12.3235   18.6695 C   0  0  0  0  0  0
  -27.6361  -13.2436   19.8428 C   0  0  2  0  0  0
  -28.6777  -13.2461   20.9821 C   0  0  0  0  0  0
  -25.2493  -13.8205   20.5699 C   0  0  0  0  0  0
  -24.1799  -13.0436   20.9217 C   0  0  0  0  0  0
  -24.6407  -11.6919   20.8739 C   0  0  0  0  0  0
  -23.9086  -10.4292   21.0398 C   0  0  0  0  0  0
  -24.3631   -9.4207   21.9180 C   0  0  0  0  0  0
  -23.6299   -8.2247   22.0754 C   0  0  0  0  0  0
  -22.4280   -8.0284   21.3547 C   0  0  0  0  0  0
  -21.9920   -9.0260   20.4650 C   0  0  0  0  0  0
  -22.7253  -10.2137   20.3052 C   0  0  0  0  0  0
  -21.6861   -6.0736   22.5278 C   0  0  0  0  0  0
  -21.4019   -6.5639   23.8210 C   0  0  0  0  0  0
  -21.3660   -5.6789   24.9173 C   0  0  0  0  0  0
  -21.6043   -4.3053   24.7225 C   0  0  0  0  0  0
  -21.8818   -3.8146   23.4346 C   0  0  0  0  0  0
  -21.9196   -4.6962   22.3401 C   0  0  0  0  0  0
  -22.7817  -13.5213   21.1877 C   0  0  0  0  0  0
  -22.1661   -4.2147   21.0979 F   0  0  0  0  0  0
  -21.5632   -3.4536   25.7739 F   0  0  0  0  0  0
  -29.9619  -13.6682   20.4058 N   0  0  0  0  0  0
  -26.2919  -12.9424   20.3241 N   0  0  0  0  0  0
  -25.9339  -11.6561   20.5719 N   0  0  0  0  0  0
  -22.0469  -12.8198   22.0431 N   0  0  0  0  0  0
  -25.4175  -15.1931   20.4118 N   0  0  0  0  0  0
  -31.6829  -15.0511   20.0839 O   0  0  0  0  0  0
  -21.6644   -6.8881   21.4239 O   0  0  0  0  0  0
  -22.3501  -14.5519   20.6723 O   0  0  0  0  0  0
  -24.6444  -31.8433   23.1875 C   0  0  0  0  0  0
  -25.9210  -32.4691   23.8271 C   0  0  1  0  0  0
  -27.2203  -27.1274   20.1505 C   0  0  0  0  0  0
  -25.5955  -33.8500   24.2187 N   0  0  0  0  0  0
  -23.4488  -30.4617   21.5334 C   0  0  2  0  0  0
  -24.8996  -28.8877   20.1098 C   0  0  0  0  0  0
  -22.7574  -29.4538   22.4855 C   0  0  0  0  0  0
  -18.0307  -28.1396   22.8476 C   0  0  0  0  0  0
  -24.1494  -36.7253   23.2640 C   0  0  0  0  0  0
  -26.0059  -30.7133   21.3888 C   0  0  0  0  0  0
  -26.0774  -29.3241   20.7293 C   0  0  0  0  0  0
  -27.2382  -28.4607   20.7315 C   0  0  0  0  0  0
  -26.0149  -26.7955   19.4923 C   0  0  0  0  0  0
  -24.8821  -27.6372   19.4754 C   0  0  0  0  0  0
  -23.6764  -29.7905   20.1530 C   0  0  0  0  0  0
  -25.4127  -36.3031   24.0312 C   0  0  1  0  0  0
  -20.5920  -28.3722   23.1233 C   0  0  2  0  0  0
  -20.6791  -26.9423   22.5405 C   0  0  0  0  0  0
  -19.5766  -26.6380   21.5214 C   0  0  0  0  0  0
  -18.1948  -26.7933   22.1625 C   0  0  0  0  0  0
  -19.1564  -28.8878   23.2846 C   0  0  0  0  0  0
  -18.9477  -30.1473   23.8872 C   0  0  0  0  0  0
  -17.6474  -30.6590   24.0559 C   0  0  0  0  0  0
  -25.9076  -34.9405   23.5059 C   0  0  0  0  0  0
  -16.5365  -29.9081   23.6339 C   0  0  0  0  0  0
  -16.7292  -28.6502   23.0358 C   0  0  0  0  0  0
  -26.4531  -31.6561   25.0714 C   0  0  0  0  0  0
  -25.3713  -31.3747   26.1404 C   0  0  0  0  0  0
  -27.0397  -30.2956   24.6303 C   0  0  0  0  0  0
  -27.6059  -32.4330   25.7501 C   0  0  0  0  0  0
  -27.5578  -37.1783   24.8464 C   0  0  0  0  0  0
  -21.4265  -29.3046   22.3604 N   0  0  0  0  0  0
  -26.4291  -37.3743   23.9404 N   0  0  0  0  0  0
  -24.7195  -31.0275   22.0916 N   0  0  0  0  0  0
  -23.4211  -28.8086   23.3011 O   0  0  0  0  0  0
  -28.2700  -26.1349   20.2244 O   0  0  0  0  0  0
  -26.5664  -34.8902   22.4640 O   0  0  0  0  0  0
  -23.5561  -32.1319   23.7085 O   0  0  0  0  0  0
  -28.7615  -18.9052   20.6698 C   0  0  0  0  0  0
  -29.2033  -20.2118   20.3132 C   0  0  0  0  0  0
  -30.8359  -18.5847   20.0799 C   0  0  0  0  0  0
  -32.1899  -18.0364   19.7795 C   0  0  0  0  0  0
  -28.4304  -21.6636   20.1497 C   0  0  0  0  0  0
  -29.6378  -16.3128   20.8884 C   0  0  0  0  0  0
  -28.9601  -23.2541   20.3587 C   0  0  0  0  0  0
  -27.9808  -24.6071   20.0588 C   0  0  0  0  0  0
  -29.7570  -17.8877   20.5110 N   0  0  0  0  0  0
  -30.5044  -19.9091   19.9500 N   0  3  0  0  0  0
  -31.4858  -12.7535   19.1925 H   0  0  0  0  0  0
  -30.4497  -11.6270   20.0196 H   0  0  0  0  0  0
  -29.8509  -11.7572   17.5762 H   0  0  0  0  0  0
  -29.6187  -13.4821   17.7100 H   0  0  0  0  0  0
  -27.9525  -11.2788   18.9622 H   0  0  0  0  0  0
  -27.4017  -12.4705   17.8129 H   0  0  0  0  0  0
  -27.6057  -14.2501   19.4269 H   0  0  0  0  0  0
  -28.7607  -12.2585   21.4380 H   0  0  0  0  0  0
  -28.3708  -13.9246   21.7796 H   0  0  0  0  0  0
  -25.2776   -9.5683   22.4756 H   0  0  0  0  0  0
  -24.0010   -7.4636   22.7468 H   0  0  0  0  0  0
  -21.0855   -8.8778   19.8953 H   0  0  0  0  0  0
  -22.3710  -10.9676   19.6162 H   0  0  0  0  0  0
  -21.2010   -7.6146   23.9715 H   0  0  0  0  0  0
  -21.1485   -6.0519   25.9075 H   0  0  0  0  0  0
  -22.0599   -2.7608   23.2846 H   0  0  0  0  0  0
  -22.4085  -11.9859   22.4820 H   0  0  0  0  0  0
  -21.1083  -13.1215   22.2639 H   0  0  0  0  0  0
  -24.6468  -15.8442   20.5163 H   0  0  0  0  0  0
  -26.2567  -15.6299   20.0541 H   0  0  0  0  0  0
  -26.7272  -32.5293   23.0994 H   0  0  0  0  0  0
  -25.0079  -33.9623   25.0319 H   0  0  0  0  0  0
  -22.7516  -31.2877   21.3778 H   0  0  0  0  0  0
  -23.3765  -35.9576   23.3289 H   0  0  0  0  0  0
  -24.3578  -36.8904   22.2058 H   0  0  0  0  0  0
  -23.7243  -37.6440   23.6692 H   0  0  0  0  0  0
  -26.1635  -31.4670   20.6161 H   0  0  0  0  0  0
  -26.8755  -30.7633   22.0325 H   0  0  0  0  0  0
  -28.1341  -28.7899   21.2390 H   0  0  0  0  0  0
  -25.9113  -25.8401   19.0012 H   0  0  0  0  0  0
  -23.9835  -27.2977   18.9785 H   0  0  0  0  0  0
  -23.8134  -30.5655   19.3979 H   0  0  0  0  0  0
  -22.7914  -29.2325   19.8417 H   0  0  0  0  0  0
  -25.1316  -36.1859   25.0804 H   0  0  0  0  0  0
  -21.0014  -28.3312   24.1353 H   0  0  0  0  0  0
  -20.5691  -26.2332   23.3623 H   0  0  0  0  0  0
  -21.6655  -26.7430   22.1198 H   0  0  0  0  0  0
  -19.6928  -25.6285   21.1258 H   0  0  0  0  0  0
  -19.6708  -27.3177   20.6733 H   0  0  0  0  0  0
  -17.4218  -26.6680   21.4027 H   0  0  0  0  0  0
  -18.0346  -26.0080   22.9026 H   0  0  0  0  0  0
  -19.7951  -30.7298   24.2231 H   0  0  0  0  0  0
  -17.5024  -31.6269   24.5161 H   0  0  0  0  0  0
  -15.5364  -30.2975   23.7673 H   0  0  0  0  0  0
  -15.8693  -28.0811   22.7088 H   0  0  0  0  0  0
  -24.5898  -30.7095   25.7712 H   0  0  0  0  0  0
  -24.8897  -32.2929   26.4779 H   0  0  0  0  0  0
  -25.7992  -30.8946   27.0214 H   0  0  0  0  0  0
  -26.3014  -29.6673   24.1306 H   0  0  0  0  0  0
  -27.3999  -29.7259   25.4879 H   0  0  0  0  0  0
  -27.8928  -30.4183   23.9626 H   0  0  0  0  0  0
  -27.2649  -33.3648   26.2026 H   0  0  0  0  0  0
  -28.3898  -32.6867   25.0351 H   0  0  0  0  0  0
  -28.0697  -31.8493   26.5464 H   0  0  0  0  0  0
  -28.2582  -38.0092   24.7514 H   0  0  0  0  0  0
  -28.1092  -36.2622   24.6293 H   0  0  0  0  0  0
  -27.2294  -37.1423   25.8866 H   0  0  0  0  0  0
  -20.9477  -29.8753   21.6775 H   0  0  0  0  0  0
  -26.0158  -38.2810   24.1413 H   0  0  0  0  0  0
  -27.7754  -18.6257   21.0169 H   0  0  0  0  0  0
  -32.5455  -17.4860   20.6500 H   0  0  0  0  0  0
  -32.8722  -18.8581   19.5639 H   0  0  0  0  0  0
  -32.1137  -17.3835   18.9103 H   0  0  0  0  0  0
  -27.5505  -21.5798   20.7878 H   0  0  0  0  0  0
  -28.0138  -21.6379   19.1428 H   0  0  0  0  0  0
  -28.6061  -16.0708   20.6421 H   0  0  0  0  0  0
  -29.6639  -16.2971   21.9773 H   0  0  0  0  0  0
  -29.8535  -23.3730   19.7463 H   0  0  0  0  0  0
  -29.3121  -23.3362   21.3866 H   0  0  0  0  0  0
  -27.0722  -24.4295   20.6355 H   0  0  0  0  0  0
  -27.6767  -24.4949   19.0180 H   0  0  0  0  0  0
  -31.1577  -20.6050   19.6077 H   0  0  0  0  0  0
  1 25  1  0  0  0
  1 30  2  0  0  0
  1 76  1  0  0  0
  2  3  1  0  0  0
  2 25  1  0  0  0
  2 81  1  0  0  0
  2 82  1  0  0  0
  3  4  1  0  0  0
  3 83  1  0  0  0
  3 84  1  0  0  0
  4  5  1  0  0  0
  4 85  1  0  0  0
  4 86  1  0  0  0
  5  6  1  0  0  0
  5 26  1  0  0  0
  5 87  1  0  0  0
  6 25  1  0  0  0
  6 88  1  0  0  0
  6 89  1  0  0  0
  7  8  2  0  0  0
  7 26  1  0  0  0
  7 29  1  0  0  0
  8  9  1  0  0  0
  8 22  1  0  0  0
  9 10  1  0  0  0
  9 27  2  0  0  0
 10 11  2  0  0  0
 10 15  1  0  0  0
 11 12  1  0  0  0
 11 90  1  0  0  0
 12 13  2  0  0  0
 12 91  1  0  0  0
 13 14  1  0  0  0
 13 31  1  0  0  0
 14 15  2  0  0  0
 14 92  1  0  0  0
 15 93  1  0  0  0
 16 17  2  0  0  0
 16 21  1  0  0  0
 16 31  1  0  0  0
 17 18  1  0  0  0
 17 94  1  0  0  0
 18 19  2  0  0  0
 18 95  1  0  0  0
 19 20  1  0  0  0
 19 24  1  0  0  0
 20 21  2  0  0  0
 20 96  1  0  0  0
 21 23  1  0  0  0
 22 28  1  0  0  0
 22 32  2  0  0  0
 26 27  1  0  0  0
 28 97  1  0  0  0
 28 98  1  0  0  0
 29 99  1  0  0  0
 29100  1  0  0  0
 33 34  1  0  0  0
 33 66  1  0  0  0
 33 70  2  0  0  0
 34 36  1  0  0  0
 34 59  1  0  0  0
 34101  1  0  0  0
 35 44  2  0  0  0
 35 45  1  0  0  0
 35 68  1  0  0  0
 36 56  1  0  0  0
 36102  1  0  0  0
 37 39  1  0  0  0
 37 47  1  0  0  0
 37 66  1  0  0  0
 37103  1  0  0  0
 38 43  2  0  0  0
 38 46  1  0  0  0
 38 47  1  0  0  0
 39 64  1  0  0  0
 39 67  2  0  0  0
 40 52  1  0  0  0
 40 53  2  0  0  0
 40 58  1  0  0  0
 41104  1  0  0  0
 41105  1  0  0  0
 41106  1  0  0  0
 41 48  1  0  0  0
 42 43  1  0  0  0
 42 66  1  0  0  0
 42107  1  0  0  0
 42108  1  0  0  0
 43 44  1  0  0  0
 44109  1  0  0  0
 45 46  2  0  0  0
 45110  1  0  0  0
 46111  1  0  0  0
 47112  1  0  0  0
 47113  1  0  0  0
 48 56  1  0  0  0
 48 65  1  0  0  0
 48114  1  0  0  0
 49 50  1  0  0  0
 49 53  1  0  0  0
 49 64  1  0  0  0
 49115  1  0  0  0
 50 51  1  0  0  0
 50116  1  0  0  0
 50117  1  0  0  0
 51 52  1  0  0  0
 51118  1  0  0  0
 51119  1  0  0  0
 52120  1  0  0  0
 52121  1  0  0  0
 53 54  1  0  0  0
 54 55  2  0  0  0
 54122  1  0  0  0
 55 57  1  0  0  0
 55123  1  0  0  0
 56 69  2  0  0  0
 57 58  2  0  0  0
 57124  1  0  0  0
 58125  1  0  0  0
 59 60  1  0  0  0
 59 61  1  0  0  0
 59 62  1  0  0  0
 60126  1  0  0  0
 60127  1  0  0  0
 60128  1  0  0  0
 61129  1  0  0  0
 61130  1  0  0  0
 61131  1  0  0  0
 62132  1  0  0  0
 62133  1  0  0  0
 62134  1  0  0  0
 63 65  1  0  0  0
 63135  1  0  0  0
 63136  1  0  0  0
 63137  1  0  0  0
 64138  1  0  0  0
 65139  1  0  0  0
 68 78  1  0  0  0
 71 72  2  0  0  0
 71 79  1  0  0  0
 71140  1  0  0  0
 72 75  1  0  0  0
 72 80  1  0  0  0
 73 74  1  0  0  0
 73 79  1  0  0  0
 73 80  2  0  0  0
 74141  1  0  0  0
 74142  1  0  0  0
 74143  1  0  0  0
 75 77  1  0  0  0
 75144  1  0  0  0
 75145  1  0  0  0
 76 79  1  0  0  0
 76146  1  0  0  0
 76147  1  0  0  0
 77 78  1  0  0  0
 77148  1  0  0  0
 77149  1  0  0  0
 78150  1  0  0  0
 78151  1  0  0  0
 80152  1  0  0  0
M  CHG  1  80   1
M  ISO  4   1 100  68 101  76 100  78 101
M  END
> <chiral flag>
0

> <version>
0

> <s_m_source_file>
/data/baiqing/PycharmProjects/Reinvent-master-3.2/result/LINK_invent/BTK/process_docking_weight1_custom_sum_contain_oxygen_bond_distance_aromatic_linkinvent_7_9_3/rearranged_h_0044.sdf

> <i_m_source_file_index>
59

> <r_mmod_Potential_Energy-OPLS-2005>
450.952514648438

> <r_mmod_Stretch_Energy-OPLS-2005>
272.15283203125

> <r_mmod_Bend_Energy-OPLS-2005>
289.246368408203

> <r_mmod_Torsional_Energy-OPLS-2005>
186.174011230469

> <r_mmod_Improper_Torsional_Energy-OPLS-2005>
3.00165367126465

> <r_mmod_Van_der_Waal_Energy-OPLS-2005>
109.607025146484

> <r_mmod_Electrostatic_Energy-OPLS-2005>
-199.537292480469

> <r_mmod_Solvation_Energy-OPLS-2005>
-406.226226806641

> <b_mmod_Minimization_Converged-OPLS-2005>
0

> <r_mmod_RMS_Derivative-OPLS-2005>
0.626788139343262

$$$$
59
                    3D
 Structure written by MMmdl.
158166  0  0  1  0            999 V2000
  -30.5934  -14.7232   20.4762 C   0  0  0  0  0  0
  -30.4333  -12.4522   19.4613 C   0  0  0  0  0  0
  -29.5035  -12.5102   18.2299 C   0  0  0  0  0  0
  -28.0303  -12.3316   18.6437 C   0  0  0  0  0  0
  -27.6391  -13.2226   19.8511 C   0  0  2  0  0  0
  -28.6822  -13.1334   20.9867 C   0  0  0  0  0  0
  -25.2472  -13.8187   20.5643 C   0  0  0  0  0  0
  -24.1769  -13.0466   20.9218 C   0  0  0  0  0  0
  -24.6328  -11.6935   20.8732 C   0  0  0  0  0  0
  -23.8990  -10.4322   21.0372 C   0  0  0  0  0  0
  -24.3563   -9.4243   21.9143 C   0  0  0  0  0  0
  -23.6279   -8.2257   22.0721 C   0  0  0  0  0  0
  -22.4265   -8.0249   21.3522 C   0  0  0  0  0  0
  -21.9876   -9.0213   20.4616 C   0  0  0  0  0  0
  -22.7164  -10.2120   20.3025 C   0  0  0  0  0  0
  -21.6861   -6.0696   22.5263 C   0  0  0  0  0  0
  -21.4011   -6.5613   23.8187 C   0  0  0  0  0  0
  -21.3681   -5.6772   24.9161 C   0  0  0  0  0  0
  -21.6066   -4.3041   24.7222 C   0  0  0  0  0  0
  -21.8819   -3.8118   23.4351 C   0  0  0  0  0  0
  -21.9202   -4.6927   22.3395 C   0  0  0  0  0  0
  -22.7779  -13.5220   21.1902 C   0  0  0  0  0  0
  -22.1661   -4.2092   21.0981 F   0  0  0  0  0  0
  -21.5657   -3.4542   25.7751 F   0  0  0  0  0  0
  -29.9846  -13.4922   20.4127 N   0  0  0  0  0  0
  -26.2887  -12.9367   20.3237 N   0  0  0  0  0  0
  -25.9259  -11.6528   20.5732 N   0  0  0  0  0  0
  -22.0428  -12.8195   22.0454 N   0  0  0  0  0  0
  -25.4215  -15.1919   20.4007 N   0  0  0  0  0  0
  -31.7747  -14.8530   20.1433 O   0  0  0  0  0  0
  -21.6666   -6.8826   21.4212 O   0  0  0  0  0  0
  -22.3445  -14.5514   20.6736 O   0  0  0  0  0  0
  -24.6263  -31.8527   23.1948 C   0  0  0  0  0  0
  -25.9102  -32.4710   23.8290 C   0  0  1  0  0  0
  -27.2172  -27.2811   20.1210 C   0  0  0  0  0  0
  -25.5872  -33.8513   24.2220 N   0  0  0  0  0  0
  -23.4195  -30.4747   21.5367 C   0  0  2  0  0  0
  -24.8608  -28.9136   20.1057 C   0  0  0  0  0  0
  -22.7452  -29.4609   22.4905 C   0  0  0  0  0  0
  -18.0286  -28.1354   22.8501 C   0  0  0  0  0  0
  -24.1462  -36.7304   23.2634 C   0  0  0  0  0  0
  -25.9579  -30.7714   21.3650 C   0  0  0  0  0  0
  -26.0287  -29.3947   20.7103 C   0  0  0  0  0  0
  -27.2051  -28.5879   20.7083 C   0  0  0  0  0  0
  -26.0288  -26.8525   19.4932 C   0  0  0  0  0  0
  -24.8650  -27.6503   19.4884 C   0  0  0  0  0  0
  -23.6290  -29.7971   20.1549 C   0  0  0  0  0  0
  -25.4077  -36.3054   24.0336 C   0  0  1  0  0  0
  -20.5886  -28.3667   23.1257 C   0  0  2  0  0  0
  -20.6741  -26.9386   22.5385 C   0  0  0  0  0  0
  -19.5716  -26.6358   21.5190 C   0  0  0  0  0  0
  -18.1917  -26.7890   22.1639 C   0  0  0  0  0  0
  -19.1540  -28.8828   23.2884 C   0  0  0  0  0  0
  -18.9470  -30.1433   23.8891 C   0  0  0  0  0  0
  -17.6469  -30.6563   24.0565 C   0  0  0  0  0  0
  -25.9028  -34.9420   23.5101 C   0  0  0  0  0  0
  -16.5359  -29.9073   23.6310 C   0  0  0  0  0  0
  -16.7275  -28.6483   23.0348 C   0  0  0  0  0  0
  -26.4466  -31.6524   25.0690 C   0  0  0  0  0  0
  -25.3701  -31.3735   26.1433 C   0  0  0  0  0  0
  -27.0302  -30.2916   24.6198 C   0  0  0  0  0  0
  -27.5986  -32.4282   25.7497 C   0  0  0  0  0  0
  -27.5575  -37.1790   24.8460 C   0  0  0  0  0  0
  -21.4166  -29.3043   22.3663 N   0  0  0  0  0  0
  -26.4259  -37.3758   23.9441 N   0  0  0  0  0  0
  -24.6871  -31.0512   22.0903 N   0  0  0  0  0  0
  -23.4178  -28.8163   23.2999 O   0  0  0  0  0  0
  -28.3494  -26.4532   20.2053 O   0  0  0  0  0  0
  -26.5650  -34.8916   22.4704 O   0  0  0  0  0  0
  -23.5429  -32.1359   23.7281 O   0  0  0  0  0  0
  -29.8641  -22.6424   21.6223 C   0  0  0  0  0  0
  -28.5329  -21.1096   20.3323 C   0  0  0  0  0  0
  -28.7886  -22.4839   20.7329 C   0  0  0  0  0  0
  -30.5668  -21.5225   22.1040 C   0  0  0  0  0  0
  -29.3223  -19.9981   20.8385 C   0  0  0  0  0  0
  -33.0486  -21.8274   22.5612 C   0  0  0  0  0  0
  -27.8847  -23.7676   20.4685 C   0  0  0  0  0  0
  -31.6440  -21.7036   23.1570 C   0  0  0  0  0  0
  -28.9956  -18.4452   20.6518 C   0  0  0  0  0  0
  -30.1627  -17.3154   20.6397 C   0  0  0  0  0  0
  -28.4401  -25.0550   19.6838 C   0  0  0  0  0  0
  -30.3109  -20.2493   21.7232 N   0  0  0  0  0  0
  -29.7958  -15.8300   20.7108 N   0  0  0  0  0  0
  -31.4653  -12.6031   19.1421 H   0  0  0  0  0  0
  -30.4031  -11.4698   19.9317 H   0  0  0  0  0  0
  -29.7927  -11.7409   17.5138 H   0  0  0  0  0  0
  -29.6217  -13.4709   17.7243 H   0  0  0  0  0  0
  -27.8818  -11.2805   18.8944 H   0  0  0  0  0  0
  -27.3735  -12.5363   17.7964 H   0  0  0  0  0  0
  -27.6415  -14.2481   19.4816 H   0  0  0  0  0  0
  -28.7161  -12.1264   21.4051 H   0  0  0  0  0  0
  -28.4109  -13.8017   21.8053 H   0  0  0  0  0  0
  -25.2680   -9.5784   22.4720 H   0  0  0  0  0  0
  -24.0029   -7.4655   22.7440 H   0  0  0  0  0  0
  -21.0809   -8.8678   19.8911 H   0  0  0  0  0  0
  -22.3553  -10.9643   19.6145 H   0  0  0  0  0  0
  -21.1974   -7.6116   23.9664 H   0  0  0  0  0  0
  -21.1515   -6.0519   25.9064 H   0  0  0  0  0  0
  -22.0582   -2.7570   23.2874 H   0  0  0  0  0  0
  -22.4042  -11.9899   22.4917 H   0  0  0  0  0  0
  -21.0992  -13.1145   22.2580 H   0  0  0  0  0  0
  -24.6572  -15.8505   20.4997 H   0  0  0  0  0  0
  -26.2583  -15.6179   20.0250 H   0  0  0  0  0  0
  -26.7167  -32.5346   23.1029 H   0  0  0  0  0  0
  -24.9926  -33.9611   25.0301 H   0  0  0  0  0  0
  -22.7196  -31.2999   21.3889 H   0  0  0  0  0  0
  -23.3703  -35.9649   23.3240 H   0  0  0  0  0  0
  -24.3570  -36.8989   22.2062 H   0  0  0  0  0  0
  -23.7217  -37.6495   23.6688 H   0  0  0  0  0  0
  -26.0874  -31.5299   20.5914 H   0  0  0  0  0  0
  -26.8389  -30.8221   21.9942 H   0  0  0  0  0  0
  -28.1011  -28.9507   21.1916 H   0  0  0  0  0  0
  -25.9755  -25.8795   19.0265 H   0  0  0  0  0  0
  -23.9664  -27.2730   19.0184 H   0  0  0  0  0  0
  -23.7455  -30.5640   19.3884 H   0  0  0  0  0  0
  -22.7456  -29.2253   19.8619 H   0  0  0  0  0  0
  -25.1245  -36.1896   25.0820 H   0  0  0  0  0  0
  -21.0012  -28.3204   24.1363 H   0  0  0  0  0  0
  -20.5553  -26.2305   23.3598 H   0  0  0  0  0  0
  -21.6619  -26.7342   22.1239 H   0  0  0  0  0  0
  -19.6867  -25.6271   21.1213 H   0  0  0  0  0  0
  -19.6598  -27.3166   20.6717 H   0  0  0  0  0  0
  -17.4163  -26.6627   21.4059 H   0  0  0  0  0  0
  -18.0349  -26.0017   22.9031 H   0  0  0  0  0  0
  -19.7950  -30.7257   24.2222 H   0  0  0  0  0  0
  -17.5030  -31.6236   24.5174 H   0  0  0  0  0  0
  -15.5363  -30.2991   23.7589 H   0  0  0  0  0  0
  -15.8685  -28.0796   22.7055 H   0  0  0  0  0  0
  -24.5855  -30.7074   25.7830 H   0  0  0  0  0  0
  -24.8916  -32.2938   26.4793 H   0  0  0  0  0  0
  -25.8025  -30.8991   27.0253 H   0  0  0  0  0  0
  -26.2910  -29.6676   24.1160 H   0  0  0  0  0  0
  -27.3890  -29.7160   25.4745 H   0  0  0  0  0  0
  -27.8815  -30.4142   23.9501 H   0  0  0  0  0  0
  -27.2522  -33.3568   26.2052 H   0  0  0  0  0  0
  -28.3817  -32.6861   25.0358 H   0  0  0  0  0  0
  -28.0622  -31.8425   26.5452 H   0  0  0  0  0  0
  -28.2552  -38.0130   24.7550 H   0  0  0  0  0  0
  -28.1117  -36.2667   24.6192 H   0  0  0  0  0  0
  -27.2339  -37.1347   25.8877 H   0  0  0  0  0  0
  -20.9317  -29.8829   21.6945 H   0  0  0  0  0  0
  -26.0134  -38.2829   24.1443 H   0  0  0  0  0  0
  -30.1044  -23.6275   22.0032 H   0  0  0  0  0  0
  -27.6883  -20.8966   19.6888 H   0  0  0  0  0  0
  -33.7955  -21.8760   23.3532 H   0  0  0  0  0  0
  -33.1441  -22.7286   21.9563 H   0  0  0  0  0  0
  -33.2837  -20.9725   21.9279 H   0  0  0  0  0  0
  -27.5912  -24.1222   21.4574 H   0  0  0  0  0  0
  -26.9473  -23.4524   20.0107 H   0  0  0  0  0  0
  -31.6144  -20.8644   23.8523 H   0  0  0  0  0  0
  -31.4167  -22.5910   23.7494 H   0  0  0  0  0  0
  -28.4268  -18.3554   19.7276 H   0  0  0  0  0  0
  -28.2985  -18.1870   21.4496 H   0  0  0  0  0  0
  -30.8140  -17.5054   21.4934 H   0  0  0  0  0  0
  -30.7910  -17.4731   19.7619 H   0  0  0  0  0  0
  -28.0693  -25.0338   18.6595 H   0  0  0  0  0  0
  -29.5120  -24.8880   19.5712 H   0  0  0  0  0  0
  -28.8407  -15.6173   20.9580 H   0  0  0  0  0  0
  1 25  1  0  0  0
  1 30  2  0  0  0
  1 83  1  0  0  0
  2  3  1  0  0  0
  2 25  1  0  0  0
  2 84  1  0  0  0
  2 85  1  0  0  0
  3  4  1  0  0  0
  3 86  1  0  0  0
  3 87  1  0  0  0
  4  5  1  0  0  0
  4 88  1  0  0  0
  4 89  1  0  0  0
  5  6  1  0  0  0
  5 26  1  0  0  0
  5 90  1  0  0  0
  6 25  1  0  0  0
  6 91  1  0  0  0
  6 92  1  0  0  0
  7  8  2  0  0  0
  7 26  1  0  0  0
  7 29  1  0  0  0
  8  9  1  0  0  0
  8 22  1  0  0  0
  9 10  1  0  0  0
  9 27  2  0  0  0
 10 11  2  0  0  0
 10 15  1  0  0  0
 11 12  1  0  0  0
 11 93  1  0  0  0
 12 13  2  0  0  0
 12 94  1  0  0  0
 13 14  1  0  0  0
 13 31  1  0  0  0
 14 15  2  0  0  0
 14 95  1  0  0  0
 15 96  1  0  0  0
 16 17  2  0  0  0
 16 21  1  0  0  0
 16 31  1  0  0  0
 17 18  1  0  0  0
 17 97  1  0  0  0
 18 19  2  0  0  0
 18 98  1  0  0  0
 19 20  1  0  0  0
 19 24  1  0  0  0
 20 21  2  0  0  0
 20 99  1  0  0  0
 21 23  1  0  0  0
 22 28  1  0  0  0
 22 32  2  0  0  0
 26 27  1  0  0  0
 28100  1  0  0  0
 28101  1  0  0  0
 29102  1  0  0  0
 29103  1  0  0  0
 33 34  1  0  0  0
 33 66  1  0  0  0
 33 70  2  0  0  0
 34 36  1  0  0  0
 34 59  1  0  0  0
 34104  1  0  0  0
 35 44  2  0  0  0
 35 45  1  0  0  0
 35 68  1  0  0  0
 36 56  1  0  0  0
 36105  1  0  0  0
 37 39  1  0  0  0
 37 47  1  0  0  0
 37 66  1  0  0  0
 37106  1  0  0  0
 38 43  2  0  0  0
 38 46  1  0  0  0
 38 47  1  0  0  0
 39 64  1  0  0  0
 39 67  2  0  0  0
 40 52  1  0  0  0
 40 53  2  0  0  0
 40 58  1  0  0  0
 41107  1  0  0  0
 41108  1  0  0  0
 41109  1  0  0  0
 41 48  1  0  0  0
 42 43  1  0  0  0
 42 66  1  0  0  0
 42110  1  0  0  0
 42111  1  0  0  0
 43 44  1  0  0  0
 44112  1  0  0  0
 45 46  2  0  0  0
 45113  1  0  0  0
 46114  1  0  0  0
 47115  1  0  0  0
 47116  1  0  0  0
 48 56  1  0  0  0
 48 65  1  0  0  0
 48117  1  0  0  0
 49 50  1  0  0  0
 49 53  1  0  0  0
 49 64  1  0  0  0
 49118  1  0  0  0
 50 51  1  0  0  0
 50119  1  0  0  0
 50120  1  0  0  0
 51 52  1  0  0  0
 51121  1  0  0  0
 51122  1  0  0  0
 52123  1  0  0  0
 52124  1  0  0  0
 53 54  1  0  0  0
 54 55  2  0  0  0
 54125  1  0  0  0
 55 57  1  0  0  0
 55126  1  0  0  0
 56 69  2  0  0  0
 57 58  2  0  0  0
 57127  1  0  0  0
 58128  1  0  0  0
 59 60  1  0  0  0
 59 61  1  0  0  0
 59 62  1  0  0  0
 60129  1  0  0  0
 60130  1  0  0  0
 60131  1  0  0  0
 61132  1  0  0  0
 61133  1  0  0  0
 61134  1  0  0  0
 62135  1  0  0  0
 62136  1  0  0  0
 62137  1  0  0  0
 63 65  1  0  0  0
 63138  1  0  0  0
 63139  1  0  0  0
 63140  1  0  0  0
 64141  1  0  0  0
 65142  1  0  0  0
 68 81  1  0  0  0
 71 73  2  0  0  0
 71 74  1  0  0  0
 71143  1  0  0  0
 72 73  1  0  0  0
 72 75  2  0  0  0
 72144  1  0  0  0
 73 77  1  0  0  0
 74 78  1  0  0  0
 74 82  2  0  0  0
 75 79  1  0  0  0
 75 82  1  0  0  0
 76 78  1  0  0  0
 76145  1  0  0  0
 76146  1  0  0  0
 76147  1  0  0  0
 77 81  1  0  0  0
 77148  1  0  0  0
 77149  1  0  0  0
 78150  1  0  0  0
 78151  1  0  0  0
 79 80  1  0  0  0
 79152  1  0  0  0
 79153  1  0  0  0
 80 83  1  0  0  0
 80154  1  0  0  0
 80155  1  0  0  0
 81156  1  0  0  0
 81157  1  0  0  0
 83158  1  0  0  0
M  ISO  4   1 100  68 101  81 101  83 100
M  END
> <chiral flag>
0

> <version>
0

> <s_m_source_file>
/data/baiqing/PycharmProjects/Reinvent-master-3.2/result/LINK_invent/BTK/process_docking_weight1_custom_sum_contain_oxygen_bond_distance_aromatic_linkinvent_7_9_3/rearranged_h_0044.sdf

> <i_m_source_file_index>
60

> <r_mmod_Potential_Energy-OPLS-2005>
-16.031702041626

> <r_mmod_Stretch_Energy-OPLS-2005>
111.957893371582

> <r_mmod_Bend_Energy-OPLS-2005>
172.649215698242

> <r_mmod_Torsional_Energy-OPLS-2005>
203.902160644531

> <r_mmod_Improper_Torsional_Energy-OPLS-2005>
7.0989875793457

> <r_mmod_Van_der_Waal_Energy-OPLS-2005>
132.804122924805

> <r_mmod_Electrostatic_Energy-OPLS-2005>
-492.406402587891

> <r_mmod_Solvation_Energy-OPLS-2005>
-225.709503173828

> <b_mmod_Minimization_Converged-OPLS-2005>
0

> <r_mmod_RMS_Derivative-OPLS-2005>
3.33441853523254

$$$$
60
                    3D
 Structure written by MMmdl.
158166  0  0  1  0            999 V2000
  -30.5160  -14.9914   20.3991 C   0  0  0  0  0  0
  -30.4373  -12.6071   19.5246 C   0  0  0  0  0  0
  -29.5320  -12.5425   18.2723 C   0  0  0  0  0  0
  -28.0616  -12.3175   18.6778 C   0  0  0  0  0  0
  -27.6235  -13.2550   19.8343 C   0  0  2  0  0  0
  -28.6571  -13.3027   20.9801 C   0  0  0  0  0  0
  -25.2421  -13.8233   20.5660 C   0  0  0  0  0  0
  -24.1746  -13.0441   20.9196 C   0  0  0  0  0  0
  -24.6386  -11.6930   20.8724 C   0  0  0  0  0  0
  -23.9072  -10.4286   21.0388 C   0  0  0  0  0  0
  -24.3632   -9.4203   21.9160 C   0  0  0  0  0  0
  -23.6307   -8.2237   22.0717 C   0  0  0  0  0  0
  -22.4287   -8.0276   21.3512 C   0  0  0  0  0  0
  -21.9922   -9.0240   20.4616 C   0  0  0  0  0  0
  -22.7250  -10.2121   20.3022 C   0  0  0  0  0  0
  -21.6859   -6.0747   22.5261 C   0  0  0  0  0  0
  -21.4049   -6.5647   23.8208 C   0  0  0  0  0  0
  -21.3652   -5.6783   24.9155 C   0  0  0  0  0  0
  -21.6030   -4.3039   24.7204 C   0  0  0  0  0  0
  -21.8826   -3.8150   23.4315 C   0  0  0  0  0  0
  -21.9195   -4.6977   22.3392 C   0  0  0  0  0  0
  -22.7767  -13.5192   21.1854 C   0  0  0  0  0  0
  -22.1658   -4.2165   21.0962 F   0  0  0  0  0  0
  -21.5603   -3.4525   25.7708 F   0  0  0  0  0  0
  -29.9358  -13.7183   20.3884 N   0  0  0  0  0  0
  -26.2837  -12.9468   20.3191 N   0  0  0  0  0  0
  -25.9309  -11.6590   20.5700 N   0  0  0  0  0  0
  -22.0423  -12.8182   22.0429 N   0  0  0  0  0  0
  -25.4130  -15.1951   20.4061 N   0  0  0  0  0  0
  -31.7183  -15.0488   20.1115 O   0  0  0  0  0  0
  -21.6639   -6.8883   21.4219 O   0  0  0  0  0  0
  -22.3428  -14.5465   20.6650 O   0  0  0  0  0  0
  -24.6472  -31.8400   23.1849 C   0  0  0  0  0  0
  -25.9231  -32.4668   23.8231 C   0  0  1  0  0  0
  -27.2109  -27.0831   20.1425 C   0  0  0  0  0  0
  -25.5979  -33.8481   24.2169 N   0  0  0  0  0  0
  -23.4526  -30.4573   21.5319 C   0  0  2  0  0  0
  -24.9043  -28.8803   20.1089 C   0  0  0  0  0  0
  -22.7591  -29.4499   22.4823 C   0  0  0  0  0  0
  -18.0319  -28.1400   22.8497 C   0  0  0  0  0  0
  -24.1501  -36.7238   23.2633 C   0  0  0  0  0  0
  -26.0126  -30.6970   21.3930 C   0  0  0  0  0  0
  -26.0865  -29.3030   20.7315 C   0  0  0  0  0  0
  -27.2414  -28.4215   20.7304 C   0  0  0  0  0  0
  -26.0088  -26.7867   19.4680 C   0  0  0  0  0  0
  -24.8820  -27.6370   19.4611 C   0  0  0  0  0  0
  -23.6850  -29.7901   20.1507 C   0  0  0  0  0  0
  -25.4128  -36.2999   24.0302 C   0  0  1  0  0  0
  -20.5930  -28.3709   23.1261 C   0  0  2  0  0  0
  -20.6794  -26.9406   22.5426 C   0  0  0  0  0  0
  -19.5767  -26.6380   21.5235 C   0  0  0  0  0  0
  -18.1949  -26.7941   22.1637 C   0  0  0  0  0  0
  -19.1572  -28.8868   23.2875 C   0  0  0  0  0  0
  -18.9471  -30.1467   23.8892 C   0  0  0  0  0  0
  -17.6459  -30.6584   24.0556 C   0  0  0  0  0  0
  -25.9085  -34.9386   23.5029 C   0  0  0  0  0  0
  -16.5356  -29.9079   23.6331 C   0  0  0  0  0  0
  -16.7298  -28.6502   23.0358 C   0  0  0  0  0  0
  -26.4557  -31.6531   25.0663 C   0  0  0  0  0  0
  -25.3719  -31.3752   26.1329 C   0  0  0  0  0  0
  -27.0411  -30.2907   24.6273 C   0  0  0  0  0  0
  -27.6069  -32.4290   25.7462 C   0  0  0  0  0  0
  -27.5580  -37.1774   24.8454 C   0  0  0  0  0  0
  -21.4269  -29.3029   22.3617 N   0  0  0  0  0  0
  -26.4293  -37.3716   23.9398 N   0  0  0  0  0  0
  -24.7230  -31.0211   22.0895 N   0  0  0  0  0  0
  -23.4233  -28.8031   23.2961 O   0  0  0  0  0  0
  -28.2390  -26.0528   20.1440 O   0  0  0  0  0  0
  -26.5665  -34.8887   22.4604 O   0  0  0  0  0  0
  -23.5591  -32.1290   23.7059 O   0  0  0  0  0  0
  -29.6537  -20.7442   18.6278 C   0  0  0  0  0  0
  -29.1955  -23.1633   18.5663 C   0  0  0  0  0  0
  -29.6664  -21.9803   17.9383 C   0  0  0  0  0  0
  -29.1373  -20.6263   19.9245 C   0  0  0  0  0  0
  -28.6591  -23.1391   19.8700 C   0  0  0  0  0  0
  -29.0493  -21.4136   15.5476 C   0  0  0  0  0  0
  -31.4846  -21.3267   16.2902 C   0  0  0  0  0  0
  -29.0114  -19.0697   20.5283 C   0  0  0  0  0  0
  -27.9142  -24.5280   20.4415 C   0  0  0  0  0  0
  -30.0082  -17.7232   20.1633 C   0  0  0  0  0  0
  -30.1203  -22.0127   16.4794 C   0  0  0  0  0  0
  -28.6326  -21.8432   20.5031 N   0  0  0  0  0  0
  -29.7320  -16.1844   20.5124 N   0  0  0  0  0  0
  -31.4766  -12.7570   19.2264 H   0  0  0  0  0  0
  -30.4196  -11.6600   20.0651 H   0  0  0  0  0  0
  -29.8658  -11.7546   17.5949 H   0  0  0  0  0  0
  -29.6198  -13.4806   17.7232 H   0  0  0  0  0  0
  -27.9532  -11.2764   18.9880 H   0  0  0  0  0  0
  -27.4085  -12.4428   17.8144 H   0  0  0  0  0  0
  -27.5830  -14.2532   19.3994 H   0  0  0  0  0  0
  -28.7402  -12.3326   21.4699 H   0  0  0  0  0  0
  -28.3430  -14.0104   21.7485 H   0  0  0  0  0  0
  -25.2782   -9.5677   22.4722 H   0  0  0  0  0  0
  -24.0006   -7.4631   22.7442 H   0  0  0  0  0  0
  -21.0843   -8.8767   19.8940 H   0  0  0  0  0  0
  -22.3710  -10.9641   19.6122 H   0  0  0  0  0  0
  -21.2089   -7.6162   23.9720 H   0  0  0  0  0  0
  -21.1452   -6.0509   25.9060 H   0  0  0  0  0  0
  -22.0622   -2.7612   23.2804 H   0  0  0  0  0  0
  -22.4082  -11.9920   22.4923 H   0  0  0  0  0  0
  -21.1000  -13.1140   22.2558 H   0  0  0  0  0  0
  -24.6439  -15.8501   20.4897 H   0  0  0  0  0  0
  -26.2545  -15.6196   20.0386 H   0  0  0  0  0  0
  -26.7276  -32.5282   23.0943 H   0  0  0  0  0  0
  -25.0108  -33.9572   25.0307 H   0  0  0  0  0  0
  -22.7555  -31.2834   21.3774 H   0  0  0  0  0  0
  -23.3764  -35.9568   23.3272 H   0  0  0  0  0  0
  -24.3590  -36.8894   22.2048 H   0  0  0  0  0  0
  -23.7262  -37.6426   23.6703 H   0  0  0  0  0  0
  -26.1789  -31.4570   20.6277 H   0  0  0  0  0  0
  -26.8759  -30.7494   22.0427 H   0  0  0  0  0  0
  -28.1417  -28.7429   21.2359 H   0  0  0  0  0  0
  -25.9202  -25.8527   18.9339 H   0  0  0  0  0  0
  -23.9875  -27.3213   18.9436 H   0  0  0  0  0  0
  -23.8338  -30.5673   19.3998 H   0  0  0  0  0  0
  -22.7974  -29.2422   19.8295 H   0  0  0  0  0  0
  -25.1334  -36.1808   25.0798 H   0  0  0  0  0  0
  -21.0044  -28.3290   24.1375 H   0  0  0  0  0  0
  -20.5698  -26.2295   23.3635 H   0  0  0  0  0  0
  -21.6647  -26.7419   22.1198 H   0  0  0  0  0  0
  -19.6896  -25.6295   21.1252 H   0  0  0  0  0  0
  -19.6694  -27.3190   20.6765 H   0  0  0  0  0  0
  -17.4215  -26.6715   21.4035 H   0  0  0  0  0  0
  -18.0322  -26.0091   22.9035 H   0  0  0  0  0  0
  -19.7928  -30.7306   24.2258 H   0  0  0  0  0  0
  -17.4992  -31.6257   24.5161 H   0  0  0  0  0  0
  -15.5348  -30.2958   23.7645 H   0  0  0  0  0  0
  -15.8717  -28.0798   22.7083 H   0  0  0  0  0  0
  -24.5935  -30.7062   25.7645 H   0  0  0  0  0  0
  -24.8859  -32.2938   26.4611 H   0  0  0  0  0  0
  -25.7960  -30.9019   27.0183 H   0  0  0  0  0  0
  -26.3013  -29.6605   24.1311 H   0  0  0  0  0  0
  -27.4034  -29.7239   25.4857 H   0  0  0  0  0  0
  -27.8934  -30.4098   23.9580 H   0  0  0  0  0  0
  -27.2667  -33.3629   26.1947 H   0  0  0  0  0  0
  -28.3945  -32.6773   25.0336 H   0  0  0  0  0  0
  -28.0664  -31.8459   26.5450 H   0  0  0  0  0  0
  -28.2577  -38.0096   24.7521 H   0  0  0  0  0  0
  -28.1120  -36.2625   24.6283 H   0  0  0  0  0  0
  -27.2306  -37.1395   25.8861 H   0  0  0  0  0  0
  -20.9478  -29.8781   21.6834 H   0  0  0  0  0  0
  -26.0156  -38.2782   24.1404 H   0  0  0  0  0  0
  -29.9911  -19.8471   18.1292 H   0  0  0  0  0  0
  -29.1867  -24.0957   18.0178 H   0  0  0  0  0  0
  -28.1052  -21.9504   15.6493 H   0  0  0  0  0  0
  -28.8568  -20.3636   15.7732 H   0  0  0  0  0  0
  -29.3438  -21.4765   14.4990 H   0  0  0  0  0  0
  -32.2269  -21.7764   16.9482 H   0  0  0  0  0  0
  -31.8464  -21.4247   15.2674 H   0  0  0  0  0  0
  -31.4468  -20.2610   16.5161 H   0  0  0  0  0  0
  -28.0084  -18.7578   20.2318 H   0  0  0  0  0  0
  -28.9568  -19.1577   21.6123 H   0  0  0  0  0  0
  -27.9510  -24.4347   21.5270 H   0  0  0  0  0  0
  -26.8637  -24.3636   20.2044 H   0  0  0  0  0  0
  -31.0059  -17.9492   20.5427 H   0  0  0  0  0  0
  -30.1344  -17.7241   19.0821 H   0  0  0  0  0  0
  -30.2428  -23.0577   16.1917 H   0  0  0  0  0  0
  -28.7698  -15.9986   20.7557 H   0  0  0  0  0  0
  1 25  1  0  0  0
  1 30  2  0  0  0
  1 83  1  0  0  0
  2  3  1  0  0  0
  2 25  1  0  0  0
  2 84  1  0  0  0
  2 85  1  0  0  0
  3  4  1  0  0  0
  3 86  1  0  0  0
  3 87  1  0  0  0
  4  5  1  0  0  0
  4 88  1  0  0  0
  4 89  1  0  0  0
  5  6  1  0  0  0
  5 26  1  0  0  0
  5 90  1  0  0  0
  6 25  1  0  0  0
  6 91  1  0  0  0
  6 92  1  0  0  0
  7  8  2  0  0  0
  7 26  1  0  0  0
  7 29  1  0  0  0
  8  9  1  0  0  0
  8 22  1  0  0  0
  9 10  1  0  0  0
  9 27  2  0  0  0
 10 11  2  0  0  0
 10 15  1  0  0  0
 11 12  1  0  0  0
 11 93  1  0  0  0
 12 13  2  0  0  0
 12 94  1  0  0  0
 13 14  1  0  0  0
 13 31  1  0  0  0
 14 15  2  0  0  0
 14 95  1  0  0  0
 15 96  1  0  0  0
 16 17  2  0  0  0
 16 21  1  0  0  0
 16 31  1  0  0  0
 17 18  1  0  0  0
 17 97  1  0  0  0
 18 19  2  0  0  0
 18 98  1  0  0  0
 19 20  1  0  0  0
 19 24  1  0  0  0
 20 21  2  0  0  0
 20 99  1  0  0  0
 21 23  1  0  0  0
 22 28  1  0  0  0
 22 32  2  0  0  0
 26 27  1  0  0  0
 28100  1  0  0  0
 28101  1  0  0  0
 29102  1  0  0  0
 29103  1  0  0  0
 33 34  1  0  0  0
 33 66  1  0  0  0
 33 70  2  0  0  0
 34 36  1  0  0  0
 34 59  1  0  0  0
 34104  1  0  0  0
 35 44  2  0  0  0
 35 45  1  0  0  0
 35 68  1  0  0  0
 36 56  1  0  0  0
 36105  1  0  0  0
 37 39  1  0  0  0
 37 47  1  0  0  0
 37 66  1  0  0  0
 37106  1  0  0  0
 38 43  2  0  0  0
 38 46  1  0  0  0
 38 47  1  0  0  0
 39 64  1  0  0  0
 39 67  2  0  0  0
 40 52  1  0  0  0
 40 53  2  0  0  0
 40 58  1  0  0  0
 41107  1  0  0  0
 41108  1  0  0  0
 41109  1  0  0  0
 41 48  1  0  0  0
 42 43  1  0  0  0
 42 66  1  0  0  0
 42110  1  0  0  0
 42111  1  0  0  0
 43 44  1  0  0  0
 44112  1  0  0  0
 45 46  2  0  0  0
 45113  1  0  0  0
 46114  1  0  0  0
 47115  1  0  0  0
 47116  1  0  0  0
 48 56  1  0  0  0
 48 65  1  0  0  0
 48117  1  0  0  0
 49 50  1  0  0  0
 49 53  1  0  0  0
 49 64  1  0  0  0
 49118  1  0  0  0
 50 51  1  0  0  0
 50119  1  0  0  0
 50120  1  0  0  0
 51 52  1  0  0  0
 51121  1  0  0  0
 51122  1  0  0  0
 52123  1  0  0  0
 52124  1  0  0  0
 53 54  1  0  0  0
 54 55  2  0  0  0
 54125  1  0  0  0
 55 57  1  0  0  0
 55126  1  0  0  0
 56 69  2  0  0  0
 57 58  2  0  0  0
 57127  1  0  0  0
 58128  1  0  0  0
 59 60  1  0  0  0
 59 61  1  0  0  0
 59 62  1  0  0  0
 60129  1  0  0  0
 60130  1  0  0  0
 60131  1  0  0  0
 61132  1  0  0  0
 61133  1  0  0  0
 61134  1  0  0  0
 62135  1  0  0  0
 62136  1  0  0  0
 62137  1  0  0  0
 63 65  1  0  0  0
 63138  1  0  0  0
 63139  1  0  0  0
 63140  1  0  0  0
 64141  1  0  0  0
 65142  1  0  0  0
 68 79  1  0  0  0
 71 73  2  0  0  0
 71 74  1  0  0  0
 71143  1  0  0  0
 72 73  1  0  0  0
 72 75  2  0  0  0
 72144  1  0  0  0
 73 81  1  0  0  0
 74 78  1  0  0  0
 74 82  2  0  0  0
 75 79  1  0  0  0
 75 82  1  0  0  0
 76145  1  0  0  0
 76146  1  0  0  0
 76147  1  0  0  0
 76 81  1  0  0  0
 77 81  1  0  0  0
 77148  1  0  0  0
 77149  1  0  0  0
 77150  1  0  0  0
 78 80  1  0  0  0
 78151  1  0  0  0
 78152  1  0  0  0
 79153  1  0  0  0
 79154  1  0  0  0
 80 83  1  0  0  0
 80155  1  0  0  0
 80156  1  0  0  0
 81157  1  0  0  0
 83158  1  0  0  0
M  ISO  4   1 100  68 101  79 101  83 100
M  END
> <chiral flag>
0

> <version>
0

> <s_m_source_file>
/data/baiqing/PycharmProjects/Reinvent-master-3.2/result/LINK_invent/BTK/process_docking_weight1_custom_sum_contain_oxygen_bond_distance_aromatic_linkinvent_7_9_3/rearranged_h_0044.sdf

> <i_m_source_file_index>
61

> <r_mmod_Potential_Energy-OPLS-2005>
468.001190185547

> <r_mmod_Stretch_Energy-OPLS-2005>
320.873931884766

> <r_mmod_Bend_Energy-OPLS-2005>
279.94580078125

> <r_mmod_Torsional_Energy-OPLS-2005>
227.616989135742

> <r_mmod_Improper_Torsional_Energy-OPLS-2005>
6.8340802192688

> <r_mmod_Van_der_Waal_Energy-OPLS-2005>
129.17268371582

> <r_mmod_Electrostatic_Energy-OPLS-2005>
-499.338623046875

> <r_mmod_Solvation_Energy-OPLS-2005>
-229.230316162109

> <b_mmod_Minimization_Converged-OPLS-2005>
0

> <r_mmod_RMS_Derivative-OPLS-2005>
3.99456715583801

$$$$
61
                    3D
 Structure written by MMmdl.
157165  0  0  1  0            999 V2000
  -30.5898  -14.6617   20.4883 C   0  0  0  0  0  0
  -30.4438  -12.4007   19.4606 C   0  0  0  0  0  0
  -29.5114  -12.5123   18.2320 C   0  0  0  0  0  0
  -28.0348  -12.3443   18.6430 C   0  0  0  0  0  0
  -27.6575  -13.2130   19.8721 C   0  0  2  0  0  0
  -28.7016  -13.0603   21.0039 C   0  0  0  0  0  0
  -25.2581  -13.8153   20.5691 C   0  0  0  0  0  0
  -24.1840  -13.0426   20.9192 C   0  0  0  0  0  0
  -24.6399  -11.6898   20.8747 C   0  0  0  0  0  0
  -23.9071  -10.4290   21.0409 C   0  0  0  0  0  0
  -24.3615   -9.4200   21.9188 C   0  0  0  0  0  0
  -23.6289   -8.2235   22.0757 C   0  0  0  0  0  0
  -22.4274   -8.0281   21.3538 C   0  0  0  0  0  0
  -21.9910   -9.0257   20.4648 C   0  0  0  0  0  0
  -22.7242  -10.2134   20.3062 C   0  0  0  0  0  0
  -21.6847   -6.0743   22.5276 C   0  0  0  0  0  0
  -21.4013   -6.5646   23.8213 C   0  0  0  0  0  0
  -21.3658   -5.6796   24.9171 C   0  0  0  0  0  0
  -21.6044   -4.3061   24.7216 C   0  0  0  0  0  0
  -21.8819   -3.8151   23.4340 C   0  0  0  0  0  0
  -21.9194   -4.6971   22.3397 C   0  0  0  0  0  0
  -22.7864  -13.5225   21.1846 C   0  0  0  0  0  0
  -22.1661   -4.2158   21.0977 F   0  0  0  0  0  0
  -21.5624   -3.4547   25.7729 F   0  0  0  0  0  0
  -30.0162  -13.4160   20.4483 N   0  0  0  0  0  0
  -26.3011  -12.9328   20.3370 N   0  0  0  0  0  0
  -25.9333  -11.6488   20.5788 N   0  0  0  0  0  0
  -22.0508  -12.8225   22.0408 N   0  0  0  0  0  0
  -25.4291  -15.1871   20.4080 N   0  0  0  0  0  0
  -31.7244  -14.8606   20.0444 O   0  0  0  0  0  0
  -21.6630   -6.8879   21.4234 O   0  0  0  0  0  0
  -22.3557  -14.5536   20.6706 O   0  0  0  0  0  0
  -24.6244  -31.8575   23.1981 C   0  0  0  0  0  0
  -25.9098  -32.4751   23.8327 C   0  0  1  0  0  0
  -27.2393  -27.3195   20.1230 C   0  0  0  0  0  0
  -25.5913  -33.8550   24.2255 N   0  0  0  0  0  0
  -23.4188  -30.4756   21.5394 C   0  0  2  0  0  0
  -24.8679  -28.9197   20.1110 C   0  0  0  0  0  0
  -22.7468  -29.4611   22.4936 C   0  0  0  0  0  0
  -18.0321  -28.1381   22.8483 C   0  0  0  0  0  0
  -24.1494  -36.7286   23.2642 C   0  0  0  0  0  0
  -25.9558  -30.7883   21.3664 C   0  0  0  0  0  0
  -26.0306  -29.4124   20.7143 C   0  0  0  0  0  0
  -27.2137  -28.6210   20.7121 C   0  0  0  0  0  0
  -26.0566  -26.8665   19.5033 C   0  0  0  0  0  0
  -24.8817  -27.6514   19.5003 C   0  0  0  0  0  0
  -23.6343  -29.7997   20.1571 C   0  0  0  0  0  0
  -25.4116  -36.3056   24.0322 C   0  0  1  0  0  0
  -20.5913  -28.3687   23.1314 C   0  0  2  0  0  0
  -20.6814  -26.9407   22.5451 C   0  0  0  0  0  0
  -19.5825  -26.6409   21.5209 C   0  0  0  0  0  0
  -18.1983  -26.7941   22.1594 C   0  0  0  0  0  0
  -19.1565  -28.8844   23.2900 C   0  0  0  0  0  0
  -18.9478  -30.1448   23.8906 C   0  0  0  0  0  0
  -17.6478  -30.6573   24.0555 C   0  0  0  0  0  0
  -25.9047  -34.9431   23.5091 C   0  0  0  0  0  0
  -16.5376  -29.9061   23.6329 C   0  0  0  0  0  0
  -16.7305  -28.6488   23.0343 C   0  0  0  0  0  0
  -26.4507  -31.6567   25.0697 C   0  0  0  0  0  0
  -25.3758  -31.3701   26.1432 C   0  0  0  0  0  0
  -27.0357  -30.2993   24.6144 C   0  0  0  0  0  0
  -27.6059  -32.4313   25.7474 C   0  0  0  0  0  0
  -27.5575  -37.1792   24.8463 C   0  0  0  0  0  0
  -21.4185  -29.3028   22.3678 N   0  0  0  0  0  0
  -26.4287  -37.3755   23.9401 N   0  0  0  0  0  0
  -24.6850  -31.0592   22.0918 N   0  0  0  0  0  0
  -23.4195  -28.8176   23.3037 O   0  0  0  0  0  0
  -28.4002  -26.5378   20.1958 O   0  0  0  0  0  0
  -26.5625  -34.8911   22.4665 O   0  0  0  0  0  0
  -23.5408  -32.1374   23.7312 O   0  0  0  0  0  0
  -29.4968  -19.8023   20.7398 C   0  0  0  0  0  0
  -28.9066  -20.5048   21.8241 C   0  0  0  0  0  0
  -29.5647  -20.6011   19.5597 C   0  0  0  0  0  0
  -28.5925  -22.4729   20.5887 C   0  0  0  0  0  0
  -28.7489  -19.8872   23.2006 C   0  0  0  0  0  0
  -30.2310  -20.1091   18.2904 C   0  0  0  0  0  0
  -30.1475  -18.3582   20.9301 C   0  0  0  0  0  0
  -27.9360  -23.9177   20.5734 C   0  0  0  0  0  0
  -29.5398  -17.0639   20.2320 C   0  0  0  0  0  0
  -28.5327  -25.1317   19.7345 C   0  0  0  0  0  0
  -28.4811  -21.7936   21.7337 N   0  0  0  0  0  0
  -29.0928  -21.8888   19.4916 N   0  0  0  0  0  0
  -29.7559  -15.6941   20.8415 N   0  0  0  0  0  0
  -31.4831  -12.5345   19.1560 H   0  0  0  0  0  0
  -30.3887  -11.4005   19.8938 H   0  0  0  0  0  0
  -29.7763  -11.7599   17.4876 H   0  0  0  0  0  0
  -29.6505  -13.4798   17.7479 H   0  0  0  0  0  0
  -27.8738  -11.2909   18.8771 H   0  0  0  0  0  0
  -27.3777  -12.5734   17.8028 H   0  0  0  0  0  0
  -27.6798  -14.2486   19.5343 H   0  0  0  0  0  0
  -28.7175  -12.0354   21.3762 H   0  0  0  0  0  0
  -28.4476  -13.6842   21.8629 H   0  0  0  0  0  0
  -25.2754   -9.5684   22.4765 H   0  0  0  0  0  0
  -24.0008   -7.4627   22.7484 H   0  0  0  0  0  0
  -21.0837   -8.8779   19.8952 H   0  0  0  0  0  0
  -22.3697  -10.9678   19.6186 H   0  0  0  0  0  0
  -21.2002   -7.6151   23.9719 H   0  0  0  0  0  0
  -21.1481   -6.0523   25.9076 H   0  0  0  0  0  0
  -22.0600   -2.7613   23.2836 H   0  0  0  0  0  0
  -22.4111  -11.9875   22.4782 H   0  0  0  0  0  0
  -21.1134  -13.1277   22.2612 H   0  0  0  0  0  0
  -24.6620  -15.8424   20.5160 H   0  0  0  0  0  0
  -26.2741  -15.6234   20.0630 H   0  0  0  0  0  0
  -26.7162  -32.5430   23.1073 H   0  0  0  0  0  0
  -25.0065  -33.9705   25.0397 H   0  0  0  0  0  0
  -22.7115  -31.2940   21.3900 H   0  0  0  0  0  0
  -23.3746  -35.9631   23.3302 H   0  0  0  0  0  0
  -24.3588  -36.8909   22.2058 H   0  0  0  0  0  0
  -23.7270  -37.6492   23.6677 H   0  0  0  0  0  0
  -26.0857  -31.5500   20.5962 H   0  0  0  0  0  0
  -26.8359  -30.8402   21.9954 H   0  0  0  0  0  0
  -28.1066  -28.9973   21.1918 H   0  0  0  0  0  0
  -26.0259  -25.8938   19.0346 H   0  0  0  0  0  0
  -23.9868  -27.2641   19.0319 H   0  0  0  0  0  0
  -23.7517  -30.5714   19.3951 H   0  0  0  0  0  0
  -22.7561  -29.2243   19.8586 H   0  0  0  0  0  0
  -25.1305  -36.1897   25.0814 H   0  0  0  0  0  0
  -21.0012  -28.3285   24.1431 H   0  0  0  0  0  0
  -20.5676  -26.2303   23.3649 H   0  0  0  0  0  0
  -21.6702  -26.7423   22.1286 H   0  0  0  0  0  0
  -19.7007  -25.6333   21.1217 H   0  0  0  0  0  0
  -19.6807  -27.3246   20.6761 H   0  0  0  0  0  0
  -17.4281  -26.6702   21.3963 H   0  0  0  0  0  0
  -18.0370  -26.0055   22.8963 H   0  0  0  0  0  0
  -19.7946  -30.7263   24.2293 H   0  0  0  0  0  0
  -17.5015  -31.6256   24.5147 H   0  0  0  0  0  0
  -15.5374  -30.2946   23.7652 H   0  0  0  0  0  0
  -15.8712  -28.0794   22.7057 H   0  0  0  0  0  0
  -24.5929  -30.7046   25.7779 H   0  0  0  0  0  0
  -24.8960  -32.2865   26.4877 H   0  0  0  0  0  0
  -25.8102  -30.8876   27.0194 H   0  0  0  0  0  0
  -26.2924  -29.6721   24.1205 H   0  0  0  0  0  0
  -27.4105  -29.7264   25.4639 H   0  0  0  0  0  0
  -27.8773  -30.4287   23.9332 H   0  0  0  0  0  0
  -27.2657  -33.3608   26.2054 H   0  0  0  0  0  0
  -28.3878  -32.6874   25.0313 H   0  0  0  0  0  0
  -28.0725  -31.8438   26.5391 H   0  0  0  0  0  0
  -28.2587  -38.0093   24.7490 H   0  0  0  0  0  0
  -28.1067  -36.2614   24.6305 H   0  0  0  0  0  0
  -27.2287  -37.1462   25.8866 H   0  0  0  0  0  0
  -20.9356  -29.8712   21.6860 H   0  0  0  0  0  0
  -26.0157  -38.2824   24.1397 H   0  0  0  0  0  0
  -29.7223  -19.7964   23.6822 H   0  0  0  0  0  0
  -28.2991  -18.8965   23.1386 H   0  0  0  0  0  0
  -28.1137  -20.4979   23.8425 H   0  0  0  0  0  0
  -30.3332  -19.0275   18.2660 H   0  0  0  0  0  0
  -31.2279  -20.5416   18.2029 H   0  0  0  0  0  0
  -29.6565  -20.4062   17.4128 H   0  0  0  0  0  0
  -30.2130  -18.1466   21.9955 H   0  0  0  0  0  0
  -31.1920  -18.4388   20.6235 H   0  0  0  0  0  0
  -27.9245  -24.2511   21.6116 H   0  0  0  0  0  0
  -26.8851  -23.8007   20.3096 H   0  0  0  0  0  0
  -28.4560  -17.1847   20.2372 H   0  0  0  0  0  0
  -29.8160  -17.0255   19.1777 H   0  0  0  0  0  0
  -28.2267  -25.0515   18.6917 H   0  0  0  0  0  0
  -29.6118  -24.9764   19.7148 H   0  0  0  0  0  0
  -28.9353  -15.3526   21.3210 H   0  0  0  0  0  0
  1 25  1  0  0  0
  1 30  2  0  0  0
  1 83  1  0  0  0
  2  3  1  0  0  0
  2 25  1  0  0  0
  2 84  1  0  0  0
  2 85  1  0  0  0
  3  4  1  0  0  0
  3 86  1  0  0  0
  3 87  1  0  0  0
  4  5  1  0  0  0
  4 88  1  0  0  0
  4 89  1  0  0  0
  5  6  1  0  0  0
  5 26  1  0  0  0
  5 90  1  0  0  0
  6 25  1  0  0  0
  6 91  1  0  0  0
  6 92  1  0  0  0
  7  8  2  0  0  0
  7 26  1  0  0  0
  7 29  1  0  0  0
  8  9  1  0  0  0
  8 22  1  0  0  0
  9 10  1  0  0  0
  9 27  2  0  0  0
 10 11  2  0  0  0
 10 15  1  0  0  0
 11 12  1  0  0  0
 11 93  1  0  0  0
 12 13  2  0  0  0
 12 94  1  0  0  0
 13 14  1  0  0  0
 13 31  1  0  0  0
 14 15  2  0  0  0
 14 95  1  0  0  0
 15 96  1  0  0  0
 16 17  2  0  0  0
 16 21  1  0  0  0
 16 31  1  0  0  0
 17 18  1  0  0  0
 17 97  1  0  0  0
 18 19  2  0  0  0
 18 98  1  0  0  0
 19 20  1  0  0  0
 19 24  1  0  0  0
 20 21  2  0  0  0
 20 99  1  0  0  0
 21 23  1  0  0  0
 22 28  1  0  0  0
 22 32  2  0  0  0
 26 27  1  0  0  0
 28100  1  0  0  0
 28101  1  0  0  0
 29102  1  0  0  0
 29103  1  0  0  0
 33 34  1  0  0  0
 33 66  1  0  0  0
 33 70  2  0  0  0
 34 36  1  0  0  0
 34 59  1  0  0  0
 34104  1  0  0  0
 35 44  2  0  0  0
 35 45  1  0  0  0
 35 68  1  0  0  0
 36 56  1  0  0  0
 36105  1  0  0  0
 37 39  1  0  0  0
 37 47  1  0  0  0
 37 66  1  0  0  0
 37106  1  0  0  0
 38 43  2  0  0  0
 38 46  1  0  0  0
 38 47  1  0  0  0
 39 64  1  0  0  0
 39 67  2  0  0  0
 40 52  1  0  0  0
 40 53  2  0  0  0
 40 58  1  0  0  0
 41107  1  0  0  0
 41108  1  0  0  0
 41109  1  0  0  0
 41 48  1  0  0  0
 42 43  1  0  0  0
 42 66  1  0  0  0
 42110  1  0  0  0
 42111  1  0  0  0
 43 44  1  0  0  0
 44112  1  0  0  0
 45 46  2  0  0  0
 45113  1  0  0  0
 46114  1  0  0  0
 47115  1  0  0  0
 47116  1  0  0  0
 48 56  1  0  0  0
 48 65  1  0  0  0
 48117  1  0  0  0
 49 50  1  0  0  0
 49 53  1  0  0  0
 49 64  1  0  0  0
 49118  1  0  0  0
 50 51  1  0  0  0
 50119  1  0  0  0
 50120  1  0  0  0
 51 52  1  0  0  0
 51121  1  0  0  0
 51122  1  0  0  0
 52123  1  0  0  0
 52124  1  0  0  0
 53 54  1  0  0  0
 54 55  2  0  0  0
 54125  1  0  0  0
 55 57  1  0  0  0
 55126  1  0  0  0
 56 69  2  0  0  0
 57 58  2  0  0  0
 57127  1  0  0  0
 58128  1  0  0  0
 59 60  1  0  0  0
 59 61  1  0  0  0
 59 62  1  0  0  0
 60129  1  0  0  0
 60130  1  0  0  0
 60131  1  0  0  0
 61132  1  0  0  0
 61133  1  0  0  0
 61134  1  0  0  0
 62135  1  0  0  0
 62136  1  0  0  0
 62137  1  0  0  0
 63 65  1  0  0  0
 63138  1  0  0  0
 63139  1  0  0  0
 63140  1  0  0  0
 64141  1  0  0  0
 65142  1  0  0  0
 68 80  1  0  0  0
 71 72  2  0  0  0
 71 73  1  0  0  0
 71 77  1  0  0  0
 72 75  1  0  0  0
 72 81  1  0  0  0
 73 76  1  0  0  0
 73 82  2  0  0  0
 74 78  1  0  0  0
 74 81  2  0  0  0
 74 82  1  0  0  0
 75143  1  0  0  0
 75144  1  0  0  0
 75145  1  0  0  0
 76146  1  0  0  0
 76147  1  0  0  0
 76148  1  0  0  0
 77 79  1  0  0  0
 77149  1  0  0  0
 77150  1  0  0  0
 78 80  1  0  0  0
 78151  1  0  0  0
 78152  1  0  0  0
 79 83  1  0  0  0
 79153  1  0  0  0
 79154  1  0  0  0
 80155  1  0  0  0
 80156  1  0  0  0
 83157  1  0  0  0
M  ISO  4   1 100  68 101  80 101  83 100
M  END
> <chiral flag>
0

> <version>
0

> <s_m_source_file>
/data/baiqing/PycharmProjects/Reinvent-master-3.2/result/LINK_invent/BTK/process_docking_weight1_custom_sum_contain_oxygen_bond_distance_aromatic_linkinvent_7_9_3/rearranged_h_0044.sdf

> <i_m_source_file_index>
62

> <r_mmod_Potential_Energy-OPLS-2005>
-344.401794433594

> <r_mmod_Stretch_Energy-OPLS-2005>
86.9250030517578

> <r_mmod_Bend_Energy-OPLS-2005>
180.074142456055

> <r_mmod_Torsional_Energy-OPLS-2005>
216.071533203125

> <r_mmod_Improper_Torsional_Energy-OPLS-2005>
8.31534194946289

> <r_mmod_Van_der_Waal_Energy-OPLS-2005>
141.691314697266

> <r_mmod_Electrostatic_Energy-OPLS-2005>
-789.013732910156

> <r_mmod_Solvation_Energy-OPLS-2005>
-239.779006958008

> <b_mmod_Minimization_Converged-OPLS-2005>
0

> <r_mmod_RMS_Derivative-OPLS-2005>
2.04303383827209

$$$$
62
                    3D
 Structure written by MMmdl.
165173  0  0  1  0            999 V2000
  -30.5612  -14.7877   20.4529 C   0  0  0  0  0  0
  -30.4435  -12.4849   19.4639 C   0  0  0  0  0  0
  -29.5115  -12.5113   18.2308 C   0  0  0  0  0  0
  -28.0383  -12.3250   18.6476 C   0  0  0  0  0  0
  -27.6386  -13.2274   19.8444 C   0  0  2  0  0  0
  -28.6845  -13.1634   20.9772 C   0  0  0  0  0  0
  -25.2499  -13.8171   20.5680 C   0  0  0  0  0  0
  -24.1796  -13.0423   20.9212 C   0  0  0  0  0  0
  -24.6390  -11.6904   20.8750 C   0  0  0  0  0  0
  -23.9064  -10.4286   21.0413 C   0  0  0  0  0  0
  -24.3617   -9.4201   21.9187 C   0  0  0  0  0  0
  -23.6292   -8.2239   22.0760 C   0  0  0  0  0  0
  -22.4273   -8.0281   21.3551 C   0  0  0  0  0  0
  -21.9911   -9.0252   20.4649 C   0  0  0  0  0  0
  -22.7240  -10.2130   20.3059 C   0  0  0  0  0  0
  -21.6852   -6.0731   22.5276 C   0  0  0  0  0  0
  -21.4014   -6.5638   23.8209 C   0  0  0  0  0  0
  -21.3661   -5.6796   24.9175 C   0  0  0  0  0  0
  -21.6045   -4.3058   24.7226 C   0  0  0  0  0  0
  -21.8821   -3.8145   23.4349 C   0  0  0  0  0  0
  -21.9193   -4.6958   22.3404 C   0  0  0  0  0  0
  -22.7819  -13.5211   21.1877 C   0  0  0  0  0  0
  -22.1661   -4.2143   21.0983 F   0  0  0  0  0  0
  -21.5633   -3.4543   25.7739 F   0  0  0  0  0  0
  -29.9776  -13.5400   20.3916 N   0  0  0  0  0  0
  -26.2917  -12.9373   20.3240 N   0  0  0  0  0  0
  -25.9314  -11.6523   20.5734 N   0  0  0  0  0  0
  -22.0467  -12.8196   22.0432 N   0  0  0  0  0  0
  -25.4169  -15.1887   20.4086 N   0  0  0  0  0  0
  -31.7620  -14.9139   20.1976 O   0  0  0  0  0  0
  -21.6640   -6.8875   21.4242 O   0  0  0  0  0  0
  -22.3500  -14.5519   20.6729 O   0  0  0  0  0  0
  -24.6321  -31.8529   23.1942 C   0  0  0  0  0  0
  -25.9139  -32.4742   23.8298 C   0  0  1  0  0  0
  -27.2281  -27.2414   20.1496 C   0  0  0  0  0  0
  -25.5933  -33.8544   24.2230 N   0  0  0  0  0  0
  -23.4294  -30.4703   21.5392 C   0  0  2  0  0  0
  -24.8766  -28.8967   20.1260 C   0  0  0  0  0  0
  -22.7497  -29.4586   22.4929 C   0  0  0  0  0  0
  -18.0288  -28.1384   22.8482 C   0  0  0  0  0  0
  -24.1490  -36.7275   23.2640 C   0  0  0  0  0  0
  -25.9738  -30.7602   21.3727 C   0  0  0  0  0  0
  -26.0479  -29.3742   20.7277 C   0  0  0  0  0  0
  -27.2278  -28.5624   20.7176 C   0  0  0  0  0  0
  -26.0311  -26.8177   19.5399 C   0  0  0  0  0  0
  -24.8727  -27.6262   19.5229 C   0  0  0  0  0  0
  -23.6497  -29.7902   20.1610 C   0  0  0  0  0  0
  -25.4120  -36.3062   24.0322 C   0  0  1  0  0  0
  -20.5890  -28.3694   23.1276 C   0  0  2  0  0  0
  -20.6775  -26.9413   22.5412 C   0  0  0  0  0  0
  -19.5753  -26.6382   21.5212 C   0  0  0  0  0  0
  -18.1932  -26.7927   22.1620 C   0  0  0  0  0  0
  -19.1541  -28.8857   23.2872 C   0  0  0  0  0  0
  -18.9462  -30.1458   23.8889 C   0  0  0  0  0  0
  -17.6462  -30.6587   24.0559 C   0  0  0  0  0  0
  -25.9063  -34.9434   23.5082 C   0  0  0  0  0  0
  -16.5354  -29.9082   23.6331 C   0  0  0  0  0  0
  -16.7275  -28.6499   23.0353 C   0  0  0  0  0  0
  -26.4504  -31.6575   25.0697 C   0  0  0  0  0  0
  -25.3722  -31.3722   26.1413 C   0  0  0  0  0  0
  -27.0351  -30.2993   24.6182 C   0  0  0  0  0  0
  -27.6052  -32.4318   25.7480 C   0  0  0  0  0  0
  -27.5579  -37.1792   24.8464 C   0  0  0  0  0  0
  -21.4207  -29.3039   22.3669 N   0  0  0  0  0  0
  -26.4291  -37.3766   23.9408 N   0  0  0  0  0  0
  -24.6978  -31.0470   22.0922 N   0  0  0  0  0  0
  -23.4189  -28.8145   23.3049 O   0  0  0  0  0  0
  -28.3755  -26.4251   20.0506 O   0  0  0  0  0  0
  -26.5642  -34.8917   22.4655 O   0  0  0  0  0  0
  -23.5470  -32.1359   23.7234 O   0  0  0  0  0  0
  -28.8202  -20.9225   20.4173 C   0  0  0  0  0  0
  -28.7872  -22.2770   19.8363 C   0  0  0  0  0  0
  -29.4999  -20.0303   19.5583 C   0  0  0  0  0  0
  -27.1708  -18.0456   19.1185 C   0  0  0  0  0  0
  -31.8975  -20.9496   17.1094 C   0  0  0  0  0  0
  -31.0803  -18.0845   18.7759 C   0  0  0  0  0  0
  -27.9399  -23.6287   20.0406 C   0  0  0  0  0  0
  -28.5891  -17.8383   18.5613 C   0  0  0  0  0  0
  -30.3800  -20.7136   17.1697 C   0  0  0  0  0  0
  -29.8456  -17.4203   20.7495 C   0  0  0  0  0  0
  -28.5400  -25.0282   20.6102 C   0  0  0  0  0  0
  -29.7245  -18.4107   19.4541 C   0  0  2  0  0  0
  -29.4898  -22.2187   18.7301 N   0  0  0  0  0  0
  -29.8262  -20.9199   18.5056 N   0  0  0  0  0  0
  -29.7103  -15.8799   20.6073 N   0  0  0  0  0  0
  -31.4787  -12.6410   19.1560 H   0  0  0  0  0  0
  -30.4181  -11.5092   19.9517 H   0  0  0  0  0  0
  -29.7994  -11.7335   17.5224 H   0  0  0  0  0  0
  -29.6254  -13.4611   17.7059 H   0  0  0  0  0  0
  -27.9047  -11.2767   18.9170 H   0  0  0  0  0  0
  -27.3793  -12.5075   17.7978 H   0  0  0  0  0  0
  -27.6286  -14.2461   19.4573 H   0  0  0  0  0  0
  -28.7331  -12.1620   21.4076 H   0  0  0  0  0  0
  -28.4123  -13.8325   21.7952 H   0  0  0  0  0  0
  -25.2764   -9.5677   22.4757 H   0  0  0  0  0  0
  -24.0000   -7.4630   22.7480 H   0  0  0  0  0  0
  -21.0845   -8.8770   19.8949 H   0  0  0  0  0  0
  -22.3702  -10.9670   19.6168 H   0  0  0  0  0  0
  -21.2002   -7.6146   23.9708 H   0  0  0  0  0  0
  -21.1483   -6.0528   25.9077 H   0  0  0  0  0  0
  -22.0598   -2.7605   23.2852 H   0  0  0  0  0  0
  -22.4091  -11.9859   22.4816 H   0  0  0  0  0  0
  -21.1082  -13.1210   22.2637 H   0  0  0  0  0  0
  -24.6429  -15.8349   20.5149 H   0  0  0  0  0  0
  -26.2449  -15.6266   20.0292 H   0  0  0  0  0  0
  -26.7203  -32.5391   23.1036 H   0  0  0  0  0  0
  -25.0069  -33.9676   25.0368 H   0  0  0  0  0  0
  -22.7269  -31.2923   21.3858 H   0  0  0  0  0  0
  -23.3761  -35.9599   23.3295 H   0  0  0  0  0  0
  -24.3578  -36.8911   22.2055 H   0  0  0  0  0  0
  -23.7236  -37.6467   23.6676 H   0  0  0  0  0  0
  -26.1074  -31.5135   20.5951 H   0  0  0  0  0  0
  -26.8535  -30.8193   22.0021 H   0  0  0  0  0  0
  -28.1379  -28.9387   21.1638 H   0  0  0  0  0  0
  -25.9939  -25.8499   19.0606 H   0  0  0  0  0  0
  -23.9749  -27.2550   19.0480 H   0  0  0  0  0  0
  -23.7798  -30.5590   19.3985 H   0  0  0  0  0  0
  -22.7670  -29.2241   19.8578 H   0  0  0  0  0  0
  -25.1305  -36.1901   25.0816 H   0  0  0  0  0  0
  -20.9977  -28.3270   24.1398 H   0  0  0  0  0  0
  -20.5672  -26.2304   23.3615 H   0  0  0  0  0  0
  -21.6644  -26.7435   22.1210 H   0  0  0  0  0  0
  -19.6918  -25.6292   21.1244 H   0  0  0  0  0  0
  -19.6693  -27.3190   20.6741 H   0  0  0  0  0  0
  -17.4206  -26.6674   21.4021 H   0  0  0  0  0  0
  -18.0330  -26.0070   22.9016 H   0  0  0  0  0  0
  -19.7938  -30.7274   24.2258 H   0  0  0  0  0  0
  -17.5016  -31.6268   24.5158 H   0  0  0  0  0  0
  -15.5354  -30.2980   23.7661 H   0  0  0  0  0  0
  -15.8674  -28.0815   22.7073 H   0  0  0  0  0  0
  -24.5907  -30.7065   25.7730 H   0  0  0  0  0  0
  -24.8904  -32.2890   26.4818 H   0  0  0  0  0  0
  -25.8037  -30.8907   27.0198 H   0  0  0  0  0  0
  -26.2928  -29.6736   24.1213 H   0  0  0  0  0  0
  -27.4039  -29.7260   25.4697 H   0  0  0  0  0  0
  -27.8803  -30.4264   23.9414 H   0  0  0  0  0  0
  -27.2656  -33.3621   26.2042 H   0  0  0  0  0  0
  -28.3876  -32.6872   25.0323 H   0  0  0  0  0  0
  -28.0706  -31.8453   26.5410 H   0  0  0  0  0  0
  -28.2592  -38.0095   24.7523 H   0  0  0  0  0  0
  -28.1084  -36.2627   24.6283 H   0  0  0  0  0  0
  -27.2298  -37.1429   25.8868 H   0  0  0  0  0  0
  -20.9404  -29.8744   21.6851 H   0  0  0  0  0  0
  -26.0167  -38.2837   24.1420 H   0  0  0  0  0  0
  -28.2979  -20.6115   21.3114 H   0  0  0  0  0  0
  -26.4310  -17.5665   18.4772 H   0  0  0  0  0  0
  -26.9126  -19.1036   19.1712 H   0  0  0  0  0  0
  -27.0617  -17.6266   20.1181 H   0  0  0  0  0  0
  -32.2722  -20.7862   16.0991 H   0  0  0  0  0  0
  -32.4469  -20.2897   17.7783 H   0  0  0  0  0  0
  -32.1413  -21.9747   17.3897 H   0  0  0  0  0  0
  -31.1420  -18.3233   17.7238 H   0  0  0  0  0  0
  -31.3035  -17.0207   18.7883 H   0  0  0  0  0  0
  -31.9017  -18.5833   19.2898 H   0  0  0  0  0  0
  -27.0646  -23.3901   20.6450 H   0  0  0  0  0  0
  -27.5089  -23.8759   19.0706 H   0  0  0  0  0  0
  -28.6240  -18.2972   17.5749 H   0  0  0  0  0  0
  -28.7452  -16.7760   18.3744 H   0  0  0  0  0  0
  -30.0728  -19.7554   16.7641 H   0  0  0  0  0  0
  -29.9056  -21.4252   16.4906 H   0  0  0  0  0  0
  -29.0608  -17.7104   21.4483 H   0  0  0  0  0  0
  -30.7716  -17.6310   21.2870 H   0  0  0  0  0  0
  -29.6212  -24.8915   20.5837 H   0  0  0  0  0  0
  -28.3134  -25.0792   21.6753 H   0  0  0  0  0  0
  -28.7551  -15.5771   20.7144 H   0  0  0  0  0  0
  1 25  1  0  0  0
  1 30  2  0  0  0
  1 85  1  0  0  0
  2  3  1  0  0  0
  2 25  1  0  0  0
  2 86  1  0  0  0
  2 87  1  0  0  0
  3  4  1  0  0  0
  3 88  1  0  0  0
  3 89  1  0  0  0
  4  5  1  0  0  0
  4 90  1  0  0  0
  4 91  1  0  0  0
  5  6  1  0  0  0
  5 26  1  0  0  0
  5 92  1  0  0  0
  6 25  1  0  0  0
  6 93  1  0  0  0
  6 94  1  0  0  0
  7  8  2  0  0  0
  7 26  1  0  0  0
  7 29  1  0  0  0
  8  9  1  0  0  0
  8 22  1  0  0  0
  9 10  1  0  0  0
  9 27  2  0  0  0
 10 11  2  0  0  0
 10 15  1  0  0  0
 11 12  1  0  0  0
 11 95  1  0  0  0
 12 13  2  0  0  0
 12 96  1  0  0  0
 13 14  1  0  0  0
 13 31  1  0  0  0
 14 15  2  0  0  0
 14 97  1  0  0  0
 15 98  1  0  0  0
 16 17  2  0  0  0
 16 21  1  0  0  0
 16 31  1  0  0  0
 17 18  1  0  0  0
 17 99  1  0  0  0
 18 19  2  0  0  0
 18100  1  0  0  0
 19 20  1  0  0  0
 19 24  1  0  0  0
 20 21  2  0  0  0
 20101  1  0  0  0
 21 23  1  0  0  0
 22 28  1  0  0  0
 22 32  2  0  0  0
 26 27  1  0  0  0
 28102  1  0  0  0
 28103  1  0  0  0
 29104  1  0  0  0
 29105  1  0  0  0
 33 34  1  0  0  0
 33 66  1  0  0  0
 33 70  2  0  0  0
 34 36  1  0  0  0
 34 59  1  0  0  0
 34106  1  0  0  0
 35 44  2  0  0  0
 35 45  1  0  0  0
 35 68  1  0  0  0
 36 56  1  0  0  0
 36107  1  0  0  0
 37 39  1  0  0  0
 37 47  1  0  0  0
 37 66  1  0  0  0
 37108  1  0  0  0
 38 43  2  0  0  0
 38 46  1  0  0  0
 38 47  1  0  0  0
 39 64  1  0  0  0
 39 67  2  0  0  0
 40 52  1  0  0  0
 40 53  2  0  0  0
 40 58  1  0  0  0
 41109  1  0  0  0
 41110  1  0  0  0
 41111  1  0  0  0
 41 48  1  0  0  0
 42 43  1  0  0  0
 42 66  1  0  0  0
 42112  1  0  0  0
 42113  1  0  0  0
 43 44  1  0  0  0
 44114  1  0  0  0
 45 46  2  0  0  0
 45115  1  0  0  0
 46116  1  0  0  0
 47117  1  0  0  0
 47118  1  0  0  0
 48 56  1  0  0  0
 48 65  1  0  0  0
 48119  1  0  0  0
 49 50  1  0  0  0
 49 53  1  0  0  0
 49 64  1  0  0  0
 49120  1  0  0  0
 50 51  1  0  0  0
 50121  1  0  0  0
 50122  1  0  0  0
 51 52  1  0  0  0
 51123  1  0  0  0
 51124  1  0  0  0
 52125  1  0  0  0
 52126  1  0  0  0
 53 54  1  0  0  0
 54 55  2  0  0  0
 54127  1  0  0  0
 55 57  1  0  0  0
 55128  1  0  0  0
 56 69  2  0  0  0
 57 58  2  0  0  0
 57129  1  0  0  0
 58130  1  0  0  0
 59 60  1  0  0  0
 59 61  1  0  0  0
 59 62  1  0  0  0
 60131  1  0  0  0
 60132  1  0  0  0
 60133  1  0  0  0
 61134  1  0  0  0
 61135  1  0  0  0
 61136  1  0  0  0
 62137  1  0  0  0
 62138  1  0  0  0
 62139  1  0  0  0
 63 65  1  0  0  0
 63140  1  0  0  0
 63141  1  0  0  0
 63142  1  0  0  0
 64143  1  0  0  0
 65144  1  0  0  0
 68 81  1  0  0  0
 71 72  1  0  0  0
 71 73  2  0  0  0
 71145  1  0  0  0
 72 77  1  0  0  0
 72 83  2  0  0  0
 73 82  1  0  0  0
 73 84  1  0  0  0
 74 78  1  0  0  0
 74146  1  0  0  0
 74147  1  0  0  0
 74148  1  0  0  0
 75 79  1  0  0  0
 75149  1  0  0  0
 75150  1  0  0  0
 75151  1  0  0  0
 76152  1  0  0  0
 76153  1  0  0  0
 76154  1  0  0  0
 76 82  1  0  0  0
 77 81  1  0  0  0
 77155  1  0  0  0
 77156  1  0  0  0
 78 82  1  0  0  0
 78157  1  0  0  0
 78158  1  0  0  0
 79 84  1  0  0  0
 79159  1  0  0  0
 79160  1  0  0  0
 80 82  1  0  0  0
 80 85  1  0  0  0
 80161  1  0  0  0
 80162  1  0  0  0
 81163  1  0  0  0
 81164  1  0  0  0
 83 84  1  0  0  0
 85165  1  0  0  0
M  ISO  4   1 100  68 101  81 101  85 100
M  END
> <chiral flag>
0

> <version>
0

> <s_m_source_file>
/data/baiqing/PycharmProjects/Reinvent-master-3.2/result/LINK_invent/BTK/process_docking_weight1_custom_sum_contain_oxygen_bond_distance_aromatic_linkinvent_7_9_3/rearranged_h_0044.sdf

> <i_m_source_file_index>
63

> <r_mmod_Potential_Energy-OPLS-2005>
275.253936767578

> <r_mmod_Stretch_Energy-OPLS-2005>
160.08317565918

> <r_mmod_Bend_Energy-OPLS-2005>
259.030639648438

> <r_mmod_Torsional_Energy-OPLS-2005>
271.335266113281

> <r_mmod_Improper_Torsional_Energy-OPLS-2005>
7.22608280181885

> <r_mmod_Van_der_Waal_Energy-OPLS-2005>
113.593925476074

> <r_mmod_Electrostatic_Energy-OPLS-2005>
-415.956237792969

> <r_mmod_Solvation_Energy-OPLS-2005>
-214.621292114258

> <b_mmod_Minimization_Converged-OPLS-2005>
0

> <r_mmod_RMS_Derivative-OPLS-2005>
0.722740888595581

$$$$
63
                    3D
 Structure written by MMmdl.
150158  0  0  1  0            999 V2000
  -30.4814  -14.9749   20.4341 C   0  0  0  0  0  0
  -30.4582  -12.5992   19.5000 C   0  0  0  0  0  0
  -29.5320  -12.5336   18.2595 C   0  0  0  0  0  0
  -28.0646  -12.3068   18.6735 C   0  0  0  0  0  0
  -27.6333  -13.2371   19.8344 C   0  0  2  0  0  0
  -28.6737  -13.2560   20.9747 C   0  0  0  0  0  0
  -25.2501  -13.8189   20.5693 C   0  0  0  0  0  0
  -24.1793  -13.0445   20.9203 C   0  0  0  0  0  0
  -24.6368  -11.6913   20.8724 C   0  0  0  0  0  0
  -23.9054  -10.4292   21.0392 C   0  0  0  0  0  0
  -24.3610   -9.4211   21.9170 C   0  0  0  0  0  0
  -23.6279   -8.2254   22.0754 C   0  0  0  0  0  0
  -22.4264   -8.0285   21.3546 C   0  0  0  0  0  0
  -21.9883   -9.0258   20.4652 C   0  0  0  0  0  0
  -22.7222  -10.2131   20.3048 C   0  0  0  0  0  0
  -21.6857   -6.0718   22.5279 C   0  0  0  0  0  0
  -21.4015   -6.5625   23.8209 C   0  0  0  0  0  0
  -21.3661   -5.6783   24.9170 C   0  0  0  0  0  0
  -21.6051   -4.3047   24.7225 C   0  0  0  0  0  0
  -21.8822   -3.8129   23.4349 C   0  0  0  0  0  0
  -21.9193   -4.6943   22.3399 C   0  0  0  0  0  0
  -22.7823  -13.5232   21.1877 C   0  0  0  0  0  0
  -22.1674   -4.2129   21.0976 F   0  0  0  0  0  0
  -21.5622   -3.4529   25.7737 F   0  0  0  0  0  0
  -29.9586  -13.6785   20.3995 N   0  0  0  0  0  0
  -26.2895  -12.9390   20.3182 N   0  0  0  0  0  0
  -25.9296  -11.6538   20.5685 N   0  0  0  0  0  0
  -22.0466  -12.8233   22.0441 N   0  0  0  0  0  0
  -25.4202  -15.1915   20.4154 N   0  0  0  0  0  0
  -31.6682  -15.0942   20.0995 O   0  0  0  0  0  0
  -21.6651   -6.8865   21.4243 O   0  0  0  0  0  0
  -22.3530  -14.5549   20.6727 O   0  0  0  0  0  0
  -24.6438  -31.8427   23.1864 C   0  0  0  0  0  0
  -25.9211  -32.4686   23.8248 C   0  0  1  0  0  0
  -27.2251  -27.1262   20.1474 C   0  0  0  0  0  0
  -25.5955  -33.8491   24.2164 N   0  0  0  0  0  0
  -23.4475  -30.4597   21.5322 C   0  0  2  0  0  0
  -24.8990  -28.8832   20.1058 C   0  0  0  0  0  0
  -22.7571  -29.4537   22.4863 C   0  0  0  0  0  0
  -18.0303  -28.1410   22.8453 C   0  0  0  0  0  0
  -24.1491  -36.7253   23.2638 C   0  0  0  0  0  0
  -26.0032  -30.7094   21.3883 C   0  0  0  0  0  0
  -26.0748  -29.3199   20.7291 C   0  0  0  0  0  0
  -27.2357  -28.4569   20.7348 C   0  0  0  0  0  0
  -26.0244  -26.7966   19.4777 C   0  0  0  0  0  0
  -24.8880  -27.6348   19.4645 C   0  0  0  0  0  0
  -23.6741  -29.7854   20.1517 C   0  0  0  0  0  0
  -25.4125  -36.3022   24.0306 C   0  0  1  0  0  0
  -20.5913  -28.3732   23.1258 C   0  0  2  0  0  0
  -20.6782  -26.9444   22.5412 C   0  0  0  0  0  0
  -19.5789  -26.6427   21.5177 C   0  0  0  0  0  0
  -18.1934  -26.7986   22.1509 C   0  0  0  0  0  0
  -19.1558  -28.8879   23.2859 C   0  0  0  0  0  0
  -18.9470  -30.1462   23.8909 C   0  0  0  0  0  0
  -17.6468  -30.6585   24.0596 C   0  0  0  0  0  0
  -25.9080  -34.9403   23.5041 C   0  0  0  0  0  0
  -16.5364  -29.9088   23.6343 C   0  0  0  0  0  0
  -16.7291  -28.6510   23.0339 C   0  0  0  0  0  0
  -26.4521  -31.6571   25.0709 C   0  0  0  0  0  0
  -25.3699  -31.3800   26.1413 C   0  0  0  0  0  0
  -27.0391  -30.2956   24.6328 C   0  0  0  0  0  0
  -27.6044  -32.4345   25.7506 C   0  0  0  0  0  0
  -27.5574  -37.1779   24.8464 C   0  0  0  0  0  0
  -21.4254  -29.3061   22.3631 N   0  0  0  0  0  0
  -26.4285  -37.3738   23.9404 N   0  0  0  0  0  0
  -24.7178  -31.0259   22.0908 N   0  0  0  0  0  0
  -23.4211  -28.8095   23.3018 O   0  0  0  0  0  0
  -28.2785  -26.1373   20.2321 O   0  0  0  0  0  0
  -26.5665  -34.8908   22.4624 O   0  0  0  0  0  0
  -23.5564  -32.1323   23.7077 O   0  0  0  0  0  0
  -29.7241  -17.9534   20.5477 C   0  0  0  0  0  0
  -28.8932  -18.9232   19.9282 C   0  0  0  0  0  0
  -27.7140  -18.6758   19.0447 C   0  0  0  0  0  0
  -29.5445  -16.3165   20.7871 C   0  0  0  0  0  0
  -28.9530  -23.2542   20.4151 C   0  0  0  0  0  0
  -28.5933  -21.6773   19.9190 C   0  0  0  0  0  0
  -28.0431  -24.6147   19.9574 C   0  0  0  0  0  0
  -30.5920  -18.7992   21.2799 N   0  0  0  0  0  0
  -30.3355  -20.1026   21.1172 N   0  0  0  0  0  0
  -29.2523  -20.2743   20.3039 N   0  0  0  0  0  0
  -31.4874  -12.7795   19.1856 H   0  0  0  0  0  0
  -30.4725  -11.6432   20.0256 H   0  0  0  0  0  0
  -29.8565  -11.7391   17.5868 H   0  0  0  0  0  0
  -29.6109  -13.4631   17.6933 H   0  0  0  0  0  0
  -27.9667  -11.2648   18.9804 H   0  0  0  0  0  0
  -27.4017  -12.4346   17.8176 H   0  0  0  0  0  0
  -27.5968  -14.2339   19.3972 H   0  0  0  0  0  0
  -28.7582  -12.2753   21.4431 H   0  0  0  0  0  0
  -28.3572  -13.9416   21.7624 H   0  0  0  0  0  0
  -25.2758   -9.5687   22.4747 H   0  0  0  0  0  0
  -23.9990   -7.4638   22.7473 H   0  0  0  0  0  0
  -21.0810   -8.8777   19.8953 H   0  0  0  0  0  0
  -22.3678  -10.9667   19.6158 H   0  0  0  0  0  0
  -21.2024   -7.6138   23.9698 H   0  0  0  0  0  0
  -21.1479   -6.0519   25.9069 H   0  0  0  0  0  0
  -22.0594   -2.7593   23.2860 H   0  0  0  0  0  0
  -22.4082  -11.9901   22.4846 H   0  0  0  0  0  0
  -21.1083  -13.1246   22.2648 H   0  0  0  0  0  0
  -24.6522  -15.8435   20.5349 H   0  0  0  0  0  0
  -26.2676  -15.6332   20.0878 H   0  0  0  0  0  0
  -26.7278  -32.5278   23.0975 H   0  0  0  0  0  0
  -25.0090  -33.9595   25.0303 H   0  0  0  0  0  0
  -22.7489  -31.2849   21.3772 H   0  0  0  0  0  0
  -23.3751  -35.9584   23.3285 H   0  0  0  0  0  0
  -24.3574  -36.8902   22.2055 H   0  0  0  0  0  0
  -23.7245  -37.6445   23.6689 H   0  0  0  0  0  0
  -26.1647  -31.4644   20.6183 H   0  0  0  0  0  0
  -26.8703  -30.7588   22.0335 H   0  0  0  0  0  0
  -28.1279  -28.7857   21.2492 H   0  0  0  0  0  0
  -25.9335  -25.8461   18.9732 H   0  0  0  0  0  0
  -23.9942  -27.2977   18.9568 H   0  0  0  0  0  0
  -23.8039  -30.5596   19.3948 H   0  0  0  0  0  0
  -22.7885  -29.2250   19.8450 H   0  0  0  0  0  0
  -25.1310  -36.1843   25.0794 H   0  0  0  0  0  0
  -20.9997  -28.3329   24.1384 H   0  0  0  0  0  0
  -20.5640  -26.2349   23.3619 H   0  0  0  0  0  0
  -21.6659  -26.7479   22.1229 H   0  0  0  0  0  0
  -19.6960  -25.6340   21.1194 H   0  0  0  0  0  0
  -19.6772  -27.3255   20.6722 H   0  0  0  0  0  0
  -17.4265  -26.6881   21.3823 H   0  0  0  0  0  0
  -18.0199  -26.0059   22.8798 H   0  0  0  0  0  0
  -19.7945  -30.7275   24.2289 H   0  0  0  0  0  0
  -17.5031  -31.6267   24.5202 H   0  0  0  0  0  0
  -15.5369  -30.2989   23.7666 H   0  0  0  0  0  0
  -15.8702  -28.0831   22.7019 H   0  0  0  0  0  0
  -24.5867  -30.7148   25.7756 H   0  0  0  0  0  0
  -24.8898  -32.3003   26.4758 H   0  0  0  0  0  0
  -25.7981  -30.9037   27.0244 H   0  0  0  0  0  0
  -26.3022  -29.6678   24.1306 H   0  0  0  0  0  0
  -27.3955  -29.7265   25.4926 H   0  0  0  0  0  0
  -27.8952  -30.4170   23.9687 H   0  0  0  0  0  0
  -27.2619  -33.3652   26.2047 H   0  0  0  0  0  0
  -28.3891  -32.6903   25.0370 H   0  0  0  0  0  0
  -28.0685  -31.8499   26.5465 H   0  0  0  0  0  0
  -28.2583  -38.0081   24.7505 H   0  0  0  0  0  0
  -28.1073  -36.2611   24.6287 H   0  0  0  0  0  0
  -27.2299  -37.1434   25.8867 H   0  0  0  0  0  0
  -20.9465  -29.8810   21.6838 H   0  0  0  0  0  0
  -26.0152  -38.2806   24.1393 H   0  0  0  0  0  0
  -27.7690  -17.6888   18.5845 H   0  0  0  0  0  0
  -27.6682  -19.4074   18.2367 H   0  0  0  0  0  0
  -26.7864  -18.7328   19.6145 H   0  0  0  0  0  0
  -28.5917  -16.0700   20.3238 H   0  0  0  0  0  0
  -29.3377  -16.1924   21.8499 H   0  0  0  0  0  0
  -29.9841  -23.4476   20.1199 H   0  0  0  0  0  0
  -28.9725  -23.2454   21.5056 H   0  0  0  0  0  0
  -28.6380  -21.7092   18.8300 H   0  0  0  0  0  0
  -27.5324  -21.5474   20.1324 H   0  0  0  0  0  0
  -27.0415  -24.4038   20.3314 H   0  0  0  0  0  0
  -27.9553  -24.5509   18.8726 H   0  0  0  0  0  0
  1 25  1  0  0  0
  1 30  2  0  0  0
  1 74  1  0  0  0
  2  3  1  0  0  0
  2 25  1  0  0  0
  2 81  1  0  0  0
  2 82  1  0  0  0
  3  4  1  0  0  0
  3 83  1  0  0  0
  3 84  1  0  0  0
  4  5  1  0  0  0
  4 85  1  0  0  0
  4 86  1  0  0  0
  5  6  1  0  0  0
  5 26  1  0  0  0
  5 87  1  0  0  0
  6 25  1  0  0  0
  6 88  1  0  0  0
  6 89  1  0  0  0
  7  8  2  0  0  0
  7 26  1  0  0  0
  7 29  1  0  0  0
  8  9  1  0  0  0
  8 22  1  0  0  0
  9 10  1  0  0  0
  9 27  2  0  0  0
 10 11  2  0  0  0
 10 15  1  0  0  0
 11 12  1  0  0  0
 11 90  1  0  0  0
 12 13  2  0  0  0
 12 91  1  0  0  0
 13 14  1  0  0  0
 13 31  1  0  0  0
 14 15  2  0  0  0
 14 92  1  0  0  0
 15 93  1  0  0  0
 16 17  2  0  0  0
 16 21  1  0  0  0
 16 31  1  0  0  0
 17 18  1  0  0  0
 17 94  1  0  0  0
 18 19  2  0  0  0
 18 95  1  0  0  0
 19 20  1  0  0  0
 19 24  1  0  0  0
 20 21  2  0  0  0
 20 96  1  0  0  0
 21 23  1  0  0  0
 22 28  1  0  0  0
 22 32  2  0  0  0
 26 27  1  0  0  0
 28 97  1  0  0  0
 28 98  1  0  0  0
 29 99  1  0  0  0
 29100  1  0  0  0
 33 34  1  0  0  0
 33 66  1  0  0  0
 33 70  2  0  0  0
 34 36  1  0  0  0
 34 59  1  0  0  0
 34101  1  0  0  0
 35 44  2  0  0  0
 35 45  1  0  0  0
 35 68  1  0  0  0
 36 56  1  0  0  0
 36102  1  0  0  0
 37 39  1  0  0  0
 37 47  1  0  0  0
 37 66  1  0  0  0
 37103  1  0  0  0
 38 43  2  0  0  0
 38 46  1  0  0  0
 38 47  1  0  0  0
 39 64  1  0  0  0
 39 67  2  0  0  0
 40 52  1  0  0  0
 40 53  2  0  0  0
 40 58  1  0  0  0
 41104  1  0  0  0
 41105  1  0  0  0
 41106  1  0  0  0
 41 48  1  0  0  0
 42 43  1  0  0  0
 42 66  1  0  0  0
 42107  1  0  0  0
 42108  1  0  0  0
 43 44  1  0  0  0
 44109  1  0  0  0
 45 46  2  0  0  0
 45110  1  0  0  0
 46111  1  0  0  0
 47112  1  0  0  0
 47113  1  0  0  0
 48 56  1  0  0  0
 48 65  1  0  0  0
 48114  1  0  0  0
 49 50  1  0  0  0
 49 53  1  0  0  0
 49 64  1  0  0  0
 49115  1  0  0  0
 50 51  1  0  0  0
 50116  1  0  0  0
 50117  1  0  0  0
 51 52  1  0  0  0
 51118  1  0  0  0
 51119  1  0  0  0
 52120  1  0  0  0
 52121  1  0  0  0
 53 54  1  0  0  0
 54 55  2  0  0  0
 54122  1  0  0  0
 55 57  1  0  0  0
 55123  1  0  0  0
 56 69  2  0  0  0
 57 58  2  0  0  0
 57124  1  0  0  0
 58125  1  0  0  0
 59 60  1  0  0  0
 59 61  1  0  0  0
 59 62  1  0  0  0
 60126  1  0  0  0
 60127  1  0  0  0
 60128  1  0  0  0
 61129  1  0  0  0
 61130  1  0  0  0
 61131  1  0  0  0
 62132  1  0  0  0
 62133  1  0  0  0
 62134  1  0  0  0
 63 65  1  0  0  0
 63135  1  0  0  0
 63136  1  0  0  0
 63137  1  0  0  0
 64138  1  0  0  0
 65139  1  0  0  0
 68 77  1  0  0  0
 71 72  2  0  0  0
 71 74  1  0  0  0
 71 78  1  0  0  0
 72 73  1  0  0  0
 72 80  1  0  0  0
 73140  1  0  0  0
 73141  1  0  0  0
 73142  1  0  0  0
 74143  1  0  0  0
 74144  1  0  0  0
 75 76  1  0  0  0
 75 77  1  0  0  0
 75145  1  0  0  0
 75146  1  0  0  0
 76 80  1  0  0  0
 76147  1  0  0  0
 76148  1  0  0  0
 77149  1  0  0  0
 77150  1  0  0  0
 78 79  2  0  0  0
 79 80  1  0  0  0
M  ISO  4   1 100  68 101  74 100  77 101
M  END
> <chiral flag>
0

> <version>
0

> <s_m_source_file>
/data/baiqing/PycharmProjects/Reinvent-master-3.2/result/LINK_invent/BTK/process_docking_weight1_custom_sum_contain_oxygen_bond_distance_aromatic_linkinvent_7_9_3/rearranged_h_0044.sdf

> <i_m_source_file_index>
64

> <r_mmod_Potential_Energy-OPLS-2005>
574.994201660156

> <r_mmod_Stretch_Energy-OPLS-2005>
276.050323486328

> <r_mmod_Bend_Energy-OPLS-2005>
298.850158691406

> <r_mmod_Torsional_Energy-OPLS-2005>
188.95002746582

> <r_mmod_Improper_Torsional_Energy-OPLS-2005>
4.97064590454102

> <r_mmod_Van_der_Waal_Energy-OPLS-2005>
104.985282897949

> <r_mmod_Electrostatic_Energy-OPLS-2005>
-284.490661621094

> <r_mmod_Solvation_Energy-OPLS-2005>
-222.475982666016

> <b_mmod_Minimization_Converged-OPLS-2005>
0

> <r_mmod_RMS_Derivative-OPLS-2005>
2.12929701805115

$$$$
64
                    3D
 Structure written by MMmdl.
151159  0  0  1  0            999 V2000
  -30.5252  -14.9134   20.3871 C   0  0  0  0  0  0
  -30.4263  -12.5596   19.4849 C   0  0  0  0  0  0
  -29.5054  -12.5046   18.2468 C   0  0  0  0  0  0
  -28.0429  -12.2914   18.6730 C   0  0  0  0  0  0
  -27.6174  -13.2360   19.8289 C   0  0  2  0  0  0
  -28.6576  -13.2680   20.9665 C   0  0  0  0  0  0
  -25.2431  -13.8194   20.5670 C   0  0  0  0  0  0
  -24.1778  -13.0428   20.9258 C   0  0  0  0  0  0
  -24.6375  -11.6900   20.8753 C   0  0  0  0  0  0
  -23.9068  -10.4275   21.0422 C   0  0  0  0  0  0
  -24.3628   -9.4184   21.9194 C   0  0  0  0  0  0
  -23.6303   -8.2223   22.0753 C   0  0  0  0  0  0
  -22.4284   -8.0269   21.3535 C   0  0  0  0  0  0
  -21.9923   -9.0252   20.4643 C   0  0  0  0  0  0
  -22.7254  -10.2121   20.3064 C   0  0  0  0  0  0
  -21.6861   -6.0735   22.5276 C   0  0  0  0  0  0
  -21.4013   -6.5634   23.8211 C   0  0  0  0  0  0
  -21.3659   -5.6794   24.9173 C   0  0  0  0  0  0
  -21.6044   -4.3057   24.7223 C   0  0  0  0  0  0
  -21.8824   -3.8139   23.4348 C   0  0  0  0  0  0
  -21.9188   -4.6961   22.3390 C   0  0  0  0  0  0
  -22.7784  -13.5186   21.1891 C   0  0  0  0  0  0
  -22.1663   -4.2143   21.0983 F   0  0  0  0  0  0
  -21.5628   -3.4538   25.7739 F   0  0  0  0  0  0
  -29.9351  -13.6570   20.3618 N   0  0  0  0  0  0
  -26.2798  -12.9378   20.3184 N   0  0  0  0  0  0
  -25.9294  -11.6509   20.5727 N   0  0  0  0  0  0
  -22.0474  -12.8157   22.0465 N   0  0  0  0  0  0
  -25.4126  -15.1924   20.4127 N   0  0  0  0  0  0
  -31.7349  -14.9736   20.1647 O   0  0  0  0  0  0
  -21.6632   -6.8871   21.4247 O   0  0  0  0  0  0
  -22.3435  -14.5501   20.6763 O   0  0  0  0  0  0
  -24.6339  -31.8427   23.1891 C   0  0  0  0  0  0
  -25.9122  -32.4685   23.8274 C   0  0  1  0  0  0
  -27.2376  -27.1758   20.1310 C   0  0  0  0  0  0
  -25.5880  -33.8507   24.2186 N   0  0  0  0  0  0
  -23.4437  -30.4544   21.5323 C   0  0  2  0  0  0
  -24.8968  -28.8864   20.1050 C   0  0  0  0  0  0
  -22.7574  -29.4493   22.4892 C   0  0  0  0  0  0
  -18.0303  -28.1359   22.8469 C   0  0  0  0  0  0
  -24.1489  -36.7275   23.2651 C   0  0  0  0  0  0
  -25.9936  -30.7283   21.3831 C   0  0  0  0  0  0
  -26.0669  -29.3422   20.7219 C   0  0  0  0  0  0
  -27.2337  -28.5002   20.7169 C   0  0  0  0  0  0
  -26.0413  -26.7997   19.4923 C   0  0  0  0  0  0
  -24.8945  -27.6290   19.4746 C   0  0  0  0  0  0
  -23.6660  -29.7755   20.1509 C   0  0  0  0  0  0
  -25.4124  -36.3059   24.0312 C   0  0  1  0  0  0
  -20.5906  -28.3663   23.1252 C   0  0  2  0  0  0
  -20.6787  -26.9366   22.5407 C   0  0  0  0  0  0
  -19.5767  -26.6357   21.5211 C   0  0  0  0  0  0
  -18.1949  -26.7902   22.1625 C   0  0  0  0  0  0
  -19.1556  -28.8850   23.2843 C   0  0  0  0  0  0
  -18.9463  -30.1450   23.8862 C   0  0  0  0  0  0
  -17.6461  -30.6552   24.0544 C   0  0  0  0  0  0
  -25.9058  -34.9415   23.5100 C   0  0  0  0  0  0
  -16.5358  -29.9042   23.6311 C   0  0  0  0  0  0
  -16.7292  -28.6460   23.0344 C   0  0  0  0  0  0
  -26.4498  -31.6569   25.0716 C   0  0  0  0  0  0
  -25.3722  -31.3696   26.1428 C   0  0  0  0  0  0
  -27.0363  -30.2984   24.6267 C   0  0  0  0  0  0
  -27.6029  -32.4366   25.7462 C   0  0  0  0  0  0
  -27.5592  -37.1800   24.8461 C   0  0  0  0  0  0
  -21.4274  -29.2990   22.3639 N   0  0  0  0  0  0
  -26.4304  -37.3759   23.9387 N   0  0  0  0  0  0
  -24.7103  -31.0309   22.0894 N   0  0  0  0  0  0
  -23.4221  -28.8089   23.3074 O   0  0  0  0  0  0
  -28.3530  -26.2855   20.2294 O   0  0  0  0  0  0
  -26.5690  -34.8896   22.4685 O   0  0  0  0  0  0
  -23.5471  -32.1295   23.7124 O   0  0  0  0  0  0
  -28.4262  -20.9728   19.2369 C   0  0  0  0  0  0
  -29.6797  -19.9519   21.3671 C   0  0  0  0  0  0
  -28.6824  -21.8925   20.3193 C   0  0  0  0  0  0
  -29.4319  -19.0301   20.2880 C   0  0  0  0  0  0
  -28.4459  -24.7553   18.2141 C   0  0  0  0  0  0
  -28.0839  -23.4217   20.4896 C   0  0  0  0  0  0
  -30.1929  -17.5686   20.1228 C   0  0  0  0  0  0
  -28.5735  -24.8275   19.7476 C   0  0  1  0  0  0
  -29.3171  -21.2964   21.3901 N   0  0  0  0  0  0
  -28.7916  -19.6216   19.2150 N   0  0  0  0  0  0
  -29.7411  -16.0957   20.4213 N   0  0  0  0  0  0
  -31.4589  -12.7198   19.1755 H   0  0  0  0  0  0
  -30.4153  -11.6079   20.0245 H   0  0  0  0  0  0
  -29.8232  -11.7041   17.5782 H   0  0  0  0  0  0
  -29.5909  -13.4308   17.6790 H   0  0  0  0  0  0
  -27.9517  -11.2532   18.9984 H   0  0  0  0  0  0
  -27.3731  -12.4038   17.8193 H   0  0  0  0  0  0
  -27.5861  -14.2307   19.3878 H   0  0  0  0  0  0
  -28.7359  -12.2986   21.4640 H   0  0  0  0  0  0
  -28.3568  -13.9857   21.7322 H   0  0  0  0  0  0
  -25.2785   -9.5638   22.4754 H   0  0  0  0  0  0
  -24.0009   -7.4601   22.7454 H   0  0  0  0  0  0
  -21.0858   -8.8773   19.8937 H   0  0  0  0  0  0
  -22.3742  -10.9663   19.6153 H   0  0  0  0  0  0
  -21.2024   -7.6151   23.9711 H   0  0  0  0  0  0
  -21.1477   -6.0527   25.9078 H   0  0  0  0  0  0
  -22.0608   -2.7607   23.2847 H   0  0  0  0  0  0
  -22.4137  -11.9814   22.4796 H   0  0  0  0  0  0
  -21.1095  -13.1115   22.2731 H   0  0  0  0  0  0
  -24.6443  -15.8421   20.5352 H   0  0  0  0  0  0
  -26.2509  -15.6351   20.0625 H   0  0  0  0  0  0
  -26.7214  -32.5338   23.1016 H   0  0  0  0  0  0
  -24.9941  -33.9619   25.0292 H   0  0  0  0  0  0
  -22.7447  -31.2783   21.3766 H   0  0  0  0  0  0
  -23.3751  -35.9610   23.3301 H   0  0  0  0  0  0
  -24.3594  -36.8927   22.2078 H   0  0  0  0  0  0
  -23.7228  -37.6456   23.6707 H   0  0  0  0  0  0
  -26.1522  -31.4869   20.6150 H   0  0  0  0  0  0
  -26.8594  -30.7748   22.0297 H   0  0  0  0  0  0
  -28.1303  -28.8487   21.2123 H   0  0  0  0  0  0
  -25.9702  -25.8286   19.0297 H   0  0  0  0  0  0
  -24.0008  -27.2731   18.9750 H   0  0  0  0  0  0
  -23.7870  -30.5405   19.3801 H   0  0  0  0  0  0
  -22.7913  -29.1935   19.8544 H   0  0  0  0  0  0
  -25.1324  -36.1915   25.0816 H   0  0  0  0  0  0
  -20.9992  -28.3238   24.1378 H   0  0  0  0  0  0
  -20.5671  -26.2284   23.3617 H   0  0  0  0  0  0
  -21.6652  -26.7379   22.1217 H   0  0  0  0  0  0
  -19.6917  -25.6274   21.1231 H   0  0  0  0  0  0
  -19.6684  -27.3178   20.6752 H   0  0  0  0  0  0
  -17.4215  -26.6623   21.4024 H   0  0  0  0  0  0
  -18.0335  -26.0043   22.9031 H   0  0  0  0  0  0
  -19.7943  -30.7265   24.2212 H   0  0  0  0  0  0
  -17.5004  -31.6223   24.5149 H   0  0  0  0  0  0
  -15.5343  -30.2924   23.7643 H   0  0  0  0  0  0
  -15.8706  -28.0760   22.7074 H   0  0  0  0  0  0
  -24.5857  -30.7101   25.7730 H   0  0  0  0  0  0
  -24.8937  -32.2846   26.4949 H   0  0  0  0  0  0
  -25.8015  -30.8778   27.0163 H   0  0  0  0  0  0
  -26.2964  -29.6697   24.1284 H   0  0  0  0  0  0
  -27.4035  -29.7279   25.4813 H   0  0  0  0  0  0
  -27.8859  -30.4243   23.9538 H   0  0  0  0  0  0
  -27.2595  -33.3634   26.2061 H   0  0  0  0  0  0
  -28.3765  -32.7004   25.0243 H   0  0  0  0  0  0
  -28.0793  -31.8508   26.5331 H   0  0  0  0  0  0
  -28.2609  -38.0107   24.7524 H   0  0  0  0  0  0
  -28.1091  -36.2628   24.6271 H   0  0  0  0  0  0
  -27.2313  -37.1442   25.8872 H   0  0  0  0  0  0
  -20.9510  -29.8658   21.6761 H   0  0  0  0  0  0
  -26.0178  -38.2835   24.1373 H   0  0  0  0  0  0
  -27.9005  -21.3206   18.3567 H   0  0  0  0  0  0
  -30.2609  -19.6255   22.2156 H   0  0  0  0  0  0
  -28.9533  -23.8741   17.8203 H   0  0  0  0  0  0
  -28.8993  -25.6280   17.7441 H   0  0  0  0  0  0
  -27.4119  -24.7102   17.8844 H   0  0  0  0  0  0
  -28.1077  -23.6175   21.5640 H   0  0  0  0  0  0
  -27.0254  -23.3320   20.2643 H   0  0  0  0  0  0
  -31.1414  -17.6865   20.6516 H   0  0  0  0  0  0
  -30.4711  -17.5458   19.0695 H   0  0  0  0  0  0
  -29.6522  -24.7828   19.9041 H   0  0  0  0  0  0
  -28.7447  -15.9521   20.4677 H   0  0  0  0  0  0
  1 25  1  0  0  0
  1 30  2  0  0  0
  1 81  1  0  0  0
  2  3  1  0  0  0
  2 25  1  0  0  0
  2 82  1  0  0  0
  2 83  1  0  0  0
  3  4  1  0  0  0
  3 84  1  0  0  0
  3 85  1  0  0  0
  4  5  1  0  0  0
  4 86  1  0  0  0
  4 87  1  0  0  0
  5  6  1  0  0  0
  5 26  1  0  0  0
  5 88  1  0  0  0
  6 25  1  0  0  0
  6 89  1  0  0  0
  6 90  1  0  0  0
  7  8  2  0  0  0
  7 26  1  0  0  0
  7 29  1  0  0  0
  8  9  1  0  0  0
  8 22  1  0  0  0
  9 10  1  0  0  0
  9 27  2  0  0  0
 10 11  2  0  0  0
 10 15  1  0  0  0
 11 12  1  0  0  0
 11 91  1  0  0  0
 12 13  2  0  0  0
 12 92  1  0  0  0
 13 14  1  0  0  0
 13 31  1  0  0  0
 14 15  2  0  0  0
 14 93  1  0  0  0
 15 94  1  0  0  0
 16 17  2  0  0  0
 16 21  1  0  0  0
 16 31  1  0  0  0
 17 18  1  0  0  0
 17 95  1  0  0  0
 18 19  2  0  0  0
 18 96  1  0  0  0
 19 20  1  0  0  0
 19 24  1  0  0  0
 20 21  2  0  0  0
 20 97  1  0  0  0
 21 23  1  0  0  0
 22 28  1  0  0  0
 22 32  2  0  0  0
 26 27  1  0  0  0
 28 98  1  0  0  0
 28 99  1  0  0  0
 29100  1  0  0  0
 29101  1  0  0  0
 33 34  1  0  0  0
 33 66  1  0  0  0
 33 70  2  0  0  0
 34 36  1  0  0  0
 34 59  1  0  0  0
 34102  1  0  0  0
 35 44  2  0  0  0
 35 45  1  0  0  0
 35 68  1  0  0  0
 36 56  1  0  0  0
 36103  1  0  0  0
 37 39  1  0  0  0
 37 47  1  0  0  0
 37 66  1  0  0  0
 37104  1  0  0  0
 38 43  2  0  0  0
 38 46  1  0  0  0
 38 47  1  0  0  0
 39 64  1  0  0  0
 39 67  2  0  0  0
 40 52  1  0  0  0
 40 53  2  0  0  0
 40 58  1  0  0  0
 41105  1  0  0  0
 41106  1  0  0  0
 41107  1  0  0  0
 41 48  1  0  0  0
 42 43  1  0  0  0
 42 66  1  0  0  0
 42108  1  0  0  0
 42109  1  0  0  0
 43 44  1  0  0  0
 44110  1  0  0  0
 45 46  2  0  0  0
 45111  1  0  0  0
 46112  1  0  0  0
 47113  1  0  0  0
 47114  1  0  0  0
 48 56  1  0  0  0
 48 65  1  0  0  0
 48115  1  0  0  0
 49 50  1  0  0  0
 49 53  1  0  0  0
 49 64  1  0  0  0
 49116  1  0  0  0
 50 51  1  0  0  0
 50117  1  0  0  0
 50118  1  0  0  0
 51 52  1  0  0  0
 51119  1  0  0  0
 51120  1  0  0  0
 52121  1  0  0  0
 52122  1  0  0  0
 53 54  1  0  0  0
 54 55  2  0  0  0
 54123  1  0  0  0
 55 57  1  0  0  0
 55124  1  0  0  0
 56 69  2  0  0  0
 57 58  2  0  0  0
 57125  1  0  0  0
 58126  1  0  0  0
 59 60  1  0  0  0
 59 61  1  0  0  0
 59 62  1  0  0  0
 60127  1  0  0  0
 60128  1  0  0  0
 60129  1  0  0  0
 61130  1  0  0  0
 61131  1  0  0  0
 61132  1  0  0  0
 62133  1  0  0  0
 62134  1  0  0  0
 62135  1  0  0  0
 63 65  1  0  0  0
 63136  1  0  0  0
 63137  1  0  0  0
 63138  1  0  0  0
 64139  1  0  0  0
 65140  1  0  0  0
 68 78  1  0  0  0
 71 73  2  0  0  0
 71 80  1  0  0  0
 71141  1  0  0  0
 72 74  1  0  0  0
 72 79  2  0  0  0
 72142  1  0  0  0
 73 76  1  0  0  0
 73 79  1  0  0  0
 74 77  1  0  0  0
 74 80  2  0  0  0
 75143  1  0  0  0
 75144  1  0  0  0
 75145  1  0  0  0
 75 78  1  0  0  0
 76 78  1  0  0  0
 76146  1  0  0  0
 76147  1  0  0  0
 77 81  1  0  0  0
 77148  1  0  0  0
 77149  1  0  0  0
 78150  1  0  0  0
 81151  1  0  0  0
M  ISO  4   1 100  68 101  78 101  81 100
M  END
> <chiral flag>
0

> <version>
0

> <s_m_source_file>
/data/baiqing/PycharmProjects/Reinvent-master-3.2/result/LINK_invent/BTK/process_docking_weight1_custom_sum_contain_oxygen_bond_distance_aromatic_linkinvent_7_9_3/rearranged_h_0044.sdf

> <i_m_source_file_index>
65

> <r_mmod_Potential_Energy-OPLS-2005>
444.265319824219

> <r_mmod_Stretch_Energy-OPLS-2005>
218.176284790039

> <r_mmod_Bend_Energy-OPLS-2005>
292.614959716797

> <r_mmod_Torsional_Energy-OPLS-2005>
205.177581787109

> <r_mmod_Improper_Torsional_Energy-OPLS-2005>
9.58122825622559

> <r_mmod_Van_der_Waal_Energy-OPLS-2005>
130.063247680664

> <r_mmod_Electrostatic_Energy-OPLS-2005>
-346.198852539062

> <r_mmod_Solvation_Energy-OPLS-2005>
-228.204849243164

> <b_mmod_Minimization_Converged-OPLS-2005>
0

> <r_mmod_RMS_Derivative-OPLS-2005>
7.1421594619751

$$$$
65
                    3D
 Structure written by MMmdl.
158166  0  0  1  0            999 V2000
  -30.7354  -14.4531   20.5630 C   0  0  0  0  0  0
  -30.4202  -12.2790   19.4590 C   0  0  0  0  0  0
  -29.5126  -12.4997   18.2328 C   0  0  0  0  0  0
  -28.0295  -12.3660   18.6281 C   0  0  0  0  0  0
  -27.6686  -13.2102   19.8810 C   0  0  2  0  0  0
  -28.7050  -13.0182   21.0151 C   0  0  0  0  0  0
  -25.2579  -13.8199   20.5678 C   0  0  0  0  0  0
  -24.1822  -13.0483   20.9191 C   0  0  0  0  0  0
  -24.6384  -11.6942   20.8766 C   0  0  0  0  0  0
  -23.9067  -10.4321   21.0431 C   0  0  0  0  0  0
  -24.3616   -9.4218   21.9197 C   0  0  0  0  0  0
  -23.6280   -8.2262   22.0769 C   0  0  0  0  0  0
  -22.4267   -8.0308   21.3548 C   0  0  0  0  0  0
  -21.9910   -9.0302   20.4658 C   0  0  0  0  0  0
  -22.7259  -10.2165   20.3058 C   0  0  0  0  0  0
  -21.6844   -6.0731   22.5284 C   0  0  0  0  0  0
  -21.4025   -6.5617   23.8233 C   0  0  0  0  0  0
  -21.3670   -5.6761   24.9190 C   0  0  0  0  0  0
  -21.6048   -4.3024   24.7220 C   0  0  0  0  0  0
  -21.8813   -3.8122   23.4335 C   0  0  0  0  0  0
  -21.9183   -4.6954   22.3403 C   0  0  0  0  0  0
  -22.7829  -13.5297   21.1829 C   0  0  0  0  0  0
  -22.1647   -4.2143   21.0969 F   0  0  0  0  0  0
  -21.5656   -3.4508   25.7733 F   0  0  0  0  0  0
  -30.0459  -13.2846   20.4675 N   0  0  0  0  0  0
  -26.3042  -12.9374   20.3380 N   0  0  0  0  0  0
  -25.9310  -11.6535   20.5788 N   0  0  0  0  0  0
  -22.0411  -12.8348   22.0380 N   0  0  0  0  0  0
  -25.4273  -15.1933   20.4066 N   0  0  0  0  0  0
  -31.8478  -14.6172   20.0576 O   0  0  0  0  0  0
  -21.6619   -6.8898   21.4255 O   0  0  0  0  0  0
  -22.3549  -14.5627   20.6678 O   0  0  0  0  0  0
  -24.6167  -31.8682   23.2091 C   0  0  0  0  0  0
  -25.9062  -32.4835   23.8379 C   0  0  1  0  0  0
  -27.2246  -27.4205   20.0870 C   0  0  0  0  0  0
  -25.5923  -33.8628   24.2319 N   0  0  0  0  0  0
  -23.4042  -30.4924   21.5541 C   0  0  2  0  0  0
  -24.8478  -28.9671   20.1089 C   0  0  0  0  0  0
  -22.7420  -29.4648   22.5013 C   0  0  0  0  0  0
  -18.0265  -28.1372   22.8493 C   0  0  0  0  0  0
  -24.1498  -36.7312   23.2628 C   0  0  0  0  0  0
  -25.9359  -30.8315   21.3627 C   0  0  0  0  0  0
  -26.0128  -29.4689   20.7027 C   0  0  0  0  0  0
  -27.2065  -28.7052   20.6830 C   0  0  0  0  0  0
  -26.0399  -26.9523   19.4683 C   0  0  0  0  0  0
  -24.8568  -27.7100   19.4874 C   0  0  0  0  0  0
  -23.6102  -29.8328   20.1663 C   0  0  0  0  0  0
  -25.4121  -36.3119   24.0333 C   0  0  1  0  0  0
  -20.5851  -28.3643   23.1337 C   0  0  2  0  0  0
  -20.6759  -26.9392   22.5400 C   0  0  0  0  0  0
  -19.5747  -26.6404   21.5181 C   0  0  0  0  0  0
  -18.1923  -26.7929   22.1597 C   0  0  0  0  0  0
  -19.1510  -28.8829   23.2911 C   0  0  0  0  0  0
  -18.9437  -30.1437   23.8914 C   0  0  0  0  0  0
  -17.6438  -30.6579   24.0556 C   0  0  0  0  0  0
  -25.9045  -34.9484   23.5116 C   0  0  0  0  0  0
  -16.5328  -29.9071   23.6336 C   0  0  0  0  0  0
  -16.7249  -28.6489   23.0353 C   0  0  0  0  0  0
  -26.4482  -31.6613   25.0713 C   0  0  0  0  0  0
  -25.3773  -31.3692   26.1487 C   0  0  0  0  0  0
  -27.0292  -30.3055   24.6067 C   0  0  0  0  0  0
  -27.6064  -32.4325   25.7474 C   0  0  0  0  0  0
  -27.5587  -37.1808   24.8470 C   0  0  0  0  0  0
  -21.4141  -29.3020   22.3761 N   0  0  0  0  0  0
  -26.4306  -37.3804   23.9410 N   0  0  0  0  0  0
  -24.6714  -31.0766   22.1007 N   0  0  0  0  0  0
  -23.4181  -28.8197   23.3065 O   0  0  0  0  0  0
  -28.3720  -26.6426   20.1331 O   0  0  0  0  0  0
  -26.5595  -34.8936   22.4669 O   0  0  0  0  0  0
  -23.5357  -32.1433   23.7495 O   0  0  0  0  0  0
  -29.3526  -21.8091   20.8004 C   0  0  0  0  0  0
  -27.6976  -22.8808   22.1884 C   0  0  0  0  0  0
  -28.7734  -23.0024   21.2964 C   0  0  0  0  0  0
  -28.7984  -20.5469   21.1556 C   0  0  0  0  0  0
  -27.6410  -20.5653   21.9755 C   0  0  0  0  0  0
  -26.8153  -19.3344   22.3041 C   0  0  0  0  0  0
  -29.2505  -24.4080   20.8983 C   0  0  0  0  0  0
  -29.4107  -19.2622   20.5496 C   0  0  0  0  0  0
  -29.5998  -17.9988   21.4480 C   0  0  0  0  0  0
  -30.4357  -16.8974   20.7399 C   0  0  0  0  0  0
  -28.1694  -25.2105   20.1264 C   0  0  0  0  0  0
  -27.1369  -21.7005   22.5041 N   0  0  0  0  0  0
  -30.0718  -15.5063   21.0754 N   0  0  0  0  0  0
  -31.4729  -12.3393   19.1729 H   0  0  0  0  0  0
  -30.2861  -11.2759   19.8668 H   0  0  0  0  0  0
  -29.7628  -11.7889   17.4445 H   0  0  0  0  0  0
  -29.7015  -13.4913   17.8191 H   0  0  0  0  0  0
  -27.8317  -11.3127   18.8287 H   0  0  0  0  0  0
  -27.3943  -12.6438   17.7869 H   0  0  0  0  0  0
  -27.7140  -14.2549   19.5721 H   0  0  0  0  0  0
  -28.6656  -12.0019   21.4125 H   0  0  0  0  0  0
  -28.4702  -13.6722   21.8548 H   0  0  0  0  0  0
  -25.2762   -9.5685   22.4768 H   0  0  0  0  0  0
  -23.9965   -7.4658   22.7490 H   0  0  0  0  0  0
  -21.0837   -8.8875   19.8964 H   0  0  0  0  0  0
  -22.3770  -10.9725   19.6157 H   0  0  0  0  0  0
  -21.2026   -7.6118   23.9763 H   0  0  0  0  0  0
  -21.1507   -6.0463   25.9110 H   0  0  0  0  0  0
  -22.0577   -2.7579   23.2841 H   0  0  0  0  0  0
  -22.3939  -11.9979   22.4786 H   0  0  0  0  0  0
  -21.1067  -13.1503   22.2604 H   0  0  0  0  0  0
  -24.6585  -15.8444   20.5204 H   0  0  0  0  0  0
  -26.2672  -15.6313   20.0526 H   0  0  0  0  0  0
  -26.7144  -32.5540   23.1151 H   0  0  0  0  0  0
  -25.0132  -33.9793   25.0498 H   0  0  0  0  0  0
  -22.6914  -31.3091   21.4194 H   0  0  0  0  0  0
  -23.3761  -35.9643   23.3305 H   0  0  0  0  0  0
  -24.3583  -36.8899   22.2036 H   0  0  0  0  0  0
  -23.7254  -37.6521   23.6626 H   0  0  0  0  0  0
  -26.0522  -31.6033   20.5993 H   0  0  0  0  0  0
  -26.8213  -30.8788   21.9847 H   0  0  0  0  0  0
  -28.1060  -29.0878   21.1442 H   0  0  0  0  0  0
  -26.0047  -25.9946   18.9692 H   0  0  0  0  0  0
  -23.9656  -27.3179   19.0161 H   0  0  0  0  0  0
  -23.7175  -30.6115   19.4104 H   0  0  0  0  0  0
  -22.7331  -29.2559   19.8714 H   0  0  0  0  0  0
  -25.1298  -36.1967   25.0825 H   0  0  0  0  0  0
  -20.9924  -28.3179   24.1460 H   0  0  0  0  0  0
  -20.5668  -26.2224   23.3556 H   0  0  0  0  0  0
  -21.6636  -26.7470   22.1179 H   0  0  0  0  0  0
  -19.6909  -25.6329   21.1178 H   0  0  0  0  0  0
  -19.6693  -27.3245   20.6739 H   0  0  0  0  0  0
  -17.4191  -26.6676   21.3994 H   0  0  0  0  0  0
  -18.0334  -26.0046   22.8977 H   0  0  0  0  0  0
  -19.7908  -30.7252   24.2277 H   0  0  0  0  0  0
  -17.4990  -31.6261   24.5158 H   0  0  0  0  0  0
  -15.5327  -30.2973   23.7664 H   0  0  0  0  0  0
  -15.8643  -28.0814   22.7065 H   0  0  0  0  0  0
  -24.5958  -30.7023   25.7831 H   0  0  0  0  0  0
  -24.8967  -32.2837   26.4973 H   0  0  0  0  0  0
  -25.8179  -30.8847   27.0217 H   0  0  0  0  0  0
  -26.2802  -29.6826   24.1176 H   0  0  0  0  0  0
  -27.4114  -29.7286   25.4494 H   0  0  0  0  0  0
  -27.8622  -30.4356   23.9160 H   0  0  0  0  0  0
  -27.2681  -33.3604   26.2098 H   0  0  0  0  0  0
  -28.3853  -32.6923   25.0293 H   0  0  0  0  0  0
  -28.0772  -31.8433   26.5354 H   0  0  0  0  0  0
  -28.2627  -38.0082   24.7517 H   0  0  0  0  0  0
  -28.1059  -36.2621   24.6308 H   0  0  0  0  0  0
  -27.2304  -37.1481   25.8870 H   0  0  0  0  0  0
  -20.9280  -29.8732   21.6988 H   0  0  0  0  0  0
  -26.0193  -38.2877   24.1407 H   0  0  0  0  0  0
  -30.1971  -21.8650   20.1282 H   0  0  0  0  0  0
  -27.2480  -23.7549   22.6371 H   0  0  0  0  0  0
  -25.8268  -19.6151   22.6717 H   0  0  0  0  0  0
  -27.2965  -18.7493   23.0880 H   0  0  0  0  0  0
  -26.6590  -18.7102   21.4222 H   0  0  0  0  0  0
  -30.1690  -24.3559   20.3138 H   0  0  0  0  0  0
  -29.4987  -24.9475   21.8130 H   0  0  0  0  0  0
  -30.3900  -19.5226   20.1447 H   0  0  0  0  0  0
  -28.8052  -18.9832   19.6850 H   0  0  0  0  0  0
  -28.6389  -17.5764   21.7269 H   0  0  0  0  0  0
  -30.0979  -18.2759   22.3788 H   0  0  0  0  0  0
  -31.4964  -17.0670   20.9438 H   0  0  0  0  0  0
  -30.3243  -16.9924   19.6566 H   0  0  0  0  0  0
  -27.2125  -24.9890   20.6010 H   0  0  0  0  0  0
  -28.1008  -24.8432   19.1006 H   0  0  0  0  0  0
  -29.1669  -15.3235   21.4804 H   0  0  0  0  0  0
  1 25  1  0  0  0
  1 30  2  0  0  0
  1 83  1  0  0  0
  2  3  1  0  0  0
  2 25  1  0  0  0
  2 84  1  0  0  0
  2 85  1  0  0  0
  3  4  1  0  0  0
  3 86  1  0  0  0
  3 87  1  0  0  0
  4  5  1  0  0  0
  4 88  1  0  0  0
  4 89  1  0  0  0
  5  6  1  0  0  0
  5 26  1  0  0  0
  5 90  1  0  0  0
  6 25  1  0  0  0
  6 91  1  0  0  0
  6 92  1  0  0  0
  7  8  2  0  0  0
  7 26  1  0  0  0
  7 29  1  0  0  0
  8  9  1  0  0  0
  8 22  1  0  0  0
  9 10  1  0  0  0
  9 27  2  0  0  0
 10 11  2  0  0  0
 10 15  1  0  0  0
 11 12  1  0  0  0
 11 93  1  0  0  0
 12 13  2  0  0  0
 12 94  1  0  0  0
 13 14  1  0  0  0
 13 31  1  0  0  0
 14 15  2  0  0  0
 14 95  1  0  0  0
 15 96  1  0  0  0
 16 17  2  0  0  0
 16 21  1  0  0  0
 16 31  1  0  0  0
 17 18  1  0  0  0
 17 97  1  0  0  0
 18 19  2  0  0  0
 18 98  1  0  0  0
 19 20  1  0  0  0
 19 24  1  0  0  0
 20 21  2  0  0  0
 20 99  1  0  0  0
 21 23  1  0  0  0
 22 28  1  0  0  0
 22 32  2  0  0  0
 26 27  1  0  0  0
 28100  1  0  0  0
 28101  1  0  0  0
 29102  1  0  0  0
 29103  1  0  0  0
 33 34  1  0  0  0
 33 66  1  0  0  0
 33 70  2  0  0  0
 34 36  1  0  0  0
 34 59  1  0  0  0
 34104  1  0  0  0
 35 44  2  0  0  0
 35 45  1  0  0  0
 35 68  1  0  0  0
 36 56  1  0  0  0
 36105  1  0  0  0
 37 39  1  0  0  0
 37 47  1  0  0  0
 37 66  1  0  0  0
 37106  1  0  0  0
 38 43  2  0  0  0
 38 46  1  0  0  0
 38 47  1  0  0  0
 39 64  1  0  0  0
 39 67  2  0  0  0
 40 52  1  0  0  0
 40 53  2  0  0  0
 40 58  1  0  0  0
 41107  1  0  0  0
 41108  1  0  0  0
 41109  1  0  0  0
 41 48  1  0  0  0
 42 43  1  0  0  0
 42 66  1  0  0  0
 42110  1  0  0  0
 42111  1  0  0  0
 43 44  1  0  0  0
 44112  1  0  0  0
 45 46  2  0  0  0
 45113  1  0  0  0
 46114  1  0  0  0
 47115  1  0  0  0
 47116  1  0  0  0
 48 56  1  0  0  0
 48 65  1  0  0  0
 48117  1  0  0  0
 49 50  1  0  0  0
 49 53  1  0  0  0
 49 64  1  0  0  0
 49118  1  0  0  0
 50 51  1  0  0  0
 50119  1  0  0  0
 50120  1  0  0  0
 51 52  1  0  0  0
 51121  1  0  0  0
 51122  1  0  0  0
 52123  1  0  0  0
 52124  1  0  0  0
 53 54  1  0  0  0
 54 55  2  0  0  0
 54125  1  0  0  0
 55 57  1  0  0  0
 55126  1  0  0  0
 56 69  2  0  0  0
 57 58  2  0  0  0
 57127  1  0  0  0
 58128  1  0  0  0
 59 60  1  0  0  0
 59 61  1  0  0  0
 59 62  1  0  0  0
 60129  1  0  0  0
 60130  1  0  0  0
 60131  1  0  0  0
 61132  1  0  0  0
 61133  1  0  0  0
 61134  1  0  0  0
 62135  1  0  0  0
 62136  1  0  0  0
 62137  1  0  0  0
 63 65  1  0  0  0
 63138  1  0  0  0
 63139  1  0  0  0
 63140  1  0  0  0
 64141  1  0  0  0
 65142  1  0  0  0
 68 81  1  0  0  0
 71 73  2  0  0  0
 71 74  1  0  0  0
 71143  1  0  0  0
 72 73  1  0  0  0
 72 82  2  0  0  0
 72144  1  0  0  0
 73 77  1  0  0  0
 74 75  2  0  0  0
 74 78  1  0  0  0
 75 76  1  0  0  0
 75 82  1  0  0  0
 76145  1  0  0  0
 76146  1  0  0  0
 76147  1  0  0  0
 77 81  1  0  0  0
 77148  1  0  0  0
 77149  1  0  0  0
 78 79  1  0  0  0
 78150  1  0  0  0
 78151  1  0  0  0
 79 80  1  0  0  0
 79152  1  0  0  0
 79153  1  0  0  0
 80 83  1  0  0  0
 80154  1  0  0  0
 80155  1  0  0  0
 81156  1  0  0  0
 81157  1  0  0  0
 83158  1  0  0  0
M  ISO  4   1 100  68 101  81 101  83 100
M  END
> <chiral flag>
0

> <version>
0

> <s_m_source_file>
/data/baiqing/PycharmProjects/Reinvent-master-3.2/result/LINK_invent/BTK/process_docking_weight1_custom_sum_contain_oxygen_bond_distance_aromatic_linkinvent_7_9_3/rearranged_h_0044.sdf

> <i_m_source_file_index>
66

> <r_mmod_Potential_Energy-OPLS-2005>
-208.686218261719

> <r_mmod_Stretch_Energy-OPLS-2005>
42.3942413330078

> <r_mmod_Bend_Energy-OPLS-2005>
102.008483886719

> <r_mmod_Torsional_Energy-OPLS-2005>
214.755844116211

> <r_mmod_Improper_Torsional_Energy-OPLS-2005>
5.27830839157104

> <r_mmod_Van_der_Waal_Energy-OPLS-2005>
162.565521240234

> <r_mmod_Electrostatic_Energy-OPLS-2005>
-525.468383789062

> <r_mmod_Solvation_Energy-OPLS-2005>
-225.806335449219

> <b_mmod_Minimization_Converged-OPLS-2005>
0

> <r_mmod_RMS_Derivative-OPLS-2005>
3.61044859886169

$$$$
66
                    3D
 Structure written by MMmdl.
175183  0  0  1  0            999 V2000
  -30.7627  -14.2988   20.7322 C   0  0  0  0  0  0
  -30.4036  -12.2696   19.3696 C   0  0  0  0  0  0
  -29.4671  -12.5157   18.1723 C   0  0  0  0  0  0
  -27.9843  -12.4129   18.5791 C   0  0  0  0  0  0
  -27.6569  -13.2030   19.8736 C   0  0  2  0  0  0
  -28.6907  -12.8843   20.9709 C   0  0  0  0  0  0
  -25.2532  -13.8178   20.5655 C   0  0  0  0  0  0
  -24.1793  -13.0444   20.9144 C   0  0  0  0  0  0
  -24.6311  -11.6906   20.8654 C   0  0  0  0  0  0
  -23.8980  -10.4276   21.0324 C   0  0  0  0  0  0
  -24.3551   -9.4216   21.9116 C   0  0  0  0  0  0
  -23.6250   -8.2235   22.0725 C   0  0  0  0  0  0
  -22.4233   -8.0240   21.3518 C   0  0  0  0  0  0
  -21.9829   -9.0185   20.4622 C   0  0  0  0  0  0
  -22.7137  -10.2090   20.2988 C   0  0  0  0  0  0
  -21.6852   -6.0674   22.5265 C   0  0  0  0  0  0
  -21.4015   -6.5591   23.8201 C   0  0  0  0  0  0
  -21.3681   -5.6750   24.9171 C   0  0  0  0  0  0
  -21.6055   -4.3007   24.7223 C   0  0  0  0  0  0
  -21.8826   -3.8082   23.4343 C   0  0  0  0  0  0
  -21.9199   -4.6897   22.3391 C   0  0  0  0  0  0
  -22.7810  -13.5228   21.1821 C   0  0  0  0  0  0
  -22.1653   -4.2082   21.0960 F   0  0  0  0  0  0
  -21.5661   -3.4496   25.7740 F   0  0  0  0  0  0
  -30.0326  -13.1912   20.4497 N   0  0  0  0  0  0
  -26.2947  -12.9340   20.3326 N   0  0  0  0  0  0
  -25.9231  -11.6491   20.5674 N   0  0  0  0  0  0
  -22.0460  -12.8245   22.0406 N   0  0  0  0  0  0
  -25.4293  -15.1916   20.4088 N   0  0  0  0  0  0
  -31.7713  -14.6311   20.1011 O   0  0  0  0  0  0
  -21.6634   -6.8809   21.4215 O   0  0  0  0  0  0
  -22.3472  -14.5491   20.6613 O   0  0  0  0  0  0
  -24.6085  -31.8718   23.2155 C   0  0  0  0  0  0
  -25.8989  -32.4840   23.8462 C   0  0  1  0  0  0
  -27.2431  -27.4845   20.0891 C   0  0  0  0  0  0
  -25.5890  -33.8648   24.2374 N   0  0  0  0  0  0
  -23.3959  -30.4968   21.5504 C   0  0  2  0  0  0
  -24.8461  -28.9698   20.1150 C   0  0  0  0  0  0
  -22.7389  -29.4653   22.4940 C   0  0  0  0  0  0
  -18.0280  -28.1390   22.8491 C   0  0  0  0  0  0
  -24.1470  -36.7286   23.2642 C   0  0  0  0  0  0
  -25.9198  -30.8507   21.3669 C   0  0  0  0  0  0
  -25.9991  -29.4868   20.7179 C   0  0  0  0  0  0
  -27.1950  -28.7493   20.7082 C   0  0  0  0  0  0
  -26.0714  -26.9620   19.4948 C   0  0  0  0  0  0
  -24.8724  -27.7020   19.5077 C   0  0  0  0  0  0
  -23.6119  -29.8388   20.1598 C   0  0  0  0  0  0
  -25.4088  -36.3104   24.0334 C   0  0  1  0  0  0
  -20.5866  -28.3654   23.1305 C   0  0  2  0  0  0
  -20.6765  -26.9391   22.5401 C   0  0  0  0  0  0
  -19.5751  -26.6383   21.5203 C   0  0  0  0  0  0
  -18.1926  -26.7932   22.1616 C   0  0  0  0  0  0
  -19.1531  -28.8841   23.2903 C   0  0  0  0  0  0
  -18.9466  -30.1446   23.8905 C   0  0  0  0  0  0
  -17.6464  -30.6584   24.0581 C   0  0  0  0  0  0
  -25.9017  -34.9482   23.5138 C   0  0  0  0  0  0
  -16.5357  -29.9091   23.6322 C   0  0  0  0  0  0
  -16.7264  -28.6522   23.0322 C   0  0  0  0  0  0
  -26.4486  -31.6602   25.0745 C   0  0  0  0  0  0
  -25.3817  -31.3655   26.1536 C   0  0  0  0  0  0
  -27.0312  -30.3078   24.6032 C   0  0  0  0  0  0
  -27.6074  -32.4341   25.7499 C   0  0  0  0  0  0
  -27.5563  -37.1783   24.8469 C   0  0  0  0  0  0
  -21.4116  -29.3024   22.3713 N   0  0  0  0  0  0
  -26.4268  -37.3789   23.9429 N   0  0  0  0  0  0
  -24.6579  -31.0877   22.1011 N   0  0  0  0  0  0
  -23.4185  -28.8181   23.2955 O   0  0  0  0  0  0
  -28.4433  -26.8183   20.1124 O   0  0  0  0  0  0
  -26.5557  -34.8924   22.4692 O   0  0  0  0  0  0
  -23.5276  -32.1417   23.7560 O   0  0  0  0  0  0
  -31.9133  -24.0722   19.4822 C   0  0  0  0  0  0
  -32.7998  -23.5995   20.4856 C   0  0  0  0  0  0
  -31.1487  -25.2199   19.8093 C   0  0  0  0  0  0
  -32.0816  -25.2484   21.9054 C   0  0  0  0  0  0
  -31.7888  -23.4299   18.0997 C   0  0  0  0  0  0
  -32.1756  -25.9130   23.2629 C   0  0  0  0  0  0
  -30.2669  -20.5094   21.0199 C   0  0  0  0  0  0
  -33.7971  -22.4551   20.3087 C   0  0  0  0  0  0
  -30.2478  -25.9432   18.7998 C   0  0  0  0  0  0
  -33.3471  -21.1341   20.9594 C   0  0  0  0  0  0
  -30.7044  -17.3975   21.5563 C   0  0  0  0  0  0
  -31.0320  -16.1417   22.3788 C   0  0  0  0  0  0
  -32.5228  -20.2389   20.0110 C   0  0  0  0  0  0
  -31.6941  -18.5682   21.6850 C   0  0  0  0  0  0
  -28.7347  -25.8910   19.0809 C   0  0  0  0  0  0
  -32.8478  -24.1872   21.6943 N   0  0  0  0  0  0
  -31.2599  -25.7984   21.0205 N   0  0  0  0  0  0
  -30.3485  -14.9828   21.8089 N   0  0  0  0  0  0
  -31.3601  -19.5763   20.6494 N   0  3  1  0  0  0
  -31.4444  -12.3797   19.0582 H   0  0  0  0  0  0
  -30.3081  -11.2395   19.7154 H   0  0  0  0  0  0
  -29.6780  -11.7930   17.3815 H   0  0  0  0  0  0
  -29.6649  -13.4998   17.7463 H   0  0  0  0  0  0
  -27.7355  -11.3575   18.7014 H   0  0  0  0  0  0
  -27.3548  -12.7710   17.7632 H   0  0  0  0  0  0
  -27.7266  -14.2657   19.6353 H   0  0  0  0  0  0
  -28.6384  -11.8184   21.1951 H   0  0  0  0  0  0
  -28.4389  -13.3848   21.9042 H   0  0  0  0  0  0
  -25.2700   -9.5727   22.4680 H   0  0  0  0  0  0
  -23.9980   -7.4632   22.7440 H   0  0  0  0  0  0
  -21.0763   -8.8638   19.8935 H   0  0  0  0  0  0
  -22.3537  -10.9571   19.6077 H   0  0  0  0  0  0
  -21.1968   -7.6101   23.9679 H   0  0  0  0  0  0
  -21.1538   -6.0486   25.9090 H   0  0  0  0  0  0
  -22.0585   -2.7527   23.2865 H   0  0  0  0  0  0
  -22.4106  -11.9998   22.4935 H   0  0  0  0  0  0
  -21.1042  -13.1240   22.2533 H   0  0  0  0  0  0
  -24.6764  -15.8580   20.5473 H   0  0  0  0  0  0
  -26.2907  -15.6237   20.0967 H   0  0  0  0  0  0
  -26.7030  -32.5602   23.1221 H   0  0  0  0  0  0
  -25.0151  -33.9851   25.0596 H   0  0  0  0  0  0
  -22.6813  -31.3102   21.4116 H   0  0  0  0  0  0
  -23.3745  -35.9613   23.3324 H   0  0  0  0  0  0
  -24.3575  -36.8873   22.2055 H   0  0  0  0  0  0
  -23.7196  -37.6483   23.6654 H   0  0  0  0  0  0
  -26.0277  -31.6179   20.5994 H   0  0  0  0  0  0
  -26.8094  -30.9062   21.9812 H   0  0  0  0  0  0
  -28.0926  -29.1505   21.1605 H   0  0  0  0  0  0
  -26.0695  -25.9902   19.0210 H   0  0  0  0  0  0
  -23.9838  -27.2967   19.0452 H   0  0  0  0  0  0
  -23.7445  -30.6263   19.4152 H   0  0  0  0  0  0
  -22.7351  -29.2734   19.8385 H   0  0  0  0  0  0
  -25.1248  -36.1973   25.0817 H   0  0  0  0  0  0
  -20.9985  -28.3241   24.1418 H   0  0  0  0  0  0
  -20.5699  -26.2256   23.3582 H   0  0  0  0  0  0
  -21.6635  -26.7438   22.1195 H   0  0  0  0  0  0
  -19.6930  -25.6301   21.1226 H   0  0  0  0  0  0
  -19.6735  -27.3209   20.6760 H   0  0  0  0  0  0
  -17.4202  -26.6679   21.4012 H   0  0  0  0  0  0
  -18.0348  -26.0064   22.9016 H   0  0  0  0  0  0
  -19.7941  -30.7274   24.2273 H   0  0  0  0  0  0
  -17.5017  -31.6269   24.5195 H   0  0  0  0  0  0
  -15.5360  -30.3020   23.7624 H   0  0  0  0  0  0
  -15.8659  -28.0868   22.6989 H   0  0  0  0  0  0
  -24.5993  -30.6968   25.7903 H   0  0  0  0  0  0
  -24.9022  -32.2791   26.5073 H   0  0  0  0  0  0
  -25.8262  -30.8802   27.0235 H   0  0  0  0  0  0
  -26.2783  -29.6828   24.1195 H   0  0  0  0  0  0
  -27.4237  -29.7312   25.4417 H   0  0  0  0  0  0
  -27.8572  -30.4422   23.9039 H   0  0  0  0  0  0
  -27.2671  -33.3620   26.2118 H   0  0  0  0  0  0
  -28.3883  -32.6932   25.0333 H   0  0  0  0  0  0
  -28.0754  -31.8450   26.5392 H   0  0  0  0  0  0
  -28.2556  -38.0101   24.7545 H   0  0  0  0  0  0
  -28.1071  -36.2631   24.6261 H   0  0  0  0  0  0
  -27.2299  -37.1382   25.8876 H   0  0  0  0  0  0
  -20.9248  -29.8795   21.6993 H   0  0  0  0  0  0
  -26.0149  -38.2849   24.1530 H   0  0  0  0  0  0
  -31.9378  -24.1715   17.3155 H   0  0  0  0  0  0
  -30.7914  -23.0015   17.9724 H   0  0  0  0  0  0
  -32.5111  -22.6440   17.8968 H   0  0  0  0  0  0
  -33.0971  -25.6420   23.7782 H   0  0  0  0  0  0
  -31.3349  -25.6164   23.8915 H   0  0  0  0  0  0
  -32.1655  -26.9986   23.1697 H   0  0  0  0  0  0
  -29.9802  -21.1159   20.1620 H   0  0  0  0  0  0
  -30.5630  -21.1899   21.8172 H   0  0  0  0  0  0
  -29.3747  -19.9804   21.3557 H   0  0  0  0  0  0
  -34.7298  -22.7663   20.7831 H   0  0  0  0  0  0
  -34.0748  -22.3071   19.2680 H   0  0  0  0  0  0
  -30.4045  -25.5678   17.7936 H   0  0  0  0  0  0
  -30.5680  -26.9849   18.7434 H   0  0  0  0  0  0
  -32.8399  -21.3325   21.9038 H   0  0  0  0  0  0
  -34.2440  -20.5753   21.2313 H   0  0  0  0  0  0
  -29.6932  -17.7274   21.7898 H   0  0  0  0  0  0
  -30.6838  -17.1182   20.5044 H   0  0  0  0  0  0
  -30.7129  -16.2699   23.4126 H   0  0  0  0  0  0
  -32.1058  -15.9466   22.4038 H   0  0  0  0  0  0
  -33.1698  -19.4785   19.5686 H   0  0  0  0  0  0
  -32.1494  -20.8190   19.1697 H   0  0  0  0  0  0
  -32.7022  -18.1866   21.5081 H   0  0  0  0  0  0
  -31.7004  -19.0002   22.6858 H   0  0  0  0  0  0
  -28.4060  -24.8875   19.3611 H   0  0  0  0  0  0
  -28.2207  -26.1681   18.1585 H   0  0  0  0  0  0
  -29.5031  -14.6641   22.2631 H   0  0  0  0  0  0
  -30.9823  -19.0155   19.8992 H   0  0  0  0  0  0
  1 25  1  0  0  0
  1 30  2  0  0  0
  1 88  1  0  0  0
  2  3  1  0  0  0
  2 25  1  0  0  0
  2 90  1  0  0  0
  2 91  1  0  0  0
  3  4  1  0  0  0
  3 92  1  0  0  0
  3 93  1  0  0  0
  4  5  1  0  0  0
  4 94  1  0  0  0
  4 95  1  0  0  0
  5  6  1  0  0  0
  5 26  1  0  0  0
  5 96  1  0  0  0
  6 25  1  0  0  0
  6 97  1  0  0  0
  6 98  1  0  0  0
  7  8  2  0  0  0
  7 26  1  0  0  0
  7 29  1  0  0  0
  8  9  1  0  0  0
  8 22  1  0  0  0
  9 10  1  0  0  0
  9 27  2  0  0  0
 10 11  2  0  0  0
 10 15  1  0  0  0
 11 12  1  0  0  0
 11 99  1  0  0  0
 12 13  2  0  0  0
 12100  1  0  0  0
 13 14  1  0  0  0
 13 31  1  0  0  0
 14 15  2  0  0  0
 14101  1  0  0  0
 15102  1  0  0  0
 16 17  2  0  0  0
 16 21  1  0  0  0
 16 31  1  0  0  0
 17 18  1  0  0  0
 17103  1  0  0  0
 18 19  2  0  0  0
 18104  1  0  0  0
 19 20  1  0  0  0
 19 24  1  0  0  0
 20 21  2  0  0  0
 20105  1  0  0  0
 21 23  1  0  0  0
 22 28  1  0  0  0
 22 32  2  0  0  0
 26 27  1  0  0  0
 28106  1  0  0  0
 28107  1  0  0  0
 29108  1  0  0  0
 29109  1  0  0  0
 33 34  1  0  0  0
 33 66  1  0  0  0
 33 70  2  0  0  0
 34 36  1  0  0  0
 34 59  1  0  0  0
 34110  1  0  0  0
 35 44  2  0  0  0
 35 45  1  0  0  0
 35 68  1  0  0  0
 36 56  1  0  0  0
 36111  1  0  0  0
 37 39  1  0  0  0
 37 47  1  0  0  0
 37 66  1  0  0  0
 37112  1  0  0  0
 38 43  2  0  0  0
 38 46  1  0  0  0
 38 47  1  0  0  0
 39 64  1  0  0  0
 39 67  2  0  0  0
 40 52  1  0  0  0
 40 53  2  0  0  0
 40 58  1  0  0  0
 41113  1  0  0  0
 41114  1  0  0  0
 41115  1  0  0  0
 41 48  1  0  0  0
 42 43  1  0  0  0
 42 66  1  0  0  0
 42116  1  0  0  0
 42117  1  0  0  0
 43 44  1  0  0  0
 44118  1  0  0  0
 45 46  2  0  0  0
 45119  1  0  0  0
 46120  1  0  0  0
 47121  1  0  0  0
 47122  1  0  0  0
 48 56  1  0  0  0
 48 65  1  0  0  0
 48123  1  0  0  0
 49 50  1  0  0  0
 49 53  1  0  0  0
 49 64  1  0  0  0
 49124  1  0  0  0
 50 51  1  0  0  0
 50125  1  0  0  0
 50126  1  0  0  0
 51 52  1  0  0  0
 51127  1  0  0  0
 51128  1  0  0  0
 52129  1  0  0  0
 52130  1  0  0  0
 53 54  1  0  0  0
 54 55  2  0  0  0
 54131  1  0  0  0
 55 57  1  0  0  0
 55132  1  0  0  0
 56 69  2  0  0  0
 57 58  2  0  0  0
 57133  1  0  0  0
 58134  1  0  0  0
 59 60  1  0  0  0
 59 61  1  0  0  0
 59 62  1  0  0  0
 60135  1  0  0  0
 60136  1  0  0  0
 60137  1  0  0  0
 61138  1  0  0  0
 61139  1  0  0  0
 61140  1  0  0  0
 62141  1  0  0  0
 62142  1  0  0  0
 62143  1  0  0  0
 63 65  1  0  0  0
 63144  1  0  0  0
 63145  1  0  0  0
 63146  1  0  0  0
 64147  1  0  0  0
 65148  1  0  0  0
 68 85  1  0  0  0
 71 72  2  0  0  0
 71 73  1  0  0  0
 71 75  1  0  0  0
 72 78  1  0  0  0
 72 86  1  0  0  0
 73 79  1  0  0  0
 73 87  2  0  0  0
 74 76  1  0  0  0
 74 86  2  0  0  0
 74 87  1  0  0  0
 75149  1  0  0  0
 75150  1  0  0  0
 75151  1  0  0  0
 76152  1  0  0  0
 76153  1  0  0  0
 76154  1  0  0  0
 77155  1  0  0  0
 77156  1  0  0  0
 77157  1  0  0  0
 77 89  1  0  0  0
 78 80  1  0  0  0
 78158  1  0  0  0
 78159  1  0  0  0
 79 85  1  0  0  0
 79160  1  0  0  0
 79161  1  0  0  0
 80 83  1  0  0  0
 80162  1  0  0  0
 80163  1  0  0  0
 81 82  1  0  0  0
 81 84  1  0  0  0
 81164  1  0  0  0
 81165  1  0  0  0
 82 88  1  0  0  0
 82166  1  0  0  0
 82167  1  0  0  0
 83 89  1  0  0  0
 83168  1  0  0  0
 83169  1  0  0  0
 84 89  1  0  0  0
 84170  1  0  0  0
 84171  1  0  0  0
 85172  1  0  0  0
 85173  1  0  0  0
 88174  1  0  0  0
 89175  1  0  0  0
M  CHG  1  89   1
M  ISO  4   1 100  68 101  85 101  88 100
M  END
> <chiral flag>
0

> <version>
0

> <s_m_source_file>
/data/baiqing/PycharmProjects/Reinvent-master-3.2/result/LINK_invent/BTK/process_docking_weight1_custom_sum_contain_oxygen_bond_distance_aromatic_linkinvent_7_9_3/rearranged_h_0044.sdf

> <i_m_source_file_index>
67

> <r_mmod_Potential_Energy-OPLS-2005>
-584.880126953125

> <r_mmod_Stretch_Energy-OPLS-2005>
32.8872184753418

> <r_mmod_Bend_Energy-OPLS-2005>
115.010162353516

> <r_mmod_Torsional_Energy-OPLS-2005>
209.612716674805

> <r_mmod_Improper_Torsional_Energy-OPLS-2005>
2.05157208442688

> <r_mmod_Van_der_Waal_Energy-OPLS-2005>
167.48762512207

> <r_mmod_Electrostatic_Energy-OPLS-2005>
-656.519226074219

> <r_mmod_Solvation_Energy-OPLS-2005>
-465.496215820312

> <b_mmod_Minimization_Converged-OPLS-2005>
0

> <r_mmod_RMS_Derivative-OPLS-2005>
5.0847282409668

$$$$
67
                    3D
 Structure written by MMmdl.
154162  0  0  1  0            999 V2000
  -30.3852  -15.2764   20.3832 C   0  0  0  0  0  0
  -30.4513  -12.8061   19.5377 C   0  0  0  0  0  0
  -29.5457  -12.5918   18.2954 C   0  0  0  0  0  0
  -28.0908  -12.3108   18.7126 C   0  0  0  0  0  0
  -27.6180  -13.2748   19.8280 C   0  0  2  0  0  0
  -28.6484  -13.4224   20.9672 C   0  0  0  0  0  0
  -25.2413  -13.8244   20.5732 C   0  0  0  0  0  0
  -24.1759  -13.0435   20.9233 C   0  0  0  0  0  0
  -24.6413  -11.6931   20.8739 C   0  0  0  0  0  0
  -23.9100  -10.4293   21.0393 C   0  0  0  0  0  0
  -24.3641   -9.4208   21.9177 C   0  0  0  0  0  0
  -23.6307   -8.2248   22.0751 C   0  0  0  0  0  0
  -22.4288   -8.0286   21.3543 C   0  0  0  0  0  0
  -21.9929   -9.0260   20.4643 C   0  0  0  0  0  0
  -22.7266  -10.2134   20.3048 C   0  0  0  0  0  0
  -21.6858   -6.0740   22.5280 C   0  0  0  0  0  0
  -21.4018   -6.5642   23.8212 C   0  0  0  0  0  0
  -21.3661   -5.6794   24.9174 C   0  0  0  0  0  0
  -21.6044   -4.3057   24.7226 C   0  0  0  0  0  0
  -21.8818   -3.8149   23.4346 C   0  0  0  0  0  0
  -21.9194   -4.6966   22.3402 C   0  0  0  0  0  0
  -22.7776  -13.5187   21.1894 C   0  0  0  0  0  0
  -22.1662   -4.2151   21.0979 F   0  0  0  0  0  0
  -21.5628   -3.4539   25.7737 F   0  0  0  0  0  0
  -29.8921  -13.9361   20.3687 N   0  0  0  0  0  0
  -26.2846  -12.9520   20.3205 N   0  0  0  0  0  0
  -25.9353  -11.6625   20.5694 N   0  0  0  0  0  0
  -22.0441  -12.8167   22.0452 N   0  0  0  0  0  0
  -25.4052  -15.1981   20.4200 N   0  0  0  0  0  0
  -31.5848  -15.3232   20.0654 O   0  0  0  0  0  0
  -21.6647   -6.8886   21.4243 O   0  0  0  0  0  0
  -22.3450  -14.5490   20.6742 O   0  0  0  0  0  0
  -24.6631  -31.8225   23.1684 C   0  0  0  0  0  0
  -25.9311  -32.4581   23.8158 C   0  0  1  0  0  0
  -27.2246  -26.9229   20.1846 C   0  0  0  0  0  0
  -25.5972  -33.8396   24.2063 N   0  0  0  0  0  0
  -23.4789  -30.4322   21.5172 C   0  0  2  0  0  0
  -24.9336  -28.8155   20.1110 C   0  0  0  0  0  0
  -22.7670  -29.4433   22.4771 C   0  0  0  0  0  0
  -18.0323  -28.1410   22.8459 C   0  0  0  0  0  0
  -24.1493  -36.7205   23.2648 C   0  0  0  0  0  0
  -26.0474  -30.6272   21.3996 C   0  0  0  0  0  0
  -26.1165  -29.2158   20.7444 C   0  0  0  0  0  0
  -27.2556  -28.2908   20.7549 C   0  0  0  0  0  0
  -26.0126  -26.6737   19.5028 C   0  0  0  0  0  0
  -24.9070  -27.5653   19.4698 C   0  0  0  0  0  0
  -23.7198  -29.7446   20.1443 C   0  0  0  0  0  0
  -25.4133  -36.2961   24.0297 C   0  0  1  0  0  0
  -20.5948  -28.3757   23.1177 C   0  0  2  0  0  0
  -20.6798  -26.9436   22.5399 C   0  0  0  0  0  0
  -19.5774  -26.6374   21.5209 C   0  0  0  0  0  0
  -18.1956  -26.7942   22.1615 C   0  0  0  0  0  0
  -19.1585  -28.8903   23.2805 C   0  0  0  0  0  0
  -18.9499  -30.1492   23.8843 C   0  0  0  0  0  0
  -17.6493  -30.6599   24.0553 C   0  0  0  0  0  0
  -25.9099  -34.9346   23.5002 C   0  0  0  0  0  0
  -16.5382  -29.9088   23.6341 C   0  0  0  0  0  0
  -16.7305  -28.6510   23.0357 C   0  0  0  0  0  0
  -26.4562  -31.6536   25.0694 C   0  0  0  0  0  0
  -25.3683  -31.3793   26.1346 C   0  0  0  0  0  0
  -27.0468  -30.2900   24.6445 C   0  0  0  0  0  0
  -27.6045  -32.4357   25.7501 C   0  0  0  0  0  0
  -27.5569  -37.1757   24.8465 C   0  0  0  0  0  0
  -21.4339  -29.3046   22.3524 N   0  0  0  0  0  0
  -26.4277  -37.3699   23.9408 N   0  0  0  0  0  0
  -24.7511  -30.9881   22.0822 N   0  0  0  0  0  0
  -23.4214  -28.8007   23.3021 O   0  0  0  0  0  0
  -28.2360  -25.8259   20.2744 O   0  0  0  0  0  0
  -26.5715  -34.8884   22.4603 O   0  0  0  0  0  0
  -23.5699  -32.1200   23.6774 O   0  0  0  0  0  0
  -29.3339  -19.7501   21.0607 C   0  0  0  0  0  0
  -29.0562  -21.0045   20.2324 C   0  0  0  0  0  0
  -29.4569  -18.4724   20.3626 C   0  0  0  0  0  0
  -27.7270  -17.9375   17.4740 C   0  0  0  0  0  0
  -30.4944  -23.1889   20.0636 C   0  0  0  0  0  0
  -29.5048  -16.7569   20.7647 C   0  0  0  0  0  0
  -29.1748  -18.2835   17.8458 C   0  0  0  0  0  0
  -28.0511  -24.1900   20.0625 C   0  0  0  0  0  0
  -29.0810  -22.7611   20.4811 C   0  0  1  0  0  0
  -29.0558  -20.4275   19.0149 N   0  0  0  0  0  0
  -29.2472  -19.0299   19.0892 N   0  0  0  0  0  0
  -31.4703  -13.0174   19.2113 H   0  0  0  0  0  0
  -30.5197  -11.8908   20.1277 H   0  0  0  0  0  0
  -29.9265  -11.7738   17.6829 H   0  0  0  0  0  0
  -29.5777  -13.4847   17.6692 H   0  0  0  0  0  0
  -28.0424  -11.2825   19.0729 H   0  0  0  0  0  0
  -27.4264  -12.3650   17.8491 H   0  0  0  0  0  0
  -27.5415  -14.2493   19.3442 H   0  0  0  0  0  0
  -28.8077  -12.4751   21.4848 H   0  0  0  0  0  0
  -28.2842  -14.1259   21.7175 H   0  0  0  0  0  0
  -25.2786   -9.5684   22.4754 H   0  0  0  0  0  0
  -24.0012   -7.4642   22.7476 H   0  0  0  0  0  0
  -21.0858   -8.8783   19.8953 H   0  0  0  0  0  0
  -22.3723  -10.9672   19.6157 H   0  0  0  0  0  0
  -21.2013   -7.6150   23.9717 H   0  0  0  0  0  0
  -21.1483   -6.0523   25.9077 H   0  0  0  0  0  0
  -22.0595   -2.7609   23.2845 H   0  0  0  0  0  0
  -22.4077  -11.9837   22.4840 H   0  0  0  0  0  0
  -21.1054  -13.1172   22.2662 H   0  0  0  0  0  0
  -24.6343  -15.8464   20.5378 H   0  0  0  0  0  0
  -26.2505  -15.6448   20.0915 H   0  0  0  0  0  0
  -26.7383  -32.5119   23.0874 H   0  0  0  0  0  0
  -25.0059  -33.9472   25.0172 H   0  0  0  0  0  0
  -22.7926  -31.2634   21.3440 H   0  0  0  0  0  0
  -23.3765  -35.9525   23.3278 H   0  0  0  0  0  0
  -24.3566  -36.8888   22.2069 H   0  0  0  0  0  0
  -23.7243  -37.6378   23.6731 H   0  0  0  0  0  0
  -26.2274  -31.3684   20.6199 H   0  0  0  0  0  0
  -26.9074  -30.6849   22.0552 H   0  0  0  0  0  0
  -28.1513  -28.5958   21.2778 H   0  0  0  0  0  0
  -25.8882  -25.7172   19.0157 H   0  0  0  0  0  0
  -24.0075  -27.2528   18.9570 H   0  0  0  0  0  0
  -23.8762  -30.5121   19.3855 H   0  0  0  0  0  0
  -22.8298  -29.1985   19.8268 H   0  0  0  0  0  0
  -25.1332  -36.1750   25.0788 H   0  0  0  0  0  0
  -21.0035  -28.3371   24.1300 H   0  0  0  0  0  0
  -20.5671  -26.2382   23.3645 H   0  0  0  0  0  0
  -21.6663  -26.7403   22.1212 H   0  0  0  0  0  0
  -19.6935  -25.6270   21.1277 H   0  0  0  0  0  0
  -19.6715  -27.3151   20.6713 H   0  0  0  0  0  0
  -17.4224  -26.6678   21.4022 H   0  0  0  0  0  0
  -18.0351  -26.0099   22.9026 H   0  0  0  0  0  0
  -19.7976  -30.7316   24.2193 H   0  0  0  0  0  0
  -17.5047  -31.6271   24.5167 H   0  0  0  0  0  0
  -15.5381  -30.2973   23.7699 H   0  0  0  0  0  0
  -15.8705  -28.0814   22.7098 H   0  0  0  0  0  0
  -24.5878  -30.7129   25.7656 H   0  0  0  0  0  0
  -24.8856  -32.2995   26.4642 H   0  0  0  0  0  0
  -25.7904  -30.9043   27.0212 H   0  0  0  0  0  0
  -26.3142  -29.6561   24.1438 H   0  0  0  0  0  0
  -27.3977  -29.7280   25.5114 H   0  0  0  0  0  0
  -27.9089  -30.4076   23.9878 H   0  0  0  0  0  0
  -27.2606  -33.3709   26.1936 H   0  0  0  0  0  0
  -28.3930  -32.6842   25.0384 H   0  0  0  0  0  0
  -28.0635  -31.8581   26.5537 H   0  0  0  0  0  0
  -28.2560  -38.0077   24.7510 H   0  0  0  0  0  0
  -28.1088  -36.2599   24.6290 H   0  0  0  0  0  0
  -27.2281  -37.1396   25.8867 H   0  0  0  0  0  0
  -20.9599  -29.8738   21.6651 H   0  0  0  0  0  0
  -26.0120  -38.2753   24.1425 H   0  0  0  0  0  0
  -29.4336  -19.7982   22.1363 H   0  0  0  0  0  0
  -27.6904  -17.3705   16.5436 H   0  0  0  0  0  0
  -27.1305  -18.8401   17.3365 H   0  0  0  0  0  0
  -27.2512  -17.3370   18.2494 H   0  0  0  0  0  0
  -31.2516  -22.5862   20.5658 H   0  0  0  0  0  0
  -30.6845  -24.2332   20.3123 H   0  0  0  0  0  0
  -30.6334  -23.0707   18.9887 H   0  0  0  0  0  0
  -28.4813  -16.4320   20.5835 H   0  0  0  0  0  0
  -29.5692  -16.7496   21.8521 H   0  0  0  0  0  0
  -29.6418  -18.8677   17.0517 H   0  0  0  0  0  0
  -29.7663  -17.3726   17.9464 H   0  0  0  0  0  0
  -27.0789  -23.9745   20.5054 H   0  0  0  0  0  0
  -27.8797  -24.0985   18.9898 H   0  0  0  0  0  0
  -29.0828  -22.8420   21.5685 H   0  0  0  0  0  0
  1 25  1  0  0  0
  1 30  2  0  0  0
  1 76  1  0  0  0
  2  3  1  0  0  0
  2 25  1  0  0  0
  2 82  1  0  0  0
  2 83  1  0  0  0
  3  4  1  0  0  0
  3 84  1  0  0  0
  3 85  1  0  0  0
  4  5  1  0  0  0
  4 86  1  0  0  0
  4 87  1  0  0  0
  5  6  1  0  0  0
  5 26  1  0  0  0
  5 88  1  0  0  0
  6 25  1  0  0  0
  6 89  1  0  0  0
  6 90  1  0  0  0
  7  8  2  0  0  0
  7 26  1  0  0  0
  7 29  1  0  0  0
  8  9  1  0  0  0
  8 22  1  0  0  0
  9 10  1  0  0  0
  9 27  2  0  0  0
 10 11  2  0  0  0
 10 15  1  0  0  0
 11 12  1  0  0  0
 11 91  1  0  0  0
 12 13  2  0  0  0
 12 92  1  0  0  0
 13 14  1  0  0  0
 13 31  1  0  0  0
 14 15  2  0  0  0
 14 93  1  0  0  0
 15 94  1  0  0  0
 16 17  2  0  0  0
 16 21  1  0  0  0
 16 31  1  0  0  0
 17 18  1  0  0  0
 17 95  1  0  0  0
 18 19  2  0  0  0
 18 96  1  0  0  0
 19 20  1  0  0  0
 19 24  1  0  0  0
 20 21  2  0  0  0
 20 97  1  0  0  0
 21 23  1  0  0  0
 22 28  1  0  0  0
 22 32  2  0  0  0
 26 27  1  0  0  0
 28 98  1  0  0  0
 28 99  1  0  0  0
 29100  1  0  0  0
 29101  1  0  0  0
 33 34  1  0  0  0
 33 66  1  0  0  0
 33 70  2  0  0  0
 34 36  1  0  0  0
 34 59  1  0  0  0
 34102  1  0  0  0
 35 44  2  0  0  0
 35 45  1  0  0  0
 35 68  1  0  0  0
 36 56  1  0  0  0
 36103  1  0  0  0
 37 39  1  0  0  0
 37 47  1  0  0  0
 37 66  1  0  0  0
 37104  1  0  0  0
 38 43  2  0  0  0
 38 46  1  0  0  0
 38 47  1  0  0  0
 39 64  1  0  0  0
 39 67  2  0  0  0
 40 52  1  0  0  0
 40 53  2  0  0  0
 40 58  1  0  0  0
 41105  1  0  0  0
 41106  1  0  0  0
 41107  1  0  0  0
 41 48  1  0  0  0
 42 43  1  0  0  0
 42 66  1  0  0  0
 42108  1  0  0  0
 42109  1  0  0  0
 43 44  1  0  0  0
 44110  1  0  0  0
 45 46  2  0  0  0
 45111  1  0  0  0
 46112  1  0  0  0
 47113  1  0  0  0
 47114  1  0  0  0
 48 56  1  0  0  0
 48 65  1  0  0  0
 48115  1  0  0  0
 49 50  1  0  0  0
 49 53  1  0  0  0
 49 64  1  0  0  0
 49116  1  0  0  0
 50 51  1  0  0  0
 50117  1  0  0  0
 50118  1  0  0  0
 51 52  1  0  0  0
 51119  1  0  0  0
 51120  1  0  0  0
 52121  1  0  0  0
 52122  1  0  0  0
 53 54  1  0  0  0
 54 55  2  0  0  0
 54123  1  0  0  0
 55 57  1  0  0  0
 55124  1  0  0  0
 56 69  2  0  0  0
 57 58  2  0  0  0
 57125  1  0  0  0
 58126  1  0  0  0
 59 60  1  0  0  0
 59 61  1  0  0  0
 59 62  1  0  0  0
 60127  1  0  0  0
 60128  1  0  0  0
 60129  1  0  0  0
 61130  1  0  0  0
 61131  1  0  0  0
 61132  1  0  0  0
 62133  1  0  0  0
 62134  1  0  0  0
 62135  1  0  0  0
 63 65  1  0  0  0
 63136  1  0  0  0
 63137  1  0  0  0
 63138  1  0  0  0
 64139  1  0  0  0
 65140  1  0  0  0
 68 78  1  0  0  0
 71 72  1  0  0  0
 71 73  2  0  0  0
 71141  1  0  0  0
 72 79  1  0  0  0
 72 80  2  0  0  0
 73 76  1  0  0  0
 73 81  1  0  0  0
 74 77  1  0  0  0
 74142  1  0  0  0
 74143  1  0  0  0
 74144  1  0  0  0
 75145  1  0  0  0
 75146  1  0  0  0
 75147  1  0  0  0
 75 79  1  0  0  0
 76148  1  0  0  0
 76149  1  0  0  0
 77 81  1  0  0  0
 77150  1  0  0  0
 77151  1  0  0  0
 78 79  1  0  0  0
 78152  1  0  0  0
 78153  1  0  0  0
 79154  1  0  0  0
 80 81  1  0  0  0
M  ISO  4   1 100  68 101  76 100  78 101
M  END
> <chiral flag>
0

> <version>
0

> <s_m_source_file>
/data/baiqing/PycharmProjects/Reinvent-master-3.2/result/LINK_invent/BTK/process_docking_weight1_custom_sum_contain_oxygen_bond_distance_aromatic_linkinvent_7_9_3/rearranged_h_0044.sdf

> <i_m_source_file_index>
68

> <r_mmod_Potential_Energy-OPLS-2005>
1277.38146972656

> <r_mmod_Stretch_Energy-OPLS-2005>
603.772338867188

> <r_mmod_Bend_Energy-OPLS-2005>
469.616577148438

> <r_mmod_Torsional_Energy-OPLS-2005>
185.893142700195

> <r_mmod_Improper_Torsional_Energy-OPLS-2005>
4.00975131988525

> <r_mmod_Van_der_Waal_Energy-OPLS-2005>
96.7323913574219

> <r_mmod_Electrostatic_Energy-OPLS-2005>
-336.055603027344

> <r_mmod_Solvation_Energy-OPLS-2005>
-213.477951049805

> <b_mmod_Minimization_Converged-OPLS-2005>
0

> <r_mmod_RMS_Derivative-OPLS-2005>
0.46359920501709

$$$$
68
                    3D
 Structure written by MMmdl.
160168  0  0  1  0            999 V2000
  -30.6579  -14.6448   20.4743 C   0  0  0  0  0  0
  -30.4197  -12.3891   19.4682 C   0  0  0  0  0  0
  -29.5034  -12.4936   18.2306 C   0  0  0  0  0  0
  -28.0293  -12.3272   18.6457 C   0  0  0  0  0  0
  -27.6438  -13.2241   19.8532 C   0  0  2  0  0  0
  -28.6865  -13.1333   20.9899 C   0  0  0  0  0  0
  -25.2511  -13.8186   20.5691 C   0  0  0  0  0  0
  -24.1793  -13.0434   20.9199 C   0  0  0  0  0  0
  -24.6374  -11.6913   20.8742 C   0  0  0  0  0  0
  -23.9051  -10.4290   21.0402 C   0  0  0  0  0  0
  -24.3605   -9.4211   21.9184 C   0  0  0  0  0  0
  -23.6284   -8.2244   22.0757 C   0  0  0  0  0  0
  -22.4271   -8.0275   21.3542 C   0  0  0  0  0  0
  -21.9902   -9.0242   20.4643 C   0  0  0  0  0  0
  -22.7224  -10.2126   20.3051 C   0  0  0  0  0  0
  -21.6850   -6.0733   22.5279 C   0  0  0  0  0  0
  -21.4018   -6.5640   23.8216 C   0  0  0  0  0  0
  -21.3664   -5.6795   24.9177 C   0  0  0  0  0  0
  -21.6042   -4.3053   24.7229 C   0  0  0  0  0  0
  -21.8813   -3.8142   23.4349 C   0  0  0  0  0  0
  -21.9190   -4.6959   22.3404 C   0  0  0  0  0  0
  -22.7817  -13.5219   21.1864 C   0  0  0  0  0  0
  -22.1655   -4.2145   21.0980 F   0  0  0  0  0  0
  -21.5629   -3.4538   25.7742 F   0  0  0  0  0  0
  -29.9991  -13.4453   20.4110 N   0  0  0  0  0  0
  -26.2934  -12.9381   20.3288 N   0  0  0  0  0  0
  -25.9302  -11.6529   20.5750 N   0  0  0  0  0  0
  -22.0473  -12.8201   22.0427 N   0  0  0  0  0  0
  -25.4195  -15.1909   20.4120 N   0  0  0  0  0  0
  -31.8420  -14.7337   20.1441 O   0  0  0  0  0  0
  -21.6634   -6.8872   21.4243 O   0  0  0  0  0  0
  -22.3500  -14.5527   20.6723 O   0  0  0  0  0  0
  -24.6208  -31.8609   23.2038 C   0  0  0  0  0  0
  -25.9065  -32.4790   23.8346 C   0  0  1  0  0  0
  -27.2255  -27.3330   20.0946 C   0  0  0  0  0  0
  -25.5890  -33.8594   24.2266 N   0  0  0  0  0  0
  -23.4136  -30.4831   21.5483 C   0  0  2  0  0  0
  -24.8593  -28.9397   20.1088 C   0  0  0  0  0  0
  -22.7449  -29.4607   22.4962 C   0  0  0  0  0  0
  -18.0285  -28.1353   22.8508 C   0  0  0  0  0  0
  -24.1485  -36.7316   23.2639 C   0  0  0  0  0  0
  -25.9514  -30.7932   21.3726 C   0  0  0  0  0  0
  -26.0257  -29.4194   20.7171 C   0  0  0  0  0  0
  -27.2060  -28.6214   20.7118 C   0  0  0  0  0  0
  -26.0267  -26.8920   19.4870 C   0  0  0  0  0  0
  -24.8607  -27.6802   19.4889 C   0  0  0  0  0  0
  -23.6250  -29.8165   20.1632 C   0  0  0  0  0  0
  -25.4116  -36.3095   24.0313 C   0  0  1  0  0  0
  -20.5881  -28.3663   23.1300 C   0  0  2  0  0  0
  -20.6776  -26.9390   22.5409 C   0  0  0  0  0  0
  -19.5741  -26.6367   21.5221 C   0  0  0  0  0  0
  -18.1923  -26.7900   22.1633 C   0  0  0  0  0  0
  -19.1537  -28.8823   23.2900 C   0  0  0  0  0  0
  -18.9467  -30.1426   23.8900 C   0  0  0  0  0  0
  -17.6467  -30.6570   24.0555 C   0  0  0  0  0  0
  -25.9046  -34.9460   23.5093 C   0  0  0  0  0  0
  -16.5355  -29.9073   23.6319 C   0  0  0  0  0  0
  -16.7275  -28.6481   23.0358 C   0  0  0  0  0  0
  -26.4462  -31.6593   25.0703 C   0  0  0  0  0  0
  -25.3683  -31.3732   26.1419 C   0  0  0  0  0  0
  -27.0320  -30.3024   24.6124 C   0  0  0  0  0  0
  -27.5987  -32.4360   25.7493 C   0  0  0  0  0  0
  -27.5581  -37.1816   24.8459 C   0  0  0  0  0  0
  -21.4167  -29.3028   22.3712 N   0  0  0  0  0  0
  -26.4296  -37.3787   23.9395 N   0  0  0  0  0  0
  -24.6813  -31.0618   22.0993 N   0  0  0  0  0  0
  -23.4189  -28.8141   23.3022 O   0  0  0  0  0  0
  -28.3640  -26.5181   20.1477 O   0  0  0  0  0  0
  -26.5638  -34.8920   22.4672 O   0  0  0  0  0  0
  -23.5379  -32.1404   23.7389 O   0  0  0  0  0  0
  -29.1756  -23.4574   20.9784 C   0  0  0  0  0  0
  -28.9368  -21.6578   18.9617 C   0  0  0  0  0  0
  -29.4423  -21.2267   20.2247 C   0  0  0  0  0  0
  -28.7231  -23.8986   19.7006 C   0  0  0  0  0  0
  -29.3624  -24.4279   22.1285 C   0  0  0  0  0  0
  -27.3810  -20.2852   17.4919 C   0  0  0  0  0  0
  -28.8255  -20.7290   17.7589 C   0  0  0  0  0  0
  -30.1839  -19.8551   20.4576 C   0  0  0  0  0  0
  -28.5608  -25.3943   19.2180 C   0  0  0  0  0  0
  -29.4520  -18.4420   20.5348 C   0  0  0  0  0  0
  -30.4511  -17.1949   20.5903 C   0  0  0  0  0  0
  -29.5143  -22.1490   21.2323 N   0  0  0  0  0  0
  -28.5791  -22.9584   18.7214 N   0  0  0  0  0  0
  -29.9225  -15.7840   20.6916 N   0  0  0  0  0  0
  -31.4667  -12.4816   19.1749 H   0  0  0  0  0  0
  -30.3251  -11.4070   19.9349 H   0  0  0  0  0  0
  -29.7743  -11.7350   17.4953 H   0  0  0  0  0  0
  -29.6444  -13.4594   17.7427 H   0  0  0  0  0  0
  -27.8826  -11.2787   18.9067 H   0  0  0  0  0  0
  -27.3701  -12.5227   17.7987 H   0  0  0  0  0  0
  -27.6480  -14.2498   19.4833 H   0  0  0  0  0  0
  -28.6932  -12.1362   21.4334 H   0  0  0  0  0  0
  -28.4356  -13.8236   21.7972 H   0  0  0  0  0  0
  -25.2748   -9.5698   22.4762 H   0  0  0  0  0  0
  -23.9995   -7.4642   22.7480 H   0  0  0  0  0  0
  -21.0836   -8.8750   19.8944 H   0  0  0  0  0  0
  -22.3673  -10.9661   19.6155 H   0  0  0  0  0  0
  -21.2012   -7.6151   23.9720 H   0  0  0  0  0  0
  -21.1495   -6.0525   25.9085 H   0  0  0  0  0  0
  -22.0586   -2.7604   23.2847 H   0  0  0  0  0  0
  -22.4098  -11.9861   22.4804 H   0  0  0  0  0  0
  -21.1086  -13.1213   22.2641 H   0  0  0  0  0  0
  -24.6484  -15.8414   20.5207 H   0  0  0  0  0  0
  -26.2685  -15.6362   20.0882 H   0  0  0  0  0  0
  -26.7125  -32.5469   23.1090 H   0  0  0  0  0  0
  -24.9985  -33.9745   25.0371 H   0  0  0  0  0  0
  -22.7023  -31.3010   21.4093 H   0  0  0  0  0  0
  -23.3736  -35.9659   23.3293 H   0  0  0  0  0  0
  -24.3564  -36.8967   22.2054 H   0  0  0  0  0  0
  -23.7248  -37.6510   23.6686 H   0  0  0  0  0  0
  -26.0687  -31.5552   20.6019 H   0  0  0  0  0  0
  -26.8370  -30.8519   21.9936 H   0  0  0  0  0  0
  -28.1004  -28.9818   21.2019 H   0  0  0  0  0  0
  -25.9473  -25.9153   19.0350 H   0  0  0  0  0  0
  -23.9610  -27.3026   19.0213 H   0  0  0  0  0  0
  -23.7322  -30.5919   19.4034 H   0  0  0  0  0  0
  -22.7460  -29.2405   19.8706 H   0  0  0  0  0  0
  -25.1302  -36.1942   25.0803 H   0  0  0  0  0  0
  -20.9983  -28.3235   24.1415 H   0  0  0  0  0  0
  -20.5707  -26.2264   23.3609 H   0  0  0  0  0  0
  -21.6639  -26.7442   22.1178 H   0  0  0  0  0  0
  -19.6901  -25.6289   21.1224 H   0  0  0  0  0  0
  -19.6653  -27.3195   20.6761 H   0  0  0  0  0  0
  -17.4200  -26.6667   21.4025 H   0  0  0  0  0  0
  -18.0302  -26.0021   22.9005 H   0  0  0  0  0  0
  -19.7948  -30.7238   24.2262 H   0  0  0  0  0  0
  -17.5032  -31.6253   24.5153 H   0  0  0  0  0  0
  -15.5355  -30.2981   23.7625 H   0  0  0  0  0  0
  -15.8678  -28.0800   22.7066 H   0  0  0  0  0  0
  -24.5891  -30.7037   25.7752 H   0  0  0  0  0  0
  -24.8823  -32.2904   26.4756 H   0  0  0  0  0  0
  -25.7995  -30.8984   27.0239 H   0  0  0  0  0  0
  -26.2900  -29.6779   24.1131 H   0  0  0  0  0  0
  -27.4031  -29.7256   25.4601 H   0  0  0  0  0  0
  -27.8751  -30.4327   23.9333 H   0  0  0  0  0  0
  -27.2555  -33.3686   26.1983 H   0  0  0  0  0  0
  -28.3839  -32.6889   25.0358 H   0  0  0  0  0  0
  -28.0590  -31.8544   26.5488 H   0  0  0  0  0  0
  -28.2584  -38.0129   24.7533 H   0  0  0  0  0  0
  -28.1095  -36.2658   24.6272 H   0  0  0  0  0  0
  -27.2288  -37.1445   25.8857 H   0  0  0  0  0  0
  -20.9323  -29.8793   21.6974 H   0  0  0  0  0  0
  -26.0173  -38.2857   24.1404 H   0  0  0  0  0  0
  -28.4042  -24.8648   22.4113 H   0  0  0  0  0  0
  -30.0351  -25.2362   21.8412 H   0  0  0  0  0  0
  -29.7826  -23.9370   23.0066 H   0  0  0  0  0  0
  -27.3256  -19.6404   16.6139 H   0  0  0  0  0  0
  -26.7339  -21.1435   17.3104 H   0  0  0  0  0  0
  -26.9736  -19.7322   18.3385 H   0  0  0  0  0  0
  -29.4573  -19.8509   17.8786 H   0  0  0  0  0  0
  -29.2108  -21.2475   16.8796 H   0  0  0  0  0  0
  -30.7626  -19.9657   21.3768 H   0  0  0  0  0  0
  -30.9433  -19.7956   19.6782 H   0  0  0  0  0  0
  -27.8665  -25.4242   18.3798 H   0  0  0  0  0  0
  -29.5140  -25.6188   18.7385 H   0  0  0  0  0  0
  -28.7985  -18.3320   19.6699 H   0  0  0  0  0  0
  -28.8008  -18.4303   21.4088 H   0  0  0  0  0  0
  -31.1320  -17.3376   21.4305 H   0  0  0  0  0  0
  -31.0818  -17.2434   19.7004 H   0  0  0  0  0  0
  -28.9413  -15.6637   20.8934 H   0  0  0  0  0  0
  1 25  1  0  0  0
  1 30  2  0  0  0
  1 84  1  0  0  0
  2  3  1  0  0  0
  2 25  1  0  0  0
  2 85  1  0  0  0
  2 86  1  0  0  0
  3  4  1  0  0  0
  3 87  1  0  0  0
  3 88  1  0  0  0
  4  5  1  0  0  0
  4 89  1  0  0  0
  4 90  1  0  0  0
  5  6  1  0  0  0
  5 26  1  0  0  0
  5 91  1  0  0  0
  6 25  1  0  0  0
  6 92  1  0  0  0
  6 93  1  0  0  0
  7  8  2  0  0  0
  7 26  1  0  0  0
  7 29  1  0  0  0
  8  9  1  0  0  0
  8 22  1  0  0  0
  9 10  1  0  0  0
  9 27  2  0  0  0
 10 11  2  0  0  0
 10 15  1  0  0  0
 11 12  1  0  0  0
 11 94  1  0  0  0
 12 13  2  0  0  0
 12 95  1  0  0  0
 13 14  1  0  0  0
 13 31  1  0  0  0
 14 15  2  0  0  0
 14 96  1  0  0  0
 15 97  1  0  0  0
 16 17  2  0  0  0
 16 21  1  0  0  0
 16 31  1  0  0  0
 17 18  1  0  0  0
 17 98  1  0  0  0
 18 19  2  0  0  0
 18 99  1  0  0  0
 19 20  1  0  0  0
 19 24  1  0  0  0
 20 21  2  0  0  0
 20100  1  0  0  0
 21 23  1  0  0  0
 22 28  1  0  0  0
 22 32  2  0  0  0
 26 27  1  0  0  0
 28101  1  0  0  0
 28102  1  0  0  0
 29103  1  0  0  0
 29104  1  0  0  0
 33 34  1  0  0  0
 33 66  1  0  0  0
 33 70  2  0  0  0
 34 36  1  0  0  0
 34 59  1  0  0  0
 34105  1  0  0  0
 35 44  2  0  0  0
 35 45  1  0  0  0
 35 68  1  0  0  0
 36 56  1  0  0  0
 36106  1  0  0  0
 37 39  1  0  0  0
 37 47  1  0  0  0
 37 66  1  0  0  0
 37107  1  0  0  0
 38 43  2  0  0  0
 38 46  1  0  0  0
 38 47  1  0  0  0
 39 64  1  0  0  0
 39 67  2  0  0  0
 40 52  1  0  0  0
 40 53  2  0  0  0
 40 58  1  0  0  0
 41108  1  0  0  0
 41109  1  0  0  0
 41110  1  0  0  0
 41 48  1  0  0  0
 42 43  1  0  0  0
 42 66  1  0  0  0
 42111  1  0  0  0
 42112  1  0  0  0
 43 44  1  0  0  0
 44113  1  0  0  0
 45 46  2  0  0  0
 45114  1  0  0  0
 46115  1  0  0  0
 47116  1  0  0  0
 47117  1  0  0  0
 48 56  1  0  0  0
 48 65  1  0  0  0
 48118  1  0  0  0
 49 50  1  0  0  0
 49 53  1  0  0  0
 49 64  1  0  0  0
 49119  1  0  0  0
 50 51  1  0  0  0
 50120  1  0  0  0
 50121  1  0  0  0
 51 52  1  0  0  0
 51122  1  0  0  0
 51123  1  0  0  0
 52124  1  0  0  0
 52125  1  0  0  0
 53 54  1  0  0  0
 54 55  2  0  0  0
 54126  1  0  0  0
 55 57  1  0  0  0
 55127  1  0  0  0
 56 69  2  0  0  0
 57 58  2  0  0  0
 57128  1  0  0  0
 58129  1  0  0  0
 59 60  1  0  0  0
 59 61  1  0  0  0
 59 62  1  0  0  0
 60130  1  0  0  0
 60131  1  0  0  0
 60132  1  0  0  0
 61133  1  0  0  0
 61134  1  0  0  0
 61135  1  0  0  0
 62136  1  0  0  0
 62137  1  0  0  0
 62138  1  0  0  0
 63 65  1  0  0  0
 63139  1  0  0  0
 63140  1  0  0  0
 63141  1  0  0  0
 64142  1  0  0  0
 65143  1  0  0  0
 68 79  1  0  0  0
 71 74  2  0  0  0
 71 75  1  0  0  0
 71 82  1  0  0  0
 72 73  1  0  0  0
 72 77  1  0  0  0
 72 83  2  0  0  0
 73 78  1  0  0  0
 73 82  2  0  0  0
 74 79  1  0  0  0
 74 83  1  0  0  0
 75144  1  0  0  0
 75145  1  0  0  0
 75146  1  0  0  0
 76 77  1  0  0  0
 76147  1  0  0  0
 76148  1  0  0  0
 76149  1  0  0  0
 77150  1  0  0  0
 77151  1  0  0  0
 78 80  1  0  0  0
 78152  1  0  0  0
 78153  1  0  0  0
 79154  1  0  0  0
 79155  1  0  0  0
 80 81  1  0  0  0
 80156  1  0  0  0
 80157  1  0  0  0
 81 84  1  0  0  0
 81158  1  0  0  0
 81159  1  0  0  0
 84160  1  0  0  0
M  ISO  4   1 100  68 101  79 101  84 100
M  END
> <chiral flag>
0

> <version>
0

> <s_m_source_file>
/data/baiqing/PycharmProjects/Reinvent-master-3.2/result/LINK_invent/BTK/process_docking_weight1_custom_sum_contain_oxygen_bond_distance_aromatic_linkinvent_7_9_3/rearranged_h_0044.sdf

> <i_m_source_file_index>
69

> <r_mmod_Potential_Energy-OPLS-2005>
106.009338378906

> <r_mmod_Stretch_Energy-OPLS-2005>
82.5255966186523

> <r_mmod_Bend_Energy-OPLS-2005>
157.775802612305

> <r_mmod_Torsional_Energy-OPLS-2005>
207.21923828125

> <r_mmod_Improper_Torsional_Energy-OPLS-2005>
7.23091554641724

> <r_mmod_Van_der_Waal_Energy-OPLS-2005>
143.105438232422

> <r_mmod_Electrostatic_Energy-OPLS-2005>
-322.692779541016

> <r_mmod_Solvation_Energy-OPLS-2005>
-217.600952148438

> <b_mmod_Minimization_Converged-OPLS-2005>
0

> <r_mmod_RMS_Derivative-OPLS-2005>
1.69037485122681

$$$$
69
                    3D
 Structure written by MMmdl.
159167  0  0  1  0            999 V2000
  -30.7342  -14.3838   20.6314 C   0  0  0  0  0  0
  -30.4065  -12.2542   19.4276 C   0  0  0  0  0  0
  -29.4871  -12.4734   18.2092 C   0  0  0  0  0  0
  -28.0056  -12.3540   18.6216 C   0  0  0  0  0  0
  -27.6604  -13.1988   19.8778 C   0  0  2  0  0  0
  -28.6939  -12.9493   20.9993 C   0  0  0  0  0  0
  -25.2549  -13.8161   20.5688 C   0  0  0  0  0  0
  -24.1781  -13.0463   20.9142 C   0  0  0  0  0  0
  -24.6297  -11.6901   20.8710 C   0  0  0  0  0  0
  -23.8976  -10.4278   21.0384 C   0  0  0  0  0  0
  -24.3529   -9.4208   21.9180 C   0  0  0  0  0  0
  -23.6225   -8.2239   22.0760 C   0  0  0  0  0  0
  -22.4231   -8.0231   21.3548 C   0  0  0  0  0  0
  -21.9823   -9.0204   20.4680 C   0  0  0  0  0  0
  -22.7123  -10.2096   20.3076 C   0  0  0  0  0  0
  -21.6836   -6.0670   22.5276 C   0  0  0  0  0  0
  -21.4004   -6.5603   23.8190 C   0  0  0  0  0  0
  -21.3680   -5.6782   24.9173 C   0  0  0  0  0  0
  -21.6042   -4.3032   24.7238 C   0  0  0  0  0  0
  -21.8806   -3.8102   23.4376 C   0  0  0  0  0  0
  -21.9171   -4.6897   22.3416 C   0  0  0  0  0  0
  -22.7799  -13.5273   21.1794 C   0  0  0  0  0  0
  -22.1636   -4.2062   21.0997 F   0  0  0  0  0  0
  -21.5642   -3.4541   25.7766 F   0  0  0  0  0  0
  -30.0386  -13.2299   20.4625 N   0  0  0  0  0  0
  -26.2984  -12.9321   20.3373 N   0  0  0  0  0  0
  -25.9238  -11.6489   20.5770 N   0  0  0  0  0  0
  -22.0433  -12.8354   22.0396 N   0  0  0  0  0  0
  -25.4414  -15.1872   20.4125 N   0  0  0  0  0  0
  -31.7952  -14.6259   20.0471 O   0  0  0  0  0  0
  -21.6635   -6.8803   21.4233 O   0  0  0  0  0  0
  -22.3520  -14.5575   20.6588 O   0  0  0  0  0  0
  -24.6134  -31.8719   23.2191 C   0  0  0  0  0  0
  -25.9063  -32.4845   23.8439 C   0  0  1  0  0  0
  -27.2224  -27.4526   20.0909 C   0  0  0  0  0  0
  -25.5980  -33.8641   24.2423 N   0  0  0  0  0  0
  -23.3949  -30.4989   21.5619 C   0  0  2  0  0  0
  -24.8355  -28.9803   20.1117 C   0  0  0  0  0  0
  -22.7398  -29.4672   22.5078 C   0  0  0  0  0  0
  -18.0258  -28.1390   22.8487 C   0  0  0  0  0  0
  -24.1498  -36.7271   23.2619 C   0  0  0  0  0  0
  -25.9219  -30.8440   21.3676 C   0  0  0  0  0  0
  -25.9976  -29.4826   20.7113 C   0  0  0  0  0  0
  -27.1902  -28.7251   20.7029 C   0  0  0  0  0  0
  -26.0384  -26.9714   19.4747 C   0  0  0  0  0  0
  -24.8528  -27.7237   19.4885 C   0  0  0  0  0  0
  -23.5935  -29.8396   20.1705 C   0  0  0  0  0  0
  -25.4117  -36.3103   24.0337 C   0  0  1  0  0  0
  -20.5839  -28.3652   23.1340 C   0  0  2  0  0  0
  -20.6789  -26.9411   22.5401 C   0  0  0  0  0  0
  -19.5762  -26.6428   21.5195 C   0  0  0  0  0  0
  -18.1933  -26.7954   22.1605 C   0  0  0  0  0  0
  -19.1494  -28.8852   23.2916 C   0  0  0  0  0  0
  -18.9431  -30.1476   23.8902 C   0  0  0  0  0  0
  -17.6425  -30.6593   24.0548 C   0  0  0  0  0  0
  -25.9033  -34.9468   23.5162 C   0  0  0  0  0  0
  -16.5335  -29.9060   23.6343 C   0  0  0  0  0  0
  -16.7249  -28.6487   23.0339 C   0  0  0  0  0  0
  -26.4529  -31.6573   25.0723 C   0  0  0  0  0  0
  -25.3830  -31.3590   26.1485 C   0  0  0  0  0  0
  -27.0348  -30.3054   24.6021 C   0  0  0  0  0  0
  -27.6164  -32.4239   25.7438 C   0  0  0  0  0  0
  -27.5585  -37.1795   24.8478 C   0  0  0  0  0  0
  -21.4132  -29.2999   22.3763 N   0  0  0  0  0  0
  -26.4320  -37.3782   23.9393 N   0  0  0  0  0  0
  -24.6611  -31.0821   22.1093 N   0  0  0  0  0  0
  -23.4207  -28.8245   23.3107 O   0  0  0  0  0  0
  -28.4014  -26.7288   20.1152 O   0  0  0  0  0  0
  -26.5516  -34.8918   22.4683 O   0  0  0  0  0  0
  -23.5345  -32.1484   23.7615 O   0  0  0  0  0  0
  -30.9382  -21.8942   20.8898 C   0  0  0  0  0  0
  -30.1006  -22.0418   19.7536 C   0  0  0  0  0  0
  -30.9864  -20.5454   21.1185 C   0  0  0  0  0  0
  -31.7531  -19.8168   22.1729 C   0  0  0  0  0  0
  -29.6905  -23.3077   19.0348 C   0  0  0  0  0  0
  -29.5922  -24.5541   19.9485 C   0  0  0  0  0  0
  -29.4884  -17.6719   21.1272 C   0  0  0  0  0  0
  -29.9072  -18.5109   19.8913 C   0  0  0  0  0  0
  -30.5714  -16.6738   21.6205 C   0  0  0  0  0  0
  -28.3629  -25.4026   19.5867 C   0  0  0  0  0  0
  -29.6598  -20.8623   19.3246 N   0  0  0  0  0  0
  -30.1817  -19.9321   20.1650 N   0  0  0  0  0  0
  -30.1578  -15.2813   21.4435 N   0  0  0  0  0  0
  -31.4585  -12.3176   19.1444 H   0  0  0  0  0  0
  -30.2717  -11.2466   19.8247 H   0  0  0  0  0  0
  -29.7104  -11.7308   17.4418 H   0  0  0  0  0  0
  -29.6770  -13.4497   17.7606 H   0  0  0  0  0  0
  -27.8124  -11.3027   18.8365 H   0  0  0  0  0  0
  -27.3524  -12.6134   17.7868 H   0  0  0  0  0  0
  -27.7133  -14.2480   19.5873 H   0  0  0  0  0  0
  -28.6457  -11.9105   21.3258 H   0  0  0  0  0  0
  -28.4471  -13.5282   21.8882 H   0  0  0  0  0  0
  -25.2659   -9.5684   22.4759 H   0  0  0  0  0  0
  -23.9903   -7.4651   22.7515 H   0  0  0  0  0  0
  -21.0719   -8.8722   19.9039 H   0  0  0  0  0  0
  -22.3539  -10.9622   19.6192 H   0  0  0  0  0  0
  -21.2015   -7.6110   23.9656 H   0  0  0  0  0  0
  -21.1528   -6.0540   25.9068 H   0  0  0  0  0  0
  -22.0568   -2.7561   23.2926 H   0  0  0  0  0  0
  -22.3989  -12.0040   22.4879 H   0  0  0  0  0  0
  -21.1077  -13.1476   22.2590 H   0  0  0  0  0  0
  -24.7084  -15.8716   20.5597 H   0  0  0  0  0  0
  -26.3217  -15.6065   20.1390 H   0  0  0  0  0  0
  -26.7132  -32.5596   23.1175 H   0  0  0  0  0  0
  -25.0344  -33.9839   25.0707 H   0  0  0  0  0  0
  -22.6835  -31.3149   21.4348 H   0  0  0  0  0  0
  -23.3791  -35.9578   23.3313 H   0  0  0  0  0  0
  -24.3594  -36.8839   22.2027 H   0  0  0  0  0  0
  -23.7246  -37.6490   23.6597 H   0  0  0  0  0  0
  -26.0354  -31.6152   20.6037 H   0  0  0  0  0  0
  -26.8108  -30.8943   21.9835 H   0  0  0  0  0  0
  -28.0876  -29.1114   21.1682 H   0  0  0  0  0  0
  -26.0019  -26.0217   18.9636 H   0  0  0  0  0  0
  -23.9632  -27.3341   19.0132 H   0  0  0  0  0  0
  -23.6940  -30.6195   19.4149 H   0  0  0  0  0  0
  -22.7189  -29.2516   19.8818 H   0  0  0  0  0  0
  -25.1303  -36.1972   25.0839 H   0  0  0  0  0  0
  -20.9901  -28.3211   24.1463 H   0  0  0  0  0  0
  -20.5745  -26.2248   23.3559 H   0  0  0  0  0  0
  -21.6665  -26.7528   22.1146 H   0  0  0  0  0  0
  -19.6925  -25.6340   21.1207 H   0  0  0  0  0  0
  -19.6715  -27.3245   20.6719 H   0  0  0  0  0  0
  -17.4218  -26.6688   21.3991 H   0  0  0  0  0  0
  -18.0330  -26.0093   22.8994 H   0  0  0  0  0  0
  -19.7904  -30.7295   24.2277 H   0  0  0  0  0  0
  -17.4963  -31.6254   24.5167 H   0  0  0  0  0  0
  -15.5322  -30.2930   23.7707 H   0  0  0  0  0  0
  -15.8651  -28.0798   22.7045 H   0  0  0  0  0  0
  -24.6038  -30.6924   25.7778 H   0  0  0  0  0  0
  -24.8973  -32.2701   26.5009 H   0  0  0  0  0  0
  -25.8225  -30.8702   27.0195 H   0  0  0  0  0  0
  -26.2834  -29.6777   24.1248 H   0  0  0  0  0  0
  -27.4355  -29.7328   25.4385 H   0  0  0  0  0  0
  -27.8560  -30.4417   23.8979 H   0  0  0  0  0  0
  -27.2896  -33.3559   26.2057 H   0  0  0  0  0  0
  -28.3934  -32.6769   25.0199 H   0  0  0  0  0  0
  -28.0890  -31.8334   26.5296 H   0  0  0  0  0  0
  -28.2642  -38.0055   24.7521 H   0  0  0  0  0  0
  -28.1064  -36.2606   24.6350 H   0  0  0  0  0  0
  -27.2296  -37.1471   25.8882 H   0  0  0  0  0  0
  -20.9330  -29.8676   21.6922 H   0  0  0  0  0  0
  -26.0219  -38.2873   24.1411 H   0  0  0  0  0  0
  -31.4379  -22.6724   21.4546 H   0  0  0  0  0  0
  -32.3439  -19.0099   21.7374 H   0  0  0  0  0  0
  -31.0912  -19.4169   22.9406 H   0  0  0  0  0  0
  -32.4398  -20.4987   22.6733 H   0  0  0  0  0  0
  -28.7250  -23.1469   18.5488 H   0  0  0  0  0  0
  -30.3812  -23.5199   18.2131 H   0  0  0  0  0  0
  -30.5168  -25.1303   19.8914 H   0  0  0  0  0  0
  -29.4887  -24.2462   20.9887 H   0  0  0  0  0  0
  -28.5801  -17.1152   20.8860 H   0  0  0  0  0  0
  -29.1890  -18.3394   21.9362 H   0  0  0  0  0  0
  -29.1014  -18.4575   19.1539 H   0  0  0  0  0  0
  -30.7770  -18.0758   19.3952 H   0  0  0  0  0  0
  -31.5229  -16.8617   21.1210 H   0  0  0  0  0  0
  -30.7691  -16.8214   22.6829 H   0  0  0  0  0  0
  -27.4932  -24.8594   19.9636 H   0  0  0  0  0  0
  -28.2703  -25.4822   18.5026 H   0  0  0  0  0  0
  -29.3321  -14.9778   21.9405 H   0  0  0  0  0  0
  1 25  1  0  0  0
  1 30  2  0  0  0
  1 83  1  0  0  0
  2  3  1  0  0  0
  2 25  1  0  0  0
  2 84  1  0  0  0
  2 85  1  0  0  0
  3  4  1  0  0  0
  3 86  1  0  0  0
  3 87  1  0  0  0
  4  5  1  0  0  0
  4 88  1  0  0  0
  4 89  1  0  0  0
  5  6  1  0  0  0
  5 26  1  0  0  0
  5 90  1  0  0  0
  6 25  1  0  0  0
  6 91  1  0  0  0
  6 92  1  0  0  0
  7  8  2  0  0  0
  7 26  1  0  0  0
  7 29  1  0  0  0
  8  9  1  0  0  0
  8 22  1  0  0  0
  9 10  1  0  0  0
  9 27  2  0  0  0
 10 11  2  0  0  0
 10 15  1  0  0  0
 11 12  1  0  0  0
 11 93  1  0  0  0
 12 13  2  0  0  0
 12 94  1  0  0  0
 13 14  1  0  0  0
 13 31  1  0  0  0
 14 15  2  0  0  0
 14 95  1  0  0  0
 15 96  1  0  0  0
 16 17  2  0  0  0
 16 21  1  0  0  0
 16 31  1  0  0  0
 17 18  1  0  0  0
 17 97  1  0  0  0
 18 19  2  0  0  0
 18 98  1  0  0  0
 19 20  1  0  0  0
 19 24  1  0  0  0
 20 21  2  0  0  0
 20 99  1  0  0  0
 21 23  1  0  0  0
 22 28  1  0  0  0
 22 32  2  0  0  0
 26 27  1  0  0  0
 28100  1  0  0  0
 28101  1  0  0  0
 29102  1  0  0  0
 29103  1  0  0  0
 33 34  1  0  0  0
 33 66  1  0  0  0
 33 70  2  0  0  0
 34 36  1  0  0  0
 34 59  1  0  0  0
 34104  1  0  0  0
 35 44  2  0  0  0
 35 45  1  0  0  0
 35 68  1  0  0  0
 36 56  1  0  0  0
 36105  1  0  0  0
 37 39  1  0  0  0
 37 47  1  0  0  0
 37 66  1  0  0  0
 37106  1  0  0  0
 38 43  2  0  0  0
 38 46  1  0  0  0
 38 47  1  0  0  0
 39 64  1  0  0  0
 39 67  2  0  0  0
 40 52  1  0  0  0
 40 53  2  0  0  0
 40 58  1  0  0  0
 41107  1  0  0  0
 41108  1  0  0  0
 41109  1  0  0  0
 41 48  1  0  0  0
 42 43  1  0  0  0
 42 66  1  0  0  0
 42110  1  0  0  0
 42111  1  0  0  0
 43 44  1  0  0  0
 44112  1  0  0  0
 45 46  2  0  0  0
 45113  1  0  0  0
 46114  1  0  0  0
 47115  1  0  0  0
 47116  1  0  0  0
 48 56  1  0  0  0
 48 65  1  0  0  0
 48117  1  0  0  0
 49 50  1  0  0  0
 49 53  1  0  0  0
 49 64  1  0  0  0
 49118  1  0  0  0
 50 51  1  0  0  0
 50119  1  0  0  0
 50120  1  0  0  0
 51 52  1  0  0  0
 51121  1  0  0  0
 51122  1  0  0  0
 52123  1  0  0  0
 52124  1  0  0  0
 53 54  1  0  0  0
 54 55  2  0  0  0
 54125  1  0  0  0
 55 57  1  0  0  0
 55126  1  0  0  0
 56 69  2  0  0  0
 57 58  2  0  0  0
 57127  1  0  0  0
 58128  1  0  0  0
 59 60  1  0  0  0
 59 61  1  0  0  0
 59 62  1  0  0  0
 60129  1  0  0  0
 60130  1  0  0  0
 60131  1  0  0  0
 61132  1  0  0  0
 61133  1  0  0  0
 61134  1  0  0  0
 62135  1  0  0  0
 62136  1  0  0  0
 62137  1  0  0  0
 63 65  1  0  0  0
 63138  1  0  0  0
 63139  1  0  0  0
 63140  1  0  0  0
 64141  1  0  0  0
 65142  1  0  0  0
 68 80  1  0  0  0
 71 72  1  0  0  0
 71 73  2  0  0  0
 71143  1  0  0  0
 72 75  1  0  0  0
 72 81  2  0  0  0
 73 74  1  0  0  0
 73 82  1  0  0  0
 74144  1  0  0  0
 74145  1  0  0  0
 74146  1  0  0  0
 75 76  1  0  0  0
 75147  1  0  0  0
 75148  1  0  0  0
 76 80  1  0  0  0
 76149  1  0  0  0
 76150  1  0  0  0
 77 78  1  0  0  0
 77 79  1  0  0  0
 77151  1  0  0  0
 77152  1  0  0  0
 78 82  1  0  0  0
 78153  1  0  0  0
 78154  1  0  0  0
 79 83  1  0  0  0
 79155  1  0  0  0
 79156  1  0  0  0
 80157  1  0  0  0
 80158  1  0  0  0
 81 82  1  0  0  0
 83159  1  0  0  0
M  ISO  4   1 100  68 101  80 101  83 100
M  END
> <chiral flag>
0

> <version>
0

> <s_m_source_file>
/data/baiqing/PycharmProjects/Reinvent-master-3.2/result/LINK_invent/BTK/process_docking_weight1_custom_sum_contain_oxygen_bond_distance_aromatic_linkinvent_7_9_3/rearranged_h_0044.sdf

> <i_m_source_file_index>
70

> <r_mmod_Potential_Energy-OPLS-2005>
-133.60612487793

> <r_mmod_Stretch_Energy-OPLS-2005>
34.0272827148438

> <r_mmod_Bend_Energy-OPLS-2005>
95.2526931762695

> <r_mmod_Torsional_Energy-OPLS-2005>
232.875122070312

> <r_mmod_Improper_Torsional_Energy-OPLS-2005>
2.0961127281189

> <r_mmod_Van_der_Waal_Energy-OPLS-2005>
142.205505371094

> <r_mmod_Electrostatic_Energy-OPLS-2005>
-426.046569824219

> <r_mmod_Solvation_Energy-OPLS-2005>
-223.750289916992

> <b_mmod_Minimization_Converged-OPLS-2005>
0

> <r_mmod_RMS_Derivative-OPLS-2005>
5.38751935958862

$$$$
70
                    3D
 Structure written by MMmdl.
163171  0  0  1  0            999 V2000
  -30.6972  -14.4820   20.5909 C   0  0  0  0  0  0
  -30.4278  -12.3278   19.4082 C   0  0  0  0  0  0
  -29.4906  -12.5073   18.1971 C   0  0  0  0  0  0
  -28.0130  -12.3642   18.6152 C   0  0  0  0  0  0
  -27.6596  -13.2066   19.8700 C   0  0  2  0  0  0
  -28.7024  -12.9890   20.9871 C   0  0  0  0  0  0
  -25.2594  -13.8169   20.5671 C   0  0  0  0  0  0
  -24.1843  -13.0443   20.9176 C   0  0  0  0  0  0
  -24.6396  -11.6906   20.8742 C   0  0  0  0  0  0
  -23.9072  -10.4297   21.0411 C   0  0  0  0  0  0
  -24.3626   -9.4215   21.9188 C   0  0  0  0  0  0
  -23.6297   -8.2250   22.0754 C   0  0  0  0  0  0
  -22.4274   -8.0295   21.3549 C   0  0  0  0  0  0
  -21.9923   -9.0264   20.4641 C   0  0  0  0  0  0
  -22.7253  -10.2143   20.3051 C   0  0  0  0  0  0
  -21.6856   -6.0748   22.5287 C   0  0  0  0  0  0
  -21.4007   -6.5646   23.8222 C   0  0  0  0  0  0
  -21.3652   -5.6797   24.9176 C   0  0  0  0  0  0
  -21.6043   -4.3061   24.7230 C   0  0  0  0  0  0
  -21.8822   -3.8156   23.4349 C   0  0  0  0  0  0
  -21.9192   -4.6973   22.3403 C   0  0  0  0  0  0
  -22.7872  -13.5248   21.1843 C   0  0  0  0  0  0
  -22.1666   -4.2163   21.0983 F   0  0  0  0  0  0
  -21.5626   -3.4540   25.7740 F   0  0  0  0  0  0
  -30.0272  -13.3088   20.4278 N   0  0  0  0  0  0
  -26.3012  -12.9323   20.3342 N   0  0  0  0  0  0
  -25.9325  -11.6487   20.5758 N   0  0  0  0  0  0
  -22.0503  -12.8224   22.0385 N   0  0  0  0  0  0
  -25.4326  -15.1877   20.4067 N   0  0  0  0  0  0
  -31.8272  -14.6786   20.1358 O   0  0  0  0  0  0
  -21.6638   -6.8894   21.4247 O   0  0  0  0  0  0
  -22.3568  -14.5557   20.6707 O   0  0  0  0  0  0
  -24.6176  -31.8680   23.2079 C   0  0  0  0  0  0
  -25.9081  -32.4805   23.8381 C   0  0  1  0  0  0
  -27.2357  -27.4047   20.0910 C   0  0  0  0  0  0
  -25.5926  -33.8601   24.2309 N   0  0  0  0  0  0
  -23.4054  -30.4873   21.5506 C   0  0  2  0  0  0
  -24.8492  -28.9405   20.1249 C   0  0  0  0  0  0
  -22.7428  -29.4642   22.5015 C   0  0  0  0  0  0
  -18.0271  -28.1353   22.8488 C   0  0  0  0  0  0
  -24.1479  -36.7282   23.2638 C   0  0  0  0  0  0
  -25.9357  -30.8161   21.3700 C   0  0  0  0  0  0
  -26.0111  -29.4459   20.7216 C   0  0  0  0  0  0
  -27.2048  -28.6837   20.7017 C   0  0  0  0  0  0
  -26.0566  -26.9254   19.4828 C   0  0  0  0  0  0
  -24.8662  -27.6790   19.5065 C   0  0  0  0  0  0
  -23.6155  -29.8145   20.1681 C   0  0  0  0  0  0
  -25.4104  -36.3083   24.0321 C   0  0  1  0  0  0
  -20.5862  -28.3640   23.1308 C   0  0  2  0  0  0
  -20.6759  -26.9379   22.5396 C   0  0  0  0  0  0
  -19.5734  -26.6370   21.5190 C   0  0  0  0  0  0
  -18.1910  -26.7900   22.1609 C   0  0  0  0  0  0
  -19.1525  -28.8816   23.2888 C   0  0  0  0  0  0
  -18.9471  -30.1430   23.8889 C   0  0  0  0  0  0
  -17.6477  -30.6576   24.0544 C   0  0  0  0  0  0
  -25.9048  -34.9464   23.5114 C   0  0  0  0  0  0
  -16.5357  -29.9065   23.6339 C   0  0  0  0  0  0
  -16.7264  -28.6476   23.0359 C   0  0  0  0  0  0
  -26.4510  -31.6593   25.0717 C   0  0  0  0  0  0
  -25.3782  -31.3674   26.1462 C   0  0  0  0  0  0
  -27.0374  -30.3037   24.6104 C   0  0  0  0  0  0
  -27.6049  -32.4354   25.7514 C   0  0  0  0  0  0
  -27.5566  -37.1798   24.8471 C   0  0  0  0  0  0
  -21.4153  -29.3010   22.3734 N   0  0  0  0  0  0
  -26.4285  -37.3775   23.9414 N   0  0  0  0  0  0
  -24.6706  -31.0740   22.0997 N   0  0  0  0  0  0
  -23.4186  -28.8205   23.3083 O   0  0  0  0  0  0
  -28.4267  -26.7085   19.9923 O   0  0  0  0  0  0
  -26.5600  -34.8932   22.4673 O   0  0  0  0  0  0
  -23.5372  -32.1457   23.7455 O   0  0  0  0  0  0
  -29.4037  -20.8155   19.4111 C   0  0  0  0  0  0
  -28.8767  -20.0953   20.5188 C   0  0  0  0  0  0
  -27.8326  -22.0505   21.2365 C   0  0  0  0  0  0
  -28.3244  -22.7619   20.1064 C   0  0  0  0  0  0
  -30.2593  -20.1513   18.3524 C   0  0  0  0  0  0
  -25.4397  -22.1454   22.0350 C   0  0  0  0  0  0
  -26.8721  -22.6519   22.2477 C   0  0  0  0  0  0
  -28.9983  -18.5674   20.7098 C   0  0  0  0  0  0
  -27.8718  -24.1936   19.7430 C   0  0  0  0  0  0
  -30.4285  -17.9984   20.8919 C   0  0  0  0  0  0
  -30.5624  -16.7137   21.7616 C   0  0  0  0  0  0
  -28.5529  -25.3633   20.5149 C   0  0  0  0  0  0
  -29.1454  -22.1386   19.2181 N   0  0  0  0  0  0
  -28.1271  -20.7397   21.4458 N   0  0  0  0  0  0
  -30.0104  -15.4620   21.2129 N   0  0  0  0  0  0
  -31.4668  -12.4493   19.0979 H   0  0  0  0  0  0
  -30.3530  -11.3158   19.8089 H   0  0  0  0  0  0
  -29.7305  -11.7769   17.4234 H   0  0  0  0  0  0
  -29.6516  -13.4895   17.7504 H   0  0  0  0  0  0
  -27.8262  -11.3083   18.8133 H   0  0  0  0  0  0
  -27.3606  -12.6356   17.7846 H   0  0  0  0  0  0
  -27.7037  -14.2544   19.5714 H   0  0  0  0  0  0
  -28.6863  -11.9522   21.3256 H   0  0  0  0  0  0
  -28.4570  -13.5835   21.8685 H   0  0  0  0  0  0
  -25.2769   -9.5687   22.4764 H   0  0  0  0  0  0
  -24.0007   -7.4641   22.7475 H   0  0  0  0  0  0
  -21.0863   -8.8786   19.8944 H   0  0  0  0  0  0
  -22.3723  -10.9680   19.6158 H   0  0  0  0  0  0
  -21.1998   -7.6155   23.9728 H   0  0  0  0  0  0
  -21.1464   -6.0522   25.9083 H   0  0  0  0  0  0
  -22.0605   -2.7621   23.2844 H   0  0  0  0  0  0
  -22.4111  -11.9873   22.4745 H   0  0  0  0  0  0
  -21.1118  -13.1249   22.2579 H   0  0  0  0  0  0
  -24.6676  -15.8444   20.5126 H   0  0  0  0  0  0
  -26.2859  -15.6217   20.0783 H   0  0  0  0  0  0
  -26.7139  -32.5497   23.1129 H   0  0  0  0  0  0
  -25.0124  -33.9773   25.0481 H   0  0  0  0  0  0
  -22.6927  -31.3035   21.4093 H   0  0  0  0  0  0
  -23.3744  -35.9615   23.3323 H   0  0  0  0  0  0
  -24.3557  -36.8884   22.2052 H   0  0  0  0  0  0
  -23.7246  -37.6484   23.6661 H   0  0  0  0  0  0
  -26.0583  -31.5826   20.6046 H   0  0  0  0  0  0
  -26.8168  -30.8626   21.9969 H   0  0  0  0  0  0
  -28.1089  -29.0781   21.1473 H   0  0  0  0  0  0
  -26.0540  -25.9940   18.9404 H   0  0  0  0  0  0
  -23.9755  -27.2957   19.0272 H   0  0  0  0  0  0
  -23.7334  -30.5866   19.4075 H   0  0  0  0  0  0
  -22.7368  -29.2396   19.8707 H   0  0  0  0  0  0
  -25.1291  -36.1920   25.0806 H   0  0  0  0  0  0
  -20.9924  -28.3206   24.1433 H   0  0  0  0  0  0
  -20.5652  -26.2266   23.3599 H   0  0  0  0  0  0
  -21.6639  -26.7438   22.1200 H   0  0  0  0  0  0
  -19.6909  -25.6277   21.1230 H   0  0  0  0  0  0
  -19.6658  -27.3183   20.6723 H   0  0  0  0  0  0
  -17.4186  -26.6659   21.3997 H   0  0  0  0  0  0
  -18.0295  -26.0013   22.8985 H   0  0  0  0  0  0
  -19.7968  -30.7227   24.2239 H   0  0  0  0  0  0
  -17.5054  -31.6258   24.5153 H   0  0  0  0  0  0
  -15.5363  -30.2966   23.7683 H   0  0  0  0  0  0
  -15.8656  -28.0803   22.7073 H   0  0  0  0  0  0
  -24.5948  -30.7031   25.7792 H   0  0  0  0  0  0
  -24.8990  -32.2821   26.4966 H   0  0  0  0  0  0
  -25.8154  -30.8811   27.0192 H   0  0  0  0  0  0
  -26.2915  -29.6737   24.1230 H   0  0  0  0  0  0
  -27.4223  -29.7335   25.4569 H   0  0  0  0  0  0
  -27.8722  -30.4355   23.9205 H   0  0  0  0  0  0
  -27.2614  -33.3654   26.2073 H   0  0  0  0  0  0
  -28.3882  -32.6919   25.0363 H   0  0  0  0  0  0
  -28.0685  -31.8489   26.5462 H   0  0  0  0  0  0
  -28.2583  -38.0097   24.7520 H   0  0  0  0  0  0
  -28.1062  -36.2626   24.6305 H   0  0  0  0  0  0
  -27.2276  -37.1439   25.8871 H   0  0  0  0  0  0
  -20.9333  -29.8757   21.6953 H   0  0  0  0  0  0
  -26.0156  -38.2834   24.1443 H   0  0  0  0  0  0
  -29.8258  -19.2025   18.0370 H   0  0  0  0  0  0
  -31.2574  -19.9619   18.7475 H   0  0  0  0  0  0
  -30.3612  -20.7810   17.4683 H   0  0  0  0  0  0
  -24.7471  -22.6268   22.7247 H   0  0  0  0  0  0
  -25.3795  -21.0689   22.1973 H   0  0  0  0  0  0
  -25.0972  -22.3461   21.0195 H   0  0  0  0  0  0
  -26.8880  -23.7392   22.2115 H   0  0  0  0  0  0
  -27.2135  -22.3935   23.2508 H   0  0  0  0  0  0
  -28.5086  -18.0681   19.8737 H   0  0  0  0  0  0
  -28.4093  -18.2985   21.5883 H   0  0  0  0  0  0
  -26.7932  -24.2271   19.8884 H   0  0  0  0  0  0
  -28.0332  -24.3408   18.6742 H   0  0  0  0  0  0
  -31.0203  -18.7668   21.3894 H   0  0  0  0  0  0
  -30.9021  -17.8512   19.9215 H   0  0  0  0  0  0
  -30.0803  -16.8857   22.7252 H   0  0  0  0  0  0
  -31.6173  -16.5583   21.9966 H   0  0  0  0  0  0
  -29.6248  -25.1643   20.5004 H   0  0  0  0  0  0
  -28.2755  -25.3619   21.5672 H   0  0  0  0  0  0
  -29.0652  -15.2281   21.4815 H   0  0  0  0  0  0
  1 25  1  0  0  0
  1 30  2  0  0  0
  1 85  1  0  0  0
  2  3  1  0  0  0
  2 25  1  0  0  0
  2 86  1  0  0  0
  2 87  1  0  0  0
  3  4  1  0  0  0
  3 88  1  0  0  0
  3 89  1  0  0  0
  4  5  1  0  0  0
  4 90  1  0  0  0
  4 91  1  0  0  0
  5  6  1  0  0  0
  5 26  1  0  0  0
  5 92  1  0  0  0
  6 25  1  0  0  0
  6 93  1  0  0  0
  6 94  1  0  0  0
  7  8  2  0  0  0
  7 26  1  0  0  0
  7 29  1  0  0  0
  8  9  1  0  0  0
  8 22  1  0  0  0
  9 10  1  0  0  0
  9 27  2  0  0  0
 10 11  2  0  0  0
 10 15  1  0  0  0
 11 12  1  0  0  0
 11 95  1  0  0  0
 12 13  2  0  0  0
 12 96  1  0  0  0
 13 14  1  0  0  0
 13 31  1  0  0  0
 14 15  2  0  0  0
 14 97  1  0  0  0
 15 98  1  0  0  0
 16 17  2  0  0  0
 16 21  1  0  0  0
 16 31  1  0  0  0
 17 18  1  0  0  0
 17 99  1  0  0  0
 18 19  2  0  0  0
 18100  1  0  0  0
 19 20  1  0  0  0
 19 24  1  0  0  0
 20 21  2  0  0  0
 20101  1  0  0  0
 21 23  1  0  0  0
 22 28  1  0  0  0
 22 32  2  0  0  0
 26 27  1  0  0  0
 28102  1  0  0  0
 28103  1  0  0  0
 29104  1  0  0  0
 29105  1  0  0  0
 33 34  1  0  0  0
 33 66  1  0  0  0
 33 70  2  0  0  0
 34 36  1  0  0  0
 34 59  1  0  0  0
 34106  1  0  0  0
 35 44  2  0  0  0
 35 45  1  0  0  0
 35 68  1  0  0  0
 36 56  1  0  0  0
 36107  1  0  0  0
 37 39  1  0  0  0
 37 47  1  0  0  0
 37 66  1  0  0  0
 37108  1  0  0  0
 38 43  2  0  0  0
 38 46  1  0  0  0
 38 47  1  0  0  0
 39 64  1  0  0  0
 39 67  2  0  0  0
 40 52  1  0  0  0
 40 53  2  0  0  0
 40 58  1  0  0  0
 41109  1  0  0  0
 41110  1  0  0  0
 41111  1  0  0  0
 41 48  1  0  0  0
 42 43  1  0  0  0
 42 66  1  0  0  0
 42112  1  0  0  0
 42113  1  0  0  0
 43 44  1  0  0  0
 44114  1  0  0  0
 45 46  2  0  0  0
 45115  1  0  0  0
 46116  1  0  0  0
 47117  1  0  0  0
 47118  1  0  0  0
 48 56  1  0  0  0
 48 65  1  0  0  0
 48119  1  0  0  0
 49 50  1  0  0  0
 49 53  1  0  0  0
 49 64  1  0  0  0
 49120  1  0  0  0
 50 51  1  0  0  0
 50121  1  0  0  0
 50122  1  0  0  0
 51 52  1  0  0  0
 51123  1  0  0  0
 51124  1  0  0  0
 52125  1  0  0  0
 52126  1  0  0  0
 53 54  1  0  0  0
 54 55  2  0  0  0
 54127  1  0  0  0
 55 57  1  0  0  0
 55128  1  0  0  0
 56 69  2  0  0  0
 57 58  2  0  0  0
 57129  1  0  0  0
 58130  1  0  0  0
 59 60  1  0  0  0
 59 61  1  0  0  0
 59 62  1  0  0  0
 60131  1  0  0  0
 60132  1  0  0  0
 60133  1  0  0  0
 61134  1  0  0  0
 61135  1  0  0  0
 61136  1  0  0  0
 62137  1  0  0  0
 62138  1  0  0  0
 62139  1  0  0  0
 63 65  1  0  0  0
 63140  1  0  0  0
 63141  1  0  0  0
 63142  1  0  0  0
 64143  1  0  0  0
 65144  1  0  0  0
 68 82  1  0  0  0
 71 72  2  0  0  0
 71 75  1  0  0  0
 71 83  1  0  0  0
 72 78  1  0  0  0
 72 84  1  0  0  0
 73 74  1  0  0  0
 73 77  1  0  0  0
 73 84  2  0  0  0
 74 79  1  0  0  0
 74 83  2  0  0  0
 75145  1  0  0  0
 75146  1  0  0  0
 75147  1  0  0  0
 76 77  1  0  0  0
 76148  1  0  0  0
 76149  1  0  0  0
 76150  1  0  0  0
 77151  1  0  0  0
 77152  1  0  0  0
 78 80  1  0  0  0
 78153  1  0  0  0
 78154  1  0  0  0
 79 82  1  0  0  0
 79155  1  0  0  0
 79156  1  0  0  0
 80 81  1  0  0  0
 80157  1  0  0  0
 80158  1  0  0  0
 81 85  1  0  0  0
 81159  1  0  0  0
 81160  1  0  0  0
 82161  1  0  0  0
 82162  1  0  0  0
 85163  1  0  0  0
M  ISO  4   1 100  68 101  82 101  85 100
M  END
> <chiral flag>
0

> <version>
0

> <s_m_source_file>
/data/baiqing/PycharmProjects/Reinvent-master-3.2/result/LINK_invent/BTK/process_docking_weight1_custom_sum_contain_oxygen_bond_distance_aromatic_linkinvent_7_9_3/rearranged_h_0044.sdf

> <i_m_source_file_index>
71

> <r_mmod_Potential_Energy-OPLS-2005>
-43.1203079223633

> <r_mmod_Stretch_Energy-OPLS-2005>
44.6672630310059

> <r_mmod_Bend_Energy-OPLS-2005>
118.971343994141

> <r_mmod_Torsional_Energy-OPLS-2005>
210.012908935547

> <r_mmod_Improper_Torsional_Energy-OPLS-2005>
3.6562979221344

> <r_mmod_Van_der_Waal_Energy-OPLS-2005>
147.456802368164

> <r_mmod_Electrostatic_Energy-OPLS-2005>
-362.893981933594

> <r_mmod_Solvation_Energy-OPLS-2005>
-219.181076049805

> <b_mmod_Minimization_Converged-OPLS-2005>
0

> <r_mmod_RMS_Derivative-OPLS-2005>
2.30464339256287

$$$$
71
                    3D
 Structure written by MMmdl.
175184  0  0  1  0            999 V2000
  -30.6319  -14.6014   20.4888 C   0  0  0  0  0  0
  -30.4355  -12.3695   19.4288 C   0  0  0  0  0  0
  -29.4987  -12.4910   18.2073 C   0  0  0  0  0  0
  -28.0210  -12.3398   18.6251 C   0  0  0  0  0  0
  -27.6508  -13.2110   19.8545 C   0  0  2  0  0  0
  -28.6999  -13.0576   20.9774 C   0  0  0  0  0  0
  -25.2570  -13.8161   20.5680 C   0  0  0  0  0  0
  -24.1833  -13.0433   20.9189 C   0  0  0  0  0  0
  -24.6397  -11.6903   20.8743 C   0  0  0  0  0  0
  -23.9064  -10.4291   21.0405 C   0  0  0  0  0  0
  -24.3610   -9.4205   21.9188 C   0  0  0  0  0  0
  -23.6285   -8.2246   22.0756 C   0  0  0  0  0  0
  -22.4271   -8.0279   21.3546 C   0  0  0  0  0  0
  -21.9909   -9.0252   20.4645 C   0  0  0  0  0  0
  -22.7237  -10.2130   20.3057 C   0  0  0  0  0  0
  -21.6854   -6.0739   22.5273 C   0  0  0  0  0  0
  -21.4011   -6.5641   23.8206 C   0  0  0  0  0  0
  -21.3655   -5.6795   24.9166 C   0  0  0  0  0  0
  -21.6045   -4.3059   24.7218 C   0  0  0  0  0  0
  -21.8823   -3.8150   23.4340 C   0  0  0  0  0  0
  -21.9190   -4.6966   22.3396 C   0  0  0  0  0  0
  -22.7857  -13.5233   21.1840 C   0  0  0  0  0  0
  -22.1663   -4.2155   21.0975 F   0  0  0  0  0  0
  -21.5625   -3.4543   25.7734 F   0  0  0  0  0  0
  -30.0114  -13.3893   20.4019 N   0  0  0  0  0  0
  -26.2986  -12.9330   20.3295 N   0  0  0  0  0  0
  -25.9322  -11.6490   20.5752 N   0  0  0  0  0  0
  -22.0494  -12.8221   22.0388 N   0  0  0  0  0  0
  -25.4282  -15.1883   20.4096 N   0  0  0  0  0  0
  -31.8135  -14.7598   20.1729 O   0  0  0  0  0  0
  -21.6635   -6.8878   21.4236 O   0  0  0  0  0  0
  -22.3547  -14.5534   20.6686 O   0  0  0  0  0  0
  -24.6222  -31.8605   23.2035 C   0  0  0  0  0  0
  -25.9077  -32.4785   23.8354 C   0  0  1  0  0  0
  -27.2282  -27.3449   20.1018 C   0  0  0  0  0  0
  -25.5895  -33.8590   24.2260 N   0  0  0  0  0  0
  -23.4136  -30.4822   21.5477 C   0  0  2  0  0  0
  -24.8591  -28.9343   20.1158 C   0  0  0  0  0  0
  -22.7436  -29.4614   22.4968 C   0  0  0  0  0  0
  -18.0261  -28.1375   22.8474 C   0  0  0  0  0  0
  -24.1483  -36.7285   23.2633 C   0  0  0  0  0  0
  -25.9516  -30.7978   21.3714 C   0  0  0  0  0  0
  -26.0257  -29.4263   20.7129 C   0  0  0  0  0  0
  -27.2110  -28.6404   20.6966 C   0  0  0  0  0  0
  -26.0348  -26.8856   19.5041 C   0  0  0  0  0  0
  -24.8634  -27.6694   19.5064 C   0  0  0  0  0  0
  -23.6252  -29.8107   20.1650 C   0  0  0  0  0  0
  -25.4114  -36.3084   24.0323 C   0  0  1  0  0  0
  -20.5861  -28.3659   23.1304 C   0  0  2  0  0  0
  -20.6758  -26.9391   22.5421 C   0  0  0  0  0  0
  -19.5748  -26.6377   21.5208 C   0  0  0  0  0  0
  -18.1911  -26.7910   22.1613 C   0  0  0  0  0  0
  -19.1518  -28.8826   23.2878 C   0  0  0  0  0  0
  -18.9450  -30.1420   23.8910 C   0  0  0  0  0  0
  -17.6463  -30.6586   24.0548 C   0  0  0  0  0  0
  -25.9060  -34.9456   23.5103 C   0  0  0  0  0  0
  -16.5346  -29.9085   23.6341 C   0  0  0  0  0  0
  -16.7254  -28.6496   23.0369 C   0  0  0  0  0  0
  -26.4481  -31.6609   25.0731 C   0  0  0  0  0  0
  -25.3697  -31.3716   26.1440 C   0  0  0  0  0  0
  -27.0326  -30.3042   24.6175 C   0  0  0  0  0  0
  -27.6052  -32.4344   25.7490 C   0  0  0  0  0  0
  -27.5589  -37.1773   24.8452 C   0  0  0  0  0  0
  -21.4160  -29.3028   22.3707 N   0  0  0  0  0  0
  -26.4286  -37.3788   23.9430 N   0  0  0  0  0  0
  -24.6818  -31.0611   22.0990 N   0  0  0  0  0  0
  -23.4156  -28.8146   23.3039 O   0  0  0  0  0  0
  -28.3947  -26.5782   20.1232 O   0  0  0  0  0  0
  -26.5632  -34.8910   22.4671 O   0  0  0  0  0  0
  -23.5391  -32.1418   23.7362 O   0  0  0  0  0  0
  -28.8926  -21.7698   19.7208 C   0  0  0  0  0  0
  -28.7936  -20.4139   20.2147 C   0  0  0  0  0  0
  -28.3730  -22.5993   20.7036 C   0  0  0  0  0  0
  -26.7048  -19.8776   25.9861 C   0  0  0  0  0  0
  -25.3317  -20.1959   25.3595 C   0  0  0  0  0  0
  -27.7812  -19.4015   24.9906 C   0  0  0  0  0  0
  -25.2613  -21.4415   24.4534 C   0  0  0  0  0  0
  -28.8319  -20.4585   24.5991 C   0  0  0  0  0  0
  -25.9938  -21.2894   23.1054 C   0  0  0  0  0  0
  -28.3103  -21.8602   24.2201 C   0  0  0  0  0  0
  -27.3594  -22.0133   23.0064 C   0  0  0  0  0  0
  -28.9921  -19.0442   19.5239 C   0  0  0  0  0  0
  -28.1124  -24.1222   20.8588 C   0  0  0  0  0  0
  -30.2275  -18.1328   19.8844 C   0  0  0  0  0  0
  -30.1557  -17.0863   21.0610 C   0  0  0  0  0  0
  -28.4408  -25.1605   19.7266 C   0  0  0  0  0  0
  -28.2925  -20.4244   21.4312 N   0  0  0  0  0  0
  -28.0163  -21.7215   21.7281 N   0  0  0  0  0  0
  -29.8175  -15.6611   20.7570 N   0  0  0  0  0  0
  -31.4758  -12.4954   19.1221 H   0  0  0  0  0  0
  -30.3702  -11.3737   19.8696 H   0  0  0  0  0  0
  -29.7536  -11.7374   17.4609 H   0  0  0  0  0  0
  -29.6443  -13.4581   17.7232 H   0  0  0  0  0  0
  -27.8513  -11.2872   18.8550 H   0  0  0  0  0  0
  -27.3656  -12.5750   17.7857 H   0  0  0  0  0  0
  -27.6705  -14.2457   19.5120 H   0  0  0  0  0  0
  -28.7070  -12.0355   21.3588 H   0  0  0  0  0  0
  -28.4604  -13.6944   21.8311 H   0  0  0  0  0  0
  -25.2753   -9.5678   22.4767 H   0  0  0  0  0  0
  -23.9984   -7.4639   22.7488 H   0  0  0  0  0  0
  -21.0841   -8.8775   19.8956 H   0  0  0  0  0  0
  -22.3700  -10.9669   19.6168 H   0  0  0  0  0  0
  -21.2013   -7.6150   23.9709 H   0  0  0  0  0  0
  -21.1473   -6.0526   25.9069 H   0  0  0  0  0  0
  -22.0611   -2.7613   23.2838 H   0  0  0  0  0  0
  -22.4102  -11.9867   22.4751 H   0  0  0  0  0  0
  -21.1116  -13.1245   22.2594 H   0  0  0  0  0  0
  -24.6611  -15.8412   20.5244 H   0  0  0  0  0  0
  -26.2733  -15.6301   20.0713 H   0  0  0  0  0  0
  -26.7121  -32.5456   23.1083 H   0  0  0  0  0  0
  -25.0006  -33.9740   25.0376 H   0  0  0  0  0  0
  -22.7084  -31.3028   21.4010 H   0  0  0  0  0  0
  -23.3771  -35.9586   23.3267 H   0  0  0  0  0  0
  -24.3576  -36.8980   22.2057 H   0  0  0  0  0  0
  -23.7215  -37.6460   23.6692 H   0  0  0  0  0  0
  -26.0735  -31.5637   20.6037 H   0  0  0  0  0  0
  -26.8344  -30.8476   21.9968 H   0  0  0  0  0  0
  -28.1120  -29.0172   21.1598 H   0  0  0  0  0  0
  -25.9765  -25.9170   19.0334 H   0  0  0  0  0  0
  -23.9638  -27.2880   19.0435 H   0  0  0  0  0  0
  -23.7335  -30.5846   19.4056 H   0  0  0  0  0  0
  -22.7475  -29.2320   19.8712 H   0  0  0  0  0  0
  -25.1281  -36.1930   25.0814 H   0  0  0  0  0  0
  -20.9922  -28.3237   24.1439 H   0  0  0  0  0  0
  -20.5668  -26.2263   23.3616 H   0  0  0  0  0  0
  -21.6618  -26.7438   22.1201 H   0  0  0  0  0  0
  -19.6939  -25.6289   21.1233 H   0  0  0  0  0  0
  -19.6713  -27.3192   20.6739 H   0  0  0  0  0  0
  -17.4191  -26.6663   21.4003 H   0  0  0  0  0  0
  -18.0301  -26.0043   22.8996 H   0  0  0  0  0  0
  -19.7934  -30.7211   24.2301 H   0  0  0  0  0  0
  -17.5029  -31.6275   24.5129 H   0  0  0  0  0  0
  -15.5351  -30.2991   23.7667 H   0  0  0  0  0  0
  -15.8647  -28.0818   22.7098 H   0  0  0  0  0  0
  -24.5886  -30.7082   25.7722 H   0  0  0  0  0  0
  -24.8848  -32.2857   26.4871 H   0  0  0  0  0  0
  -25.7980  -30.8866   27.0223 H   0  0  0  0  0  0
  -26.2901  -29.6803   24.1193 H   0  0  0  0  0  0
  -27.4041  -29.7299   25.4678 H   0  0  0  0  0  0
  -27.8758  -30.4354   23.9391 H   0  0  0  0  0  0
  -27.2692  -33.3654   26.2058 H   0  0  0  0  0  0
  -28.3841  -32.6916   25.0296 H   0  0  0  0  0  0
  -28.0740  -31.8497   26.5414 H   0  0  0  0  0  0
  -28.2527  -38.0136   24.7574 H   0  0  0  0  0  0
  -28.1155  -36.2673   24.6163 H   0  0  0  0  0  0
  -27.2308  -37.1288   25.8848 H   0  0  0  0  0  0
  -20.9323  -29.8756   21.6936 H   0  0  0  0  0  0
  -26.0170  -38.2854   24.1493 H   0  0  0  0  0  0
  -29.2463  -22.0834   18.7487 H   0  0  0  0  0  0
  -26.5460  -19.0708   26.7046 H   0  0  0  0  0  0
  -27.0616  -20.7166   26.5837 H   0  0  0  0  0  0
  -24.6200  -20.3393   26.1739 H   0  0  0  0  0  0
  -24.9674  -19.3261   24.8106 H   0  0  0  0  0  0
  -27.3218  -18.9652   24.1045 H   0  0  0  0  0  0
  -28.3239  -18.5710   25.4452 H   0  0  0  0  0  0
  -25.5918  -22.3331   24.9853 H   0  0  0  0  0  0
  -24.2067  -21.6195   24.2377 H   0  0  0  0  0  0
  -29.4580  -20.0643   23.7983 H   0  0  0  0  0  0
  -29.5055  -20.5863   25.4468 H   0  0  0  0  0  0
  -25.3555  -21.7040   22.3240 H   0  0  0  0  0  0
  -26.0766  -20.2361   22.8436 H   0  0  0  0  0  0
  -29.1835  -22.4833   24.0232 H   0  0  0  0  0  0
  -27.8515  -22.3191   25.0945 H   0  0  0  0  0  0
  -27.1028  -23.0718   23.0041 H   0  0  0  0  0  0
  -29.0484  -19.2377   18.4516 H   0  0  0  0  0  0
  -28.0870  -18.4462   19.6367 H   0  0  0  0  0  0
  -28.6502  -24.4499   21.7496 H   0  0  0  0  0  0
  -27.0575  -24.2588   21.0982 H   0  0  0  0  0  0
  -31.0789  -18.7936   20.0502 H   0  0  0  0  0  0
  -30.4915  -17.5706   18.9879 H   0  0  0  0  0  0
  -29.4613  -17.4522   21.8183 H   0  0  0  0  0  0
  -31.1286  -17.0780   21.5551 H   0  0  0  0  0  0
  -27.8535  -24.9611   18.8318 H   0  0  0  0  0  0
  -29.4705  -24.9825   19.4171 H   0  0  0  0  0  0
  -28.8514  -15.4085   20.9017 H   0  0  0  0  0  0
  1 25  1  0  0  0
  1 30  2  0  0  0
  1 89  1  0  0  0
  2  3  1  0  0  0
  2 25  1  0  0  0
  2 90  1  0  0  0
  2 91  1  0  0  0
  3  4  1  0  0  0
  3 92  1  0  0  0
  3 93  1  0  0  0
  4  5  1  0  0  0
  4 94  1  0  0  0
  4 95  1  0  0  0
  5  6  1  0  0  0
  5 26  1  0  0  0
  5 96  1  0  0  0
  6 25  1  0  0  0
  6 97  1  0  0  0
  6 98  1  0  0  0
  7  8  2  0  0  0
  7 26  1  0  0  0
  7 29  1  0  0  0
  8  9  1  0  0  0
  8 22  1  0  0  0
  9 10  1  0  0  0
  9 27  2  0  0  0
 10 11  2  0  0  0
 10 15  1  0  0  0
 11 12  1  0  0  0
 11 99  1  0  0  0
 12 13  2  0  0  0
 12100  1  0  0  0
 13 14  1  0  0  0
 13 31  1  0  0  0
 14 15  2  0  0  0
 14101  1  0  0  0
 15102  1  0  0  0
 16 17  2  0  0  0
 16 21  1  0  0  0
 16 31  1  0  0  0
 17 18  1  0  0  0
 17103  1  0  0  0
 18 19  2  0  0  0
 18104  1  0  0  0
 19 20  1  0  0  0
 19 24  1  0  0  0
 20 21  2  0  0  0
 20105  1  0  0  0
 21 23  1  0  0  0
 22 28  1  0  0  0
 22 32  2  0  0  0
 26 27  1  0  0  0
 28106  1  0  0  0
 28107  1  0  0  0
 29108  1  0  0  0
 29109  1  0  0  0
 33 34  1  0  0  0
 33 66  1  0  0  0
 33 70  2  0  0  0
 34 36  1  0  0  0
 34 59  1  0  0  0
 34110  1  0  0  0
 35 44  2  0  0  0
 35 45  1  0  0  0
 35 68  1  0  0  0
 36 56  1  0  0  0
 36111  1  0  0  0
 37 39  1  0  0  0
 37 47  1  0  0  0
 37 66  1  0  0  0
 37112  1  0  0  0
 38 43  2  0  0  0
 38 46  1  0  0  0
 38 47  1  0  0  0
 39 64  1  0  0  0
 39 67  2  0  0  0
 40 52  1  0  0  0
 40 53  2  0  0  0
 40 58  1  0  0  0
 41113  1  0  0  0
 41114  1  0  0  0
 41115  1  0  0  0
 41 48  1  0  0  0
 42 43  1  0  0  0
 42 66  1  0  0  0
 42116  1  0  0  0
 42117  1  0  0  0
 43 44  1  0  0  0
 44118  1  0  0  0
 45 46  2  0  0  0
 45119  1  0  0  0
 46120  1  0  0  0
 47121  1  0  0  0
 47122  1  0  0  0
 48 56  1  0  0  0
 48 65  1  0  0  0
 48123  1  0  0  0
 49 50  1  0  0  0
 49 53  1  0  0  0
 49 64  1  0  0  0
 49124  1  0  0  0
 50 51  1  0  0  0
 50125  1  0  0  0
 50126  1  0  0  0
 51 52  1  0  0  0
 51127  1  0  0  0
 51128  1  0  0  0
 52129  1  0  0  0
 52130  1  0  0  0
 53 54  1  0  0  0
 54 55  2  0  0  0
 54131  1  0  0  0
 55 57  1  0  0  0
 55132  1  0  0  0
 56 69  2  0  0  0
 57 58  2  0  0  0
 57133  1  0  0  0
 58134  1  0  0  0
 59 60  1  0  0  0
 59 61  1  0  0  0
 59 62  1  0  0  0
 60135  1  0  0  0
 60136  1  0  0  0
 60137  1  0  0  0
 61138  1  0  0  0
 61139  1  0  0  0
 61140  1  0  0  0
 62141  1  0  0  0
 62142  1  0  0  0
 62143  1  0  0  0
 63 65  1  0  0  0
 63144  1  0  0  0
 63145  1  0  0  0
 63146  1  0  0  0
 64147  1  0  0  0
 65148  1  0  0  0
 68 86  1  0  0  0
 71 72  1  0  0  0
 71 73  2  0  0  0
 71149  1  0  0  0
 72 82  1  0  0  0
 72 87  2  0  0  0
 73 83  1  0  0  0
 73 88  1  0  0  0
 74 75  1  0  0  0
 74 76  1  0  0  0
 74150  1  0  0  0
 74151  1  0  0  0
 75 77  1  0  0  0
 75152  1  0  0  0
 75153  1  0  0  0
 76 78  1  0  0  0
 76154  1  0  0  0
 76155  1  0  0  0
 77 79  1  0  0  0
 77156  1  0  0  0
 77157  1  0  0  0
 78 80  1  0  0  0
 78158  1  0  0  0
 78159  1  0  0  0
 79 81  1  0  0  0
 79160  1  0  0  0
 79161  1  0  0  0
 80 81  1  0  0  0
 80162  1  0  0  0
 80163  1  0  0  0
 81 88  1  0  0  0
 81164  1  0  0  0
 82 84  1  0  0  0
 82165  1  0  0  0
 82166  1  0  0  0
 83 86  1  0  0  0
 83167  1  0  0  0
 83168  1  0  0  0
 84 85  1  0  0  0
 84169  1  0  0  0
 84170  1  0  0  0
 85 89  1  0  0  0
 85171  1  0  0  0
 85172  1  0  0  0
 86173  1  0  0  0
 86174  1  0  0  0
 87 88  1  0  0  0
 89175  1  0  0  0
M  ISO  4   1 100  68 101  86 101  89 100
M  END
> <chiral flag>
0

> <version>
0

> <s_m_source_file>
/data/baiqing/PycharmProjects/Reinvent-master-3.2/result/LINK_invent/BTK/process_docking_weight1_custom_sum_contain_oxygen_bond_distance_aromatic_linkinvent_7_9_3/rearranged_h_0044.sdf

> <i_m_source_file_index>
72

> <r_mmod_Potential_Energy-OPLS-2005>
61.2350730895996

> <r_mmod_Stretch_Energy-OPLS-2005>
64.2879180908203

> <r_mmod_Bend_Energy-OPLS-2005>
171.736022949219

> <r_mmod_Torsional_Energy-OPLS-2005>
269.143341064453

> <r_mmod_Improper_Torsional_Energy-OPLS-2005>
5.01749897003174

> <r_mmod_Van_der_Waal_Energy-OPLS-2005>
116.741317749023

> <r_mmod_Electrostatic_Energy-OPLS-2005>
-395.465850830078

> <r_mmod_Solvation_Energy-OPLS-2005>
-207.190460205078

> <b_mmod_Minimization_Converged-OPLS-2005>
0

> <r_mmod_RMS_Derivative-OPLS-2005>
2.19252061843872

$$$$
72
                    3D
 Structure written by MMmdl.
158166  0  0  1  0            999 V2000
  -30.4724  -15.2379   20.2810 C   0  0  0  0  0  0
  -30.4425  -12.7860   19.4837 C   0  0  0  0  0  0
  -29.5276  -12.5263   18.2652 C   0  0  0  0  0  0
  -28.0794  -12.2678   18.7181 C   0  0  0  0  0  0
  -27.6027  -13.2620   19.8071 C   0  0  2  0  0  0
  -28.6536  -13.4741   20.9145 C   0  0  0  0  0  0
  -25.2380  -13.8097   20.6004 C   0  0  0  0  0  0
  -24.1713  -13.0322   20.9387 C   0  0  0  0  0  0
  -24.6396  -11.6841   20.8805 C   0  0  0  0  0  0
  -23.9121  -10.4232   21.0415 C   0  0  0  0  0  0
  -24.3689   -9.4170   21.9187 C   0  0  0  0  0  0
  -23.6365   -8.2212   22.0745 C   0  0  0  0  0  0
  -22.4329   -8.0284   21.3554 C   0  0  0  0  0  0
  -21.9955   -9.0265   20.4680 C   0  0  0  0  0  0
  -22.7284  -10.2130   20.3097 C   0  0  0  0  0  0
  -21.6887   -6.0751   22.5279 C   0  0  0  0  0  0
  -21.4024   -6.5643   23.8213 C   0  0  0  0  0  0
  -21.3658   -5.6793   24.9166 C   0  0  0  0  0  0
  -21.6048   -4.3061   24.7207 C   0  0  0  0  0  0
  -21.8828   -3.8158   23.4332 C   0  0  0  0  0  0
  -21.9212   -4.6983   22.3397 C   0  0  0  0  0  0
  -22.7739  -13.5098   21.1975 C   0  0  0  0  0  0
  -22.1694   -4.2177   21.0973 F   0  0  0  0  0  0
  -21.5645   -3.4528   25.7718 F   0  0  0  0  0  0
  -29.8796  -13.9474   20.2501 N   0  0  0  0  0  0
  -26.2810  -12.9411   20.3287 N   0  0  0  0  0  0
  -25.9323  -11.6529   20.5732 N   0  0  0  0  0  0
  -22.0342  -12.8090   22.0467 N   0  0  0  0  0  0
  -25.3923  -15.1801   20.4771 N   0  0  0  0  0  0
  -31.7102  -15.2028   20.2506 O   0  0  0  0  0  0
  -21.6685   -6.8889   21.4248 O   0  0  0  0  0  0
  -22.3439  -14.5405   20.6798 O   0  0  0  0  0  0
  -24.6584  -31.8282   23.1743 C   0  0  0  0  0  0
  -25.9263  -32.4621   23.8216 C   0  0  1  0  0  0
  -27.2379  -26.9772   20.1573 C   0  0  0  0  0  0
  -25.5931  -33.8446   24.2106 N   0  0  0  0  0  0
  -23.4751  -30.4393   21.5280 C   0  0  2  0  0  0
  -24.9283  -28.8349   20.1144 C   0  0  0  0  0  0
  -22.7658  -29.4463   22.4852 C   0  0  0  0  0  0
  -18.0312  -28.1387   22.8471 C   0  0  0  0  0  0
  -24.1498  -36.7237   23.2651 C   0  0  0  0  0  0
  -26.0423  -30.6478   21.3986 C   0  0  0  0  0  0
  -26.1147  -29.2428   20.7382 C   0  0  0  0  0  0
  -27.2646  -28.3372   20.7347 C   0  0  0  0  0  0
  -26.0164  -26.7118   19.4923 C   0  0  0  0  0  0
  -24.9014  -27.5866   19.4742 C   0  0  0  0  0  0
  -23.7095  -29.7564   20.1550 C   0  0  0  0  0  0
  -25.4136  -36.3009   24.0316 C   0  0  1  0  0  0
  -20.5937  -28.3743   23.1192 C   0  0  2  0  0  0
  -20.6788  -26.9430   22.5411 C   0  0  0  0  0  0
  -19.5766  -26.6367   21.5222 C   0  0  0  0  0  0
  -18.1942  -26.7929   22.1622 C   0  0  0  0  0  0
  -19.1573  -28.8887   23.2819 C   0  0  0  0  0  0
  -18.9483  -30.1474   23.8855 C   0  0  0  0  0  0
  -17.6476  -30.6579   24.0555 C   0  0  0  0  0  0
  -25.9084  -34.9379   23.5045 C   0  0  0  0  0  0
  -16.5367  -29.9071   23.6331 C   0  0  0  0  0  0
  -16.7297  -28.6490   23.0357 C   0  0  0  0  0  0
  -26.4526  -31.6564   25.0736 C   0  0  0  0  0  0
  -25.3654  -31.3839   26.1404 C   0  0  0  0  0  0
  -27.0405  -30.2924   24.6447 C   0  0  0  0  0  0
  -27.6029  -32.4383   25.7510 C   0  0  0  0  0  0
  -27.5593  -37.1780   24.8458 C   0  0  0  0  0  0
  -21.4327  -29.3048   22.3563 N   0  0  0  0  0  0
  -26.4294  -37.3732   23.9403 N   0  0  0  0  0  0
  -24.7476  -30.9975   22.0875 N   0  0  0  0  0  0
  -23.4216  -28.8024   23.3071 O   0  0  0  0  0  0
  -28.2480  -25.8891   20.2242 O   0  0  0  0  0  0
  -26.5746  -34.8903   22.4664 O   0  0  0  0  0  0
  -23.5645  -32.1262   23.6829 O   0  0  0  0  0  0
  -29.2339  -20.5593   21.3914 C   0  0  0  0  0  0
  -28.8696  -21.9945   21.3516 C   0  0  0  0  0  0
  -29.5162  -19.6872   20.2638 C   0  0  0  0  0  0
  -28.7167  -22.7831   20.1452 C   0  0  0  0  0  0
  -29.4022  -20.5706   19.1066 C   0  0  0  0  0  0
  -28.6396  -22.6995   22.6748 C   0  0  0  0  0  0
  -29.8232  -20.0357   17.7486 C   0  0  0  0  0  0
  -27.6309  -17.2337   18.8561 C   0  0  0  0  0  0
  -30.1979  -18.0822   20.3988 C   0  0  0  0  0  0
  -27.9127  -24.3189   19.9536 C   0  0  0  0  0  0
  -29.0235  -16.5824   18.8036 C   0  0  0  0  0  0
  -28.9973  -21.9392   19.0639 N   0  0  0  0  0  0
  -29.7449  -16.5248   20.0924 N   0  0  0  0  0  0
  -31.4560  -12.9909   19.1376 H   0  0  0  0  0  0
  -30.5163  -11.9018   20.1152 H   0  0  0  0  0  0
  -29.8957  -11.6693   17.6996 H   0  0  0  0  0  0
  -29.5676  -13.3797   17.5864 H   0  0  0  0  0  0
  -28.0572  -11.2564   19.1273 H   0  0  0  0  0  0
  -27.4020  -12.2590   17.8640 H   0  0  0  0  0  0
  -27.4842  -14.2102   19.2882 H   0  0  0  0  0  0
  -28.8259  -12.5624   21.4885 H   0  0  0  0  0  0
  -28.3073  -14.2338   21.6175 H   0  0  0  0  0  0
  -25.2861   -9.5663   22.4732 H   0  0  0  0  0  0
  -24.0101   -7.4609   22.7459 H   0  0  0  0  0  0
  -21.0875   -8.8836   19.9012 H   0  0  0  0  0  0
  -22.3765  -10.9705   19.6246 H   0  0  0  0  0  0
  -21.2002   -7.6151   23.9720 H   0  0  0  0  0  0
  -21.1495   -6.0529   25.9067 H   0  0  0  0  0  0
  -22.0611   -2.7631   23.2827 H   0  0  0  0  0  0
  -22.3985  -11.9811   22.4950 H   0  0  0  0  0  0
  -21.0949  -13.1112   22.2603 H   0  0  0  0  0  0
  -24.6233  -15.8304   20.5943 H   0  0  0  0  0  0
  -26.2463  -15.6215   20.1658 H   0  0  0  0  0  0
  -26.7352  -32.5127   23.0951 H   0  0  0  0  0  0
  -24.9919  -33.9554   25.0150 H   0  0  0  0  0  0
  -22.7899  -31.2727   21.3626 H   0  0  0  0  0  0
  -23.3767  -35.9554   23.3280 H   0  0  0  0  0  0
  -24.3589  -36.8899   22.2068 H   0  0  0  0  0  0
  -23.7236  -37.6421   23.6705 H   0  0  0  0  0  0
  -26.2232  -31.3949   20.6253 H   0  0  0  0  0  0
  -26.9022  -30.6957   22.0542 H   0  0  0  0  0  0
  -28.1652  -28.6550   21.2445 H   0  0  0  0  0  0
  -25.8791  -25.7613   19.0001 H   0  0  0  0  0  0
  -23.9986  -27.2612   18.9754 H   0  0  0  0  0  0
  -23.8588  -30.5304   19.4018 H   0  0  0  0  0  0
  -22.8179  -29.2092   19.8390 H   0  0  0  0  0  0
  -25.1318  -36.1873   25.0811 H   0  0  0  0  0  0
  -21.0017  -28.3351   24.1317 H   0  0  0  0  0  0
  -20.5636  -26.2381   23.3658 H   0  0  0  0  0  0
  -21.6648  -26.7379   22.1236 H   0  0  0  0  0  0
  -19.6933  -25.6269   21.1269 H   0  0  0  0  0  0
  -19.6695  -27.3156   20.6734 H   0  0  0  0  0  0
  -17.4216  -26.6669   21.4028 H   0  0  0  0  0  0
  -18.0331  -26.0095   22.9033 H   0  0  0  0  0  0
  -19.7959  -30.7293   24.2217 H   0  0  0  0  0  0
  -17.5023  -31.6250   24.5155 H   0  0  0  0  0  0
  -15.5360  -30.2942   23.7668 H   0  0  0  0  0  0
  -15.8711  -28.0771   22.7095 H   0  0  0  0  0  0
  -24.5838  -30.7189   25.7729 H   0  0  0  0  0  0
  -24.8823  -32.3034   26.4708 H   0  0  0  0  0  0
  -25.7874  -30.9104   27.0273 H   0  0  0  0  0  0
  -26.3074  -29.6645   24.1357 H   0  0  0  0  0  0
  -27.3852  -29.7263   25.5111 H   0  0  0  0  0  0
  -27.9061  -30.4123   23.9926 H   0  0  0  0  0  0
  -27.2595  -33.3703   26.2022 H   0  0  0  0  0  0
  -28.3838  -32.6925   25.0332 H   0  0  0  0  0  0
  -28.0699  -31.8566   26.5465 H   0  0  0  0  0  0
  -28.2573  -38.0109   24.7500 H   0  0  0  0  0  0
  -28.1123  -36.2632   24.6267 H   0  0  0  0  0  0
  -27.2317  -37.1401   25.8862 H   0  0  0  0  0  0
  -20.9583  -29.8757   21.6704 H   0  0  0  0  0  0
  -26.0168  -38.2811   24.1374 H   0  0  0  0  0  0
  -29.3363  -20.1122   22.3706 H   0  0  0  0  0  0
  -29.1252  -22.1782   23.5009 H   0  0  0  0  0  0
  -27.5754  -22.7707   22.8972 H   0  0  0  0  0  0
  -29.0518  -23.7093   22.6465 H   0  0  0  0  0  0
  -28.9679  -19.6374   17.2038 H   0  0  0  0  0  0
  -30.5744  -19.2512   17.8347 H   0  0  0  0  0  0
  -30.2718  -20.8253   17.1463 H   0  0  0  0  0  0
  -27.3749  -17.6544   17.8831 H   0  0  0  0  0  0
  -27.5338  -18.0287   19.5945 H   0  0  0  0  0  0
  -26.8687  -16.4981   19.0578 H   0  0  0  0  0  0
  -30.5703  -18.0372   21.4213 H   0  0  0  0  0  0
  -31.1102  -18.1611   19.8079 H   0  0  0  0  0  0
  -26.9877  -24.1665   20.5092 H   0  0  0  0  0  0
  -27.6083  -24.2954   18.9069 H   0  0  0  0  0  0
  -29.6427  -17.1270   18.0934 H   0  0  0  0  0  0
  -28.9109  -15.6002   18.3459 H   0  0  0  0  0  0
  1 25  1  0  0  0
  1 30  2  0  0  0
  1 83  1  0  0  0
  2  3  1  0  0  0
  2 25  1  0  0  0
  2 84  1  0  0  0
  2 85  1  0  0  0
  3  4  1  0  0  0
  3 86  1  0  0  0
  3 87  1  0  0  0
  4  5  1  0  0  0
  4 88  1  0  0  0
  4 89  1  0  0  0
  5  6  1  0  0  0
  5 26  1  0  0  0
  5 90  1  0  0  0
  6 25  1  0  0  0
  6 91  1  0  0  0
  6 92  1  0  0  0
  7  8  2  0  0  0
  7 26  1  0  0  0
  7 29  1  0  0  0
  8  9  1  0  0  0
  8 22  1  0  0  0
  9 10  1  0  0  0
  9 27  2  0  0  0
 10 11  2  0  0  0
 10 15  1  0  0  0
 11 12  1  0  0  0
 11 93  1  0  0  0
 12 13  2  0  0  0
 12 94  1  0  0  0
 13 14  1  0  0  0
 13 31  1  0  0  0
 14 15  2  0  0  0
 14 95  1  0  0  0
 15 96  1  0  0  0
 16 17  2  0  0  0
 16 21  1  0  0  0
 16 31  1  0  0  0
 17 18  1  0  0  0
 17 97  1  0  0  0
 18 19  2  0  0  0
 18 98  1  0  0  0
 19 20  1  0  0  0
 19 24  1  0  0  0
 20 21  2  0  0  0
 20 99  1  0  0  0
 21 23  1  0  0  0
 22 28  1  0  0  0
 22 32  2  0  0  0
 26 27  1  0  0  0
 28100  1  0  0  0
 28101  1  0  0  0
 29102  1  0  0  0
 29103  1  0  0  0
 33 34  1  0  0  0
 33 66  1  0  0  0
 33 70  2  0  0  0
 34 36  1  0  0  0
 34 59  1  0  0  0
 34104  1  0  0  0
 35 44  2  0  0  0
 35 45  1  0  0  0
 35 68  1  0  0  0
 36 56  1  0  0  0
 36105  1  0  0  0
 37 39  1  0  0  0
 37 47  1  0  0  0
 37 66  1  0  0  0
 37106  1  0  0  0
 38 43  2  0  0  0
 38 46  1  0  0  0
 38 47  1  0  0  0
 39 64  1  0  0  0
 39 67  2  0  0  0
 40 52  1  0  0  0
 40 53  2  0  0  0
 40 58  1  0  0  0
 41107  1  0  0  0
 41108  1  0  0  0
 41109  1  0  0  0
 41 48  1  0  0  0
 42 43  1  0  0  0
 42 66  1  0  0  0
 42110  1  0  0  0
 42111  1  0  0  0
 43 44  1  0  0  0
 44112  1  0  0  0
 45 46  2  0  0  0
 45113  1  0  0  0
 46114  1  0  0  0
 47115  1  0  0  0
 47116  1  0  0  0
 48 56  1  0  0  0
 48 65  1  0  0  0
 48117  1  0  0  0
 49 50  1  0  0  0
 49 53  1  0  0  0
 49 64  1  0  0  0
 49118  1  0  0  0
 50 51  1  0  0  0
 50119  1  0  0  0
 50120  1  0  0  0
 51 52  1  0  0  0
 51121  1  0  0  0
 51122  1  0  0  0
 52123  1  0  0  0
 52124  1  0  0  0
 53 54  1  0  0  0
 54 55  2  0  0  0
 54125  1  0  0  0
 55 57  1  0  0  0
 55126  1  0  0  0
 56 69  2  0  0  0
 57 58  2  0  0  0
 57127  1  0  0  0
 58128  1  0  0  0
 59 60  1  0  0  0
 59 61  1  0  0  0
 59 62  1  0  0  0
 60129  1  0  0  0
 60130  1  0  0  0
 60131  1  0  0  0
 61132  1  0  0  0
 61133  1  0  0  0
 61134  1  0  0  0
 62135  1  0  0  0
 62136  1  0  0  0
 62137  1  0  0  0
 63 65  1  0  0  0
 63138  1  0  0  0
 63139  1  0  0  0
 63140  1  0  0  0
 64141  1  0  0  0
 65142  1  0  0  0
 68 80  1  0  0  0
 71 72  2  0  0  0
 71 73  1  0  0  0
 71143  1  0  0  0
 72 74  1  0  0  0
 72 76  1  0  0  0
 73 75  2  0  0  0
 73 79  1  0  0  0
 74 80  1  0  0  0
 74 82  2  0  0  0
 75 77  1  0  0  0
 75 82  1  0  0  0
 76144  1  0  0  0
 76145  1  0  0  0
 76146  1  0  0  0
 77147  1  0  0  0
 77148  1  0  0  0
 77149  1  0  0  0
 78 81  1  0  0  0
 78150  1  0  0  0
 78151  1  0  0  0
 78152  1  0  0  0
 79 83  1  0  0  0
 79153  1  0  0  0
 79154  1  0  0  0
 80155  1  0  0  0
 80156  1  0  0  0
 81 83  1  0  0  0
 81157  1  0  0  0
 81158  1  0  0  0
M  ISO  4   1 100  68 101  80 101  83 100
M  END
> <chiral flag>
0

> <version>
0

> <s_m_source_file>
/data/baiqing/PycharmProjects/Reinvent-master-3.2/result/LINK_invent/BTK/process_docking_weight1_custom_sum_contain_oxygen_bond_distance_aromatic_linkinvent_7_9_3/rearranged_h_0044.sdf

> <i_m_source_file_index>
73

> <r_mmod_Potential_Energy-OPLS-2005>
1182.63439941406

> <r_mmod_Stretch_Energy-OPLS-2005>
475.932769775391

> <r_mmod_Bend_Energy-OPLS-2005>
428.137390136719

> <r_mmod_Torsional_Energy-OPLS-2005>
308.420684814453

> <r_mmod_Improper_Torsional_Energy-OPLS-2005>
14.6300935745239

> <r_mmod_Van_der_Waal_Energy-OPLS-2005>
131.977508544922

> <r_mmod_Electrostatic_Energy-OPLS-2005>
-385.162200927734

> <r_mmod_Solvation_Energy-OPLS-2005>
-214.955978393555

> <b_mmod_Minimization_Converged-OPLS-2005>
0

> <r_mmod_RMS_Derivative-OPLS-2005>
4.01086235046387

$$$$
73
                    3D
 Structure written by MMmdl.
159167  0  0  1  0            999 V2000
  -30.6049  -14.7456   20.4649 C   0  0  0  0  0  0
  -30.4372  -12.4572   19.4633 C   0  0  0  0  0  0
  -29.5089  -12.4891   18.2306 C   0  0  0  0  0  0
  -28.0365  -12.3145   18.6530 C   0  0  0  0  0  0
  -27.6401  -13.2267   19.8447 C   0  0  2  0  0  0
  -28.6869  -13.1693   20.9772 C   0  0  0  0  0  0
  -25.2527  -13.8191   20.5685 C   0  0  0  0  0  0
  -24.1823  -13.0437   20.9224 C   0  0  0  0  0  0
  -24.6413  -11.6917   20.8772 C   0  0  0  0  0  0
  -23.9096  -10.4289   21.0413 C   0  0  0  0  0  0
  -24.3643   -9.4204   21.9190 C   0  0  0  0  0  0
  -23.6309   -8.2241   22.0753 C   0  0  0  0  0  0
  -22.4289   -8.0293   21.3541 C   0  0  0  0  0  0
  -21.9936   -9.0263   20.4637 C   0  0  0  0  0  0
  -22.7272  -10.2139   20.3052 C   0  0  0  0  0  0
  -21.6855   -6.0756   22.5283 C   0  0  0  0  0  0
  -21.4019   -6.5651   23.8222 C   0  0  0  0  0  0
  -21.3649   -5.6796   24.9178 C   0  0  0  0  0  0
  -21.6041   -4.3060   24.7220 C   0  0  0  0  0  0
  -21.8821   -3.8160   23.4338 C   0  0  0  0  0  0
  -21.9188   -4.6982   22.3397 C   0  0  0  0  0  0
  -22.7833  -13.5218   21.1860 C   0  0  0  0  0  0
  -22.1657   -4.2172   21.0972 F   0  0  0  0  0  0
  -21.5613   -3.4538   25.7726 F   0  0  0  0  0  0
  -29.9832  -13.5218   20.3844 N   0  0  0  0  0  0
  -26.2940  -12.9382   20.3267 N   0  0  0  0  0  0
  -25.9337  -11.6535   20.5788 N   0  0  0  0  0  0
  -22.0464  -12.8185   22.0394 N   0  0  0  0  0  0
  -25.4229  -15.1910   20.4058 N   0  0  0  0  0  0
  -31.8069  -14.8495   20.2082 O   0  0  0  0  0  0
  -21.6645   -6.8898   21.4244 O   0  0  0  0  0  0
  -22.3525  -14.5519   20.6720 O   0  0  0  0  0  0
  -24.6340  -31.8548   23.1974 C   0  0  0  0  0  0
  -25.9159  -32.4746   23.8334 C   0  0  1  0  0  0
  -27.2183  -27.2485   20.1230 C   0  0  0  0  0  0
  -25.5954  -33.8554   24.2258 N   0  0  0  0  0  0
  -23.4317  -30.4798   21.5408 C   0  0  2  0  0  0
  -24.8795  -28.9297   20.1099 C   0  0  0  0  0  0
  -22.7525  -29.4592   22.4879 C   0  0  0  0  0  0
  -18.0298  -28.1392   22.8485 C   0  0  0  0  0  0
  -24.1493  -36.7290   23.2638 C   0  0  0  0  0  0
  -25.9813  -30.7647   21.3809 C   0  0  0  0  0  0
  -26.0542  -29.3866   20.7207 C   0  0  0  0  0  0
  -27.2272  -28.5601   20.7157 C   0  0  0  0  0  0
  -26.0188  -26.8734   19.4732 C   0  0  0  0  0  0
  -24.8685  -27.6819   19.4750 C   0  0  0  0  0  0
  -23.6534  -29.8213   20.1551 C   0  0  0  0  0  0
  -25.4119  -36.3065   24.0321 C   0  0  1  0  0  0
  -20.5908  -28.3697   23.1267 C   0  0  2  0  0  0
  -20.6784  -26.9413   22.5404 C   0  0  0  0  0  0
  -19.5748  -26.6390   21.5213 C   0  0  0  0  0  0
  -18.1934  -26.7939   22.1632 C   0  0  0  0  0  0
  -19.1553  -28.8864   23.2875 C   0  0  0  0  0  0
  -18.9470  -30.1469   23.8881 C   0  0  0  0  0  0
  -17.6462  -30.6583   24.0569 C   0  0  0  0  0  0
  -25.9064  -34.9432   23.5089 C   0  0  0  0  0  0
  -16.5355  -29.9074   23.6335 C   0  0  0  0  0  0
  -16.7282  -28.6507   23.0334 C   0  0  0  0  0  0
  -26.4510  -31.6561   25.0722 C   0  0  0  0  0  0
  -25.3729  -31.3714   26.1441 C   0  0  0  0  0  0
  -27.0363  -30.2972   24.6222 C   0  0  0  0  0  0
  -27.6058  -32.4300   25.7508 C   0  0  0  0  0  0
  -27.5575  -37.1809   24.8464 C   0  0  0  0  0  0
  -21.4226  -29.3051   22.3656 N   0  0  0  0  0  0
  -26.4289  -37.3770   23.9404 N   0  0  0  0  0  0
  -24.7014  -31.0514   22.0955 N   0  0  0  0  0  0
  -23.4230  -28.8120   23.2966 O   0  0  0  0  0  0
  -28.3015  -26.3308   20.1622 O   0  0  0  0  0  0
  -26.5626  -34.8903   22.4654 O   0  0  0  0  0  0
  -23.5485  -32.1359   23.7266 O   0  0  0  0  0  0
  -27.8975  -21.4442   22.9309 C   0  0  0  0  0  0
  -28.7001  -22.3140   21.1103 C   0  0  0  0  0  0
  -28.6969  -20.8770   20.9652 C   0  0  0  0  0  0
  -25.8930  -19.1224   22.3470 C   0  0  0  0  0  0
  -29.0751  -23.6394   20.3253 C   0  0  0  0  0  0
  -29.0501  -19.7943   19.8865 C   0  0  0  0  0  0
  -30.1279  -18.5758   20.0474 C   0  0  0  0  0  0
  -27.4275  -19.0956   22.3521 C   0  0  0  0  0  0
  -30.1602  -17.3015   21.0551 C   0  0  0  0  0  0
  -27.9865  -24.8537   20.2953 C   0  0  0  0  0  0
  -28.3018  -22.5911   22.4201 N   0  0  0  0  0  0
  -27.9905  -20.4164   22.0896 N   0  0  0  0  0  0
  -29.8115  -15.8686   20.6456 N   0  0  0  0  0  0
  -31.4749  -12.5948   19.1556 H   0  0  0  0  0  0
  -30.3931  -11.4848   19.9561 H   0  0  0  0  0  0
  -29.7909  -11.7021   17.5306 H   0  0  0  0  0  0
  -29.6328  -13.4322   17.6964 H   0  0  0  0  0  0
  -27.9022  -11.2698   18.9374 H   0  0  0  0  0  0
  -27.3733  -12.4865   17.8045 H   0  0  0  0  0  0
  -27.6300  -14.2452   19.4564 H   0  0  0  0  0  0
  -28.7281  -12.1769   21.4281 H   0  0  0  0  0  0
  -28.4221  -13.8590   21.7813 H   0  0  0  0  0  0
  -25.2789   -9.5670   22.4780 H   0  0  0  0  0  0
  -24.0015   -7.4619   22.7457 H   0  0  0  0  0  0
  -21.0880   -8.8785   19.8921 H   0  0  0  0  0  0
  -22.3743  -10.9684   19.6168 H   0  0  0  0  0  0
  -21.2037   -7.6164   23.9738 H   0  0  0  0  0  0
  -21.1454   -6.0523   25.9081 H   0  0  0  0  0  0
  -22.0613   -2.7630   23.2826 H   0  0  0  0  0  0
  -22.4066  -11.9839   22.4777 H   0  0  0  0  0  0
  -21.1047  -13.1157   22.2524 H   0  0  0  0  0  0
  -24.6506  -15.8410   20.5058 H   0  0  0  0  0  0
  -26.2566  -15.6246   20.0317 H   0  0  0  0  0  0
  -26.7240  -32.5386   23.1087 H   0  0  0  0  0  0
  -25.0114  -33.9704   25.0411 H   0  0  0  0  0  0
  -22.7285  -31.3025   21.3967 H   0  0  0  0  0  0
  -23.3745  -35.9630   23.3293 H   0  0  0  0  0  0
  -24.3598  -36.8915   22.2056 H   0  0  0  0  0  0
  -23.7256  -37.6492   23.6668 H   0  0  0  0  0  0
  -26.1261  -31.5270   20.6134 H   0  0  0  0  0  0
  -26.8572  -30.8128   22.0163 H   0  0  0  0  0  0
  -28.1242  -28.9066   21.2110 H   0  0  0  0  0  0
  -25.9318  -25.9379   18.9461 H   0  0  0  0  0  0
  -23.9731  -27.3312   18.9797 H   0  0  0  0  0  0
  -23.7885  -30.6026   19.4061 H   0  0  0  0  0  0
  -22.7699  -29.2631   19.8409 H   0  0  0  0  0  0
  -25.1299  -36.1906   25.0811 H   0  0  0  0  0  0
  -21.0013  -28.3260   24.1380 H   0  0  0  0  0  0
  -20.5692  -26.2296   23.3603 H   0  0  0  0  0  0
  -21.6647  -26.7429   22.1184 H   0  0  0  0  0  0
  -19.6900  -25.6302   21.1234 H   0  0  0  0  0  0
  -19.6683  -27.3213   20.6753 H   0  0  0  0  0  0
  -17.4206  -26.6695   21.4028 H   0  0  0  0  0  0
  -18.0315  -26.0082   22.9029 H   0  0  0  0  0  0
  -19.7938  -30.7310   24.2223 H   0  0  0  0  0  0
  -17.5002  -31.6249   24.5191 H   0  0  0  0  0  0
  -15.5351  -30.2964   23.7664 H   0  0  0  0  0  0
  -15.8691  -28.0834   22.7014 H   0  0  0  0  0  0
  -24.5947  -30.7004   25.7784 H   0  0  0  0  0  0
  -24.8878  -32.2877   26.4807 H   0  0  0  0  0  0
  -25.8063  -30.8957   27.0247 H   0  0  0  0  0  0
  -26.2953  -29.6716   24.1233 H   0  0  0  0  0  0
  -27.4020  -29.7237   25.4748 H   0  0  0  0  0  0
  -27.8835  -30.4234   23.9480 H   0  0  0  0  0  0
  -27.2668  -33.3621   26.2040 H   0  0  0  0  0  0
  -28.3899  -32.6818   25.0356 H   0  0  0  0  0  0
  -28.0683  -31.8445   26.5460 H   0  0  0  0  0  0
  -28.2582  -38.0114   24.7504 H   0  0  0  0  0  0
  -28.1075  -36.2642   24.6289 H   0  0  0  0  0  0
  -27.2299  -37.1459   25.8869 H   0  0  0  0  0  0
  -20.9397  -29.8823   21.6916 H   0  0  0  0  0  0
  -26.0152  -38.2835   24.1399 H   0  0  0  0  0  0
  -27.4611  -21.3605   23.9164 H   0  0  0  0  0  0
  -25.4932  -18.1314   22.5629 H   0  0  0  0  0  0
  -25.5095  -19.4279   21.3726 H   0  0  0  0  0  0
  -25.4964  -19.8111   23.0935 H   0  0  0  0  0  0
  -29.3511  -23.3938   19.2991 H   0  0  0  0  0  0
  -29.9891  -24.0397   20.7647 H   0  0  0  0  0  0
  -29.3623  -20.3497   19.0018 H   0  0  0  0  0  0
  -28.1132  -19.3369   19.5683 H   0  0  0  0  0  0
  -31.0761  -19.0878   20.2169 H   0  0  0  0  0  0
  -30.2458  -18.1534   19.0496 H   0  0  0  0  0  0
  -27.7353  -18.3854   21.5919 H   0  0  0  0  0  0
  -27.8043  -18.7317   23.3082 H   0  0  0  0  0  0
  -29.6403  -17.5328   21.9824 H   0  0  0  0  0  0
  -31.1969  -17.2299   21.3875 H   0  0  0  0  0  0
  -27.4080  -24.7912   21.2171 H   0  0  0  0  0  0
  -27.2993  -24.5479   19.5114 H   0  0  0  0  0  0
  -28.8264  -15.6554   20.6873 H   0  0  0  0  0  0
  1 25  1  0  0  0
  1 30  2  0  0  0
  1 83  1  0  0  0
  2  3  1  0  0  0
  2 25  1  0  0  0
  2 84  1  0  0  0
  2 85  1  0  0  0
  3  4  1  0  0  0
  3 86  1  0  0  0
  3 87  1  0  0  0
  4  5  1  0  0  0
  4 88  1  0  0  0
  4 89  1  0  0  0
  5  6  1  0  0  0
  5 26  1  0  0  0
  5 90  1  0  0  0
  6 25  1  0  0  0
  6 91  1  0  0  0
  6 92  1  0  0  0
  7  8  2  0  0  0
  7 26  1  0  0  0
  7 29  1  0  0  0
  8  9  1  0  0  0
  8 22  1  0  0  0
  9 10  1  0  0  0
  9 27  2  0  0  0
 10 11  2  0  0  0
 10 15  1  0  0  0
 11 12  1  0  0  0
 11 93  1  0  0  0
 12 13  2  0  0  0
 12 94  1  0  0  0
 13 14  1  0  0  0
 13 31  1  0  0  0
 14 15  2  0  0  0
 14 95  1  0  0  0
 15 96  1  0  0  0
 16 17  2  0  0  0
 16 21  1  0  0  0
 16 31  1  0  0  0
 17 18  1  0  0  0
 17 97  1  0  0  0
 18 19  2  0  0  0
 18 98  1  0  0  0
 19 20  1  0  0  0
 19 24  1  0  0  0
 20 21  2  0  0  0
 20 99  1  0  0  0
 21 23  1  0  0  0
 22 28  1  0  0  0
 22 32  2  0  0  0
 26 27  1  0  0  0
 28100  1  0  0  0
 28101  1  0  0  0
 29102  1  0  0  0
 29103  1  0  0  0
 33 34  1  0  0  0
 33 66  1  0  0  0
 33 70  2  0  0  0
 34 36  1  0  0  0
 34 59  1  0  0  0
 34104  1  0  0  0
 35 44  2  0  0  0
 35 45  1  0  0  0
 35 68  1  0  0  0
 36 56  1  0  0  0
 36105  1  0  0  0
 37 39  1  0  0  0
 37 47  1  0  0  0
 37 66  1  0  0  0
 37106  1  0  0  0
 38 43  2  0  0  0
 38 46  1  0  0  0
 38 47  1  0  0  0
 39 64  1  0  0  0
 39 67  2  0  0  0
 40 52  1  0  0  0
 40 53  2  0  0  0
 40 58  1  0  0  0
 41107  1  0  0  0
 41108  1  0  0  0
 41109  1  0  0  0
 41 48  1  0  0  0
 42 43  1  0  0  0
 42 66  1  0  0  0
 42110  1  0  0  0
 42111  1  0  0  0
 43 44  1  0  0  0
 44112  1  0  0  0
 45 46  2  0  0  0
 45113  1  0  0  0
 46114  1  0  0  0
 47115  1  0  0  0
 47116  1  0  0  0
 48 56  1  0  0  0
 48 65  1  0  0  0
 48117  1  0  0  0
 49 50  1  0  0  0
 49 53  1  0  0  0
 49 64  1  0  0  0
 49118  1  0  0  0
 50 51  1  0  0  0
 50119  1  0  0  0
 50120  1  0  0  0
 51 52  1  0  0  0
 51121  1  0  0  0
 51122  1  0  0  0
 52123  1  0  0  0
 52124  1  0  0  0
 53 54  1  0  0  0
 54 55  2  0  0  0
 54125  1  0  0  0
 55 57  1  0  0  0
 55126  1  0  0  0
 56 69  2  0  0  0
 57 58  2  0  0  0
 57127  1  0  0  0
 58128  1  0  0  0
 59 60  1  0  0  0
 59 61  1  0  0  0
 59 62  1  0  0  0
 60129  1  0  0  0
 60130  1  0  0  0
 60131  1  0  0  0
 61132  1  0  0  0
 61133  1  0  0  0
 61134  1  0  0  0
 62135  1  0  0  0
 62136  1  0  0  0
 62137  1  0  0  0
 63 65  1  0  0  0
 63138  1  0  0  0
 63139  1  0  0  0
 63140  1  0  0  0
 64141  1  0  0  0
 65142  1  0  0  0
 68 80  1  0  0  0
 71 81  2  0  0  0
 71 82  1  0  0  0
 71143  1  0  0  0
 72 73  2  0  0  0
 72 75  1  0  0  0
 72 81  1  0  0  0
 73 76  1  0  0  0
 73 82  1  0  0  0
 74 78  1  0  0  0
 74144  1  0  0  0
 74145  1  0  0  0
 74146  1  0  0  0
 75 80  1  0  0  0
 75147  1  0  0  0
 75148  1  0  0  0
 76 77  1  0  0  0
 76149  1  0  0  0
 76150  1  0  0  0
 77 79  1  0  0  0
 77151  1  0  0  0
 77152  1  0  0  0
 78 82  1  0  0  0
 78153  1  0  0  0
 78154  1  0  0  0
 79 83  1  0  0  0
 79155  1  0  0  0
 79156  1  0  0  0
 80157  1  0  0  0
 80158  1  0  0  0
 83159  1  0  0  0
M  ISO  4   1 100  68 101  80 101  83 100
M  END
> <chiral flag>
0

> <version>
0

> <s_m_source_file>
/data/baiqing/PycharmProjects/Reinvent-master-3.2/result/LINK_invent/BTK/process_docking_weight1_custom_sum_contain_oxygen_bond_distance_aromatic_linkinvent_7_9_3/rearranged_h_0044.sdf

> <i_m_source_file_index>
74

> <r_mmod_Potential_Energy-OPLS-2005>
274.644195556641

> <r_mmod_Stretch_Energy-OPLS-2005>
141.263809204102

> <r_mmod_Bend_Energy-OPLS-2005>
241.617752075195

> <r_mmod_Torsional_Energy-OPLS-2005>
252.423110961914

> <r_mmod_Improper_Torsional_Energy-OPLS-2005>
5.36894369125366

> <r_mmod_Van_der_Waal_Energy-OPLS-2005>
120.226295471191

> <r_mmod_Electrostatic_Energy-OPLS-2005>
-350.170837402344

> <r_mmod_Solvation_Energy-OPLS-2005>
-228.546783447266

> <b_mmod_Minimization_Converged-OPLS-2005>
0

> <r_mmod_RMS_Derivative-OPLS-2005>
1.95934557914734

$$$$
74
                    3D
 Structure written by MMmdl.
174182  0  0  1  0            999 V2000
  -30.7027  -14.4001   20.5278 C   0  0  0  0  0  0
  -30.4102  -12.2346   19.4327 C   0  0  0  0  0  0
  -29.4923  -12.4772   18.2140 C   0  0  0  0  0  0
  -28.0076  -12.3754   18.6148 C   0  0  0  0  0  0
  -27.6605  -13.2026   19.8788 C   0  0  2  0  0  0
  -28.7000  -12.9681   21.0047 C   0  0  0  0  0  0
  -25.2603  -13.8174   20.5709 C   0  0  0  0  0  0
  -24.1864  -13.0439   20.9178 C   0  0  0  0  0  0
  -24.6428  -11.6917   20.8789 C   0  0  0  0  0  0
  -23.9110  -10.4295   21.0418 C   0  0  0  0  0  0
  -24.3642   -9.4208   21.9203 C   0  0  0  0  0  0
  -23.6303   -8.2242   22.0768 C   0  0  0  0  0  0
  -22.4302   -8.0280   21.3545 C   0  0  0  0  0  0
  -21.9938   -9.0258   20.4655 C   0  0  0  0  0  0
  -22.7280  -10.2120   20.3070 C   0  0  0  0  0  0
  -21.6852   -6.0762   22.5289 C   0  0  0  0  0  0
  -21.4007   -6.5649   23.8224 C   0  0  0  0  0  0
  -21.3668   -5.6797   24.9181 C   0  0  0  0  0  0
  -21.6068   -4.3056   24.7235 C   0  0  0  0  0  0
  -21.8822   -3.8155   23.4349 C   0  0  0  0  0  0
  -21.9200   -4.6986   22.3405 C   0  0  0  0  0  0
  -22.7894  -13.5233   21.1873 C   0  0  0  0  0  0
  -22.1671   -4.2168   21.0984 F   0  0  0  0  0  0
  -21.5631   -3.4552   25.7746 F   0  0  0  0  0  0
  -30.0421  -13.2201   20.4574 N   0  0  0  0  0  0
  -26.3032  -12.9318   20.3394 N   0  0  0  0  0  0
  -25.9340  -11.6495   20.5799 N   0  0  0  0  0  0
  -22.0554  -12.8177   22.0402 N   0  0  0  0  0  0
  -25.4327  -15.1885   20.4108 N   0  0  0  0  0  0
  -31.8652  -14.5629   20.1500 O   0  0  0  0  0  0
  -21.6643   -6.8896   21.4247 O   0  0  0  0  0  0
  -22.3576  -14.5547   20.6728 O   0  0  0  0  0  0
  -24.6082  -31.8704   23.2154 C   0  0  0  0  0  0
  -25.9002  -32.4836   23.8428 C   0  0  1  0  0  0
  -27.2446  -27.4842   20.0969 C   0  0  0  0  0  0
  -25.5880  -33.8634   24.2364 N   0  0  0  0  0  0
  -23.3953  -30.4940   21.5520 C   0  0  2  0  0  0
  -24.8458  -28.9581   20.1245 C   0  0  0  0  0  0
  -22.7367  -29.4676   22.5009 C   0  0  0  0  0  0
  -18.0263  -28.1367   22.8494 C   0  0  0  0  0  0
  -24.1478  -36.7316   23.2640 C   0  0  0  0  0  0
  -25.9180  -30.8496   21.3627 C   0  0  0  0  0  0
  -25.9992  -29.4832   20.7201 C   0  0  0  0  0  0
  -27.2035  -28.7507   20.7085 C   0  0  0  0  0  0
  -26.0817  -26.9552   19.5015 C   0  0  0  0  0  0
  -24.8768  -27.6880   19.5189 C   0  0  0  0  0  0
  -23.6043  -29.8207   20.1685 C   0  0  0  0  0  0
  -25.4095  -36.3126   24.0350 C   0  0  1  0  0  0
  -20.5846  -28.3647   23.1325 C   0  0  2  0  0  0
  -20.6754  -26.9392   22.5411 C   0  0  0  0  0  0
  -19.5735  -26.6392   21.5204 C   0  0  0  0  0  0
  -18.1914  -26.7924   22.1619 C   0  0  0  0  0  0
  -19.1507  -28.8828   23.2913 C   0  0  0  0  0  0
  -18.9447  -30.1434   23.8916 C   0  0  0  0  0  0
  -17.6448  -30.6582   24.0571 C   0  0  0  0  0  0
  -25.9017  -34.9489   23.5150 C   0  0  0  0  0  0
  -16.5342  -29.9084   23.6324 C   0  0  0  0  0  0
  -16.7254  -28.6503   23.0352 C   0  0  0  0  0  0
  -26.4461  -31.6595   25.0720 C   0  0  0  0  0  0
  -25.3763  -31.3654   26.1485 C   0  0  0  0  0  0
  -27.0290  -30.3057   24.6051 C   0  0  0  0  0  0
  -27.6052  -32.4296   25.7469 C   0  0  0  0  0  0
  -27.5576  -37.1812   24.8469 C   0  0  0  0  0  0
  -21.4106  -29.3027   22.3737 N   0  0  0  0  0  0
  -26.4288  -37.3804   23.9411 N   0  0  0  0  0  0
  -24.6581  -31.0858   22.1017 N   0  0  0  0  0  0
  -23.4160  -28.8221   23.3042 O   0  0  0  0  0  0
  -28.4240  -26.7999   20.0100 O   0  0  0  0  0  0
  -26.5585  -34.8926   22.4711 O   0  0  0  0  0  0
  -23.5287  -32.1438   23.7572 O   0  0  0  0  0  0
  -31.9423  -24.4052   20.6270 C   0  0  0  0  0  0
  -31.2945  -23.8886   19.5278 C   0  0  0  0  0  0
  -29.9036  -25.1285   20.6846 C   0  0  0  0  0  0
  -33.3699  -24.2295   21.0529 C   0  0  0  0  0  0
  -31.0621  -18.2770   17.0663 C   0  0  0  0  0  0
  -32.5136  -18.8248   19.0641 C   0  0  0  0  0  0
  -28.9262  -24.1363   18.5970 C   0  0  0  0  0  0
  -31.7984  -22.9677   18.4611 C   0  0  0  0  0  0
  -28.6506  -25.8678   21.0577 C   0  0  0  0  0  0
  -29.9255  -17.9406   20.3570 C   0  0  0  0  0  0
  -29.9435  -19.0451   19.2743 C   0  0  0  0  0  0
  -29.9192  -16.5479   19.7297 C   0  0  0  0  0  0
  -31.2923  -20.6274   17.7958 C   0  0  0  0  0  0
  -31.1967  -19.1725   18.3282 C   0  0  0  0  0  0
  -31.0491  -25.1784   21.3655 N   0  0  0  0  0  0
  -29.9859  -24.3728   19.5720 N   0  0  0  0  0  0
  -29.8769  -15.4439   20.6800 N   0  0  0  0  0  0
  -31.5539  -21.5827   18.8850 N   0  3  0  0  0  0
  -31.4577  -12.3104   19.1337 H   0  0  0  0  0  0
  -30.2732  -11.2233   19.8210 H   0  0  0  0  0  0
  -29.7073  -11.7572   17.4250 H   0  0  0  0  0  0
  -29.6996  -13.4597   17.7887 H   0  0  0  0  0  0
  -27.7851  -11.3235   18.7937 H   0  0  0  0  0  0
  -27.3710  -12.6836   17.7835 H   0  0  0  0  0  0
  -27.7043  -14.2496   19.5777 H   0  0  0  0  0  0
  -28.6470  -11.9418   21.3683 H   0  0  0  0  0  0
  -28.4877  -13.6033   21.8668 H   0  0  0  0  0  0
  -25.2799   -9.5674   22.4790 H   0  0  0  0  0  0
  -24.0038   -7.4630   22.7472 H   0  0  0  0  0  0
  -21.0881   -8.8781   19.8934 H   0  0  0  0  0  0
  -22.3769  -10.9670   19.6172 H   0  0  0  0  0  0
  -21.1984   -7.6144   23.9723 H   0  0  0  0  0  0
  -21.1489   -6.0530   25.9079 H   0  0  0  0  0  0
  -22.0594   -2.7637   23.2845 H   0  0  0  0  0  0
  -22.4185  -11.9752   22.4653 H   0  0  0  0  0  0
  -21.1197  -13.1224   22.2685 H   0  0  0  0  0  0
  -24.6648  -15.8458   20.5063 H   0  0  0  0  0  0
  -26.2845  -15.6282   20.0847 H   0  0  0  0  0  0
  -26.7068  -32.5582   23.1195 H   0  0  0  0  0  0
  -25.0036  -33.9802   25.0516 H   0  0  0  0  0  0
  -22.6820  -31.3092   21.4115 H   0  0  0  0  0  0
  -23.3739  -35.9652   23.3319 H   0  0  0  0  0  0
  -24.3574  -36.8905   22.2051 H   0  0  0  0  0  0
  -23.7227  -37.6528   23.6631 H   0  0  0  0  0  0
  -26.0224  -31.6147   20.5927 H   0  0  0  0  0  0
  -26.8072  -30.9076   21.9778 H   0  0  0  0  0  0
  -28.1005  -29.1627   21.1523 H   0  0  0  0  0  0
  -26.1146  -25.9925   19.0140 H   0  0  0  0  0  0
  -23.9913  -27.2760   19.0553 H   0  0  0  0  0  0
  -23.7110  -30.5921   19.4055 H   0  0  0  0  0  0
  -22.7307  -29.2369   19.8745 H   0  0  0  0  0  0
  -25.1268  -36.2002   25.0845 H   0  0  0  0  0  0
  -20.9950  -28.3215   24.1443 H   0  0  0  0  0  0
  -20.5658  -26.2257   23.3590 H   0  0  0  0  0  0
  -21.6628  -26.7446   22.1201 H   0  0  0  0  0  0
  -19.6898  -25.6314   21.1209 H   0  0  0  0  0  0
  -19.6678  -27.3224   20.6751 H   0  0  0  0  0  0
  -17.4188  -26.6679   21.4020 H   0  0  0  0  0  0
  -18.0321  -26.0053   22.8999 H   0  0  0  0  0  0
  -19.7923  -30.7248   24.2298 H   0  0  0  0  0  0
  -17.5006  -31.6263   24.5158 H   0  0  0  0  0  0
  -15.5339  -30.2995   23.7641 H   0  0  0  0  0  0
  -15.8657  -28.0830   22.7052 H   0  0  0  0  0  0
  -24.5940  -30.6992   25.7823 H   0  0  0  0  0  0
  -24.8942  -32.2782   26.4996 H   0  0  0  0  0  0
  -25.8150  -30.8785   27.0207 H   0  0  0  0  0  0
  -26.2811  -29.6803   24.1156 H   0  0  0  0  0  0
  -27.4144  -29.7293   25.4475 H   0  0  0  0  0  0
  -27.8611  -30.4396   23.9132 H   0  0  0  0  0  0
  -27.2699  -33.3589   26.2088 H   0  0  0  0  0  0
  -28.3844  -32.6863   25.0278 H   0  0  0  0  0  0
  -28.0746  -31.8390   26.5350 H   0  0  0  0  0  0
  -28.2606  -38.0104   24.7519 H   0  0  0  0  0  0
  -28.1065  -36.2632   24.6290 H   0  0  0  0  0  0
  -27.2294  -37.1460   25.8876 H   0  0  0  0  0  0
  -20.9256  -29.8735   21.6950 H   0  0  0  0  0  0
  -26.0184  -38.2883   24.1419 H   0  0  0  0  0  0
  -34.0526  -24.3711   20.2145 H   0  0  0  0  0  0
  -33.5503  -23.2329   21.4563 H   0  0  0  0  0  0
  -33.6517  -24.9504   21.8199 H   0  0  0  0  0  0
  -31.1546  -17.2120   17.2553 H   0  0  0  0  0  0
  -31.8401  -18.5012   16.3359 H   0  0  0  0  0  0
  -30.1072  -18.4260   16.5633 H   0  0  0  0  0  0
  -32.6128  -17.7562   19.2530 H   0  0  0  0  0  0
  -32.5701  -19.3155   20.0365 H   0  0  0  0  0  0
  -33.3935  -19.1225   18.4874 H   0  0  0  0  0  0
  -28.8857  -24.9732   17.8983 H   0  0  0  0  0  0
  -27.9608  -24.0477   19.0940 H   0  0  0  0  0  0
  -29.0943  -23.2171   18.0391 H   0  0  0  0  0  0
  -32.8658  -23.1114   18.2885 H   0  0  0  0  0  0
  -31.3049  -23.1809   17.5117 H   0  0  0  0  0  0
  -28.7845  -26.3762   22.0135 H   0  0  0  0  0  0
  -27.8249  -25.1615   21.1582 H   0  0  0  0  0  0
  -29.0222  -18.0616   20.9622 H   0  0  0  0  0  0
  -30.7579  -18.0583   21.0528 H   0  0  0  0  0  0
  -29.0438  -18.9383   18.6696 H   0  0  0  0  0  0
  -29.7901  -19.9768   19.8171 H   0  0  0  0  0  0
  -30.7970  -16.4471   19.1038 H   0  0  0  0  0  0
  -29.0633  -16.4465   19.0615 H   0  0  0  0  0  0
  -30.3709  -20.9054   17.2798 H   0  0  0  0  0  0
  -32.0953  -20.7146   17.0586 H   0  0  0  0  0  0
  -28.9591  -15.2064   21.0304 H   0  0  0  0  0  0
  -30.7574  -21.5853   19.5006 H   0  0  0  0  0  0
  -32.3502  -21.2573   19.4080 H   0  0  0  0  0  0
  1 25  1  0  0  0
  1 30  2  0  0  0
  1 87  1  0  0  0
  2  3  1  0  0  0
  2 25  1  0  0  0
  2 89  1  0  0  0
  2 90  1  0  0  0
  3  4  1  0  0  0
  3 91  1  0  0  0
  3 92  1  0  0  0
  4  5  1  0  0  0
  4 93  1  0  0  0
  4 94  1  0  0  0
  5  6  1  0  0  0
  5 26  1  0  0  0
  5 95  1  0  0  0
  6 25  1  0  0  0
  6 96  1  0  0  0
  6 97  1  0  0  0
  7  8  2  0  0  0
  7 26  1  0  0  0
  7 29  1  0  0  0
  8  9  1  0  0  0
  8 22  1  0  0  0
  9 10  1  0  0  0
  9 27  2  0  0  0
 10 11  2  0  0  0
 10 15  1  0  0  0
 11 12  1  0  0  0
 11 98  1  0  0  0
 12 13  2  0  0  0
 12 99  1  0  0  0
 13 14  1  0  0  0
 13 31  1  0  0  0
 14 15  2  0  0  0
 14100  1  0  0  0
 15101  1  0  0  0
 16 17  2  0  0  0
 16 21  1  0  0  0
 16 31  1  0  0  0
 17 18  1  0  0  0
 17102  1  0  0  0
 18 19  2  0  0  0
 18103  1  0  0  0
 19 20  1  0  0  0
 19 24  1  0  0  0
 20 21  2  0  0  0
 20104  1  0  0  0
 21 23  1  0  0  0
 22 28  1  0  0  0
 22 32  2  0  0  0
 26 27  1  0  0  0
 28105  1  0  0  0
 28106  1  0  0  0
 29107  1  0  0  0
 29108  1  0  0  0
 33 34  1  0  0  0
 33 66  1  0  0  0
 33 70  2  0  0  0
 34 36  1  0  0  0
 34 59  1  0  0  0
 34109  1  0  0  0
 35 44  2  0  0  0
 35 45  1  0  0  0
 35 68  1  0  0  0
 36 56  1  0  0  0
 36110  1  0  0  0
 37 39  1  0  0  0
 37 47  1  0  0  0
 37 66  1  0  0  0
 37111  1  0  0  0
 38 43  2  0  0  0
 38 46  1  0  0  0
 38 47  1  0  0  0
 39 64  1  0  0  0
 39 67  2  0  0  0
 40 52  1  0  0  0
 40 53  2  0  0  0
 40 58  1  0  0  0
 41112  1  0  0  0
 41113  1  0  0  0
 41114  1  0  0  0
 41 48  1  0  0  0
 42 43  1  0  0  0
 42 66  1  0  0  0
 42115  1  0  0  0
 42116  1  0  0  0
 43 44  1  0  0  0
 44117  1  0  0  0
 45 46  2  0  0  0
 45118  1  0  0  0
 46119  1  0  0  0
 47120  1  0  0  0
 47121  1  0  0  0
 48 56  1  0  0  0
 48 65  1  0  0  0
 48122  1  0  0  0
 49 50  1  0  0  0
 49 53  1  0  0  0
 49 64  1  0  0  0
 49123  1  0  0  0
 50 51  1  0  0  0
 50124  1  0  0  0
 50125  1  0  0  0
 51 52  1  0  0  0
 51126  1  0  0  0
 51127  1  0  0  0
 52128  1  0  0  0
 52129  1  0  0  0
 53 54  1  0  0  0
 54 55  2  0  0  0
 54130  1  0  0  0
 55 57  1  0  0  0
 55131  1  0  0  0
 56 69  2  0  0  0
 57 58  2  0  0  0
 57132  1  0  0  0
 58133  1  0  0  0
 59 60  1  0  0  0
 59 61  1  0  0  0
 59 62  1  0  0  0
 60134  1  0  0  0
 60135  1  0  0  0
 60136  1  0  0  0
 61137  1  0  0  0
 61138  1  0  0  0
 61139  1  0  0  0
 62140  1  0  0  0
 62141  1  0  0  0
 62142  1  0  0  0
 63 65  1  0  0  0
 63143  1  0  0  0
 63144  1  0  0  0
 63145  1  0  0  0
 64146  1  0  0  0
 65147  1  0  0  0
 68 79  1  0  0  0
 71 72  2  0  0  0
 71 74  1  0  0  0
 71 85  1  0  0  0
 72 78  1  0  0  0
 72 86  1  0  0  0
 73 79  1  0  0  0
 73 85  2  0  0  0
 73 86  1  0  0  0
 74148  1  0  0  0
 74149  1  0  0  0
 74150  1  0  0  0
 75151  1  0  0  0
 75152  1  0  0  0
 75153  1  0  0  0
 75 84  1  0  0  0
 76 84  1  0  0  0
 76154  1  0  0  0
 76155  1  0  0  0
 76156  1  0  0  0
 77 86  1  0  0  0
 77157  1  0  0  0
 77158  1  0  0  0
 77159  1  0  0  0
 78 88  1  0  0  0
 78160  1  0  0  0
 78161  1  0  0  0
 79162  1  0  0  0
 79163  1  0  0  0
 80 81  1  0  0  0
 80 82  1  0  0  0
 80164  1  0  0  0
 80165  1  0  0  0
 81 84  1  0  0  0
 81166  1  0  0  0
 81167  1  0  0  0
 82 87  1  0  0  0
 82168  1  0  0  0
 82169  1  0  0  0
 83 84  1  0  0  0
 83 88  1  0  0  0
 83170  1  0  0  0
 83171  1  0  0  0
 87172  1  0  0  0
 88173  1  0  0  0
 88174  1  0  0  0
M  CHG  1  88   1
M  ISO  4   1 100  68 101  79 101  87 100
M  END
> <chiral flag>
0

> <version>
0

> <s_m_source_file>
/data/baiqing/PycharmProjects/Reinvent-master-3.2/result/LINK_invent/BTK/process_docking_weight1_custom_sum_contain_oxygen_bond_distance_aromatic_linkinvent_7_9_3/rearranged_h_0044.sdf

> <i_m_source_file_index>
75

> <r_mmod_Potential_Energy-OPLS-2005>
-195.525344848633

> <r_mmod_Stretch_Energy-OPLS-2005>
33.5296096801758

> <r_mmod_Bend_Energy-OPLS-2005>
106.322319030762

> <r_mmod_Torsional_Energy-OPLS-2005>
280.617614746094

> <r_mmod_Improper_Torsional_Energy-OPLS-2005>
13.3073959350586

> <r_mmod_Van_der_Waal_Energy-OPLS-2005>
136.291946411133

> <r_mmod_Electrostatic_Energy-OPLS-2005>
-313.463897705078

> <r_mmod_Solvation_Energy-OPLS-2005>
-463.542083740234

> <b_mmod_Minimization_Converged-OPLS-2005>
0

> <r_mmod_RMS_Derivative-OPLS-2005>
4.01073551177979

$$$$
75
                    3D
 Structure written by MMmdl.
160168  0  0  1  0            999 V2000
  -30.7524  -14.3606   20.6267 C   0  0  0  0  0  0
  -30.4009  -12.2615   19.3935 C   0  0  0  0  0  0
  -29.4805  -12.5104   18.1855 C   0  0  0  0  0  0
  -27.9992  -12.3877   18.5976 C   0  0  0  0  0  0
  -27.6574  -13.2050   19.8736 C   0  0  2  0  0  0
  -28.6963  -12.9430   20.9846 C   0  0  0  0  0  0
  -25.2558  -13.8168   20.5672 C   0  0  0  0  0  0
  -24.1813  -13.0451   20.9169 C   0  0  0  0  0  0
  -24.6340  -11.6907   20.8710 C   0  0  0  0  0  0
  -23.9004  -10.4297   21.0385 C   0  0  0  0  0  0
  -24.3574   -9.4225   21.9163 C   0  0  0  0  0  0
  -23.6282   -8.2249   22.0748 C   0  0  0  0  0  0
  -22.4270   -8.0266   21.3544 C   0  0  0  0  0  0
  -21.9872   -9.0224   20.4646 C   0  0  0  0  0  0
  -22.7167  -10.2125   20.3045 C   0  0  0  0  0  0
  -21.6858   -6.0709   22.5276 C   0  0  0  0  0  0
  -21.4015   -6.5625   23.8203 C   0  0  0  0  0  0
  -21.3681   -5.6791   24.9172 C   0  0  0  0  0  0
  -21.6052   -4.3050   24.7235 C   0  0  0  0  0  0
  -21.8823   -3.8124   23.4362 C   0  0  0  0  0  0
  -21.9199   -4.6934   22.3408 C   0  0  0  0  0  0
  -22.7838  -13.5251   21.1852 C   0  0  0  0  0  0
  -22.1666   -4.2112   21.0985 F   0  0  0  0  0  0
  -21.5643   -3.4539   25.7754 F   0  0  0  0  0  0
  -30.0315  -13.2300   20.4330 N   0  0  0  0  0  0
  -26.2980  -12.9333   20.3344 N   0  0  0  0  0  0
  -25.9264  -11.6492   20.5713 N   0  0  0  0  0  0
  -22.0493  -12.8231   22.0406 N   0  0  0  0  0  0
  -25.4307  -15.1892   20.4108 N   0  0  0  0  0  0
  -31.8771  -14.5302   20.1538 O   0  0  0  0  0  0
  -21.6668   -6.8843   21.4233 O   0  0  0  0  0  0
  -22.3517  -14.5554   20.6698 O   0  0  0  0  0  0
  -24.6096  -31.8688   23.2112 C   0  0  0  0  0  0
  -25.9013  -32.4814   23.8392 C   0  0  1  0  0  0
  -27.2370  -27.4815   20.0909 C   0  0  0  0  0  0
  -25.5890  -33.8614   24.2318 N   0  0  0  0  0  0
  -23.3942  -30.4897   21.5509 C   0  0  2  0  0  0
  -24.8435  -28.9626   20.1114 C   0  0  0  0  0  0
  -22.7381  -29.4634   22.5006 C   0  0  0  0  0  0
  -18.0264  -28.1358   22.8480 C   0  0  0  0  0  0
  -24.1488  -36.7333   23.2625 C   0  0  0  0  0  0
  -25.9173  -30.8526   21.3522 C   0  0  0  0  0  0
  -25.9997  -29.4901   20.7011 C   0  0  0  0  0  0
  -27.2026  -28.7574   20.6855 C   0  0  0  0  0  0
  -26.0683  -26.9532   19.5000 C   0  0  0  0  0  0
  -24.8706  -27.6916   19.5081 C   0  0  0  0  0  0
  -23.6001  -29.8198   20.1646 C   0  0  0  0  0  0
  -25.4104  -36.3106   24.0324 C   0  0  1  0  0  0
  -20.5837  -28.3620   23.1341 C   0  0  2  0  0  0
  -20.6748  -26.9366   22.5415 C   0  0  0  0  0  0
  -19.5739  -26.6384   21.5193 C   0  0  0  0  0  0
  -18.1916  -26.7905   22.1607 C   0  0  0  0  0  0
  -19.1508  -28.8815   23.2895 C   0  0  0  0  0  0
  -18.9449  -30.1426   23.8894 C   0  0  0  0  0  0
  -17.6455  -30.6564   24.0569 C   0  0  0  0  0  0
  -25.9032  -34.9469   23.5117 C   0  0  0  0  0  0
  -16.5339  -29.9075   23.6316 C   0  0  0  0  0  0
  -16.7258  -28.6492   23.0327 C   0  0  0  0  0  0
  -26.4481  -31.6582   25.0691 C   0  0  0  0  0  0
  -25.3779  -31.3674   26.1460 C   0  0  0  0  0  0
  -27.0302  -30.3040   24.6015 C   0  0  0  0  0  0
  -27.6072  -32.4282   25.7452 C   0  0  0  0  0  0
  -27.5572  -37.1793   24.8455 C   0  0  0  0  0  0
  -21.4112  -29.2999   22.3768 N   0  0  0  0  0  0
  -26.4286  -37.3791   23.9406 N   0  0  0  0  0  0
  -24.6590  -31.0810   22.0999 N   0  0  0  0  0  0
  -23.4182  -28.8172   23.3019 O   0  0  0  0  0  0
  -28.4050  -26.7660   20.1020 O   0  0  0  0  0  0
  -26.5590  -34.8915   22.4677 O   0  0  0  0  0  0
  -23.5304  -32.1430   23.7541 O   0  0  0  0  0  0
  -31.2043  -17.4560   19.3377 C   0  0  0  0  0  0
  -31.2725  -18.5748   18.5062 C   0  0  0  0  0  0
  -30.7923  -17.6585   20.6635 C   0  0  0  0  0  0
  -30.5024  -19.8811   20.2048 C   0  0  0  0  0  0
  -31.2917  -22.2027   20.8187 C   0  0  0  0  0  0
  -30.7586  -16.5689   21.7307 C   0  0  0  0  0  0
  -28.2270  -23.0296   20.5146 C   0  0  0  0  0  0
  -28.6625  -24.3681   19.9008 C   0  0  0  0  0  0
  -28.9068  -21.8093   19.8765 C   0  0  0  0  0  0
  -28.3219  -25.5402   20.8221 C   0  0  0  0  0  0
  -30.0859  -21.2557   20.7031 C   0  0  1  0  0  0
  -30.9242  -19.7925   18.9495 N   0  0  0  0  0  0
  -30.4284  -18.8832   21.0779 N   0  0  0  0  0  0
  -30.1373  -15.3181   21.3201 N   0  0  0  0  0  0
  -31.4490  -12.3294   19.0974 H   0  0  0  0  0  0
  -30.2654  -11.2465   19.7680 H   0  0  0  0  0  0
  -29.7080  -11.8032   17.3860 H   0  0  0  0  0  0
  -29.6705  -13.5039   17.7781 H   0  0  0  0  0  0
  -27.7833  -11.3315   18.7667 H   0  0  0  0  0  0
  -27.3565  -12.6965   17.7732 H   0  0  0  0  0  0
  -27.7141  -14.2603   19.6054 H   0  0  0  0  0  0
  -28.6527  -11.8975   21.2940 H   0  0  0  0  0  0
  -28.4650  -13.5164   21.8834 H   0  0  0  0  0  0
  -25.2714   -9.5751   22.4719 H   0  0  0  0  0  0
  -24.0023   -7.4660   22.7474 H   0  0  0  0  0  0
  -21.0796   -8.8700   19.8962 H   0  0  0  0  0  0
  -22.3572  -10.9648   19.6160 H   0  0  0  0  0  0
  -21.1985   -7.6132   23.9679 H   0  0  0  0  0  0
  -21.1519   -6.0535   25.9076 H   0  0  0  0  0  0
  -22.0579   -2.7579   23.2877 H   0  0  0  0  0  0
  -22.4114  -11.9908   22.4816 H   0  0  0  0  0  0
  -21.1108  -13.1251   22.2602 H   0  0  0  0  0  0
  -24.6715  -15.8521   20.5278 H   0  0  0  0  0  0
  -26.2862  -15.6213   20.0868 H   0  0  0  0  0  0
  -26.7083  -32.5542   23.1159 H   0  0  0  0  0  0
  -25.0024  -33.9807   25.0448 H   0  0  0  0  0  0
  -22.6772  -31.3024   21.4105 H   0  0  0  0  0  0
  -23.3724  -35.9690   23.3295 H   0  0  0  0  0  0
  -24.3580  -36.8952   22.2036 H   0  0  0  0  0  0
  -23.7273  -37.6552   23.6651 H   0  0  0  0  0  0
  -26.0104  -31.6188   20.5798 H   0  0  0  0  0  0
  -26.8136  -30.9166   21.9569 H   0  0  0  0  0  0
  -28.0998  -29.1586   21.1355 H   0  0  0  0  0  0
  -26.0862  -25.9765   19.0368 H   0  0  0  0  0  0
  -23.9800  -27.2810   19.0505 H   0  0  0  0  0  0
  -23.6992  -30.5939   19.4024 H   0  0  0  0  0  0
  -22.7279  -29.2311   19.8721 H   0  0  0  0  0  0
  -25.1272  -36.1962   25.0816 H   0  0  0  0  0  0
  -20.9920  -28.3175   24.1464 H   0  0  0  0  0  0
  -20.5635  -26.2217   23.3584 H   0  0  0  0  0  0
  -21.6624  -26.7420   22.1202 H   0  0  0  0  0  0
  -19.6902  -25.6313   21.1188 H   0  0  0  0  0  0
  -19.6687  -27.3221   20.6745 H   0  0  0  0  0  0
  -17.4176  -26.6637   21.4017 H   0  0  0  0  0  0
  -18.0334  -26.0051   22.9012 H   0  0  0  0  0  0
  -19.7935  -30.7240   24.2245 H   0  0  0  0  0  0
  -17.5020  -31.6245   24.5183 H   0  0  0  0  0  0
  -15.5338  -30.2987   23.7653 H   0  0  0  0  0  0
  -15.8648  -28.0843   22.7012 H   0  0  0  0  0  0
  -24.5939  -30.7034   25.7801 H   0  0  0  0  0  0
  -24.8990  -32.2832   26.4939 H   0  0  0  0  0  0
  -25.8160  -30.8818   27.0188 H   0  0  0  0  0  0
  -26.2817  -29.6770   24.1154 H   0  0  0  0  0  0
  -27.4199  -29.7287   25.4421 H   0  0  0  0  0  0
  -27.8595  -30.4362   23.9058 H   0  0  0  0  0  0
  -27.2707  -33.3553   26.2107 H   0  0  0  0  0  0
  -28.3867  -32.6885   25.0276 H   0  0  0  0  0  0
  -28.0777  -31.8357   26.5311 H   0  0  0  0  0  0
  -28.2576  -38.0097   24.7506 H   0  0  0  0  0  0
  -28.1076  -36.2625   24.6278 H   0  0  0  0  0  0
  -27.2287  -37.1446   25.8855 H   0  0  0  0  0  0
  -20.9259  -29.8760   21.7038 H   0  0  0  0  0  0
  -26.0166  -38.2855   24.1453 H   0  0  0  0  0  0
  -31.5068  -16.5005   18.9446 H   0  0  0  0  0  0
  -31.6193  -18.4974   17.4877 H   0  0  0  0  0  0
  -32.0950  -21.7321   21.3889 H   0  0  0  0  0  0
  -31.0236  -23.1277   21.3274 H   0  0  0  0  0  0
  -31.6859  -22.4565   19.8350 H   0  0  0  0  0  0
  -30.2089  -16.9269   22.6026 H   0  0  0  0  0  0
  -31.7757  -16.3890   22.0815 H   0  0  0  0  0  0
  -27.1460  -22.9369   20.3970 H   0  0  0  0  0  0
  -28.3999  -23.0290   21.5922 H   0  0  0  0  0  0
  -28.1657  -24.4921   18.9382 H   0  0  0  0  0  0
  -29.7327  -24.3821   19.6938 H   0  0  0  0  0  0
  -29.2169  -22.0187   18.8516 H   0  0  0  0  0  0
  -28.1590  -21.0185   19.7989 H   0  0  0  0  0  0
  -29.0355  -25.5715   21.6464 H   0  0  0  0  0  0
  -27.3418  -25.3891   21.2818 H   0  0  0  0  0  0
  -29.7108  -21.1118   21.7173 H   0  0  0  0  0  0
  -29.1935  -15.1486   21.6298 H   0  0  0  0  0  0
  1 25  1  0  0  0
  1 30  2  0  0  0
  1 84  1  0  0  0
  2  3  1  0  0  0
  2 25  1  0  0  0
  2 85  1  0  0  0
  2 86  1  0  0  0
  3  4  1  0  0  0
  3 87  1  0  0  0
  3 88  1  0  0  0
  4  5  1  0  0  0
  4 89  1  0  0  0
  4 90  1  0  0  0
  5  6  1  0  0  0
  5 26  1  0  0  0
  5 91  1  0  0  0
  6 25  1  0  0  0
  6 92  1  0  0  0
  6 93  1  0  0  0
  7  8  2  0  0  0
  7 26  1  0  0  0
  7 29  1  0  0  0
  8  9  1  0  0  0
  8 22  1  0  0  0
  9 10  1  0  0  0
  9 27  2  0  0  0
 10 11  2  0  0  0
 10 15  1  0  0  0
 11 12  1  0  0  0
 11 94  1  0  0  0
 12 13  2  0  0  0
 12 95  1  0  0  0
 13 14  1  0  0  0
 13 31  1  0  0  0
 14 15  2  0  0  0
 14 96  1  0  0  0
 15 97  1  0  0  0
 16 17  2  0  0  0
 16 21  1  0  0  0
 16 31  1  0  0  0
 17 18  1  0  0  0
 17 98  1  0  0  0
 18 19  2  0  0  0
 18 99  1  0  0  0
 19 20  1  0  0  0
 19 24  1  0  0  0
 20 21  2  0  0  0
 20100  1  0  0  0
 21 23  1  0  0  0
 22 28  1  0  0  0
 22 32  2  0  0  0
 26 27  1  0  0  0
 28101  1  0  0  0
 28102  1  0  0  0
 29103  1  0  0  0
 29104  1  0  0  0
 33 34  1  0  0  0
 33 66  1  0  0  0
 33 70  2  0  0  0
 34 36  1  0  0  0
 34 59  1  0  0  0
 34105  1  0  0  0
 35 44  2  0  0  0
 35 45  1  0  0  0
 35 68  1  0  0  0
 36 56  1  0  0  0
 36106  1  0  0  0
 37 39  1  0  0  0
 37 47  1  0  0  0
 37 66  1  0  0  0
 37107  1  0  0  0
 38 43  2  0  0  0
 38 46  1  0  0  0
 38 47  1  0  0  0
 39 64  1  0  0  0
 39 67  2  0  0  0
 40 52  1  0  0  0
 40 53  2  0  0  0
 40 58  1  0  0  0
 41108  1  0  0  0
 41109  1  0  0  0
 41110  1  0  0  0
 41 48  1  0  0  0
 42 43  1  0  0  0
 42 66  1  0  0  0
 42111  1  0  0  0
 42112  1  0  0  0
 43 44  1  0  0  0
 44113  1  0  0  0
 45 46  2  0  0  0
 45114  1  0  0  0
 46115  1  0  0  0
 47116  1  0  0  0
 47117  1  0  0  0
 48 56  1  0  0  0
 48 65  1  0  0  0
 48118  1  0  0  0
 49 50  1  0  0  0
 49 53  1  0  0  0
 49 64  1  0  0  0
 49119  1  0  0  0
 50 51  1  0  0  0
 50120  1  0  0  0
 50121  1  0  0  0
 51 52  1  0  0  0
 51122  1  0  0  0
 51123  1  0  0  0
 52124  1  0  0  0
 52125  1  0  0  0
 53 54  1  0  0  0
 54 55  2  0  0  0
 54126  1  0  0  0
 55 57  1  0  0  0
 55127  1  0  0  0
 56 69  2  0  0  0
 57 58  2  0  0  0
 57128  1  0  0  0
 58129  1  0  0  0
 59 60  1  0  0  0
 59 61  1  0  0  0
 59 62  1  0  0  0
 60130  1  0  0  0
 60131  1  0  0  0
 60132  1  0  0  0
 61133  1  0  0  0
 61134  1  0  0  0
 61135  1  0  0  0
 62136  1  0  0  0
 62137  1  0  0  0
 62138  1  0  0  0
 63 65  1  0  0  0
 63139  1  0  0  0
 63140  1  0  0  0
 63141  1  0  0  0
 64142  1  0  0  0
 65143  1  0  0  0
 68 80  1  0  0  0
 71 72  2  0  0  0
 71 73  1  0  0  0
 71144  1  0  0  0
 72 82  1  0  0  0
 72145  1  0  0  0
 73 76  1  0  0  0
 73 83  2  0  0  0
 74 81  1  0  0  0
 74 82  2  0  0  0
 74 83  1  0  0  0
 75146  1  0  0  0
 75147  1  0  0  0
 75148  1  0  0  0
 75 81  1  0  0  0
 76 84  1  0  0  0
 76149  1  0  0  0
 76150  1  0  0  0
 77 78  1  0  0  0
 77 79  1  0  0  0
 77151  1  0  0  0
 77152  1  0  0  0
 78 80  1  0  0  0
 78153  1  0  0  0
 78154  1  0  0  0
 79 81  1  0  0  0
 79155  1  0  0  0
 79156  1  0  0  0
 80157  1  0  0  0
 80158  1  0  0  0
 81159  1  0  0  0
 84160  1  0  0  0
M  ISO  4   1 100  68 101  80 101  84 100
M  END
> <chiral flag>
0

> <version>
0

> <s_m_source_file>
/data/baiqing/PycharmProjects/Reinvent-master-3.2/result/LINK_invent/BTK/process_docking_weight1_custom_sum_contain_oxygen_bond_distance_aromatic_linkinvent_7_9_3/rearranged_h_0044.sdf

> <i_m_source_file_index>
76

> <r_mmod_Potential_Energy-OPLS-2005>
-661.489868164062

> <r_mmod_Stretch_Energy-OPLS-2005>
29.0720176696777

> <r_mmod_Bend_Energy-OPLS-2005>
92.2678298950195

> <r_mmod_Torsional_Energy-OPLS-2005>
207.064056396484

> <r_mmod_Improper_Torsional_Energy-OPLS-2005>
1.94175362586975

> <r_mmod_Van_der_Waal_Energy-OPLS-2005>
171.387603759766

> <r_mmod_Electrostatic_Energy-OPLS-2005>
-953.211791992188

> <r_mmod_Solvation_Energy-OPLS-2005>
-220.919372558594

> <b_mmod_Minimization_Converged-OPLS-2005>
0

> <r_mmod_RMS_Derivative-OPLS-2005>
2.60940933227539

$$$$
76
                    3D
 Structure written by MMmdl.
157165  0  0  1  0            999 V2000
  -30.6619  -14.4974   20.5265 C   0  0  0  0  0  0
  -30.4141  -12.2987   19.4208 C   0  0  0  0  0  0
  -29.4712  -12.4643   18.2098 C   0  0  0  0  0  0
  -27.9977  -12.3269   18.6416 C   0  0  0  0  0  0
  -27.6507  -13.1965   19.8791 C   0  0  2  0  0  0
  -28.6982  -12.9853   20.9941 C   0  0  0  0  0  0
  -25.2528  -13.8161   20.5716 C   0  0  0  0  0  0
  -24.1764  -13.0426   20.9235 C   0  0  0  0  0  0
  -24.6317  -11.6912   20.8807 C   0  0  0  0  0  0
  -23.8982  -10.4289   21.0490 C   0  0  0  0  0  0
  -24.3567   -9.4177   21.9218 C   0  0  0  0  0  0
  -23.6291   -8.2178   22.0755 C   0  0  0  0  0  0
  -22.4243   -8.0231   21.3553 C   0  0  0  0  0  0
  -21.9886   -9.0211   20.4652 C   0  0  0  0  0  0
  -22.7160  -10.2125   20.3119 C   0  0  0  0  0  0
  -21.6811   -6.0671   22.5281 C   0  0  0  0  0  0
  -21.3959   -6.5604   23.8214 C   0  0  0  0  0  0
  -21.3705   -5.6781   24.9204 C   0  0  0  0  0  0
  -21.6084   -4.3048   24.7256 C   0  0  0  0  0  0
  -21.8809   -3.8099   23.4374 C   0  0  0  0  0  0
  -21.9187   -4.6913   22.3420 C   0  0  0  0  0  0
  -22.7812  -13.5224   21.1965 C   0  0  0  0  0  0
  -22.1659   -4.2093   21.1004 F   0  0  0  0  0  0
  -21.5727   -3.4563   25.7771 F   0  0  0  0  0  0
  -30.0126  -13.3057   20.4166 N   0  0  0  0  0  0
  -26.2943  -12.9312   20.3437 N   0  0  0  0  0  0
  -25.9248  -11.6490   20.5879 N   0  0  0  0  0  0
  -22.0526  -12.8179   22.0558 N   0  0  0  0  0  0
  -25.4276  -15.1865   20.4080 N   0  0  0  0  0  0
  -31.8221  -14.6567   20.1431 O   0  0  0  0  0  0
  -21.6623   -6.8818   21.4236 O   0  0  0  0  0  0
  -22.3488  -14.5526   20.6828 O   0  0  0  0  0  0
  -24.6166  -31.8668   23.2021 C   0  0  0  0  0  0
  -25.9063  -32.4794   23.8321 C   0  0  1  0  0  0
  -27.2460  -27.3803   20.1340 C   0  0  0  0  0  0
  -25.5920  -33.8593   24.2270 N   0  0  0  0  0  0
  -23.4054  -30.4822   21.5452 C   0  0  2  0  0  0
  -24.8554  -28.9275   20.1307 C   0  0  0  0  0  0
  -22.7430  -29.4642   22.5005 C   0  0  0  0  0  0
  -18.0300  -28.1360   22.8510 C   0  0  0  0  0  0
  -24.1509  -36.7285   23.2643 C   0  0  0  0  0  0
  -25.9371  -30.8206   21.3553 C   0  0  0  0  0  0
  -26.0174  -29.4430   20.7168 C   0  0  0  0  0  0
  -27.2146  -28.6809   20.7070 C   0  0  0  0  0  0
  -26.0579  -26.8816   19.5601 C   0  0  0  0  0  0
  -24.8724  -27.6463   19.5535 C   0  0  0  0  0  0
  -23.6147  -29.7968   20.1670 C   0  0  0  0  0  0
  -25.4130  -36.3084   24.0329 C   0  0  1  0  0  0
  -20.5889  -28.3650   23.1357 C   0  0  2  0  0  0
  -20.6782  -26.9372   22.5481 C   0  0  0  0  0  0
  -19.5779  -26.6355   21.5262 C   0  0  0  0  0  0
  -18.1938  -26.7926   22.1605 C   0  0  0  0  0  0
  -19.1543  -28.8825   23.2928 C   0  0  0  0  0  0
  -18.9451  -30.1437   23.8917 C   0  0  0  0  0  0
  -17.6439  -30.6563   24.0559 C   0  0  0  0  0  0
  -25.9056  -34.9457   23.5088 C   0  0  0  0  0  0
  -16.5342  -29.9046   23.6322 C   0  0  0  0  0  0
  -16.7280  -28.6470   23.0351 C   0  0  0  0  0  0
  -26.4487  -31.6593   25.0650 C   0  0  0  0  0  0
  -25.3735  -31.3736   26.1379 C   0  0  0  0  0  0
  -27.0339  -30.3033   24.6063 C   0  0  0  0  0  0
  -27.6094  -32.4306   25.7390 C   0  0  0  0  0  0
  -27.5604  -37.1759   24.8438 C   0  0  0  0  0  0
  -21.4168  -29.2983   22.3734 N   0  0  0  0  0  0
  -26.4299  -37.3773   23.9410 N   0  0  0  0  0  0
  -24.6716  -31.0724   22.0919 N   0  0  0  0  0  0
  -23.4218  -28.8233   23.3071 O   0  0  0  0  0  0
  -28.4475  -26.6929   20.0377 O   0  0  0  0  0  0
  -26.5632  -34.8929   22.4649 O   0  0  0  0  0  0
  -23.5353  -32.1434   23.7413 O   0  0  0  0  0  0
  -28.7416  -21.7799   20.6972 C   0  0  0  0  0  0
  -28.6539  -22.7666   19.7211 C   0  0  0  0  0  0
  -29.8557  -21.0351   18.9289 C   0  0  0  0  0  0
  -30.7129  -20.2808   17.9657 C   0  0  0  0  0  0
  -27.9881  -24.1435   19.5920 C   0  0  0  0  0  0
  -29.5348  -18.0803   20.5017 C   0  0  0  0  0  0
  -30.0092  -19.5197   20.9317 C   0  0  0  0  0  0
  -30.3646  -16.9347   21.1874 C   0  0  0  0  0  0
  -28.6169  -25.2985   20.4363 C   0  0  0  0  0  0
  -29.4993  -20.7281   20.1922 N   0  0  0  0  0  0
  -29.3485  -22.2413   18.6612 N   0  3  0  0  0  0
  -29.9026  -15.5480   20.9284 N   0  0  0  0  0  0
  -31.4577  -12.3899   19.1159 H   0  0  0  0  0  0
  -30.3245  -11.2955   19.8419 H   0  0  0  0  0  0
  -29.6941  -11.7230   17.4443 H   0  0  0  0  0  0
  -29.6241  -13.4403   17.7471 H   0  0  0  0  0  0
  -27.8316  -11.2738   18.8811 H   0  0  0  0  0  0
  -27.3286  -12.5598   17.8114 H   0  0  0  0  0  0
  -27.6900  -14.2354   19.5545 H   0  0  0  0  0  0
  -28.6914  -11.9433   21.3199 H   0  0  0  0  0  0
  -28.4733  -13.5672   21.8915 H   0  0  0  0  0  0
  -25.2740   -9.5667   22.4736 H   0  0  0  0  0  0
  -24.0065   -7.4551   22.7436 H   0  0  0  0  0  0
  -21.0835   -8.8655   19.8928 H   0  0  0  0  0  0
  -22.3594  -10.9655   19.6227 H   0  0  0  0  0  0
  -21.1823   -7.6079   23.9684 H   0  0  0  0  0  0
  -21.1616   -6.0526   25.9123 H   0  0  0  0  0  0
  -22.0542   -2.7548   23.2874 H   0  0  0  0  0  0
  -22.4186  -11.9797   22.4818 H   0  0  0  0  0  0
  -21.1166  -13.1188   22.2866 H   0  0  0  0  0  0
  -24.6647  -15.8459   20.5201 H   0  0  0  0  0  0
  -26.2802  -15.6177   20.0777 H   0  0  0  0  0  0
  -26.7139  -32.5521   23.1090 H   0  0  0  0  0  0
  -25.0050  -33.9754   25.0406 H   0  0  0  0  0  0
  -22.6930  -31.2977   21.3982 H   0  0  0  0  0  0
  -23.3782  -35.9593   23.3253 H   0  0  0  0  0  0
  -24.3613  -36.8958   22.2066 H   0  0  0  0  0  0
  -23.7245  -37.6461   23.6704 H   0  0  0  0  0  0
  -26.0481  -31.5856   20.5851 H   0  0  0  0  0  0
  -26.8247  -30.8833   21.9708 H   0  0  0  0  0  0
  -28.1168  -29.0911   21.1420 H   0  0  0  0  0  0
  -26.0327  -25.9112   19.0957 H   0  0  0  0  0  0
  -23.9760  -27.2321   19.1145 H   0  0  0  0  0  0
  -23.7190  -30.5625   19.3984 H   0  0  0  0  0  0
  -22.7384  -29.2133   19.8783 H   0  0  0  0  0  0
  -25.1322  -36.1905   25.0820 H   0  0  0  0  0  0
  -21.0010  -28.3215   24.1466 H   0  0  0  0  0  0
  -20.5710  -26.2241   23.3670 H   0  0  0  0  0  0
  -21.6654  -26.7401   22.1278 H   0  0  0  0  0  0
  -19.6939  -25.6280   21.1269 H   0  0  0  0  0  0
  -19.6748  -27.3188   20.6824 H   0  0  0  0  0  0
  -17.4265  -26.6778   21.3938 H   0  0  0  0  0  0
  -18.0217  -26.0037   22.8947 H   0  0  0  0  0  0
  -19.7914  -30.7272   24.2283 H   0  0  0  0  0  0
  -17.4972  -31.6249   24.5151 H   0  0  0  0  0  0
  -15.5339  -30.2925   23.7633 H   0  0  0  0  0  0
  -15.8703  -28.0783   22.7024 H   0  0  0  0  0  0
  -24.5893  -30.7115   25.7679 H   0  0  0  0  0  0
  -24.8939  -32.2926   26.4777 H   0  0  0  0  0  0
  -25.8037  -30.8902   27.0163 H   0  0  0  0  0  0
  -26.2894  -29.6724   24.1190 H   0  0  0  0  0  0
  -27.4194  -29.7322   25.4528 H   0  0  0  0  0  0
  -27.8688  -30.4319   23.9157 H   0  0  0  0  0  0
  -27.2725  -33.3552   26.2074 H   0  0  0  0  0  0
  -28.3821  -32.6959   25.0163 H   0  0  0  0  0  0
  -28.0875  -31.8378   26.5190 H   0  0  0  0  0  0
  -28.2596  -38.0092   24.7557 H   0  0  0  0  0  0
  -28.1137  -36.2629   24.6162 H   0  0  0  0  0  0
  -27.2345  -37.1295   25.8849 H   0  0  0  0  0  0
  -20.9347  -29.8592   21.6854 H   0  0  0  0  0  0
  -26.0178  -38.2831   24.1463 H   0  0  0  0  0  0
  -28.3494  -21.7561   21.7079 H   0  0  0  0  0  0
  -31.0460  -19.3333   18.3879 H   0  0  0  0  0  0
  -31.5742  -20.9108   17.7381 H   0  0  0  0  0  0
  -30.1419  -20.1164   17.0502 H   0  0  0  0  0  0
  -26.9302  -24.0331   19.8287 H   0  0  0  0  0  0
  -28.0252  -24.4328   18.5388 H   0  0  0  0  0  0
  -29.6003  -17.9621   19.4195 H   0  0  0  0  0  0
  -28.4803  -17.9681   20.7530 H   0  0  0  0  0  0
  -31.0947  -19.5595   20.8497 H   0  0  0  0  0  0
  -29.7984  -19.6786   21.9898 H   0  0  0  0  0  0
  -30.3391  -17.0657   22.2719 H   0  0  0  0  0  0
  -31.4146  -17.0399   20.9034 H   0  0  0  0  0  0
  -29.6978  -25.1609   20.3632 H   0  0  0  0  0  0
  -28.3833  -25.1637   21.4923 H   0  0  0  0  0  0
  -29.4899  -22.7169   17.7762 H   0  0  0  0  0  0
  -28.9428  -15.3353   21.1550 H   0  0  0  0  0  0
  1 25  1  0  0  0
  1 30  2  0  0  0
  1 82  1  0  0  0
  2  3  1  0  0  0
  2 25  1  0  0  0
  2 83  1  0  0  0
  2 84  1  0  0  0
  3  4  1  0  0  0
  3 85  1  0  0  0
  3 86  1  0  0  0
  4  5  1  0  0  0
  4 87  1  0  0  0
  4 88  1  0  0  0
  5  6  1  0  0  0
  5 26  1  0  0  0
  5 89  1  0  0  0
  6 25  1  0  0  0
  6 90  1  0  0  0
  6 91  1  0  0  0
  7  8  2  0  0  0
  7 26  1  0  0  0
  7 29  1  0  0  0
  8  9  1  0  0  0
  8 22  1  0  0  0
  9 10  1  0  0  0
  9 27  2  0  0  0
 10 11  2  0  0  0
 10 15  1  0  0  0
 11 12  1  0  0  0
 11 92  1  0  0  0
 12 13  2  0  0  0
 12 93  1  0  0  0
 13 14  1  0  0  0
 13 31  1  0  0  0
 14 15  2  0  0  0
 14 94  1  0  0  0
 15 95  1  0  0  0
 16 17  2  0  0  0
 16 21  1  0  0  0
 16 31  1  0  0  0
 17 18  1  0  0  0
 17 96  1  0  0  0
 18 19  2  0  0  0
 18 97  1  0  0  0
 19 20  1  0  0  0
 19 24  1  0  0  0
 20 21  2  0  0  0
 20 98  1  0  0  0
 21 23  1  0  0  0
 22 28  1  0  0  0
 22 32  2  0  0  0
 26 27  1  0  0  0
 28 99  1  0  0  0
 28100  1  0  0  0
 29101  1  0  0  0
 29102  1  0  0  0
 33 34  1  0  0  0
 33 66  1  0  0  0
 33 70  2  0  0  0
 34 36  1  0  0  0
 34 59  1  0  0  0
 34103  1  0  0  0
 35 44  2  0  0  0
 35 45  1  0  0  0
 35 68  1  0  0  0
 36 56  1  0  0  0
 36104  1  0  0  0
 37 39  1  0  0  0
 37 47  1  0  0  0
 37 66  1  0  0  0
 37105  1  0  0  0
 38 43  2  0  0  0
 38 46  1  0  0  0
 38 47  1  0  0  0
 39 64  1  0  0  0
 39 67  2  0  0  0
 40 52  1  0  0  0
 40 53  2  0  0  0
 40 58  1  0  0  0
 41106  1  0  0  0
 41107  1  0  0  0
 41108  1  0  0  0
 41 48  1  0  0  0
 42 43  1  0  0  0
 42 66  1  0  0  0
 42109  1  0  0  0
 42110  1  0  0  0
 43 44  1  0  0  0
 44111  1  0  0  0
 45 46  2  0  0  0
 45112  1  0  0  0
 46113  1  0  0  0
 47114  1  0  0  0
 47115  1  0  0  0
 48 56  1  0  0  0
 48 65  1  0  0  0
 48116  1  0  0  0
 49 50  1  0  0  0
 49 53  1  0  0  0
 49 64  1  0  0  0
 49117  1  0  0  0
 50 51  1  0  0  0
 50118  1  0  0  0
 50119  1  0  0  0
 51 52  1  0  0  0
 51120  1  0  0  0
 51121  1  0  0  0
 52122  1  0  0  0
 52123  1  0  0  0
 53 54  1  0  0  0
 54 55  2  0  0  0
 54124  1  0  0  0
 55 57  1  0  0  0
 55125  1  0  0  0
 56 69  2  0  0  0
 57 58  2  0  0  0
 57126  1  0  0  0
 58127  1  0  0  0
 59 60  1  0  0  0
 59 61  1  0  0  0
 59 62  1  0  0  0
 60128  1  0  0  0
 60129  1  0  0  0
 60130  1  0  0  0
 61131  1  0  0  0
 61132  1  0  0  0
 61133  1  0  0  0
 62134  1  0  0  0
 62135  1  0  0  0
 62136  1  0  0  0
 63 65  1  0  0  0
 63137  1  0  0  0
 63138  1  0  0  0
 63139  1  0  0  0
 64140  1  0  0  0
 65141  1  0  0  0
 68 79  1  0  0  0
 71 72  2  0  0  0
 71 80  1  0  0  0
 71142  1  0  0  0
 72 75  1  0  0  0
 72 81  1  0  0  0
 73 74  1  0  0  0
 73 80  1  0  0  0
 73 81  2  0  0  0
 74143  1  0  0  0
 74144  1  0  0  0
 74145  1  0  0  0
 75 79  1  0  0  0
 75146  1  0  0  0
 75147  1  0  0  0
 76 77  1  0  0  0
 76 78  1  0  0  0
 76148  1  0  0  0
 76149  1  0  0  0
 77 80  1  0  0  0
 77150  1  0  0  0
 77151  1  0  0  0
 78 82  1  0  0  0
 78152  1  0  0  0
 78153  1  0  0  0
 79154  1  0  0  0
 79155  1  0  0  0
 81156  1  0  0  0
 82157  1  0  0  0
M  CHG  1  81   1
M  ISO  4   1 100  68 101  79 101  82 100
M  END
> <chiral flag>
0

> <version>
0

> <s_m_source_file>
/data/baiqing/PycharmProjects/Reinvent-master-3.2/result/LINK_invent/BTK/process_docking_weight1_custom_sum_contain_oxygen_bond_distance_aromatic_linkinvent_7_9_3/rearranged_h_0044.sdf

> <i_m_source_file_index>
77

> <r_mmod_Potential_Energy-OPLS-2005>
-67.4600830078125

> <r_mmod_Stretch_Energy-OPLS-2005>
51.9292526245117

> <r_mmod_Bend_Energy-OPLS-2005>
132.38037109375

> <r_mmod_Torsional_Energy-OPLS-2005>
226.219314575195

> <r_mmod_Improper_Torsional_Energy-OPLS-2005>
4.73172330856323

> <r_mmod_Van_der_Waal_Energy-OPLS-2005>
119.670417785645

> <r_mmod_Electrostatic_Energy-OPLS-2005>
-196.802001953125

> <r_mmod_Solvation_Energy-OPLS-2005>
-425.376098632812

> <b_mmod_Minimization_Converged-OPLS-2005>
0

> <r_mmod_RMS_Derivative-OPLS-2005>
6.06099271774292

$$$$
77
                    3D
 Structure written by MMmdl.
159167  0  0  1  0            999 V2000
  -30.7292  -14.4932   20.5750 C   0  0  0  0  0  0
  -30.4181  -12.3268   19.4435 C   0  0  0  0  0  0
  -29.4955  -12.5097   18.2207 C   0  0  0  0  0  0
  -28.0191  -12.3598   18.6310 C   0  0  0  0  0  0
  -27.6569  -13.2157   19.8743 C   0  0  2  0  0  0
  -28.6987  -13.0365   21.0033 C   0  0  0  0  0  0
  -25.2534  -13.8175   20.5695 C   0  0  0  0  0  0
  -24.1790  -13.0441   20.9178 C   0  0  0  0  0  0
  -24.6355  -11.6909   20.8723 C   0  0  0  0  0  0
  -23.9018  -10.4291   21.0398 C   0  0  0  0  0  0
  -24.3577   -9.4212   21.9178 C   0  0  0  0  0  0
  -23.6268   -8.2237   22.0752 C   0  0  0  0  0  0
  -22.4255   -8.0269   21.3537 C   0  0  0  0  0  0
  -21.9875   -9.0243   20.4646 C   0  0  0  0  0  0
  -22.7187  -10.2127   20.3054 C   0  0  0  0  0  0
  -21.6851   -6.0729   22.5267 C   0  0  0  0  0  0
  -21.4026   -6.5636   23.8201 C   0  0  0  0  0  0
  -21.3658   -5.6787   24.9166 C   0  0  0  0  0  0
  -21.6038   -4.3043   24.7207 C   0  0  0  0  0  0
  -21.8819   -3.8140   23.4326 C   0  0  0  0  0  0
  -21.9192   -4.6965   22.3388 C   0  0  0  0  0  0
  -22.7810  -13.5251   21.1833 C   0  0  0  0  0  0
  -22.1663   -4.2148   21.0963 F   0  0  0  0  0  0
  -21.5628   -3.4531   25.7721 F   0  0  0  0  0  0
  -30.0303  -13.3291   20.4514 N   0  0  0  0  0  0
  -26.2983  -12.9362   20.3370 N   0  0  0  0  0  0
  -25.9288  -11.6515   20.5750 N   0  0  0  0  0  0
  -22.0433  -12.8274   22.0398 N   0  0  0  0  0  0
  -25.4240  -15.1902   20.4127 N   0  0  0  0  0  0
  -31.8522  -14.6431   20.0901 O   0  0  0  0  0  0
  -21.6629   -6.8864   21.4223 O   0  0  0  0  0  0
  -22.3495  -14.5551   20.6669 O   0  0  0  0  0  0
  -24.6173  -31.8646   23.2050 C   0  0  0  0  0  0
  -25.9078  -32.4801   23.8335 C   0  0  1  0  0  0
  -27.2425  -27.4275   20.0916 C   0  0  0  0  0  0
  -25.5933  -33.8594   24.2284 N   0  0  0  0  0  0
  -23.4037  -30.4877   21.5439 C   0  0  2  0  0  0
  -24.8501  -28.9437   20.1130 C   0  0  0  0  0  0
  -22.7427  -29.4676   22.4974 C   0  0  0  0  0  0
  -18.0292  -28.1397   22.8497 C   0  0  0  0  0  0
  -24.1482  -36.7314   23.2632 C   0  0  0  0  0  0
  -25.9309  -30.8269   21.3568 C   0  0  0  0  0  0
  -26.0079  -29.4572   20.7106 C   0  0  0  0  0  0
  -27.2034  -28.7047   20.6983 C   0  0  0  0  0  0
  -26.0665  -26.9291   19.4855 C   0  0  0  0  0  0
  -24.8743  -27.6780   19.4996 C   0  0  0  0  0  0
  -23.6125  -29.8120   20.1602 C   0  0  0  0  0  0
  -25.4100  -36.3105   24.0329 C   0  0  1  0  0  0
  -20.5878  -28.3699   23.1316 C   0  0  2  0  0  0
  -20.6789  -26.9433   22.5429 C   0  0  0  0  0  0
  -19.5762  -26.6411   21.5228 C   0  0  0  0  0  0
  -18.1943  -26.7945   22.1638 C   0  0  0  0  0  0
  -19.1536  -28.8860   23.2903 C   0  0  0  0  0  0
  -18.9467  -30.1469   23.8908 C   0  0  0  0  0  0
  -17.6473  -30.6599   24.0585 C   0  0  0  0  0  0
  -25.9037  -34.9473   23.5106 C   0  0  0  0  0  0
  -16.5358  -29.9108   23.6318 C   0  0  0  0  0  0
  -16.7283  -28.6534   23.0332 C   0  0  0  0  0  0
  -26.4481  -31.6575   25.0671 C   0  0  0  0  0  0
  -25.3748  -31.3712   26.1433 C   0  0  0  0  0  0
  -27.0282  -30.3010   24.6045 C   0  0  0  0  0  0
  -27.6054  -32.4275   25.7458 C   0  0  0  0  0  0
  -27.5567  -37.1808   24.8460 C   0  0  0  0  0  0
  -21.4151  -29.3049   22.3712 N   0  0  0  0  0  0
  -26.4279  -37.3798   23.9399 N   0  0  0  0  0  0
  -24.6689  -31.0751   22.0927 N   0  0  0  0  0  0
  -23.4191  -28.8225   23.3029 O   0  0  0  0  0  0
  -28.4347  -26.7312   20.0876 O   0  0  0  0  0  0
  -26.5605  -34.8951   22.4674 O   0  0  0  0  0  0
  -23.5384  -32.1399   23.7464 O   0  0  0  0  0  0
  -30.3457  -21.8001   20.6184 C   0  0  0  0  0  0
  -30.0282  -20.4623   20.5744 C   0  0  0  0  0  0
  -29.3921  -20.3365   19.2950 C   0  0  0  0  0  0
  -28.8487  -19.1246   18.5899 C   0  0  0  0  0  0
  -30.3752  -19.4652   21.6863 C   0  0  0  0  0  0
  -29.7548  -18.0341   21.6901 C   0  0  0  0  0  0
  -28.9343  -24.6714   18.8106 C   0  0  0  0  0  0
  -30.1816  -23.7625   18.9631 C   0  0  0  0  0  0
  -30.6245  -16.9330   21.0260 C   0  0  0  0  0  0
  -28.4174  -25.2935   20.1264 C   0  0  0  0  0  0
  -29.3367  -21.4972   18.6440 N   0  0  0  0  0  0
  -29.9314  -22.4025   19.4476 N   0  0  0  0  0  0
  -30.0894  -15.5528   21.1158 N   0  0  0  0  0  0
  -31.4645  -12.4136   19.1467 H   0  0  0  0  0  0
  -30.3165  -11.3244   19.8626 H   0  0  0  0  0  0
  -29.7494  -11.7824   17.4484 H   0  0  0  0  0  0
  -29.6561  -13.4950   17.7811 H   0  0  0  0  0  0
  -27.8432  -11.3054   18.8471 H   0  0  0  0  0  0
  -27.3666  -12.6111   17.7942 H   0  0  0  0  0  0
  -27.6901  -14.2567   19.5529 H   0  0  0  0  0  0
  -28.6725  -12.0126   21.3808 H   0  0  0  0  0  0
  -28.4553  -13.6701   21.8568 H   0  0  0  0  0  0
  -25.2724   -9.5715   22.4743 H   0  0  0  0  0  0
  -23.9998   -7.4636   22.7472 H   0  0  0  0  0  0
  -21.0808   -8.8733   19.8954 H   0  0  0  0  0  0
  -22.3625  -10.9659   19.6155 H   0  0  0  0  0  0
  -21.2025   -7.6143   23.9711 H   0  0  0  0  0  0
  -21.1489   -6.0510   25.9067 H   0  0  0  0  0  0
  -22.0600   -2.7605   23.2813 H   0  0  0  0  0  0
  -22.4063  -11.9986   22.4871 H   0  0  0  0  0  0
  -21.1041  -13.1319   22.2542 H   0  0  0  0  0  0
  -24.6569  -15.8452   20.5171 H   0  0  0  0  0  0
  -26.2772  -15.6278   20.0864 H   0  0  0  0  0  0
  -26.7157  -32.5515   23.1099 H   0  0  0  0  0  0
  -25.0137  -33.9701   25.0479 H   0  0  0  0  0  0
  -22.6959  -31.3063   21.3999 H   0  0  0  0  0  0
  -23.3727  -35.9666   23.3328 H   0  0  0  0  0  0
  -24.3581  -36.8910   22.2042 H   0  0  0  0  0  0
  -23.7258  -37.6547   23.6607 H   0  0  0  0  0  0
  -26.0413  -31.5886   20.5833 H   0  0  0  0  0  0
  -26.8186  -30.8844   21.9746 H   0  0  0  0  0  0
  -28.0964  -29.0939   21.1657 H   0  0  0  0  0  0
  -26.0695  -25.9723   18.9830 H   0  0  0  0  0  0
  -23.9860  -27.2780   19.0282 H   0  0  0  0  0  0
  -23.7256  -30.5785   19.3925 H   0  0  0  0  0  0
  -22.7340  -29.2345   19.8665 H   0  0  0  0  0  0
  -25.1287  -36.1962   25.0820 H   0  0  0  0  0  0
  -20.9976  -28.3275   24.1432 H   0  0  0  0  0  0
  -20.5730  -26.2304   23.3617 H   0  0  0  0  0  0
  -21.6656  -26.7502   22.1190 H   0  0  0  0  0  0
  -19.6923  -25.6328   21.1248 H   0  0  0  0  0  0
  -19.6688  -27.3228   20.6755 H   0  0  0  0  0  0
  -17.4213  -26.6709   21.4040 H   0  0  0  0  0  0
  -18.0334  -26.0086   22.9031 H   0  0  0  0  0  0
  -19.7944  -30.7296   24.2265 H   0  0  0  0  0  0
  -17.5023  -31.6263   24.5219 H   0  0  0  0  0  0
  -15.5360  -30.3024   23.7616 H   0  0  0  0  0  0
  -15.8692  -28.0870   22.6995 H   0  0  0  0  0  0
  -24.5918  -30.7052   25.7787 H   0  0  0  0  0  0
  -24.8945  -32.2892   26.4830 H   0  0  0  0  0  0
  -25.8135  -30.8931   27.0206 H   0  0  0  0  0  0
  -26.2818  -29.6812   24.1064 H   0  0  0  0  0  0
  -27.4023  -29.7209   25.4488 H   0  0  0  0  0  0
  -27.8668  -30.4323   23.9205 H   0  0  0  0  0  0
  -27.2655  -33.3553   26.2071 H   0  0  0  0  0  0
  -28.3862  -32.6862   25.0286 H   0  0  0  0  0  0
  -28.0706  -31.8369   26.5365 H   0  0  0  0  0  0
  -28.2607  -38.0079   24.7492 H   0  0  0  0  0  0
  -28.1052  -36.2625   24.6307 H   0  0  0  0  0  0
  -27.2304  -37.1508   25.8871 H   0  0  0  0  0  0
  -20.9330  -29.8765   21.6921 H   0  0  0  0  0  0
  -26.0185  -38.2895   24.1370 H   0  0  0  0  0  0
  -30.8699  -22.3670   21.3763 H   0  0  0  0  0  0
  -29.6434  -18.5792   18.0825 H   0  0  0  0  0  0
  -28.1146  -19.4042   17.8338 H   0  0  0  0  0  0
  -28.3488  -18.4377   19.2658 H   0  0  0  0  0  0
  -30.0818  -19.9235   22.6330 H   0  0  0  0  0  0
  -31.4591  -19.3739   21.7741 H   0  0  0  0  0  0
  -28.7267  -18.0429   21.3373 H   0  0  0  0  0  0
  -29.6790  -17.7504   22.7410 H   0  0  0  0  0  0
  -28.1340  -24.1317   18.3024 H   0  0  0  0  0  0
  -29.2024  -25.4824   18.1328 H   0  0  0  0  0  0
  -30.9198  -24.2401   19.6094 H   0  0  0  0  0  0
  -30.6659  -23.6759   17.9901 H   0  0  0  0  0  0
  -31.6154  -16.9441   21.4871 H   0  0  0  0  0  0
  -30.7756  -17.1823   19.9751 H   0  0  0  0  0  0
  -29.0813  -25.0017   20.9408 H   0  0  0  0  0  0
  -27.4469  -24.8784   20.3982 H   0  0  0  0  0  0
  -29.1679  -15.4105   21.5009 H   0  0  0  0  0  0
  1 25  1  0  0  0
  1 30  2  0  0  0
  1 83  1  0  0  0
  2  3  1  0  0  0
  2 25  1  0  0  0
  2 84  1  0  0  0
  2 85  1  0  0  0
  3  4  1  0  0  0
  3 86  1  0  0  0
  3 87  1  0  0  0
  4  5  1  0  0  0
  4 88  1  0  0  0
  4 89  1  0  0  0
  5  6  1  0  0  0
  5 26  1  0  0  0
  5 90  1  0  0  0
  6 25  1  0  0  0
  6 91  1  0  0  0
  6 92  1  0  0  0
  7  8  2  0  0  0
  7 26  1  0  0  0
  7 29  1  0  0  0
  8  9  1  0  0  0
  8 22  1  0  0  0
  9 10  1  0  0  0
  9 27  2  0  0  0
 10 11  2  0  0  0
 10 15  1  0  0  0
 11 12  1  0  0  0
 11 93  1  0  0  0
 12 13  2  0  0  0
 12 94  1  0  0  0
 13 14  1  0  0  0
 13 31  1  0  0  0
 14 15  2  0  0  0
 14 95  1  0  0  0
 15 96  1  0  0  0
 16 17  2  0  0  0
 16 21  1  0  0  0
 16 31  1  0  0  0
 17 18  1  0  0  0
 17 97  1  0  0  0
 18 19  2  0  0  0
 18 98  1  0  0  0
 19 20  1  0  0  0
 19 24  1  0  0  0
 20 21  2  0  0  0
 20 99  1  0  0  0
 21 23  1  0  0  0
 22 28  1  0  0  0
 22 32  2  0  0  0
 26 27  1  0  0  0
 28100  1  0  0  0
 28101  1  0  0  0
 29102  1  0  0  0
 29103  1  0  0  0
 33 34  1  0  0  0
 33 66  1  0  0  0
 33 70  2  0  0  0
 34 36  1  0  0  0
 34 59  1  0  0  0
 34104  1  0  0  0
 35 44  2  0  0  0
 35 45  1  0  0  0
 35 68  1  0  0  0
 36 56  1  0  0  0
 36105  1  0  0  0
 37 39  1  0  0  0
 37 47  1  0  0  0
 37 66  1  0  0  0
 37106  1  0  0  0
 38 43  2  0  0  0
 38 46  1  0  0  0
 38 47  1  0  0  0
 39 64  1  0  0  0
 39 67  2  0  0  0
 40 52  1  0  0  0
 40 53  2  0  0  0
 40 58  1  0  0  0
 41107  1  0  0  0
 41108  1  0  0  0
 41109  1  0  0  0
 41 48  1  0  0  0
 42 43  1  0  0  0
 42 66  1  0  0  0
 42110  1  0  0  0
 42111  1  0  0  0
 43 44  1  0  0  0
 44112  1  0  0  0
 45 46  2  0  0  0
 45113  1  0  0  0
 46114  1  0  0  0
 47115  1  0  0  0
 47116  1  0  0  0
 48 56  1  0  0  0
 48 65  1  0  0  0
 48117  1  0  0  0
 49 50  1  0  0  0
 49 53  1  0  0  0
 49 64  1  0  0  0
 49118  1  0  0  0
 50 51  1  0  0  0
 50119  1  0  0  0
 50120  1  0  0  0
 51 52  1  0  0  0
 51121  1  0  0  0
 51122  1  0  0  0
 52123  1  0  0  0
 52124  1  0  0  0
 53 54  1  0  0  0
 54 55  2  0  0  0
 54125  1  0  0  0
 55 57  1  0  0  0
 55126  1  0  0  0
 56 69  2  0  0  0
 57 58  2  0  0  0
 57127  1  0  0  0
 58128  1  0  0  0
 59 60  1  0  0  0
 59 61  1  0  0  0
 59 62  1  0  0  0
 60129  1  0  0  0
 60130  1  0  0  0
 60131  1  0  0  0
 61132  1  0  0  0
 61133  1  0  0  0
 61134  1  0  0  0
 62135  1  0  0  0
 62136  1  0  0  0
 62137  1  0  0  0
 63 65  1  0  0  0
 63138  1  0  0  0
 63139  1  0  0  0
 63140  1  0  0  0
 64141  1  0  0  0
 65142  1  0  0  0
 68 80  1  0  0  0
 71 72  2  0  0  0
 71 82  1  0  0  0
 71143  1  0  0  0
 72 73  1  0  0  0
 72 75  1  0  0  0
 73 74  1  0  0  0
 73 81  2  0  0  0
 74144  1  0  0  0
 74145  1  0  0  0
 74146  1  0  0  0
 75 76  1  0  0  0
 75147  1  0  0  0
 75148  1  0  0  0
 76 79  1  0  0  0
 76149  1  0  0  0
 76150  1  0  0  0
 77 78  1  0  0  0
 77 80  1  0  0  0
 77151  1  0  0  0
 77152  1  0  0  0
 78 82  1  0  0  0
 78153  1  0  0  0
 78154  1  0  0  0
 79 83  1  0  0  0
 79155  1  0  0  0
 79156  1  0  0  0
 80157  1  0  0  0
 80158  1  0  0  0
 81 82  1  0  0  0
 83159  1  0  0  0
M  ISO  4   1 100  68 101  80 101  83 100
M  END
> <chiral flag>
0

> <version>
0

> <s_m_source_file>
/data/baiqing/PycharmProjects/Reinvent-master-3.2/result/LINK_invent/BTK/process_docking_weight1_custom_sum_contain_oxygen_bond_distance_aromatic_linkinvent_7_9_3/rearranged_h_0044.sdf

> <i_m_source_file_index>
78

> <r_mmod_Potential_Energy-OPLS-2005>
-103.110649108887

> <r_mmod_Stretch_Energy-OPLS-2005>
38.8271217346191

> <r_mmod_Bend_Energy-OPLS-2005>
117.373825073242

> <r_mmod_Torsional_Energy-OPLS-2005>
229.488800048828

> <r_mmod_Improper_Torsional_Energy-OPLS-2005>
4.00172805786133

> <r_mmod_Van_der_Waal_Energy-OPLS-2005>
124.532272338867

> <r_mmod_Electrostatic_Energy-OPLS-2005>
-409.192535400391

> <r_mmod_Solvation_Energy-OPLS-2005>
-223.33235168457

> <b_mmod_Minimization_Converged-OPLS-2005>
0

> <r_mmod_RMS_Derivative-OPLS-2005>
3.21672868728638

$$$$
78
                    3D
 Structure written by MMmdl.
153161  0  0  1  0            999 V2000
  -30.5342  -15.0017   20.4057 C   0  0  0  0  0  0
  -30.4370  -12.6244   19.5073 C   0  0  0  0  0  0
  -29.5230  -12.5323   18.2633 C   0  0  0  0  0  0
  -28.0590  -12.3084   18.6836 C   0  0  0  0  0  0
  -27.6255  -13.2531   19.8348 C   0  0  2  0  0  0
  -28.6656  -13.3160   20.9736 C   0  0  0  0  0  0
  -25.2454  -13.8226   20.5715 C   0  0  0  0  0  0
  -24.1775  -13.0446   20.9242 C   0  0  0  0  0  0
  -24.6393  -11.6931   20.8762 C   0  0  0  0  0  0
  -23.9078  -10.4300   21.0412 C   0  0  0  0  0  0
  -24.3627   -9.4212   21.9189 C   0  0  0  0  0  0
  -23.6298   -8.2249   22.0757 C   0  0  0  0  0  0
  -22.4281   -8.0283   21.3546 C   0  0  0  0  0  0
  -21.9922   -9.0259   20.4646 C   0  0  0  0  0  0
  -22.7252  -10.2136   20.3058 C   0  0  0  0  0  0
  -21.6855   -6.0735   22.5279 C   0  0  0  0  0  0
  -21.4015   -6.5640   23.8209 C   0  0  0  0  0  0
  -21.3660   -5.6792   24.9172 C   0  0  0  0  0  0
  -21.6043   -4.3056   24.7224 C   0  0  0  0  0  0
  -21.8820   -3.8148   23.4346 C   0  0  0  0  0  0
  -21.9194   -4.6965   22.3399 C   0  0  0  0  0  0
  -22.7795  -13.5215   21.1883 C   0  0  0  0  0  0
  -22.1662   -4.2147   21.0978 F   0  0  0  0  0  0
  -21.5629   -3.4538   25.7738 F   0  0  0  0  0  0
  -29.9335  -13.7391   20.3671 N   0  0  0  0  0  0
  -26.2868  -12.9461   20.3233 N   0  0  0  0  0  0
  -25.9324  -11.6588   20.5745 N   0  0  0  0  0  0
  -22.0439  -12.8203   22.0429 N   0  0  0  0  0  0
  -25.4128  -15.1951   20.4110 N   0  0  0  0  0  0
  -31.7418  -15.0364   20.1454 O   0  0  0  0  0  0
  -21.6644   -6.8881   21.4239 O   0  0  0  0  0  0
  -22.3480  -14.5513   20.6711 O   0  0  0  0  0  0
  -24.6472  -31.8397   23.1838 C   0  0  0  0  0  0
  -25.9228  -32.4665   23.8240 C   0  0  1  0  0  0
  -27.2127  -27.0921   20.1603 C   0  0  0  0  0  0
  -25.5955  -33.8475   24.2155 N   0  0  0  0  0  0
  -23.4530  -30.4576   21.5295 C   0  0  2  0  0  0
  -24.9016  -28.8749   20.1102 C   0  0  0  0  0  0
  -22.7593  -29.4520   22.4828 C   0  0  0  0  0  0
  -18.0305  -28.1401   22.8470 C   0  0  0  0  0  0
  -24.1486  -36.7247   23.2648 C   0  0  0  0  0  0
  -26.0112  -30.7008   21.3863 C   0  0  0  0  0  0
  -26.0804  -29.3064   20.7308 C   0  0  0  0  0  0
  -27.2366  -28.4325   20.7345 C   0  0  0  0  0  0
  -26.0068  -26.7695   19.5018 C   0  0  0  0  0  0
  -24.8796  -27.6213   19.4797 C   0  0  0  0  0  0
  -23.6819  -29.7848   20.1500 C   0  0  0  0  0  0
  -25.4123  -36.3021   24.0312 C   0  0  1  0  0  0
  -20.5924  -28.3727   23.1227 C   0  0  2  0  0  0
  -20.6785  -26.9422   22.5408 C   0  0  0  0  0  0
  -19.5759  -26.6384   21.5213 C   0  0  0  0  0  0
  -18.1938  -26.7938   22.1621 C   0  0  0  0  0  0
  -19.1564  -28.8882   23.2837 C   0  0  0  0  0  0
  -18.9481  -30.1472   23.8866 C   0  0  0  0  0  0
  -17.6480  -30.6593   24.0558 C   0  0  0  0  0  0
  -25.9083  -34.9394   23.5054 C   0  0  0  0  0  0
  -16.5366  -29.9095   23.6336 C   0  0  0  0  0  0
  -16.7289  -28.6514   23.0353 C   0  0  0  0  0  0
  -26.4530  -31.6553   25.0698 C   0  0  0  0  0  0
  -25.3703  -31.3755   26.1387 C   0  0  0  0  0  0
  -27.0401  -30.2947   24.6299 C   0  0  0  0  0  0
  -27.6050  -32.4328   25.7487 C   0  0  0  0  0  0
  -27.5571  -37.1776   24.8468 C   0  0  0  0  0  0
  -21.4277  -29.3048   22.3593 N   0  0  0  0  0  0
  -26.4281  -37.3741   23.9415 N   0  0  0  0  0  0
  -24.7241  -31.0221   22.0883 N   0  0  0  0  0  0
  -23.4222  -28.8067   23.2989 O   0  0  0  0  0  0
  -28.2574  -26.0875   20.2309 O   0  0  0  0  0  0
  -26.5683  -34.8899   22.4638 O   0  0  0  0  0  0
  -23.5580  -32.1284   23.7038 O   0  0  0  0  0  0
  -29.7785  -20.4948   19.8653 C   0  0  0  0  0  0
  -28.9555  -21.5976   20.4314 C   0  0  0  0  0  0
  -29.4893  -19.2080   20.4070 C   0  0  0  0  0  0
  -28.5600  -18.5852   23.5314 C   0  0  0  0  0  0
  -29.1051  -23.2716   20.4255 C   0  0  0  0  0  0
  -30.2527  -17.7280   20.2660 C   0  0  0  0  0  0
  -27.7702  -18.7254   22.2238 C   0  0  0  0  0  0
  -27.9955  -24.5322   20.1226 C   0  0  0  0  0  0
  -28.1637  -20.9451   21.2940 N   0  0  0  0  0  0
  -28.4650  -19.5817   21.2807 N   0  0  0  0  0  0
  -29.7879  -16.2225   20.5135 N   0  0  0  0  0  0
  -31.4692  -12.7840   19.1914 H   0  0  0  0  0  0
  -30.4393  -11.6830   20.0592 H   0  0  0  0  0  0
  -29.8542  -11.7253   17.6079 H   0  0  0  0  0  0
  -29.6016  -13.4523   17.6822 H   0  0  0  0  0  0
  -27.9676  -11.2708   19.0073 H   0  0  0  0  0  0
  -27.3945  -12.4196   17.8263 H   0  0  0  0  0  0
  -27.5788  -14.2468   19.3885 H   0  0  0  0  0  0
  -28.7675  -12.3511   21.4721 H   0  0  0  0  0  0
  -28.3542  -14.0309   21.7367 H   0  0  0  0  0  0
  -25.2771   -9.5686   22.4767 H   0  0  0  0  0  0
  -24.0004   -7.4640   22.7479 H   0  0  0  0  0  0
  -21.0854   -8.8779   19.8950 H   0  0  0  0  0  0
  -22.3713  -10.9676   19.6167 H   0  0  0  0  0  0
  -21.2006   -7.6147   23.9711 H   0  0  0  0  0  0
  -21.1481   -6.0522   25.9072 H   0  0  0  0  0  0
  -22.0599   -2.7610   23.2846 H   0  0  0  0  0  0
  -22.4063  -11.9871   22.4830 H   0  0  0  0  0  0
  -21.1047  -13.1216   22.2612 H   0  0  0  0  0  0
  -24.6395  -15.8438   20.5085 H   0  0  0  0  0  0
  -26.2406  -15.6263   20.0222 H   0  0  0  0  0  0
  -26.7284  -32.5250   23.0956 H   0  0  0  0  0  0
  -25.0051  -33.9572   25.0273 H   0  0  0  0  0  0
  -22.7580  -31.2848   21.3720 H   0  0  0  0  0  0
  -23.3747  -35.9579   23.3303 H   0  0  0  0  0  0
  -24.3574  -36.8894   22.2065 H   0  0  0  0  0  0
  -23.7234  -37.6438   23.6694 H   0  0  0  0  0  0
  -26.1711  -31.4515   20.6111 H   0  0  0  0  0  0
  -26.8804  -30.7540   22.0304 H   0  0  0  0  0  0
  -28.1349  -28.7585   21.2391 H   0  0  0  0  0  0
  -25.9035  -25.8106   19.0160 H   0  0  0  0  0  0
  -23.9793  -27.2861   18.9830 H   0  0  0  0  0  0
  -23.8258  -30.5596   19.3957 H   0  0  0  0  0  0
  -22.7944  -29.2332   19.8352 H   0  0  0  0  0  0
  -25.1304  -36.1846   25.0800 H   0  0  0  0  0  0
  -21.0002  -28.3319   24.1354 H   0  0  0  0  0  0
  -20.5671  -26.2332   23.3629 H   0  0  0  0  0  0
  -21.6647  -26.7417   22.1202 H   0  0  0  0  0  0
  -19.6921  -25.6292   21.1255 H   0  0  0  0  0  0
  -19.6701  -27.3180   20.6729 H   0  0  0  0  0  0
  -17.4205  -26.6674   21.4027 H   0  0  0  0  0  0
  -18.0332  -26.0093   22.9029 H   0  0  0  0  0  0
  -19.7961  -30.7293   24.2220 H   0  0  0  0  0  0
  -17.5042  -31.6275   24.5166 H   0  0  0  0  0  0
  -15.5367  -30.2993   23.7686 H   0  0  0  0  0  0
  -15.8684  -28.0835   22.7078 H   0  0  0  0  0  0
  -24.5898  -30.7081   25.7712 H   0  0  0  0  0  0
  -24.8866  -32.2936   26.4730 H   0  0  0  0  0  0
  -25.7980  -30.8991   27.0218 H   0  0  0  0  0  0
  -26.3021  -29.6665   24.1299 H   0  0  0  0  0  0
  -27.4002  -29.7254   25.4879 H   0  0  0  0  0  0
  -27.8934  -30.4175   23.9625 H   0  0  0  0  0  0
  -27.2638  -33.3658   26.1982 H   0  0  0  0  0  0
  -28.3903  -32.6840   25.0344 H   0  0  0  0  0  0
  -28.0669  -31.8509   26.5475 H   0  0  0  0  0  0
  -28.2570  -38.0088   24.7524 H   0  0  0  0  0  0
  -28.1077  -36.2619   24.6278 H   0  0  0  0  0  0
  -27.2298  -37.1408   25.8873 H   0  0  0  0  0  0
  -20.9496  -29.8787   21.6789 H   0  0  0  0  0  0
  -26.0144  -38.2802   24.1437 H   0  0  0  0  0  0
  -30.5958  -20.6562   19.1763 H   0  0  0  0  0  0
  -29.5371  -18.1336   23.3559 H   0  0  0  0  0  0
  -28.0258  -17.9570   24.2444 H   0  0  0  0  0  0
  -28.7216  -19.5577   23.9982 H   0  0  0  0  0  0
  -29.9361  -23.4868   19.7544 H   0  0  0  0  0  0
  -29.5122  -23.5198   21.4050 H   0  0  0  0  0  0
  -31.1498  -17.8141   20.8802 H   0  0  0  0  0  0
  -30.6480  -17.7037   19.2500 H   0  0  0  0  0  0
  -26.7807  -19.1396   22.4238 H   0  0  0  0  0  0
  -27.6121  -17.7495   21.7644 H   0  0  0  0  0  0
  -27.1364  -24.3413   20.7662 H   0  0  0  0  0  0
  -27.6313  -24.3627   19.1096 H   0  0  0  0  0  0
  -28.8022  -16.1015   20.6850 H   0  0  0  0  0  0
  1 25  1  0  0  0
  1 30  2  0  0  0
  1 81  1  0  0  0
  2  3  1  0  0  0
  2 25  1  0  0  0
  2 82  1  0  0  0
  2 83  1  0  0  0
  3  4  1  0  0  0
  3 84  1  0  0  0
  3 85  1  0  0  0
  4  5  1  0  0  0
  4 86  1  0  0  0
  4 87  1  0  0  0
  5  6  1  0  0  0
  5 26  1  0  0  0
  5 88  1  0  0  0
  6 25  1  0  0  0
  6 89  1  0  0  0
  6 90  1  0  0  0
  7  8  2  0  0  0
  7 26  1  0  0  0
  7 29  1  0  0  0
  8  9  1  0  0  0
  8 22  1  0  0  0
  9 10  1  0  0  0
  9 27  2  0  0  0
 10 11  2  0  0  0
 10 15  1  0  0  0
 11 12  1  0  0  0
 11 91  1  0  0  0
 12 13  2  0  0  0
 12 92  1  0  0  0
 13 14  1  0  0  0
 13 31  1  0  0  0
 14 15  2  0  0  0
 14 93  1  0  0  0
 15 94  1  0  0  0
 16 17  2  0  0  0
 16 21  1  0  0  0
 16 31  1  0  0  0
 17 18  1  0  0  0
 17 95  1  0  0  0
 18 19  2  0  0  0
 18 96  1  0  0  0
 19 20  1  0  0  0
 19 24  1  0  0  0
 20 21  2  0  0  0
 20 97  1  0  0  0
 21 23  1  0  0  0
 22 28  1  0  0  0
 22 32  2  0  0  0
 26 27  1  0  0  0
 28 98  1  0  0  0
 28 99  1  0  0  0
 29100  1  0  0  0
 29101  1  0  0  0
 33 34  1  0  0  0
 33 66  1  0  0  0
 33 70  2  0  0  0
 34 36  1  0  0  0
 34 59  1  0  0  0
 34102  1  0  0  0
 35 44  2  0  0  0
 35 45  1  0  0  0
 35 68  1  0  0  0
 36 56  1  0  0  0
 36103  1  0  0  0
 37 39  1  0  0  0
 37 47  1  0  0  0
 37 66  1  0  0  0
 37104  1  0  0  0
 38 43  2  0  0  0
 38 46  1  0  0  0
 38 47  1  0  0  0
 39 64  1  0  0  0
 39 67  2  0  0  0
 40 52  1  0  0  0
 40 53  2  0  0  0
 40 58  1  0  0  0
 41105  1  0  0  0
 41106  1  0  0  0
 41107  1  0  0  0
 41 48  1  0  0  0
 42 43  1  0  0  0
 42 66  1  0  0  0
 42108  1  0  0  0
 42109  1  0  0  0
 43 44  1  0  0  0
 44110  1  0  0  0
 45 46  2  0  0  0
 45111  1  0  0  0
 46112  1  0  0  0
 47113  1  0  0  0
 47114  1  0  0  0
 48 56  1  0  0  0
 48 65  1  0  0  0
 48115  1  0  0  0
 49 50  1  0  0  0
 49 53  1  0  0  0
 49 64  1  0  0  0
 49116  1  0  0  0
 50 51  1  0  0  0
 50117  1  0  0  0
 50118  1  0  0  0
 51 52  1  0  0  0
 51119  1  0  0  0
 51120  1  0  0  0
 52121  1  0  0  0
 52122  1  0  0  0
 53 54  1  0  0  0
 54 55  2  0  0  0
 54123  1  0  0  0
 55 57  1  0  0  0
 55124  1  0  0  0
 56 69  2  0  0  0
 57 58  2  0  0  0
 57125  1  0  0  0
 58126  1  0  0  0
 59 60  1  0  0  0
 59 61  1  0  0  0
 59 62  1  0  0  0
 60127  1  0  0  0
 60128  1  0  0  0
 60129  1  0  0  0
 61130  1  0  0  0
 61131  1  0  0  0
 61132  1  0  0  0
 62133  1  0  0  0
 62134  1  0  0  0
 62135  1  0  0  0
 63 65  1  0  0  0
 63136  1  0  0  0
 63137  1  0  0  0
 63138  1  0  0  0
 64139  1  0  0  0
 65140  1  0  0  0
 68 78  1  0  0  0
 71 72  1  0  0  0
 71 73  2  0  0  0
 71141  1  0  0  0
 72 75  1  0  0  0
 72 79  2  0  0  0
 73 76  1  0  0  0
 73 80  1  0  0  0
 74 77  1  0  0  0
 74142  1  0  0  0
 74143  1  0  0  0
 74144  1  0  0  0
 75 78  1  0  0  0
 75145  1  0  0  0
 75146  1  0  0  0
 76 81  1  0  0  0
 76147  1  0  0  0
 76148  1  0  0  0
 77 80  1  0  0  0
 77149  1  0  0  0
 77150  1  0  0  0
 78151  1  0  0  0
 78152  1  0  0  0
 79 80  1  0  0  0
 81153  1  0  0  0
M  ISO  4   1 100  68 101  78 101  81 100
M  END
> <chiral flag>
0

> <version>
0

> <s_m_source_file>
/data/baiqing/PycharmProjects/Reinvent-master-3.2/result/LINK_invent/BTK/process_docking_weight1_custom_sum_contain_oxygen_bond_distance_aromatic_linkinvent_7_9_3/rearranged_h_0044.sdf

> <i_m_source_file_index>
79

> <r_mmod_Potential_Energy-OPLS-2005>
507.083404541016

> <r_mmod_Stretch_Energy-OPLS-2005>
297.240051269531

> <r_mmod_Bend_Energy-OPLS-2005>
300.405944824219

> <r_mmod_Torsional_Energy-OPLS-2005>
214.482238769531

> <r_mmod_Improper_Torsional_Energy-OPLS-2005>
7.57330369949341

> <r_mmod_Van_der_Waal_Energy-OPLS-2005>
104.569381713867

> <r_mmod_Electrostatic_Energy-OPLS-2005>
-423.644012451172

> <r_mmod_Solvation_Energy-OPLS-2005>
-225.787399291992

> <b_mmod_Minimization_Converged-OPLS-2005>
0

> <r_mmod_RMS_Derivative-OPLS-2005>
1.07702779769897

$$$$
79
                    3D
 Structure written by MMmdl.
157165  0  0  1  0            999 V2000
  -30.5770  -14.6869   20.4719 C   0  0  0  0  0  0
  -30.4358  -12.4224   19.4555 C   0  0  0  0  0  0
  -29.5057  -12.5088   18.2245 C   0  0  0  0  0  0
  -28.0270  -12.3443   18.6337 C   0  0  0  0  0  0
  -27.6432  -13.2185   19.8564 C   0  0  2  0  0  0
  -28.6862  -13.0928   20.9883 C   0  0  0  0  0  0
  -25.2537  -13.8190   20.5734 C   0  0  0  0  0  0
  -24.1809  -13.0437   20.9241 C   0  0  0  0  0  0
  -24.6379  -11.6916   20.8763 C   0  0  0  0  0  0
  -23.9048  -10.4290   21.0418 C   0  0  0  0  0  0
  -24.3606   -9.4210   21.9197 C   0  0  0  0  0  0
  -23.6284   -8.2243   22.0750 C   0  0  0  0  0  0
  -22.4258   -8.0278   21.3545 C   0  0  0  0  0  0
  -21.9898   -9.0253   20.4641 C   0  0  0  0  0  0
  -22.7222  -10.2145   20.3055 C   0  0  0  0  0  0
  -21.6853   -6.0733   22.5279 C   0  0  0  0  0  0
  -21.4006   -6.5641   23.8209 C   0  0  0  0  0  0
  -21.3672   -5.6795   24.9172 C   0  0  0  0  0  0
  -21.6036   -4.3054   24.7224 C   0  0  0  0  0  0
  -21.8819   -3.8151   23.4343 C   0  0  0  0  0  0
  -21.9200   -4.6964   22.3400 C   0  0  0  0  0  0
  -22.7840  -13.5242   21.1895 C   0  0  0  0  0  0
  -22.1664   -4.2154   21.0972 F   0  0  0  0  0  0
  -21.5631   -3.4540   25.7737 F   0  0  0  0  0  0
  -29.9888  -13.4494   20.4169 N   0  0  0  0  0  0
  -26.2924  -12.9357   20.3273 N   0  0  0  0  0  0
  -25.9279  -11.6513   20.5723 N   0  0  0  0  0  0
  -22.0451  -12.8217   22.0423 N   0  0  0  0  0  0
  -25.4275  -15.1908   20.4200 N   0  0  0  0  0  0
  -31.7606  -14.8400   20.1560 O   0  0  0  0  0  0
  -21.6617   -6.8874   21.4244 O   0  0  0  0  0  0
  -22.3555  -14.5565   20.6767 O   0  0  0  0  0  0
  -24.6293  -31.8576   23.2036 C   0  0  0  0  0  0
  -25.9148  -32.4760   23.8334 C   0  0  1  0  0  0
  -27.1897  -27.2914   20.1182 C   0  0  0  0  0  0
  -25.5976  -33.8569   24.2278 N   0  0  0  0  0  0
  -23.4222  -30.4864   21.5476 C   0  0  2  0  0  0
  -24.8616  -28.9485   20.0999 C   0  0  0  0  0  0
  -22.7490  -29.4625   22.4940 C   0  0  0  0  0  0
  -18.0280  -28.1384   22.8471 C   0  0  0  0  0  0
  -24.1493  -36.7271   23.2644 C   0  0  0  0  0  0
  -25.9658  -30.7813   21.3779 C   0  0  0  0  0  0
  -26.0333  -29.4085   20.7165 C   0  0  0  0  0  0
  -27.2062  -28.5899   20.7192 C   0  0  0  0  0  0
  -26.0135  -26.9133   19.4377 C   0  0  0  0  0  0
  -24.8557  -27.7076   19.4486 C   0  0  0  0  0  0
  -23.6336  -29.8323   20.1577 C   0  0  0  0  0  0
  -25.4115  -36.3085   24.0338 C   0  0  1  0  0  0
  -20.5892  -28.3690   23.1271 C   0  0  2  0  0  0
  -20.6783  -26.9416   22.5406 C   0  0  0  0  0  0
  -19.5768  -26.6383   21.5206 C   0  0  0  0  0  0
  -18.1941  -26.7922   22.1609 C   0  0  0  0  0  0
  -19.1541  -28.8849   23.2864 C   0  0  0  0  0  0
  -18.9468  -30.1445   23.8878 C   0  0  0  0  0  0
  -17.6473  -30.6588   24.0555 C   0  0  0  0  0  0
  -25.9058  -34.9453   23.5102 C   0  0  0  0  0  0
  -16.5360  -29.9082   23.6328 C   0  0  0  0  0  0
  -16.7267  -28.6504   23.0343 C   0  0  0  0  0  0
  -26.4514  -31.6559   25.0696 C   0  0  0  0  0  0
  -25.3749  -31.3681   26.1427 C   0  0  0  0  0  0
  -27.0357  -30.2987   24.6139 C   0  0  0  0  0  0
  -27.6092  -32.4265   25.7466 C   0  0  0  0  0  0
  -27.5566  -37.1805   24.8474 C   0  0  0  0  0  0
  -21.4199  -29.3045   22.3658 N   0  0  0  0  0  0
  -26.4284  -37.3781   23.9417 N   0  0  0  0  0  0
  -24.6926  -31.0601   22.0979 N   0  0  0  0  0  0
  -23.4207  -28.8157   23.3026 O   0  0  0  0  0  0
  -28.2363  -26.3543   20.1903 O   0  0  0  0  0  0
  -26.5621  -34.8922   22.4662 O   0  0  0  0  0  0
  -23.5453  -32.1397   23.7343 O   0  0  0  0  0  0
  -26.5631  -20.2353   20.5774 C   0  0  0  0  0  0
  -26.1876  -22.4133   20.5310 C   0  0  0  0  0  0
  -27.8015  -20.8164   20.4370 C   0  0  0  0  0  0
  -27.5499  -22.2865   20.3766 C   0  0  0  0  0  0
  -24.1672  -20.9330   20.8308 C   0  0  0  0  0  0
  -29.0642  -19.8730   20.3770 C   0  0  0  0  0  0
  -28.4234  -23.5932   20.1415 C   0  0  0  0  0  0
  -28.8108  -18.2708   20.4038 C   0  0  0  0  0  0
  -30.0388  -17.2491   20.5579 C   0  0  0  0  0  0
  -27.8499  -24.9995   20.7040 C   0  0  0  0  0  0
  -25.5875  -21.1889   20.6572 N   0  0  0  0  0  0
  -29.7405  -15.7655   20.6716 N   0  0  0  0  0  0
  -31.4735  -12.5709   19.1550 H   0  0  0  0  0  0
  -30.3932  -11.4336   19.9129 H   0  0  0  0  0  0
  -29.7790  -11.7456   17.4955 H   0  0  0  0  0  0
  -29.6405  -13.4714   17.7270 H   0  0  0  0  0  0
  -27.8663  -11.2922   18.8673 H   0  0  0  0  0  0
  -27.3737  -12.5705   17.7904 H   0  0  0  0  0  0
  -27.6480  -14.2499   19.5035 H   0  0  0  0  0  0
  -28.7143  -12.0735   21.3803 H   0  0  0  0  0  0
  -28.4294  -13.7363   21.8328 H   0  0  0  0  0  0
  -25.2768   -9.5675   22.4784 H   0  0  0  0  0  0
  -24.0004   -7.4616   22.7456 H   0  0  0  0  0  0
  -21.0835   -8.8745   19.8939 H   0  0  0  0  0  0
  -22.3676  -10.9675   19.6155 H   0  0  0  0  0  0
  -21.1978   -7.6153   23.9719 H   0  0  0  0  0  0
  -21.1503   -6.0516   25.9077 H   0  0  0  0  0  0
  -22.0596   -2.7617   23.2827 H   0  0  0  0  0  0
  -22.4045  -11.9872   22.4810 H   0  0  0  0  0  0
  -21.1059  -13.1243   22.2606 H   0  0  0  0  0  0
  -24.6784  -15.8556   20.5771 H   0  0  0  0  0  0
  -26.2665  -15.6242   20.0588 H   0  0  0  0  0  0
  -26.7212  -32.5415   23.1069 H   0  0  0  0  0  0
  -25.0163  -33.9696   25.0453 H   0  0  0  0  0  0
  -22.7174  -31.3088   21.4100 H   0  0  0  0  0  0
  -23.3764  -35.9598   23.3312 H   0  0  0  0  0  0
  -24.3582  -36.8866   22.2057 H   0  0  0  0  0  0
  -23.7228  -37.6469   23.6640 H   0  0  0  0  0  0
  -26.1041  -31.5430   20.6088 H   0  0  0  0  0  0
  -26.8456  -30.8241   22.0084 H   0  0  0  0  0  0
  -28.0978  -28.9284   21.2269 H   0  0  0  0  0  0
  -25.9698  -25.9676   18.9174 H   0  0  0  0  0  0
  -23.9649  -27.3579   18.9450 H   0  0  0  0  0  0
  -23.7541  -30.6142   19.4068 H   0  0  0  0  0  0
  -22.7511  -29.2668   19.8534 H   0  0  0  0  0  0
  -25.1294  -36.1935   25.0829 H   0  0  0  0  0  0
  -20.9958  -28.3267   24.1410 H   0  0  0  0  0  0
  -20.5702  -26.2300   23.3609 H   0  0  0  0  0  0
  -21.6649  -26.7467   22.1201 H   0  0  0  0  0  0
  -19.6953  -25.6293   21.1236 H   0  0  0  0  0  0
  -19.6711  -27.3190   20.6736 H   0  0  0  0  0  0
  -17.4216  -26.6645   21.4011 H   0  0  0  0  0  0
  -18.0354  -26.0066   22.9010 H   0  0  0  0  0  0
  -19.7948  -30.7255   24.2257 H   0  0  0  0  0  0
  -17.5033  -31.6274   24.5148 H   0  0  0  0  0  0
  -15.5359  -30.2993   23.7664 H   0  0  0  0  0  0
  -15.8663  -28.0824   22.7074 H   0  0  0  0  0  0
  -24.5973  -30.6967   25.7750 H   0  0  0  0  0  0
  -24.8885  -32.2833   26.4815 H   0  0  0  0  0  0
  -25.8093  -30.8897   27.0217 H   0  0  0  0  0  0
  -26.2943  -29.6763   24.1116 H   0  0  0  0  0  0
  -27.4018  -29.7201   25.4630 H   0  0  0  0  0  0
  -27.8824  -30.4275   23.9395 H   0  0  0  0  0  0
  -27.2752  -33.3608   26.1991 H   0  0  0  0  0  0
  -28.3941  -32.6732   25.0301 H   0  0  0  0  0  0
  -28.0714  -31.8394   26.5419 H   0  0  0  0  0  0
  -28.2606  -38.0083   24.7511 H   0  0  0  0  0  0
  -28.1040  -36.2615   24.6317 H   0  0  0  0  0  0
  -27.2283  -37.1471   25.8878 H   0  0  0  0  0  0
  -20.9390  -29.8757   21.6858 H   0  0  0  0  0  0
  -26.0165  -38.2854   24.1402 H   0  0  0  0  0  0
  -26.2679  -19.1963   20.6399 H   0  0  0  0  0  0
  -25.5457  -23.2833   20.5466 H   0  0  0  0  0  0
  -23.7219  -20.6539   19.8759 H   0  0  0  0  0  0
  -23.6588  -21.8197   21.2138 H   0  0  0  0  0  0
  -24.0179  -20.1130   21.5348 H   0  0  0  0  0  0
  -29.6984  -20.1371   21.2235 H   0  0  0  0  0  0
  -29.6326  -20.1302   19.4839 H   0  0  0  0  0  0
  -28.5397  -23.6896   19.0625 H   0  0  0  0  0  0
  -29.4269  -23.4262   20.5341 H   0  0  0  0  0  0
  -28.2660  -18.0021   19.4966 H   0  0  0  0  0  0
  -28.1254  -18.0401   21.2202 H   0  0  0  0  0  0
  -30.6060  -17.5343   21.4457 H   0  0  0  0  0  0
  -30.7110  -17.3960   19.7097 H   0  0  0  0  0  0
  -28.0441  -25.0215   21.7764 H   0  0  0  0  0  0
  -26.7706  -24.9337   20.6744 H   0  0  0  0  0  0
  -28.7880  -15.5198   20.8998 H   0  0  0  0  0  0
  1 25  1  0  0  0
  1 30  2  0  0  0
  1 82  1  0  0  0
  2  3  1  0  0  0
  2 25  1  0  0  0
  2 83  1  0  0  0
  2 84  1  0  0  0
  3  4  1  0  0  0
  3 85  1  0  0  0
  3 86  1  0  0  0
  4  5  1  0  0  0
  4 87  1  0  0  0
  4 88  1  0  0  0
  5  6  1  0  0  0
  5 26  1  0  0  0
  5 89  1  0  0  0
  6 25  1  0  0  0
  6 90  1  0  0  0
  6 91  1  0  0  0
  7  8  2  0  0  0
  7 26  1  0  0  0
  7 29  1  0  0  0
  8  9  1  0  0  0
  8 22  1  0  0  0
  9 10  1  0  0  0
  9 27  2  0  0  0
 10 11  2  0  0  0
 10 15  1  0  0  0
 11 12  1  0  0  0
 11 92  1  0  0  0
 12 13  2  0  0  0
 12 93  1  0  0  0
 13 14  1  0  0  0
 13 31  1  0  0  0
 14 15  2  0  0  0
 14 94  1  0  0  0
 15 95  1  0  0  0
 16 17  2  0  0  0
 16 21  1  0  0  0
 16 31  1  0  0  0
 17 18  1  0  0  0
 17 96  1  0  0  0
 18 19  2  0  0  0
 18 97  1  0  0  0
 19 20  1  0  0  0
 19 24  1  0  0  0
 20 21  2  0  0  0
 20 98  1  0  0  0
 21 23  1  0  0  0
 22 28  1  0  0  0
 22 32  2  0  0  0
 26 27  1  0  0  0
 28 99  1  0  0  0
 28100  1  0  0  0
 29101  1  0  0  0
 29102  1  0  0  0
 33 34  1  0  0  0
 33 66  1  0  0  0
 33 70  2  0  0  0
 34 36  1  0  0  0
 34 59  1  0  0  0
 34103  1  0  0  0
 35 44  2  0  0  0
 35 45  1  0  0  0
 35 68  1  0  0  0
 36 56  1  0  0  0
 36104  1  0  0  0
 37 39  1  0  0  0
 37 47  1  0  0  0
 37 66  1  0  0  0
 37105  1  0  0  0
 38 43  2  0  0  0
 38 46  1  0  0  0
 38 47  1  0  0  0
 39 64  1  0  0  0
 39 67  2  0  0  0
 40 52  1  0  0  0
 40 53  2  0  0  0
 40 58  1  0  0  0
 41106  1  0  0  0
 41107  1  0  0  0
 41108  1  0  0  0
 41 48  1  0  0  0
 42 43  1  0  0  0
 42 66  1  0  0  0
 42109  1  0  0  0
 42110  1  0  0  0
 43 44  1  0  0  0
 44111  1  0  0  0
 45 46  2  0  0  0
 45112  1  0  0  0
 46113  1  0  0  0
 47114  1  0  0  0
 47115  1  0  0  0
 48 56  1  0  0  0
 48 65  1  0  0  0
 48116  1  0  0  0
 49 50  1  0  0  0
 49 53  1  0  0  0
 49 64  1  0  0  0
 49117  1  0  0  0
 50 51  1  0  0  0
 50118  1  0  0  0
 50119  1  0  0  0
 51 52  1  0  0  0
 51120  1  0  0  0
 51121  1  0  0  0
 52122  1  0  0  0
 52123  1  0  0  0
 53 54  1  0  0  0
 54 55  2  0  0  0
 54124  1  0  0  0
 55 57  1  0  0  0
 55125  1  0  0  0
 56 69  2  0  0  0
 57 58  2  0  0  0
 57126  1  0  0  0
 58127  1  0  0  0
 59 60  1  0  0  0
 59 61  1  0  0  0
 59 62  1  0  0  0
 60128  1  0  0  0
 60129  1  0  0  0
 60130  1  0  0  0
 61131  1  0  0  0
 61132  1  0  0  0
 61133  1  0  0  0
 62134  1  0  0  0
 62135  1  0  0  0
 62136  1  0  0  0
 63 65  1  0  0  0
 63137  1  0  0  0
 63138  1  0  0  0
 63139  1  0  0  0
 64140  1  0  0  0
 65141  1  0  0  0
 68 80  1  0  0  0
 71 73  2  0  0  0
 71 81  1  0  0  0
 71142  1  0  0  0
 72 74  2  0  0  0
 72 81  1  0  0  0
 72143  1  0  0  0
 73 74  1  0  0  0
 73 76  1  0  0  0
 74 77  1  0  0  0
 75 81  1  0  0  0
 75144  1  0  0  0
 75145  1  0  0  0
 75146  1  0  0  0
 76 78  1  0  0  0
 76147  1  0  0  0
 76148  1  0  0  0
 77 80  1  0  0  0
 77149  1  0  0  0
 77150  1  0  0  0
 78 79  1  0  0  0
 78151  1  0  0  0
 78152  1  0  0  0
 79 82  1  0  0  0
 79153  1  0  0  0
 79154  1  0  0  0
 80155  1  0  0  0
 80156  1  0  0  0
 82157  1  0  0  0
M  ISO  4   1 100  68 101  80 101  82 100
M  END
> <chiral flag>
0

> <version>
0

> <s_m_source_file>
/data/baiqing/PycharmProjects/Reinvent-master-3.2/result/LINK_invent/BTK/process_docking_weight1_custom_sum_contain_oxygen_bond_distance_aromatic_linkinvent_7_9_3/rearranged_h_0044.sdf

> <i_m_source_file_index>
80

> <r_mmod_Potential_Energy-OPLS-2005>
114.040390014648

> <r_mmod_Stretch_Energy-OPLS-2005>
110.960182189941

> <r_mmod_Bend_Energy-OPLS-2005>
161.031555175781

> <r_mmod_Torsional_Energy-OPLS-2005>
223.876953125

> <r_mmod_Improper_Torsional_Energy-OPLS-2005>
5.17344188690186

> <r_mmod_Van_der_Waal_Energy-OPLS-2005>
128.324768066406

> <r_mmod_Electrostatic_Energy-OPLS-2005>
-371.745880126953

> <r_mmod_Solvation_Energy-OPLS-2005>
-217.38459777832

> <b_mmod_Minimization_Converged-OPLS-2005>
0

> <r_mmod_RMS_Derivative-OPLS-2005>
3.62715554237366

$$$$
80
                    3D
 Structure written by MMmdl.
155163  0  0  1  0            999 V2000
  -30.6091  -14.6291   20.5386 C   0  0  0  0  0  0
  -30.4415  -12.3960   19.4263 C   0  0  0  0  0  0
  -29.5054  -12.5348   18.2046 C   0  0  0  0  0  0
  -28.0245  -12.3724   18.6132 C   0  0  0  0  0  0
  -27.6586  -13.2131   19.8655 C   0  0  2  0  0  0
  -28.7099  -13.0222   20.9827 C   0  0  0  0  0  0
  -25.2574  -13.8150   20.5648 C   0  0  0  0  0  0
  -24.1839  -13.0437   20.9165 C   0  0  0  0  0  0
  -24.6403  -11.6901   20.8733 C   0  0  0  0  0  0
  -23.9075  -10.4300   21.0415 C   0  0  0  0  0  0
  -24.3627   -9.4211   21.9190 C   0  0  0  0  0  0
  -23.6299   -8.2252   22.0760 C   0  0  0  0  0  0
  -22.4287   -8.0284   21.3542 C   0  0  0  0  0  0
  -21.9913   -9.0256   20.4646 C   0  0  0  0  0  0
  -22.7248  -10.2136   20.3055 C   0  0  0  0  0  0
  -21.6853   -6.0748   22.5284 C   0  0  0  0  0  0
  -21.4026   -6.5653   23.8219 C   0  0  0  0  0  0
  -21.3654   -5.6794   24.9174 C   0  0  0  0  0  0
  -21.6039   -4.3056   24.7224 C   0  0  0  0  0  0
  -21.8823   -3.8155   23.4347 C   0  0  0  0  0  0
  -21.9197   -4.6976   22.3409 C   0  0  0  0  0  0
  -22.7855  -13.5235   21.1826 C   0  0  0  0  0  0
  -22.1663   -4.2170   21.0980 F   0  0  0  0  0  0
  -21.5609   -3.4542   25.7736 F   0  0  0  0  0  0
  -30.0201  -13.3939   20.4275 N   0  0  0  0  0  0
  -26.3019  -12.9328   20.3313 N   0  0  0  0  0  0
  -25.9335  -11.6492   20.5737 N   0  0  0  0  0  0
  -22.0486  -12.8238   22.0376 N   0  0  0  0  0  0
  -25.4240  -15.1877   20.4035 N   0  0  0  0  0  0
  -31.7343  -14.8287   20.0663 O   0  0  0  0  0  0
  -21.6632   -6.8896   21.4249 O   0  0  0  0  0  0
  -22.3551  -14.5557   20.6690 O   0  0  0  0  0  0
  -24.6224  -31.8587   23.1998 C   0  0  0  0  0  0
  -25.9068  -32.4773   23.8349 C   0  0  1  0  0  0
  -27.2352  -27.3473   20.1138 C   0  0  0  0  0  0
  -25.5890  -33.8574   24.2287 N   0  0  0  0  0  0
  -23.4180  -30.4779   21.5402 C   0  0  2  0  0  0
  -24.8662  -28.9291   20.1137 C   0  0  0  0  0  0
  -22.7487  -29.4585   22.4915 C   0  0  0  0  0  0
  -18.0289  -28.1373   22.8465 C   0  0  0  0  0  0
  -24.1490  -36.7307   23.2642 C   0  0  0  0  0  0
  -25.9542  -30.8006   21.3613 C   0  0  0  0  0  0
  -26.0315  -29.4265   20.7100 C   0  0  0  0  0  0
  -27.2223  -28.6485   20.6928 C   0  0  0  0  0  0
  -26.0478  -26.8790   19.5159 C   0  0  0  0  0  0
  -24.8742  -27.6596   19.5088 C   0  0  0  0  0  0
  -23.6323  -29.8071   20.1572 C   0  0  0  0  0  0
  -25.4102  -36.3085   24.0346 C   0  0  1  0  0  0
  -20.5891  -28.3653   23.1302 C   0  0  2  0  0  0
  -20.6760  -26.9376   22.5422 C   0  0  0  0  0  0
  -19.5748  -26.6377   21.5199 C   0  0  0  0  0  0
  -18.1920  -26.7920   22.1596 C   0  0  0  0  0  0
  -19.1542  -28.8834   23.2879 C   0  0  0  0  0  0
  -18.9469  -30.1429   23.8903 C   0  0  0  0  0  0
  -17.6473  -30.6571   24.0559 C   0  0  0  0  0  0
  -25.9035  -34.9451   23.5119 C   0  0  0  0  0  0
  -16.5362  -29.9075   23.6322 C   0  0  0  0  0  0
  -16.7274  -28.6498   23.0326 C   0  0  0  0  0  0
  -26.4448  -31.6578   25.0713 C   0  0  0  0  0  0
  -25.3692  -31.3734   26.1464 C   0  0  0  0  0  0
  -27.0250  -30.3009   24.6104 C   0  0  0  0  0  0
  -27.6057  -32.4286   25.7452 C   0  0  0  0  0  0
  -27.5588  -37.1781   24.8447 C   0  0  0  0  0  0
  -21.4200  -29.3016   22.3706 N   0  0  0  0  0  0
  -26.4275  -37.3788   23.9431 N   0  0  0  0  0  0
  -24.6843  -31.0628   22.0918 N   0  0  0  0  0  0
  -23.4239  -28.8111   23.2964 O   0  0  0  0  0  0
  -28.3882  -26.5654   20.0915 O   0  0  0  0  0  0
  -26.5615  -34.8919   22.4691 O   0  0  0  0  0  0
  -23.5399  -32.1353   23.7345 O   0  0  0  0  0  0
  -29.2392  -17.7849   19.5853 C   0  0  0  0  0  0
  -29.9059  -17.3143   20.7516 C   0  0  0  0  0  0
  -30.0175  -19.5587   21.4698 C   0  0  0  0  0  0
  -29.2611  -20.0145   20.3491 C   0  0  0  0  0  0
  -30.4647  -20.5085   22.5647 C   0  0  0  0  0  0
  -29.8318  -15.8209   21.2335 C   0  0  0  0  0  0
  -28.5884  -21.4374   20.2718 C   0  0  0  0  0  0
  -29.4184  -22.7169   19.8622 C   0  0  0  0  0  0
  -28.6615  -24.0606   19.4433 C   0  0  0  0  0  0
  -28.3243  -25.1616   20.5224 C   0  0  0  0  0  0
  -28.9272  -19.1065   19.3860 N   0  0  0  0  0  0
  -30.3267  -18.2379   21.6654 N   0  0  0  0  0  0
  -31.4844  -12.5253   19.1304 H   0  0  0  0  0  0
  -30.3694  -11.3902   19.8429 H   0  0  0  0  0  0
  -29.7636  -11.7972   17.4449 H   0  0  0  0  0  0
  -29.6522  -13.5112   17.7387 H   0  0  0  0  0  0
  -27.8466  -11.3145   18.8094 H   0  0  0  0  0  0
  -27.3733  -12.6392   17.7802 H   0  0  0  0  0  0
  -27.6837  -14.2561   19.5505 H   0  0  0  0  0  0
  -28.7253  -11.9816   21.3126 H   0  0  0  0  0  0
  -28.4579  -13.5932   21.8757 H   0  0  0  0  0  0
  -25.2788   -9.5687   22.4746 H   0  0  0  0  0  0
  -24.0006   -7.4661   22.7496 H   0  0  0  0  0  0
  -21.0837   -8.8792   19.8967 H   0  0  0  0  0  0
  -22.3723  -10.9668   19.6158 H   0  0  0  0  0  0
  -21.2028   -7.6161   23.9730 H   0  0  0  0  0  0
  -21.1456   -6.0520   25.9074 H   0  0  0  0  0  0
  -22.0602   -2.7618   23.2837 H   0  0  0  0  0  0
  -22.4107  -11.9911   22.4791 H   0  0  0  0  0  0
  -21.1098  -13.1262   22.2574 H   0  0  0  0  0  0
  -24.6477  -15.8322   20.5040 H   0  0  0  0  0  0
  -26.2628  -15.6329   20.0562 H   0  0  0  0  0  0
  -26.7152  -32.5454   23.1127 H   0  0  0  0  0  0
  -25.0011  -33.9723   25.0410 H   0  0  0  0  0  0
  -22.7089  -31.2949   21.3934 H   0  0  0  0  0  0
  -23.3753  -35.9632   23.3267 H   0  0  0  0  0  0
  -24.3601  -36.8963   22.2066 H   0  0  0  0  0  0
  -23.7225  -37.6500   23.6680 H   0  0  0  0  0  0
  -26.0706  -31.5592   20.5864 H   0  0  0  0  0  0
  -26.8432  -30.8628   21.9779 H   0  0  0  0  0  0
  -28.1264  -29.0295   21.1449 H   0  0  0  0  0  0
  -26.0282  -25.9046   19.0491 H   0  0  0  0  0  0
  -23.9798  -27.2716   19.0431 H   0  0  0  0  0  0
  -23.7495  -30.5815   19.3975 H   0  0  0  0  0  0
  -22.7552  -29.2318   19.8556 H   0  0  0  0  0  0
  -25.1263  -36.1947   25.0835 H   0  0  0  0  0  0
  -20.9969  -28.3212   24.1427 H   0  0  0  0  0  0
  -20.5614  -26.2259   23.3616 H   0  0  0  0  0  0
  -21.6631  -26.7353   22.1251 H   0  0  0  0  0  0
  -19.6901  -25.6290   21.1223 H   0  0  0  0  0  0
  -19.6725  -27.3201   20.6753 H   0  0  0  0  0  0
  -17.4200  -26.6697   21.3988 H   0  0  0  0  0  0
  -18.0281  -26.0055   22.8985 H   0  0  0  0  0  0
  -19.7945  -30.7226   24.2302 H   0  0  0  0  0  0
  -17.5023  -31.6251   24.5149 H   0  0  0  0  0  0
  -15.5359  -30.2976   23.7632 H   0  0  0  0  0  0
  -15.8671  -28.0825   22.7025 H   0  0  0  0  0  0
  -24.5984  -30.6899   25.7887 H   0  0  0  0  0  0
  -24.8704  -32.2876   26.4711 H   0  0  0  0  0  0
  -25.8046  -30.9150   27.0350 H   0  0  0  0  0  0
  -26.2783  -29.6818   24.1125 H   0  0  0  0  0  0
  -27.3975  -29.7207   25.4553 H   0  0  0  0  0  0
  -27.8643  -30.4324   23.9268 H   0  0  0  0  0  0
  -27.2740  -33.3643   26.1971 H   0  0  0  0  0  0
  -28.3884  -32.6743   25.0256 H   0  0  0  0  0  0
  -28.0692  -31.8419   26.5400 H   0  0  0  0  0  0
  -28.2557  -38.0121   24.7537 H   0  0  0  0  0  0
  -28.1132  -36.2658   24.6195 H   0  0  0  0  0  0
  -27.2336  -37.1339   25.8855 H   0  0  0  0  0  0
  -20.9361  -29.8813   21.6991 H   0  0  0  0  0  0
  -26.0166  -38.2852   24.1489 H   0  0  0  0  0  0
  -28.8404  -17.0874   18.8626 H   0  0  0  0  0  0
  -30.9234  -21.4003   22.1379 H   0  0  0  0  0  0
  -31.2061  -20.0439   23.2153 H   0  0  0  0  0  0
  -29.6172  -20.8161   23.1777 H   0  0  0  0  0  0
  -28.7652  -15.6173   21.1931 H   0  0  0  0  0  0
  -30.0862  -15.7838   22.2917 H   0  0  0  0  0  0
  -28.1255  -21.6269   21.2405 H   0  0  0  0  0  0
  -27.7543  -21.3559   19.5737 H   0  0  0  0  0  0
  -30.0086  -22.4245   18.9929 H   0  0  0  0  0  0
  -30.1500  -22.9478   20.6358 H   0  0  0  0  0  0
  -27.7623  -23.8231   18.8740 H   0  0  0  0  0  0
  -29.3131  -24.5576   18.7222 H   0  0  0  0  0  0
  -29.0603  -25.0791   21.3227 H   0  0  0  0  0  0
  -27.3695  -24.9326   20.9987 H   0  0  0  0  0  0
  1 25  1  0  0  0
  1 30  2  0  0  0
  1 76  1  0  0  0
  2  3  1  0  0  0
  2 25  1  0  0  0
  2 83  1  0  0  0
  2 84  1  0  0  0
  3  4  1  0  0  0
  3 85  1  0  0  0
  3 86  1  0  0  0
  4  5  1  0  0  0
  4 87  1  0  0  0
  4 88  1  0  0  0
  5  6  1  0  0  0
  5 26  1  0  0  0
  5 89  1  0  0  0
  6 25  1  0  0  0
  6 90  1  0  0  0
  6 91  1  0  0  0
  7  8  2  0  0  0
  7 26  1  0  0  0
  7 29  1  0  0  0
  8  9  1  0  0  0
  8 22  1  0  0  0
  9 10  1  0  0  0
  9 27  2  0  0  0
 10 11  2  0  0  0
 10 15  1  0  0  0
 11 12  1  0  0  0
 11 92  1  0  0  0
 12 13  2  0  0  0
 12 93  1  0  0  0
 13 14  1  0  0  0
 13 31  1  0  0  0
 14 15  2  0  0  0
 14 94  1  0  0  0
 15 95  1  0  0  0
 16 17  2  0  0  0
 16 21  1  0  0  0
 16 31  1  0  0  0
 17 18  1  0  0  0
 17 96  1  0  0  0
 18 19  2  0  0  0
 18 97  1  0  0  0
 19 20  1  0  0  0
 19 24  1  0  0  0
 20 21  2  0  0  0
 20 98  1  0  0  0
 21 23  1  0  0  0
 22 28  1  0  0  0
 22 32  2  0  0  0
 26 27  1  0  0  0
 28 99  1  0  0  0
 28100  1  0  0  0
 29101  1  0  0  0
 29102  1  0  0  0
 33 34  1  0  0  0
 33 66  1  0  0  0
 33 70  2  0  0  0
 34 36  1  0  0  0
 34 59  1  0  0  0
 34103  1  0  0  0
 35 44  2  0  0  0
 35 45  1  0  0  0
 35 68  1  0  0  0
 36 56  1  0  0  0
 36104  1  0  0  0
 37 39  1  0  0  0
 37 47  1  0  0  0
 37 66  1  0  0  0
 37105  1  0  0  0
 38 43  2  0  0  0
 38 46  1  0  0  0
 38 47  1  0  0  0
 39 64  1  0  0  0
 39 67  2  0  0  0
 40 52  1  0  0  0
 40 53  2  0  0  0
 40 58  1  0  0  0
 41106  1  0  0  0
 41107  1  0  0  0
 41108  1  0  0  0
 41 48  1  0  0  0
 42 43  1  0  0  0
 42 66  1  0  0  0
 42109  1  0  0  0
 42110  1  0  0  0
 43 44  1  0  0  0
 44111  1  0  0  0
 45 46  2  0  0  0
 45112  1  0  0  0
 46113  1  0  0  0
 47114  1  0  0  0
 47115  1  0  0  0
 48 56  1  0  0  0
 48 65  1  0  0  0
 48116  1  0  0  0
 49 50  1  0  0  0
 49 53  1  0  0  0
 49 64  1  0  0  0
 49117  1  0  0  0
 50 51  1  0  0  0
 50118  1  0  0  0
 50119  1  0  0  0
 51 52  1  0  0  0
 51120  1  0  0  0
 51121  1  0  0  0
 52122  1  0  0  0
 52123  1  0  0  0
 53 54  1  0  0  0
 54 55  2  0  0  0
 54124  1  0  0  0
 55 57  1  0  0  0
 55125  1  0  0  0
 56 69  2  0  0  0
 57 58  2  0  0  0
 57126  1  0  0  0
 58127  1  0  0  0
 59 60  1  0  0  0
 59 61  1  0  0  0
 59 62  1  0  0  0
 60128  1  0  0  0
 60129  1  0  0  0
 60130  1  0  0  0
 61131  1  0  0  0
 61132  1  0  0  0
 61133  1  0  0  0
 62134  1  0  0  0
 62135  1  0  0  0
 62136  1  0  0  0
 63 65  1  0  0  0
 63137  1  0  0  0
 63138  1  0  0  0
 63139  1  0  0  0
 64140  1  0  0  0
 65141  1  0  0  0
 68 80  1  0  0  0
 71 72  2  0  0  0
 71 81  1  0  0  0
 71142  1  0  0  0
 72 76  1  0  0  0
 72 82  1  0  0  0
 73 74  1  0  0  0
 73 75  1  0  0  0
 73 82  2  0  0  0
 74 77  1  0  0  0
 74 81  2  0  0  0
 75143  1  0  0  0
 75144  1  0  0  0
 75145  1  0  0  0
 76146  1  0  0  0
 76147  1  0  0  0
 77 78  1  0  0  0
 77148  1  0  0  0
 77149  1  0  0  0
 78 79  1  0  0  0
 78150  1  0  0  0
 78151  1  0  0  0
 79 80  1  0  0  0
 79152  1  0  0  0
 79153  1  0  0  0
 80154  1  0  0  0
 80155  1  0  0  0
M  ISO  4   1 100  68 101  76 100  80 101
M  END
> <chiral flag>
0

> <version>
0

> <s_m_source_file>
/data/baiqing/PycharmProjects/Reinvent-master-3.2/result/LINK_invent/BTK/process_docking_weight1_custom_sum_contain_oxygen_bond_distance_aromatic_linkinvent_7_9_3/rearranged_h_0044.sdf

> <i_m_source_file_index>
81

> <r_mmod_Potential_Energy-OPLS-2005>
127.446533203125

> <r_mmod_Stretch_Energy-OPLS-2005>
76.6554260253906

> <r_mmod_Bend_Energy-OPLS-2005>
147.378189086914

> <r_mmod_Torsional_Energy-OPLS-2005>
207.422546386719

> <r_mmod_Improper_Torsional_Energy-OPLS-2005>
6.12824153900146

> <r_mmod_Van_der_Waal_Energy-OPLS-2005>
137.842407226562

> <r_mmod_Electrostatic_Energy-OPLS-2005>
-271.485748291016

> <r_mmod_Solvation_Energy-OPLS-2005>
-213.923370361328

> <b_mmod_Minimization_Converged-OPLS-2005>
0

> <r_mmod_RMS_Derivative-OPLS-2005>
2.26241612434387

$$$$
81
                    3D
 Structure written by MMmdl.
167175  0  0  1  0            999 V2000
  -30.6827  -14.5777   20.4365 C   0  0  0  0  0  0
  -30.4210  -12.3350   19.4497 C   0  0  0  0  0  0
  -29.4948  -12.4384   18.2187 C   0  0  0  0  0  0
  -28.0160  -12.3259   18.6347 C   0  0  0  0  0  0
  -27.6475  -13.2182   19.8511 C   0  0  2  0  0  0
  -28.6981  -13.1139   20.9798 C   0  0  0  0  0  0
  -25.2542  -13.8185   20.5692 C   0  0  0  0  0  0
  -24.1821  -13.0456   20.9218 C   0  0  0  0  0  0
  -24.6393  -11.6929   20.8767 C   0  0  0  0  0  0
  -23.9072  -10.4309   21.0403 C   0  0  0  0  0  0
  -24.3629   -9.4225   21.9178 C   0  0  0  0  0  0
  -23.6313   -8.2255   22.0749 C   0  0  0  0  0  0
  -22.4294   -8.0290   21.3545 C   0  0  0  0  0  0
  -21.9932   -9.0263   20.4647 C   0  0  0  0  0  0
  -22.7244  -10.2146   20.3058 C   0  0  0  0  0  0
  -21.6839   -6.0745   22.5277 C   0  0  0  0  0  0
  -21.3996   -6.5639   23.8213 C   0  0  0  0  0  0
  -21.3684   -5.6794   24.9175 C   0  0  0  0  0  0
  -21.6067   -4.3060   24.7223 C   0  0  0  0  0  0
  -21.8823   -3.8155   23.4342 C   0  0  0  0  0  0
  -21.9189   -4.6979   22.3399 C   0  0  0  0  0  0
  -22.7836  -13.5231   21.1873 C   0  0  0  0  0  0
  -22.1659   -4.2165   21.0978 F   0  0  0  0  0  0
  -21.5646   -3.4546   25.7736 F   0  0  0  0  0  0
  -30.0106  -13.3924   20.3872 N   0  0  0  0  0  0
  -26.2968  -12.9376   20.3316 N   0  0  0  0  0  0
  -25.9323  -11.6535   20.5806 N   0  0  0  0  0  0
  -22.0477  -12.8234   22.0423 N   0  0  0  0  0  0
  -25.4266  -15.1909   20.4061 N   0  0  0  0  0  0
  -31.8999  -14.6317   20.2389 O   0  0  0  0  0  0
  -21.6658   -6.8886   21.4235 O   0  0  0  0  0  0
  -22.3519  -14.5536   20.6716 O   0  0  0  0  0  0
  -24.6165  -31.8664   23.2089 C   0  0  0  0  0  0
  -25.9063  -32.4801   23.8371 C   0  0  1  0  0  0
  -27.2141  -27.3951   20.1132 C   0  0  0  0  0  0
  -25.5920  -33.8603   24.2313 N   0  0  0  0  0  0
  -23.4035  -30.4919   21.5496 C   0  0  2  0  0  0
  -24.8480  -28.9536   20.1121 C   0  0  0  0  0  0
  -22.7400  -29.4667   22.4970 C   0  0  0  0  0  0
  -18.0275  -28.1363   22.8500 C   0  0  0  0  0  0
  -24.1490  -36.7307   23.2632 C   0  0  0  0  0  0
  -25.9356  -30.8198   21.3678 C   0  0  0  0  0  0
  -26.0112  -29.4528   20.7128 C   0  0  0  0  0  0
  -27.2014  -28.6829   20.7068 C   0  0  0  0  0  0
  -26.0388  -26.9219   19.4954 C   0  0  0  0  0  0
  -24.8578  -27.6887   19.4996 C   0  0  0  0  0  0
  -23.6132  -29.8274   20.1628 C   0  0  0  0  0  0
  -25.4104  -36.3098   24.0337 C   0  0  1  0  0  0
  -20.5863  -28.3669   23.1309 C   0  0  2  0  0  0
  -20.6778  -26.9404   22.5412 C   0  0  0  0  0  0
  -19.5758  -26.6384   21.5210 C   0  0  0  0  0  0
  -18.1933  -26.7916   22.1618 C   0  0  0  0  0  0
  -19.1524  -28.8829   23.2904 C   0  0  0  0  0  0
  -18.9457  -30.1433   23.8919 C   0  0  0  0  0  0
  -17.6463  -30.6584   24.0562 C   0  0  0  0  0  0
  -25.9043  -34.9466   23.5122 C   0  0  0  0  0  0
  -16.5351  -29.9089   23.6321 C   0  0  0  0  0  0
  -16.7266  -28.6490   23.0370 C   0  0  0  0  0  0
  -26.4491  -31.6581   25.0698 C   0  0  0  0  0  0
  -25.3758  -31.3709   26.1446 C   0  0  0  0  0  0
  -27.0330  -30.3018   24.6092 C   0  0  0  0  0  0
  -27.6055  -32.4309   25.7470 C   0  0  0  0  0  0
  -27.5593  -37.1777   24.8444 C   0  0  0  0  0  0
  -21.4126  -29.3043   22.3709 N   0  0  0  0  0  0
  -26.4279  -37.3795   23.9435 N   0  0  0  0  0  0
  -24.6699  -31.0736   22.1010 N   0  0  0  0  0  0
  -23.4164  -28.8221   23.3029 O   0  0  0  0  0  0
  -28.3439  -26.5998   20.1236 O   0  0  0  0  0  0
  -26.5594  -34.8926   22.4680 O   0  0  0  0  0  0
  -23.5355  -32.1452   23.7468 O   0  0  0  0  0  0
  -31.3320  -22.2090   22.0603 C   0  0  0  0  0  0
  -30.7538  -20.9331   22.0919 C   0  0  0  0  0  0
  -30.7008  -23.2416   21.3402 C   0  0  0  0  0  0
  -29.5486  -20.7048   21.4116 C   0  0  0  0  0  0
  -29.4596  -22.9679   20.7079 C   0  0  0  0  0  0
  -32.9073  -23.9767   19.3106 C   0  0  0  0  0  0
  -30.1933  -16.1529   18.6756 C   0  0  0  0  0  0
  -31.3862  -24.6090   21.2838 C   0  0  0  0  0  0
  -28.9348  -19.2853   21.4640 C   0  0  0  0  0  0
  -28.7159  -24.0749   19.9153 C   0  0  0  0  0  0
  -32.8175  -24.5674   20.7240 C   0  0  0  0  0  0
  -29.7257  -18.1833   20.6837 C   0  0  0  0  0  0
  -29.3142  -16.6751   20.9376 C   0  0  0  0  0  0
  -28.1933  -25.2942   20.7503 C   0  0  0  0  0  0
  -28.9088  -21.7118   20.7412 N   0  0  0  0  0  0
  -29.9421  -15.6583   20.0384 N   0  0  0  0  0  0
  -31.4639  -12.4326   19.1447 H   0  0  0  0  0  0
  -30.3325  -11.3567   19.9252 H   0  0  0  0  0  0
  -29.7386  -11.6504   17.5045 H   0  0  0  0  0  0
  -29.6570  -13.3762   17.6912 H   0  0  0  0  0  0
  -27.8292  -11.2787   18.8740 H   0  0  0  0  0  0
  -27.3708  -12.5631   17.7884 H   0  0  0  0  0  0
  -27.6565  -14.2453   19.4864 H   0  0  0  0  0  0
  -28.6912  -12.1204   21.4314 H   0  0  0  0  0  0
  -28.4793  -13.8221   21.7810 H   0  0  0  0  0  0
  -25.2765   -9.5716   22.4760 H   0  0  0  0  0  0
  -24.0035   -7.4645   22.7466 H   0  0  0  0  0  0
  -21.0866   -8.8776   19.8942 H   0  0  0  0  0  0
  -22.3685  -10.9694   19.6191 H   0  0  0  0  0  0
  -21.1967   -7.6143   23.9723 H   0  0  0  0  0  0
  -21.1500   -6.0515   25.9078 H   0  0  0  0  0  0
  -22.0582   -2.7617   23.2830 H   0  0  0  0  0  0
  -22.4076  -11.9896   22.4825 H   0  0  0  0  0  0
  -21.1090  -13.1257   22.2619 H   0  0  0  0  0  0
  -24.6644  -15.8504   20.5170 H   0  0  0  0  0  0
  -26.2817  -15.6234   20.0800 H   0  0  0  0  0  0
  -26.7111  -32.5501   23.1108 H   0  0  0  0  0  0
  -25.0094  -33.9753   25.0473 H   0  0  0  0  0  0
  -22.6945  -31.3110   21.4116 H   0  0  0  0  0  0
  -23.3772  -35.9616   23.3240 H   0  0  0  0  0  0
  -24.3610  -36.8981   22.2059 H   0  0  0  0  0  0
  -23.7208  -37.6481   23.6684 H   0  0  0  0  0  0
  -26.0510  -31.5860   20.6004 H   0  0  0  0  0  0
  -26.8222  -30.8710   21.9877 H   0  0  0  0  0  0
  -28.0965  -29.0597   21.1833 H   0  0  0  0  0  0
  -26.0324  -25.9530   19.0163 H   0  0  0  0  0  0
  -23.9635  -27.2994   19.0331 H   0  0  0  0  0  0
  -23.7251  -30.6059   19.4069 H   0  0  0  0  0  0
  -22.7347  -29.2535   19.8629 H   0  0  0  0  0  0
  -25.1267  -36.1948   25.0825 H   0  0  0  0  0  0
  -20.9954  -28.3238   24.1430 H   0  0  0  0  0  0
  -20.5698  -26.2270   23.3597 H   0  0  0  0  0  0
  -21.6653  -26.7463   22.1194 H   0  0  0  0  0  0
  -19.6934  -25.6300   21.1236 H   0  0  0  0  0  0
  -19.6706  -27.3199   20.6745 H   0  0  0  0  0  0
  -17.4205  -26.6669   21.4015 H   0  0  0  0  0  0
  -18.0337  -26.0039   22.8994 H   0  0  0  0  0  0
  -19.7939  -30.7235   24.2305 H   0  0  0  0  0  0
  -17.5030  -31.6274   24.5151 H   0  0  0  0  0  0
  -15.5360  -30.3010   23.7638 H   0  0  0  0  0  0
  -15.8660  -28.0814   22.7106 H   0  0  0  0  0  0
  -24.5924  -30.7055   25.7800 H   0  0  0  0  0  0
  -24.8954  -32.2877   26.4877 H   0  0  0  0  0  0
  -25.8107  -30.8892   27.0213 H   0  0  0  0  0  0
  -26.2875  -29.6752   24.1176 H   0  0  0  0  0  0
  -27.4142  -29.7271   25.4548 H   0  0  0  0  0  0
  -27.8698  -30.4337   23.9225 H   0  0  0  0  0  0
  -27.2670  -33.3621   26.2036 H   0  0  0  0  0  0
  -28.3880  -32.6852   25.0305 H   0  0  0  0  0  0
  -28.0706  -31.8433   26.5399 H   0  0  0  0  0  0
  -28.2527  -38.0155   24.7612 H   0  0  0  0  0  0
  -28.1173  -36.2693   24.6111 H   0  0  0  0  0  0
  -27.2332  -37.1228   25.8845 H   0  0  0  0  0  0
  -20.9282  -29.8749   21.6921 H   0  0  0  0  0  0
  -26.0161  -38.2855   24.1516 H   0  0  0  0  0  0
  -32.2615  -22.3863   22.5810 H   0  0  0  0  0  0
  -31.2417  -20.1349   22.6374 H   0  0  0  0  0  0
  -33.9329  -24.0166   18.9439 H   0  0  0  0  0  0
  -32.2796  -24.5267   18.6079 H   0  0  0  0  0  0
  -32.5918  -22.9329   19.2976 H   0  0  0  0  0  0
  -29.2949  -16.6049   18.2540 H   0  0  0  0  0  0
  -30.4990  -15.3616   17.9903 H   0  0  0  0  0  0
  -31.0010  -16.8855   18.6679 H   0  0  0  0  0  0
  -31.4010  -25.0260   22.2917 H   0  0  0  0  0  0
  -30.8294  -25.3247   20.6838 H   0  0  0  0  0  0
  -27.9060  -19.3218   21.1058 H   0  0  0  0  0  0
  -28.8682  -18.9994   22.5138 H   0  0  0  0  0  0
  -27.8797  -23.6329   19.3706 H   0  0  0  0  0  0
  -29.3931  -24.4313   19.1392 H   0  0  0  0  0  0
  -33.2170  -25.5826   20.7132 H   0  0  0  0  0  0
  -33.4660  -24.0025   21.3936 H   0  0  0  0  0  0
  -30.7865  -18.2826   20.9163 H   0  0  0  0  0  0
  -29.6252  -18.4535   19.6343 H   0  0  0  0  0  0
  -28.2334  -16.5813   20.8224 H   0  0  0  0  0  0
  -29.5208  -16.4126   21.9779 H   0  0  0  0  0  0
  -28.7556  -25.3603   21.6809 H   0  0  0  0  0  0
  -27.1715  -25.0946   21.0753 H   0  0  0  0  0  0
  1 25  1  0  0  0
  1 30  2  0  0  0
  1 86  1  0  0  0
  2  3  1  0  0  0
  2 25  1  0  0  0
  2 87  1  0  0  0
  2 88  1  0  0  0
  3  4  1  0  0  0
  3 89  1  0  0  0
  3 90  1  0  0  0
  4  5  1  0  0  0
  4 91  1  0  0  0
  4 92  1  0  0  0
  5  6  1  0  0  0
  5 26  1  0  0  0
  5 93  1  0  0  0
  6 25  1  0  0  0
  6 94  1  0  0  0
  6 95  1  0  0  0
  7  8  2  0  0  0
  7 26  1  0  0  0
  7 29  1  0  0  0
  8  9  1  0  0  0
  8 22  1  0  0  0
  9 10  1  0  0  0
  9 27  2  0  0  0
 10 11  2  0  0  0
 10 15  1  0  0  0
 11 12  1  0  0  0
 11 96  1  0  0  0
 12 13  2  0  0  0
 12 97  1  0  0  0
 13 14  1  0  0  0
 13 31  1  0  0  0
 14 15  2  0  0  0
 14 98  1  0  0  0
 15 99  1  0  0  0
 16 17  2  0  0  0
 16 21  1  0  0  0
 16 31  1  0  0  0
 17 18  1  0  0  0
 17100  1  0  0  0
 18 19  2  0  0  0
 18101  1  0  0  0
 19 20  1  0  0  0
 19 24  1  0  0  0
 20 21  2  0  0  0
 20102  1  0  0  0
 21 23  1  0  0  0
 22 28  1  0  0  0
 22 32  2  0  0  0
 26 27  1  0  0  0
 28103  1  0  0  0
 28104  1  0  0  0
 29105  1  0  0  0
 29106  1  0  0  0
 33 34  1  0  0  0
 33 66  1  0  0  0
 33 70  2  0  0  0
 34 36  1  0  0  0
 34 59  1  0  0  0
 34107  1  0  0  0
 35 44  2  0  0  0
 35 45  1  0  0  0
 35 68  1  0  0  0
 36 56  1  0  0  0
 36108  1  0  0  0
 37 39  1  0  0  0
 37 47  1  0  0  0
 37 66  1  0  0  0
 37109  1  0  0  0
 38 43  2  0  0  0
 38 46  1  0  0  0
 38 47  1  0  0  0
 39 64  1  0  0  0
 39 67  2  0  0  0
 40 52  1  0  0  0
 40 53  2  0  0  0
 40 58  1  0  0  0
 41110  1  0  0  0
 41111  1  0  0  0
 41112  1  0  0  0
 41 48  1  0  0  0
 42 43  1  0  0  0
 42 66  1  0  0  0
 42113  1  0  0  0
 42114  1  0  0  0
 43 44  1  0  0  0
 44115  1  0  0  0
 45 46  2  0  0  0
 45116  1  0  0  0
 46117  1  0  0  0
 47118  1  0  0  0
 47119  1  0  0  0
 48 56  1  0  0  0
 48 65  1  0  0  0
 48120  1  0  0  0
 49 50  1  0  0  0
 49 53  1  0  0  0
 49 64  1  0  0  0
 49121  1  0  0  0
 50 51  1  0  0  0
 50122  1  0  0  0
 50123  1  0  0  0
 51 52  1  0  0  0
 51124  1  0  0  0
 51125  1  0  0  0
 52126  1  0  0  0
 52127  1  0  0  0
 53 54  1  0  0  0
 54 55  2  0  0  0
 54128  1  0  0  0
 55 57  1  0  0  0
 55129  1  0  0  0
 56 69  2  0  0  0
 57 58  2  0  0  0
 57130  1  0  0  0
 58131  1  0  0  0
 59 60  1  0  0  0
 59 61  1  0  0  0
 59 62  1  0  0  0
 60132  1  0  0  0
 60133  1  0  0  0
 60134  1  0  0  0
 61135  1  0  0  0
 61136  1  0  0  0
 61137  1  0  0  0
 62138  1  0  0  0
 62139  1  0  0  0
 62140  1  0  0  0
 63 65  1  0  0  0
 63141  1  0  0  0
 63142  1  0  0  0
 63143  1  0  0  0
 64144  1  0  0  0
 65145  1  0  0  0
 68 84  1  0  0  0
 71 72  2  0  0  0
 71 73  1  0  0  0
 71146  1  0  0  0
 72 74  1  0  0  0
 72147  1  0  0  0
 73 75  2  0  0  0
 73 78  1  0  0  0
 74 79  1  0  0  0
 74 85  2  0  0  0
 75 80  1  0  0  0
 75 85  1  0  0  0
 76 81  1  0  0  0
 76148  1  0  0  0
 76149  1  0  0  0
 76150  1  0  0  0
 77 86  1  0  0  0
 77151  1  0  0  0
 77152  1  0  0  0
 77153  1  0  0  0
 78 81  1  0  0  0
 78154  1  0  0  0
 78155  1  0  0  0
 79 82  1  0  0  0
 79156  1  0  0  0
 79157  1  0  0  0
 80 84  1  0  0  0
 80158  1  0  0  0
 80159  1  0  0  0
 81160  1  0  0  0
 81161  1  0  0  0
 82 83  1  0  0  0
 82162  1  0  0  0
 82163  1  0  0  0
 83 86  1  0  0  0
 83164  1  0  0  0
 83165  1  0  0  0
 84166  1  0  0  0
 84167  1  0  0  0
M  ISO  4   1 100  68 101  84 101  86 100
M  END
> <chiral flag>
0

> <version>
0

> <s_m_source_file>
/data/baiqing/PycharmProjects/Reinvent-master-3.2/result/LINK_invent/BTK/process_docking_weight1_custom_sum_contain_oxygen_bond_distance_aromatic_linkinvent_7_9_3/rearranged_h_0044.sdf

> <i_m_source_file_index>
82

> <r_mmod_Potential_Energy-OPLS-2005>
67.0301361083984

> <r_mmod_Stretch_Energy-OPLS-2005>
55.3522033691406

> <r_mmod_Bend_Energy-OPLS-2005>
111.574432373047

> <r_mmod_Torsional_Energy-OPLS-2005>
325.245056152344

> <r_mmod_Improper_Torsional_Energy-OPLS-2005>
25.4568920135498

> <r_mmod_Van_der_Waal_Energy-OPLS-2005>
149.697128295898

> <r_mmod_Electrostatic_Energy-OPLS-2005>
-434.07421875

> <r_mmod_Solvation_Energy-OPLS-2005>
-203.680633544922

> <b_mmod_Minimization_Converged-OPLS-2005>
0

> <r_mmod_RMS_Derivative-OPLS-2005>
2.32680892944336

$$$$
82
                    3D
 Structure written by MMmdl.
158166  0  0  1  0            999 V2000
  -30.5881  -14.7457   20.4384 C   0  0  0  0  0  0
  -30.4338  -12.4532   19.4604 C   0  0  0  0  0  0
  -29.5057  -12.5013   18.2267 C   0  0  0  0  0  0
  -28.0335  -12.3253   18.6474 C   0  0  0  0  0  0
  -27.6422  -13.2251   19.8482 C   0  0  2  0  0  0
  -28.6883  -13.1519   20.9806 C   0  0  0  0  0  0
  -25.2519  -13.8171   20.5673 C   0  0  0  0  0  0
  -24.1822  -13.0433   20.9215 C   0  0  0  0  0  0
  -24.6407  -11.6899   20.8783 C   0  0  0  0  0  0
  -23.9089  -10.4287   21.0444 C   0  0  0  0  0  0
  -24.3645   -9.4199   21.9216 C   0  0  0  0  0  0
  -23.6305   -8.2245   22.0781 C   0  0  0  0  0  0
  -22.4291   -8.0296   21.3560 C   0  0  0  0  0  0
  -21.9940   -9.0272   20.4657 C   0  0  0  0  0  0
  -22.7275  -10.2140   20.3068 C   0  0  0  0  0  0
  -21.6846   -6.0748   22.5283 C   0  0  0  0  0  0
  -21.4009   -6.5654   23.8220 C   0  0  0  0  0  0
  -21.3642   -5.6804   24.9181 C   0  0  0  0  0  0
  -21.6034   -4.3068   24.7221 C   0  0  0  0  0  0
  -21.8823   -3.8163   23.4346 C   0  0  0  0  0  0
  -21.9204   -4.6982   22.3409 C   0  0  0  0  0  0
  -22.7842  -13.5210   21.1872 C   0  0  0  0  0  0
  -22.1675   -4.2165   21.0988 F   0  0  0  0  0  0
  -21.5629   -3.4553   25.7742 F   0  0  0  0  0  0
  -29.9823  -13.5122   20.3914 N   0  0  0  0  0  0
  -26.2946  -12.9372   20.3272 N   0  0  0  0  0  0
  -25.9332  -11.6520   20.5781 N   0  0  0  0  0  0
  -22.0503  -12.8176   22.0401 N   0  0  0  0  0  0
  -25.4199  -15.1900   20.4043 N   0  0  0  0  0  0
  -31.7808  -14.8529   20.1456 O   0  0  0  0  0  0
  -21.6642   -6.8900   21.4253 O   0  0  0  0  0  0
  -22.3532  -14.5537   20.6736 O   0  0  0  0  0  0
  -24.6311  -31.8575   23.2034 C   0  0  0  0  0  0
  -25.9155  -32.4758   23.8388 C   0  0  1  0  0  0
  -27.2257  -27.2882   20.1228 C   0  0  0  0  0  0
  -25.5996  -33.8568   24.2317 N   0  0  0  0  0  0
  -23.4270  -30.4820   21.5455 C   0  0  2  0  0  0
  -24.8738  -28.9256   20.1165 C   0  0  0  0  0  0
  -22.7493  -29.4629   22.4923 C   0  0  0  0  0  0
  -18.0301  -28.1380   22.8481 C   0  0  0  0  0  0
  -24.1497  -36.7252   23.2643 C   0  0  0  0  0  0
  -25.9732  -30.7750   21.3846 C   0  0  0  0  0  0
  -26.0455  -29.4024   20.7186 C   0  0  0  0  0  0
  -27.2284  -28.5993   20.7012 C   0  0  0  0  0  0
  -26.0294  -26.8617   19.5103 C   0  0  0  0  0  0
  -24.8680  -27.6616   19.5042 C   0  0  0  0  0  0
  -23.6453  -29.8155   20.1619 C   0  0  0  0  0  0
  -25.4129  -36.3060   24.0331 C   0  0  1  0  0  0
  -20.5899  -28.3710   23.1254 C   0  0  2  0  0  0
  -20.6795  -26.9428   22.5388 C   0  0  0  0  0  0
  -19.5770  -26.6384   21.5200 C   0  0  0  0  0  0
  -18.1950  -26.7932   22.1602 C   0  0  0  0  0  0
  -19.1548  -28.8864   23.2865 C   0  0  0  0  0  0
  -18.9463  -30.1466   23.8887 C   0  0  0  0  0  0
  -17.6458  -30.6579   24.0574 C   0  0  0  0  0  0
  -25.9064  -34.9433   23.5107 C   0  0  0  0  0  0
  -16.5352  -29.9070   23.6346 C   0  0  0  0  0  0
  -16.7284  -28.6486   23.0368 C   0  0  0  0  0  0
  -26.4556  -31.6578   25.0774 C   0  0  0  0  0  0
  -25.3783  -31.3671   26.1485 C   0  0  0  0  0  0
  -27.0472  -30.3006   24.6283 C   0  0  0  0  0  0
  -27.6109  -32.4342   25.7532 C   0  0  0  0  0  0
  -27.5592  -37.1769   24.8473 C   0  0  0  0  0  0
  -21.4201  -29.3055   22.3639 N   0  0  0  0  0  0
  -26.4303  -37.3757   23.9414 N   0  0  0  0  0  0
  -24.6957  -31.0559   22.1000 N   0  0  0  0  0  0
  -23.4197  -28.8174   23.3029 O   0  0  0  0  0  0
  -28.3394  -26.4291   20.1064 O   0  0  0  0  0  0
  -26.5581  -34.8901   22.4639 O   0  0  0  0  0  0
  -23.5457  -32.1417   23.7316 O   0  0  0  0  0  0
  -28.1010  -23.8015   18.4619 C   0  0  0  0  0  0
  -28.1838  -22.6475   17.6664 C   0  0  0  0  0  0
  -28.6812  -21.4376   18.2277 C   0  0  0  0  0  0
  -28.4460  -23.7516   19.8166 C   0  0  0  0  0  0
  -29.0111  -21.3805   19.6130 C   0  0  0  0  0  0
  -27.7283  -22.7557   16.2173 C   0  0  0  0  0  0
  -28.9009  -20.2322   17.3185 C   0  0  0  0  0  0
  -29.7159  -20.0858   20.2576 C   0  0  0  0  0  0
  -28.2109  -25.0562   20.6916 C   0  0  0  0  0  0
  -29.1787  -18.5449   20.1647 C   0  0  0  0  0  0
  -30.1900  -17.3546   20.6285 C   0  0  0  0  0  0
  -28.8789  -22.5447   20.3688 N   0  0  0  0  0  0
  -29.7921  -15.8730   20.6101 N   0  0  0  0  0  0
  -31.4726  -12.5838   19.1528 H   0  0  0  0  0  0
  -30.3888  -11.4770   19.9454 H   0  0  0  0  0  0
  -29.7838  -11.7217   17.5154 H   0  0  0  0  0  0
  -29.6290  -13.4536   17.7066 H   0  0  0  0  0  0
  -27.8933  -11.2778   18.9150 H   0  0  0  0  0  0
  -27.3714  -12.5162   17.8014 H   0  0  0  0  0  0
  -27.6376  -14.2448   19.4638 H   0  0  0  0  0  0
  -28.7329  -12.1508   21.4129 H   0  0  0  0  0  0
  -28.4294  -13.8285   21.7968 H   0  0  0  0  0  0
  -25.2804   -9.5663   22.4780 H   0  0  0  0  0  0
  -24.0011   -7.4630   22.7495 H   0  0  0  0  0  0
  -21.0882   -8.8807   19.8939 H   0  0  0  0  0  0
  -22.3784  -10.9689   19.6171 H   0  0  0  0  0  0
  -21.1999   -7.6163   23.9722 H   0  0  0  0  0  0
  -21.1441   -6.0539   25.9079 H   0  0  0  0  0  0
  -22.0613   -2.7621   23.2847 H   0  0  0  0  0  0
  -22.4139  -11.9810   22.4721 H   0  0  0  0  0  0
  -21.1131  -13.1174   22.2651 H   0  0  0  0  0  0
  -24.6447  -15.8364   20.5091 H   0  0  0  0  0  0
  -26.2464  -15.6258   20.0162 H   0  0  0  0  0  0
  -26.7220  -32.5409   23.1131 H   0  0  0  0  0  0
  -25.0325  -33.9753   25.0586 H   0  0  0  0  0  0
  -22.7231  -31.3050   21.4001 H   0  0  0  0  0  0
  -23.3802  -35.9546   23.3290 H   0  0  0  0  0  0
  -24.3586  -36.8894   22.2061 H   0  0  0  0  0  0
  -23.7217  -37.6425   23.6693 H   0  0  0  0  0  0
  -26.1270  -31.5451   20.6285 H   0  0  0  0  0  0
  -26.8413  -30.8052   22.0322 H   0  0  0  0  0  0
  -28.1351  -28.9662   21.1618 H   0  0  0  0  0  0
  -25.9856  -25.8920   19.0367 H   0  0  0  0  0  0
  -23.9684  -27.2885   19.0350 H   0  0  0  0  0  0
  -23.7751  -30.5953   19.4098 H   0  0  0  0  0  0
  -22.7619  -29.2545   19.8514 H   0  0  0  0  0  0
  -25.1307  -36.1912   25.0827 H   0  0  0  0  0  0
  -20.9998  -28.3296   24.1377 H   0  0  0  0  0  0
  -20.5727  -26.2324   23.3600 H   0  0  0  0  0  0
  -21.6667  -26.7488   22.1167 H   0  0  0  0  0  0
  -19.6946  -25.6297   21.1242 H   0  0  0  0  0  0
  -19.6708  -27.3192   20.6726 H   0  0  0  0  0  0
  -17.4233  -26.6715   21.3987 H   0  0  0  0  0  0
  -18.0321  -26.0061   22.8970 H   0  0  0  0  0  0
  -19.7938  -30.7283   24.2253 H   0  0  0  0  0  0
  -17.5012  -31.6256   24.5178 H   0  0  0  0  0  0
  -15.5352  -30.2958   23.7688 H   0  0  0  0  0  0
  -15.8686  -28.0794   22.7098 H   0  0  0  0  0  0
  -24.5991  -30.6997   25.7788 H   0  0  0  0  0  0
  -24.8942  -32.2801   26.4940 H   0  0  0  0  0  0
  -25.8105  -30.8828   27.0248 H   0  0  0  0  0  0
  -26.3059  -29.6623   24.1451 H   0  0  0  0  0  0
  -27.4326  -29.7405   25.4816 H   0  0  0  0  0  0
  -27.8865  -30.4320   23.9450 H   0  0  0  0  0  0
  -27.2743  -33.3673   26.2060 H   0  0  0  0  0  0
  -28.3928  -32.6830   25.0348 H   0  0  0  0  0  0
  -28.0778  -31.8507   26.5479 H   0  0  0  0  0  0
  -28.2568  -38.0103   24.7573 H   0  0  0  0  0  0
  -28.1130  -36.2631   24.6253 H   0  0  0  0  0  0
  -27.2301  -37.1338   25.8871 H   0  0  0  0  0  0
  -20.9400  -29.8745   21.6809 H   0  0  0  0  0  0
  -26.0182  -38.2828   24.1447 H   0  0  0  0  0  0
  -27.7524  -24.7350   18.0404 H   0  0  0  0  0  0
  -27.1637  -23.6755   16.0559 H   0  0  0  0  0  0
  -27.0709  -21.9266   15.9542 H   0  0  0  0  0  0
  -28.5768  -22.7689   15.5331 H   0  0  0  0  0  0
  -29.0421  -20.5194   16.2770 H   0  0  0  0  0  0
  -28.0473  -19.5557   17.3625 H   0  0  0  0  0  0
  -29.8024  -19.6851   17.5943 H   0  0  0  0  0  0
  -29.8832  -20.3050   21.3121 H   0  0  0  0  0  0
  -30.7143  -20.0767   19.8186 H   0  0  0  0  0  0
  -28.9148  -25.0192   21.5224 H   0  0  0  0  0  0
  -27.2283  -24.9539   21.1528 H   0  0  0  0  0  0
  -28.8786  -18.3239   19.1433 H   0  0  0  0  0  0
  -28.2571  -18.4755   20.7428 H   0  0  0  0  0  0
  -30.4732  -17.5713   21.6588 H   0  0  0  0  0  0
  -31.1124  -17.4582   20.0564 H   0  0  0  0  0  0
  -28.8239  -15.6790   20.8170 H   0  0  0  0  0  0
  1 25  1  0  0  0
  1 30  2  0  0  0
  1 83  1  0  0  0
  2  3  1  0  0  0
  2 25  1  0  0  0
  2 84  1  0  0  0
  2 85  1  0  0  0
  3  4  1  0  0  0
  3 86  1  0  0  0
  3 87  1  0  0  0
  4  5  1  0  0  0
  4 88  1  0  0  0
  4 89  1  0  0  0
  5  6  1  0  0  0
  5 26  1  0  0  0
  5 90  1  0  0  0
  6 25  1  0  0  0
  6 91  1  0  0  0
  6 92  1  0  0  0
  7  8  2  0  0  0
  7 26  1  0  0  0
  7 29  1  0  0  0
  8  9  1  0  0  0
  8 22  1  0  0  0
  9 10  1  0  0  0
  9 27  2  0  0  0
 10 11  2  0  0  0
 10 15  1  0  0  0
 11 12  1  0  0  0
 11 93  1  0  0  0
 12 13  2  0  0  0
 12 94  1  0  0  0
 13 14  1  0  0  0
 13 31  1  0  0  0
 14 15  2  0  0  0
 14 95  1  0  0  0
 15 96  1  0  0  0
 16 17  2  0  0  0
 16 21  1  0  0  0
 16 31  1  0  0  0
 17 18  1  0  0  0
 17 97  1  0  0  0
 18 19  2  0  0  0
 18 98  1  0  0  0
 19 20  1  0  0  0
 19 24  1  0  0  0
 20 21  2  0  0  0
 20 99  1  0  0  0
 21 23  1  0  0  0
 22 28  1  0  0  0
 22 32  2  0  0  0
 26 27  1  0  0  0
 28100  1  0  0  0
 28101  1  0  0  0
 29102  1  0  0  0
 29103  1  0  0  0
 33 34  1  0  0  0
 33 66  1  0  0  0
 33 70  2  0  0  0
 34 36  1  0  0  0
 34 59  1  0  0  0
 34104  1  0  0  0
 35 44  2  0  0  0
 35 45  1  0  0  0
 35 68  1  0  0  0
 36 56  1  0  0  0
 36105  1  0  0  0
 37 39  1  0  0  0
 37 47  1  0  0  0
 37 66  1  0  0  0
 37106  1  0  0  0
 38 43  2  0  0  0
 38 46  1  0  0  0
 38 47  1  0  0  0
 39 64  1  0  0  0
 39 67  2  0  0  0
 40 52  1  0  0  0
 40 53  2  0  0  0
 40 58  1  0  0  0
 41107  1  0  0  0
 41108  1  0  0  0
 41109  1  0  0  0
 41 48  1  0  0  0
 42 43  1  0  0  0
 42 66  1  0  0  0
 42110  1  0  0  0
 42111  1  0  0  0
 43 44  1  0  0  0
 44112  1  0  0  0
 45 46  2  0  0  0
 45113  1  0  0  0
 46114  1  0  0  0
 47115  1  0  0  0
 47116  1  0  0  0
 48 56  1  0  0  0
 48 65  1  0  0  0
 48117  1  0  0  0
 49 50  1  0  0  0
 49 53  1  0  0  0
 49 64  1  0  0  0
 49118  1  0  0  0
 50 51  1  0  0  0
 50119  1  0  0  0
 50120  1  0  0  0
 51 52  1  0  0  0
 51121  1  0  0  0
 51122  1  0  0  0
 52123  1  0  0  0
 52124  1  0  0  0
 53 54  1  0  0  0
 54 55  2  0  0  0
 54125  1  0  0  0
 55 57  1  0  0  0
 55126  1  0  0  0
 56 69  2  0  0  0
 57 58  2  0  0  0
 57127  1  0  0  0
 58128  1  0  0  0
 59 60  1  0  0  0
 59 61  1  0  0  0
 59 62  1  0  0  0
 60129  1  0  0  0
 60130  1  0  0  0
 60131  1  0  0  0
 61132  1  0  0  0
 61133  1  0  0  0
 61134  1  0  0  0
 62135  1  0  0  0
 62136  1  0  0  0
 62137  1  0  0  0
 63 65  1  0  0  0
 63138  1  0  0  0
 63139  1  0  0  0
 63140  1  0  0  0
 64141  1  0  0  0
 65142  1  0  0  0
 68 79  1  0  0  0
 71 72  2  0  0  0
 71 74  1  0  0  0
 71143  1  0  0  0
 72 73  1  0  0  0
 72 76  1  0  0  0
 73 75  2  0  0  0
 73 77  1  0  0  0
 74 79  1  0  0  0
 74 82  2  0  0  0
 75 78  1  0  0  0
 75 82  1  0  0  0
 76144  1  0  0  0
 76145  1  0  0  0
 76146  1  0  0  0
 77147  1  0  0  0
 77148  1  0  0  0
 77149  1  0  0  0
 78 80  1  0  0  0
 78150  1  0  0  0
 78151  1  0  0  0
 79152  1  0  0  0
 79153  1  0  0  0
 80 81  1  0  0  0
 80154  1  0  0  0
 80155  1  0  0  0
 81 83  1  0  0  0
 81156  1  0  0  0
 81157  1  0  0  0
 83158  1  0  0  0
M  ISO  4   1 100  68 101  79 101  83 100
M  END
> <chiral flag>
0

> <version>
0

> <s_m_source_file>
/data/baiqing/PycharmProjects/Reinvent-master-3.2/result/LINK_invent/BTK/process_docking_weight1_custom_sum_contain_oxygen_bond_distance_aromatic_linkinvent_7_9_3/rearranged_h_0044.sdf

> <i_m_source_file_index>
83

> <r_mmod_Potential_Energy-OPLS-2005>
10.6450862884521

> <r_mmod_Stretch_Energy-OPLS-2005>
127.351165771484

> <r_mmod_Bend_Energy-OPLS-2005>
166.366027832031

> <r_mmod_Torsional_Energy-OPLS-2005>
230.028289794922

> <r_mmod_Improper_Torsional_Energy-OPLS-2005>
5.8134560585022

> <r_mmod_Van_der_Waal_Energy-OPLS-2005>
139.215560913086

> <r_mmod_Electrostatic_Energy-OPLS-2005>
-508.505004882812

> <r_mmod_Solvation_Energy-OPLS-2005>
-226.759216308594

> <b_mmod_Minimization_Converged-OPLS-2005>
0

> <r_mmod_RMS_Derivative-OPLS-2005>
2.86173963546753

$$$$
83
                    3D
 Structure written by MMmdl.
157165  0  0  1  0            999 V2000
  -30.5202  -15.0209   20.3403 C   0  0  0  0  0  0
  -30.4532  -12.6294   19.4813 C   0  0  0  0  0  0
  -29.5228  -12.5078   18.2515 C   0  0  0  0  0  0
  -28.0637  -12.2803   18.6939 C   0  0  0  0  0  0
  -27.6297  -13.2454   19.8257 C   0  0  2  0  0  0
  -28.6831  -13.3247   20.9522 C   0  0  0  0  0  0
  -25.2500  -13.8198   20.5739 C   0  0  0  0  0  0
  -24.1803  -13.0439   20.9239 C   0  0  0  0  0  0
  -24.6421  -11.6918   20.8776 C   0  0  0  0  0  0
  -23.9095  -10.4294   21.0422 C   0  0  0  0  0  0
  -24.3625   -9.4192   21.9209 C   0  0  0  0  0  0
  -23.6280   -8.2242   22.0773 C   0  0  0  0  0  0
  -22.4265   -8.0293   21.3556 C   0  0  0  0  0  0
  -21.9917   -9.0273   20.4665 C   0  0  0  0  0  0
  -22.7268  -10.2150   20.3075 C   0  0  0  0  0  0
  -21.6851   -6.0737   22.5282 C   0  0  0  0  0  0
  -21.4005   -6.5636   23.8208 C   0  0  0  0  0  0
  -21.3652   -5.6796   24.9177 C   0  0  0  0  0  0
  -21.6047   -4.3061   24.7238 C   0  0  0  0  0  0
  -21.8813   -3.8143   23.4354 C   0  0  0  0  0  0
  -21.9185   -4.6961   22.3403 C   0  0  0  0  0  0
  -22.7821  -13.5214   21.1872 C   0  0  0  0  0  0
  -22.1656   -4.2142   21.0987 F   0  0  0  0  0  0
  -21.5633   -3.4538   25.7746 F   0  0  0  0  0  0
  -29.9434  -13.7459   20.3280 N   0  0  0  0  0  0
  -26.2925  -12.9445   20.3249 N   0  0  0  0  0  0
  -25.9361  -11.6581   20.5769 N   0  0  0  0  0  0
  -22.0431  -12.8239   22.0415 N   0  0  0  0  0  0
  -25.4142  -15.1945   20.4185 N   0  0  0  0  0  0
  -31.7339  -15.0754   20.1167 O   0  0  0  0  0  0
  -21.6637   -6.8889   21.4243 O   0  0  0  0  0  0
  -22.3528  -14.5522   20.6695 O   0  0  0  0  0  0
  -24.6464  -31.8382   23.1832 C   0  0  0  0  0  0
  -25.9240  -32.4661   23.8227 C   0  0  1  0  0  0
  -27.2369  -27.1213   20.1142 C   0  0  0  0  0  0
  -25.5921  -33.8448   24.2129 N   0  0  0  0  0  0
  -23.4530  -30.4486   21.5341 C   0  0  2  0  0  0
  -24.8995  -28.8703   20.1059 C   0  0  0  0  0  0
  -22.7598  -29.4469   22.4918 C   0  0  0  0  0  0
  -18.0282  -28.1390   22.8473 C   0  0  0  0  0  0
  -24.1484  -36.7255   23.2633 C   0  0  0  0  0  0
  -26.0063  -30.6997   21.3864 C   0  0  0  0  0  0
  -26.0770  -29.3096   20.7228 C   0  0  0  0  0  0
  -27.2410  -28.4509   20.7101 C   0  0  0  0  0  0
  -26.0284  -26.7770   19.4694 C   0  0  0  0  0  0
  -24.8875  -27.6149   19.4707 C   0  0  0  0  0  0
  -23.6753  -29.7719   20.1559 C   0  0  0  0  0  0
  -25.4123  -36.3005   24.0301 C   0  0  1  0  0  0
  -20.5894  -28.3699   23.1257 C   0  0  2  0  0  0
  -20.6778  -26.9412   22.5410 C   0  0  0  0  0  0
  -19.5745  -26.6370   21.5201 C   0  0  0  0  0  0
  -18.1926  -26.7943   22.1599 C   0  0  0  0  0  0
  -19.1548  -28.8871   23.2842 C   0  0  0  0  0  0
  -18.9461  -30.1459   23.8883 C   0  0  0  0  0  0
  -17.6460  -30.6590   24.0539 C   0  0  0  0  0  0
  -25.9085  -34.9373   23.5036 C   0  0  0  0  0  0
  -16.5349  -29.9068   23.6351 C   0  0  0  0  0  0
  -16.7268  -28.6485   23.0376 C   0  0  0  0  0  0
  -26.4513  -31.6581   25.0740 C   0  0  0  0  0  0
  -25.3678  -31.3819   26.1414 C   0  0  0  0  0  0
  -27.0434  -30.2978   24.6407 C   0  0  0  0  0  0
  -27.6039  -32.4417   25.7512 C   0  0  0  0  0  0
  -27.5580  -37.1750   24.8442 C   0  0  0  0  0  0
  -21.4291  -29.3017   22.3658 N   0  0  0  0  0  0
  -26.4275  -37.3729   23.9414 N   0  0  0  0  0  0
  -24.7224  -31.0179   22.0898 N   0  0  0  0  0  0
  -23.4207  -28.8038   23.3115 O   0  0  0  0  0  0
  -28.3239  -26.1701   20.2011 O   0  0  0  0  0  0
  -26.5692  -34.8902   22.4623 O   0  0  0  0  0  0
  -23.5573  -32.1254   23.7040 O   0  0  0  0  0  0
  -27.8388  -18.2746   18.9953 C   0  0  0  0  0  0
  -28.8770  -18.8534   19.6810 C   0  0  0  0  0  0
  -27.5215  -20.4538   18.7367 C   0  0  0  0  0  0
  -27.5856  -22.2486   16.9159 C   0  0  0  0  0  0
  -29.9657  -17.7949   20.3043 C   0  0  0  0  0  0
  -26.8616  -21.6713   18.1437 C   0  0  0  0  0  0
  -28.5613  -23.2177   20.3876 C   0  0  0  0  0  0
  -29.3025  -21.7476   19.8863 C   0  0  0  0  0  0
  -28.4432  -24.7235   19.6034 C   0  0  0  0  0  0
  -28.6162  -20.3303   19.5396 N   0  0  0  0  0  0
  -27.0723  -19.2408   18.4394 N   0  3  0  0  0  0
  -29.7186  -16.2086   20.3880 N   0  0  0  0  0  0
  -31.4766  -12.8017   19.1484 H   0  0  0  0  0  0
  -30.4776  -11.6964   20.0467 H   0  0  0  0  0  0
  -29.8496  -11.6861   17.6109 H   0  0  0  0  0  0
  -29.5913  -13.4133   17.6470 H   0  0  0  0  0  0
  -27.9961  -11.2518   19.0537 H   0  0  0  0  0  0
  -27.3880  -12.3510   17.8406 H   0  0  0  0  0  0
  -27.5770  -14.2310   19.3612 H   0  0  0  0  0  0
  -28.7978  -12.3658   21.4592 H   0  0  0  0  0  0
  -28.3810  -14.0456   21.7140 H   0  0  0  0  0  0
  -25.2761   -9.5669   22.4804 H   0  0  0  0  0  0
  -23.9965   -7.4644   22.7513 H   0  0  0  0  0  0
  -21.0830   -8.8827   19.8986 H   0  0  0  0  0  0
  -22.3719  -10.9706   19.6198 H   0  0  0  0  0  0
  -21.1986   -7.6144   23.9708 H   0  0  0  0  0  0
  -21.1485   -6.0532   25.9086 H   0  0  0  0  0  0
  -22.0595   -2.7602   23.2865 H   0  0  0  0  0  0
  -22.3989  -11.9881   22.4828 H   0  0  0  0  0  0
  -21.1070  -13.1332   22.2603 H   0  0  0  0  0  0
  -24.6450  -15.8431   20.5458 H   0  0  0  0  0  0
  -26.2685  -15.6403   20.1205 H   0  0  0  0  0  0
  -26.7341  -32.5226   23.0988 H   0  0  0  0  0  0
  -24.9935  -33.9532   25.0183 H   0  0  0  0  0  0
  -22.7550  -31.2736   21.3831 H   0  0  0  0  0  0
  -23.3733  -35.9590   23.3230 H   0  0  0  0  0  0
  -24.3526  -36.8963   22.2050 H   0  0  0  0  0  0
  -23.7255  -37.6428   23.6735 H   0  0  0  0  0  0
  -26.1675  -31.4600   20.6205 H   0  0  0  0  0  0
  -26.8723  -30.7436   22.0371 H   0  0  0  0  0  0
  -28.1453  -28.7812   21.2028 H   0  0  0  0  0  0
  -25.9229  -25.8111   18.9972 H   0  0  0  0  0  0
  -23.9858  -27.2696   18.9826 H   0  0  0  0  0  0
  -23.8033  -30.5410   19.3930 H   0  0  0  0  0  0
  -22.7895  -29.2091   19.8597 H   0  0  0  0  0  0
  -25.1317  -36.1802   25.0797 H   0  0  0  0  0  0
  -20.9930  -28.3285   24.1376 H   0  0  0  0  0  0
  -20.5669  -26.2307   23.3619 H   0  0  0  0  0  0
  -21.6653  -26.7434   22.1211 H   0  0  0  0  0  0
  -19.6890  -25.6267   21.1247 H   0  0  0  0  0  0
  -19.6685  -27.3173   20.6730 H   0  0  0  0  0  0
  -17.4210  -26.6664   21.3983 H   0  0  0  0  0  0
  -18.0290  -26.0082   22.8991 H   0  0  0  0  0  0
  -19.7940  -30.7257   24.2231 H   0  0  0  0  0  0
  -17.5031  -31.6268   24.5148 H   0  0  0  0  0  0
  -15.5348  -30.2961   23.7724 H   0  0  0  0  0  0
  -15.8650  -28.0796   22.7126 H   0  0  0  0  0  0
  -24.5786  -30.7286   25.7677 H   0  0  0  0  0  0
  -24.8951  -32.3033   26.4832 H   0  0  0  0  0  0
  -25.7901  -30.8920   27.0206 H   0  0  0  0  0  0
  -26.3113  -29.6635   24.1404 H   0  0  0  0  0  0
  -27.3986  -29.7356   25.5051 H   0  0  0  0  0  0
  -27.9030  -30.4160   23.9816 H   0  0  0  0  0  0
  -27.2581  -33.3719   26.2046 H   0  0  0  0  0  0
  -28.3848  -32.6983   25.0344 H   0  0  0  0  0  0
  -28.0740  -31.8595   26.5459 H   0  0  0  0  0  0
  -28.2556  -38.0089   24.7557 H   0  0  0  0  0  0
  -28.1140  -36.2618   24.6214 H   0  0  0  0  0  0
  -27.2296  -37.1339   25.8842 H   0  0  0  0  0  0
  -20.9535  -29.8682   21.6781 H   0  0  0  0  0  0
  -26.0123  -38.2774   24.1477 H   0  0  0  0  0  0
  -27.6222  -17.2315   18.8205 H   0  0  0  0  0  0
  -27.0953  -23.1620   16.5766 H   0  0  0  0  0  0
  -27.5714  -21.5474   16.0824 H   0  0  0  0  0  0
  -28.6264  -22.4988   17.1203 H   0  0  0  0  0  0
  -30.1831  -18.1371   21.3168 H   0  0  0  0  0  0
  -30.8976  -17.9392   19.7554 H   0  0  0  0  0  0
  -26.6919  -22.4011   18.9242 H   0  0  0  0  0  0
  -25.8583  -21.3701   17.8367 H   0  0  0  0  0  0
  -29.1636  -23.4762   21.2581 H   0  0  0  0  0  0
  -27.5968  -22.9885   20.8373 H   0  0  0  0  0  0
  -30.0397  -21.5022   20.6496 H   0  0  0  0  0  0
  -29.9190  -21.9934   19.0190 H   0  0  0  0  0  0
  -27.7462  -24.6308   18.7731 H   0  0  0  0  0  0
  -29.4074  -24.8002   19.1004 H   0  0  0  0  0  0
  -26.2785  -19.0583   17.8365 H   0  0  0  0  0  0
  -28.7514  -15.9830   20.5600 H   0  0  0  0  0  0
  1 25  1  0  0  0
  1 30  2  0  0  0
  1 82  1  0  0  0
  2  3  1  0  0  0
  2 25  1  0  0  0
  2 83  1  0  0  0
  2 84  1  0  0  0
  3  4  1  0  0  0
  3 85  1  0  0  0
  3 86  1  0  0  0
  4  5  1  0  0  0
  4 87  1  0  0  0
  4 88  1  0  0  0
  5  6  1  0  0  0
  5 26  1  0  0  0
  5 89  1  0  0  0
  6 25  1  0  0  0
  6 90  1  0  0  0
  6 91  1  0  0  0
  7  8  2  0  0  0
  7 26  1  0  0  0
  7 29  1  0  0  0
  8  9  1  0  0  0
  8 22  1  0  0  0
  9 10  1  0  0  0
  9 27  2  0  0  0
 10 11  2  0  0  0
 10 15  1  0  0  0
 11 12  1  0  0  0
 11 92  1  0  0  0
 12 13  2  0  0  0
 12 93  1  0  0  0
 13 14  1  0  0  0
 13 31  1  0  0  0
 14 15  2  0  0  0
 14 94  1  0  0  0
 15 95  1  0  0  0
 16 17  2  0  0  0
 16 21  1  0  0  0
 16 31  1  0  0  0
 17 18  1  0  0  0
 17 96  1  0  0  0
 18 19  2  0  0  0
 18 97  1  0  0  0
 19 20  1  0  0  0
 19 24  1  0  0  0
 20 21  2  0  0  0
 20 98  1  0  0  0
 21 23  1  0  0  0
 22 28  1  0  0  0
 22 32  2  0  0  0
 26 27  1  0  0  0
 28 99  1  0  0  0
 28100  1  0  0  0
 29101  1  0  0  0
 29102  1  0  0  0
 33 34  1  0  0  0
 33 66  1  0  0  0
 33 70  2  0  0  0
 34 36  1  0  0  0
 34 59  1  0  0  0
 34103  1  0  0  0
 35 44  2  0  0  0
 35 45  1  0  0  0
 35 68  1  0  0  0
 36 56  1  0  0  0
 36104  1  0  0  0
 37 39  1  0  0  0
 37 47  1  0  0  0
 37 66  1  0  0  0
 37105  1  0  0  0
 38 43  2  0  0  0
 38 46  1  0  0  0
 38 47  1  0  0  0
 39 64  1  0  0  0
 39 67  2  0  0  0
 40 52  1  0  0  0
 40 53  2  0  0  0
 40 58  1  0  0  0
 41106  1  0  0  0
 41107  1  0  0  0
 41108  1  0  0  0
 41 48  1  0  0  0
 42 43  1  0  0  0
 42 66  1  0  0  0
 42109  1  0  0  0
 42110  1  0  0  0
 43 44  1  0  0  0
 44111  1  0  0  0
 45 46  2  0  0  0
 45112  1  0  0  0
 46113  1  0  0  0
 47114  1  0  0  0
 47115  1  0  0  0
 48 56  1  0  0  0
 48 65  1  0  0  0
 48116  1  0  0  0
 49 50  1  0  0  0
 49 53  1  0  0  0
 49 64  1  0  0  0
 49117  1  0  0  0
 50 51  1  0  0  0
 50118  1  0  0  0
 50119  1  0  0  0
 51 52  1  0  0  0
 51120  1  0  0  0
 51121  1  0  0  0
 52122  1  0  0  0
 52123  1  0  0  0
 53 54  1  0  0  0
 54 55  2  0  0  0
 54124  1  0  0  0
 55 57  1  0  0  0
 55125  1  0  0  0
 56 69  2  0  0  0
 57 58  2  0  0  0
 57126  1  0  0  0
 58127  1  0  0  0
 59 60  1  0  0  0
 59 61  1  0  0  0
 59 62  1  0  0  0
 60128  1  0  0  0
 60129  1  0  0  0
 60130  1  0  0  0
 61131  1  0  0  0
 61132  1  0  0  0
 61133  1  0  0  0
 62134  1  0  0  0
 62135  1  0  0  0
 62136  1  0  0  0
 63 65  1  0  0  0
 63137  1  0  0  0
 63138  1  0  0  0
 63139  1  0  0  0
 64140  1  0  0  0
 65141  1  0  0  0
 68 79  1  0  0  0
 71 72  2  0  0  0
 71 81  1  0  0  0
 71142  1  0  0  0
 72 75  1  0  0  0
 72 80  1  0  0  0
 73 76  1  0  0  0
 73 80  1  0  0  0
 73 81  2  0  0  0
 74 76  1  0  0  0
 74143  1  0  0  0
 74144  1  0  0  0
 74145  1  0  0  0
 75 82  1  0  0  0
 75146  1  0  0  0
 75147  1  0  0  0
 76148  1  0  0  0
 76149  1  0  0  0
 77 78  1  0  0  0
 77 79  1  0  0  0
 77150  1  0  0  0
 77151  1  0  0  0
 78 80  1  0  0  0
 78152  1  0  0  0
 78153  1  0  0  0
 79154  1  0  0  0
 79155  1  0  0  0
 81156  1  0  0  0
 82157  1  0  0  0
M  CHG  1  81   1
M  ISO  4   1 100  68 101  79 101  82 100
M  END
> <chiral flag>
0

> <version>
0

> <s_m_source_file>
/data/baiqing/PycharmProjects/Reinvent-master-3.2/result/LINK_invent/BTK/process_docking_weight1_custom_sum_contain_oxygen_bond_distance_aromatic_linkinvent_7_9_3/rearranged_h_0044.sdf

> <i_m_source_file_index>
84

> <r_mmod_Potential_Energy-OPLS-2005>
575.004699707031

> <r_mmod_Stretch_Energy-OPLS-2005>
329.054656982422

> <r_mmod_Bend_Energy-OPLS-2005>
358.721588134766

> <r_mmod_Torsional_Energy-OPLS-2005>
228.330184936523

> <r_mmod_Improper_Torsional_Energy-OPLS-2005>
5.64204454421997

> <r_mmod_Van_der_Waal_Energy-OPLS-2005>
106.049415588379

> <r_mmod_Electrostatic_Energy-OPLS-2005>
-226.398818969727

> <r_mmod_Solvation_Energy-OPLS-2005>
-454.425201416016

> <b_mmod_Minimization_Converged-OPLS-2005>
0

> <r_mmod_RMS_Derivative-OPLS-2005>
4.43416690826416

$$$$
84
                    3D
 Structure written by MMmdl.
171179  0  0  1  0            999 V2000
  -30.6096  -14.7266   20.4865 C   0  0  0  0  0  0
  -30.4345  -12.4480   19.4578 C   0  0  0  0  0  0
  -29.5042  -12.5108   18.2277 C   0  0  0  0  0  0
  -28.0294  -12.3393   18.6447 C   0  0  0  0  0  0
  -27.6411  -13.2311   19.8554 C   0  0  2  0  0  0
  -28.6904  -13.1381   20.9833 C   0  0  0  0  0  0
  -25.2476  -13.8175   20.5726 C   0  0  0  0  0  0
  -24.1763  -13.0418   20.9195 C   0  0  0  0  0  0
  -24.6373  -11.6908   20.8745 C   0  0  0  0  0  0
  -23.9067  -10.4278   21.0412 C   0  0  0  0  0  0
  -24.3620   -9.4193   21.9192 C   0  0  0  0  0  0
  -23.6282   -8.2229   22.0765 C   0  0  0  0  0  0
  -22.4273   -8.0277   21.3546 C   0  0  0  0  0  0
  -21.9917   -9.0251   20.4656 C   0  0  0  0  0  0
  -22.7247  -10.2115   20.3061 C   0  0  0  0  0  0
  -21.6844   -6.0739   22.5292 C   0  0  0  0  0  0
  -21.4001   -6.5647   23.8222 C   0  0  0  0  0  0
  -21.3660   -5.6800   24.9186 C   0  0  0  0  0  0
  -21.6039   -4.3060   24.7240 C   0  0  0  0  0  0
  -21.8816   -3.8154   23.4358 C   0  0  0  0  0  0
  -21.9182   -4.6968   22.3412 C   0  0  0  0  0  0
  -22.7786  -13.5196   21.1857 C   0  0  0  0  0  0
  -22.1657   -4.2157   21.0981 F   0  0  0  0  0  0
  -21.5627   -3.4544   25.7748 F   0  0  0  0  0  0
  -29.9895  -13.5008   20.4006 N   0  0  0  0  0  0
  -26.2928  -12.9409   20.3342 N   0  0  0  0  0  0
  -25.9309  -11.6541   20.5786 N   0  0  0  0  0  0
  -22.0434  -12.8183   22.0423 N   0  0  0  0  0  0
  -25.4085  -15.1909   20.4185 N   0  0  0  0  0  0
  -31.7971  -14.8413   20.1745 O   0  0  0  0  0  0
  -21.6625   -6.8886   21.4252 O   0  0  0  0  0  0
  -22.3478  -14.5519   20.6742 O   0  0  0  0  0  0
  -24.6341  -31.8514   23.2003 C   0  0  0  0  0  0
  -25.9155  -32.4723   23.8354 C   0  0  1  0  0  0
  -27.2178  -27.2456   20.1250 C   0  0  0  0  0  0
  -25.5922  -33.8522   24.2263 N   0  0  0  0  0  0
  -23.4300  -30.4743   21.5485 C   0  0  2  0  0  0
  -24.8747  -28.9232   20.1086 C   0  0  0  0  0  0
  -22.7526  -29.4562   22.4957 C   0  0  0  0  0  0
  -18.0300  -28.1337   22.8460 C   0  0  0  0  0  0
  -24.1485  -36.7286   23.2637 C   0  0  0  0  0  0
  -25.9794  -30.7567   21.3843 C   0  0  0  0  0  0
  -26.0478  -29.3794   20.7222 C   0  0  0  0  0  0
  -27.2212  -28.5547   20.7197 C   0  0  0  0  0  0
  -26.0209  -26.8641   19.4737 C   0  0  0  0  0  0
  -24.8685  -27.6733   19.4713 C   0  0  0  0  0  0
  -23.6466  -29.8119   20.1631 C   0  0  0  0  0  0
  -25.4109  -36.3050   24.0310 C   0  0  1  0  0  0
  -20.5914  -28.3647   23.1269 C   0  0  2  0  0  0
  -20.6782  -26.9357   22.5424 C   0  0  0  0  0  0
  -19.5754  -26.6337   21.5222 C   0  0  0  0  0  0
  -18.1933  -26.7888   22.1611 C   0  0  0  0  0  0
  -19.1557  -28.8813   23.2833 C   0  0  0  0  0  0
  -18.9466  -30.1435   23.8815 C   0  0  0  0  0  0
  -17.6455  -30.6535   24.0543 C   0  0  0  0  0  0
  -25.9050  -34.9415   23.5095 C   0  0  0  0  0  0
  -16.5347  -29.9031   23.6313 C   0  0  0  0  0  0
  -16.7286  -28.6465   23.0296 C   0  0  0  0  0  0
  -26.4515  -31.6538   25.0740 C   0  0  0  0  0  0
  -25.3724  -31.3639   26.1443 C   0  0  0  0  0  0
  -27.0401  -30.2925   24.6248 C   0  0  0  0  0  0
  -27.6076  -32.4298   25.7463 C   0  0  0  0  0  0
  -27.5579  -37.1783   24.8447 C   0  0  0  0  0  0
  -21.4240  -29.2987   22.3668 N   0  0  0  0  0  0
  -26.4286  -37.3745   23.9395 N   0  0  0  0  0  0
  -24.7000  -31.0475   22.0987 N   0  0  0  0  0  0
  -23.4217  -28.8092   23.3053 O   0  0  0  0  0  0
  -28.3068  -26.3415   20.1983 O   0  0  0  0  0  0
  -26.5642  -34.8879   22.4691 O   0  0  0  0  0  0
  -23.5479  -32.1380   23.7262 O   0  0  0  0  0  0
  -27.4720  -21.6404   21.9481 C   0  0  0  0  0  0
  -28.4695  -21.0871   21.1132 C   0  0  0  0  0  0
  -26.7173  -20.8598   22.8448 C   0  0  0  0  0  0
  -28.6846  -19.6338   21.2405 C   0  0  0  0  0  0
  -27.0437  -19.4880   22.9478 C   0  0  0  0  0  0
  -24.9621  -22.7713   23.1195 C   0  0  0  0  0  0
  -27.4591  -18.4362   25.2231 C   0  0  0  0  0  0
  -25.6258  -21.5101   23.7054 C   0  0  0  0  0  0
  -29.1326  -22.1558   20.1475 C   0  0  0  0  0  0
  -29.4813  -18.5909   20.3463 C   0  0  0  0  0  0
  -29.1541  -23.7619   20.5029 C   0  0  0  0  0  0
  -30.2250  -17.3018   21.0299 C   0  0  0  0  0  0
  -28.0918  -24.8623   19.9619 C   0  0  0  0  0  0
  -26.0372  -17.1603   23.5109 C   0  0  0  0  0  0
  -26.4869  -18.5474   24.0365 C   0  0  2  0  0  0
  -27.9876  -18.9323   22.1618 N   0  0  0  0  0  0
  -29.8282  -15.8439   20.7462 N   0  0  0  0  0  0
  -27.1565  -16.3817   23.1123 O   0  0  0  0  0  0
  -31.4731  -12.5796   19.1504 H   0  0  0  0  0  0
  -30.3854  -11.4649   19.9305 H   0  0  0  0  0  0
  -29.7769  -11.7441   17.5017 H   0  0  0  0  0  0
  -29.6311  -13.4705   17.7250 H   0  0  0  0  0  0
  -27.8744  -11.2884   18.8950 H   0  0  0  0  0  0
  -27.3723  -12.5470   17.7980 H   0  0  0  0  0  0
  -27.6409  -14.2594   19.4884 H   0  0  0  0  0  0
  -28.7233  -12.1281   21.3942 H   0  0  0  0  0  0
  -28.4338  -13.7974   21.8141 H   0  0  0  0  0  0
  -25.2763   -9.5673   22.4772 H   0  0  0  0  0  0
  -23.9996   -7.4626   22.7492 H   0  0  0  0  0  0
  -21.0850   -8.8772   19.8967 H   0  0  0  0  0  0
  -22.3712  -10.9656   19.6174 H   0  0  0  0  0  0
  -21.1990   -7.6155   23.9730 H   0  0  0  0  0  0
  -21.1487   -6.0530   25.9087 H   0  0  0  0  0  0
  -22.0590   -2.7620   23.2855 H   0  0  0  0  0  0
  -22.4032  -11.9789   22.4725 H   0  0  0  0  0  0
  -21.1059  -13.1217   22.2679 H   0  0  0  0  0  0
  -24.6584  -15.8352   20.6400 H   0  0  0  0  0  0
  -26.3025  -15.6484   20.3097 H   0  0  0  0  0  0
  -26.7217  -32.5363   23.1090 H   0  0  0  0  0  0
  -25.0024  -33.9647   25.0377 H   0  0  0  0  0  0
  -22.7234  -31.2950   21.4070 H   0  0  0  0  0  0
  -23.3735  -35.9627   23.3298 H   0  0  0  0  0  0
  -24.3580  -36.8949   22.2057 H   0  0  0  0  0  0
  -23.7280  -37.6490   23.6696 H   0  0  0  0  0  0
  -26.1306  -31.5162   20.6170 H   0  0  0  0  0  0
  -26.8528  -30.8031   22.0243 H   0  0  0  0  0  0
  -28.1191  -28.8957   21.2150 H   0  0  0  0  0  0
  -25.9426  -25.9113   18.9695 H   0  0  0  0  0  0
  -23.9734  -27.3196   18.9769 H   0  0  0  0  0  0
  -23.7670  -30.5937   19.4115 H   0  0  0  0  0  0
  -22.7579  -29.2544   19.8617 H   0  0  0  0  0  0
  -25.1305  -36.1909   25.0804 H   0  0  0  0  0  0
  -20.9973  -28.3244   24.1396 H   0  0  0  0  0  0
  -20.5706  -26.2249   23.3626 H   0  0  0  0  0  0
  -21.6651  -26.7396   22.1197 H   0  0  0  0  0  0
  -19.6931  -25.6257   21.1221 H   0  0  0  0  0  0
  -19.6699  -27.3158   20.6751 H   0  0  0  0  0  0
  -17.4221  -26.6617   21.3983 H   0  0  0  0  0  0
  -18.0305  -26.0021   22.8986 H   0  0  0  0  0  0
  -19.7939  -30.7280   24.2126 H   0  0  0  0  0  0
  -17.5004  -31.6201   24.5171 H   0  0  0  0  0  0
  -15.5346  -30.2887   23.7696 H   0  0  0  0  0  0
  -15.8680  -28.0801   22.6981 H   0  0  0  0  0  0
  -24.5928  -30.6945   25.7799 H   0  0  0  0  0  0
  -24.8827  -32.2768   26.4855 H   0  0  0  0  0  0
  -25.8028  -30.8855   27.0246 H   0  0  0  0  0  0
  -26.3009  -29.6600   24.1308 H   0  0  0  0  0  0
  -27.4128  -29.7253   25.4794 H   0  0  0  0  0  0
  -27.8854  -30.4215   23.9493 H   0  0  0  0  0  0
  -27.2733  -33.3675   26.1945 H   0  0  0  0  0  0
  -28.3903  -32.6766   25.0284 H   0  0  0  0  0  0
  -28.0718  -31.8485   26.5453 H   0  0  0  0  0  0
  -28.2568  -38.0102   24.7558 H   0  0  0  0  0  0
  -28.1129  -36.2646   24.6242 H   0  0  0  0  0  0
  -27.2299  -37.1412   25.8846 H   0  0  0  0  0  0
  -20.9441  -29.8721   21.6881 H   0  0  0  0  0  0
  -26.0161  -38.2811   24.1421 H   0  0  0  0  0  0
  -27.2705  -22.6967   21.8821 H   0  0  0  0  0  0
  -24.1597  -23.1036   23.7809 H   0  0  0  0  0  0
  -24.5124  -22.5832   22.1444 H   0  0  0  0  0  0
  -25.6507  -23.6087   23.0242 H   0  0  0  0  0  0
  -27.6413  -19.4145   25.6667 H   0  0  0  0  0  0
  -28.4194  -18.0254   24.9137 H   0  0  0  0  0  0
  -27.0573  -17.7903   26.0035 H   0  0  0  0  0  0
  -26.0527  -21.7462   24.6816 H   0  0  0  0  0  0
  -24.8149  -20.8045   23.8755 H   0  0  0  0  0  0
  -28.7398  -22.0090   19.1419 H   0  0  0  0  0  0
  -30.1768  -21.8416   20.0917 H   0  0  0  0  0  0
  -30.2303  -19.1585   19.7936 H   0  0  0  0  0  0
  -28.7872  -18.2246   19.5893 H   0  0  0  0  0  0
  -30.1007  -24.1128   20.0904 H   0  0  0  0  0  0
  -29.2788  -23.8889   21.5776 H   0  0  0  0  0  0
  -30.1881  -17.4176   22.1123 H   0  0  0  0  0  0
  -31.2883  -17.3918   20.8002 H   0  0  0  0  0  0
  -27.1223  -24.5820   20.3749 H   0  0  0  0  0  0
  -28.0083  -24.7316   18.8819 H   0  0  0  0  0  0
  -25.3438  -17.2793   22.6774 H   0  0  0  0  0  0
  -25.4976  -16.6207   24.2909 H   0  0  0  0  0  0
  -25.5746  -18.9733   24.4433 H   0  0  0  0  0  0
  -28.8565  -15.6252   20.9093 H   0  0  0  0  0  0
  -27.7212  -17.0104   22.6576 H   0  0  0  0  0  0
  1 25  1  0  0  0
  1 30  2  0  0  0
  1 87  1  0  0  0
  2  3  1  0  0  0
  2 25  1  0  0  0
  2 89  1  0  0  0
  2 90  1  0  0  0
  3  4  1  0  0  0
  3 91  1  0  0  0
  3 92  1  0  0  0
  4  5  1  0  0  0
  4 93  1  0  0  0
  4 94  1  0  0  0
  5  6  1  0  0  0
  5 26  1  0  0  0
  5 95  1  0  0  0
  6 25  1  0  0  0
  6 96  1  0  0  0
  6 97  1  0  0  0
  7  8  2  0  0  0
  7 26  1  0  0  0
  7 29  1  0  0  0
  8  9  1  0  0  0
  8 22  1  0  0  0
  9 10  1  0  0  0
  9 27  2  0  0  0
 10 11  2  0  0  0
 10 15  1  0  0  0
 11 12  1  0  0  0
 11 98  1  0  0  0
 12 13  2  0  0  0
 12 99  1  0  0  0
 13 14  1  0  0  0
 13 31  1  0  0  0
 14 15  2  0  0  0
 14100  1  0  0  0
 15101  1  0  0  0
 16 17  2  0  0  0
 16 21  1  0  0  0
 16 31  1  0  0  0
 17 18  1  0  0  0
 17102  1  0  0  0
 18 19  2  0  0  0
 18103  1  0  0  0
 19 20  1  0  0  0
 19 24  1  0  0  0
 20 21  2  0  0  0
 20104  1  0  0  0
 21 23  1  0  0  0
 22 28  1  0  0  0
 22 32  2  0  0  0
 26 27  1  0  0  0
 28105  1  0  0  0
 28106  1  0  0  0
 29107  1  0  0  0
 29108  1  0  0  0
 33 34  1  0  0  0
 33 66  1  0  0  0
 33 70  2  0  0  0
 34 36  1  0  0  0
 34 59  1  0  0  0
 34109  1  0  0  0
 35 44  2  0  0  0
 35 45  1  0  0  0
 35 68  1  0  0  0
 36 56  1  0  0  0
 36110  1  0  0  0
 37 39  1  0  0  0
 37 47  1  0  0  0
 37 66  1  0  0  0
 37111  1  0  0  0
 38 43  2  0  0  0
 38 46  1  0  0  0
 38 47  1  0  0  0
 39 64  1  0  0  0
 39 67  2  0  0  0
 40 52  1  0  0  0
 40 53  2  0  0  0
 40 58  1  0  0  0
 41112  1  0  0  0
 41113  1  0  0  0
 41114  1  0  0  0
 41 48  1  0  0  0
 42 43  1  0  0  0
 42 66  1  0  0  0
 42115  1  0  0  0
 42116  1  0  0  0
 43 44  1  0  0  0
 44117  1  0  0  0
 45 46  2  0  0  0
 45118  1  0  0  0
 46119  1  0  0  0
 47120  1  0  0  0
 47121  1  0  0  0
 48 56  1  0  0  0
 48 65  1  0  0  0
 48122  1  0  0  0
 49 50  1  0  0  0
 49 53  1  0  0  0
 49 64  1  0  0  0
 49123  1  0  0  0
 50 51  1  0  0  0
 50124  1  0  0  0
 50125  1  0  0  0
 51 52  1  0  0  0
 51126  1  0  0  0
 51127  1  0  0  0
 52128  1  0  0  0
 52129  1  0  0  0
 53 54  1  0  0  0
 54 55  2  0  0  0
 54130  1  0  0  0
 55 57  1  0  0  0
 55131  1  0  0  0
 56 69  2  0  0  0
 57 58  2  0  0  0
 57132  1  0  0  0
 58133  1  0  0  0
 59 60  1  0  0  0
 59 61  1  0  0  0
 59 62  1  0  0  0
 60134  1  0  0  0
 60135  1  0  0  0
 60136  1  0  0  0
 61137  1  0  0  0
 61138  1  0  0  0
 61139  1  0  0  0
 62140  1  0  0  0
 62141  1  0  0  0
 62142  1  0  0  0
 63 65  1  0  0  0
 63143  1  0  0  0
 63144  1  0  0  0
 63145  1  0  0  0
 64146  1  0  0  0
 65147  1  0  0  0
 68 83  1  0  0  0
 71 72  2  0  0  0
 71 73  1  0  0  0
 71148  1  0  0  0
 72 74  1  0  0  0
 72 79  1  0  0  0
 73 75  2  0  0  0
 73 78  1  0  0  0
 74 80  1  0  0  0
 74 86  2  0  0  0
 75 85  1  0  0  0
 75 86  1  0  0  0
 76 78  1  0  0  0
 76149  1  0  0  0
 76150  1  0  0  0
 76151  1  0  0  0
 77152  1  0  0  0
 77153  1  0  0  0
 77154  1  0  0  0
 77 85  1  0  0  0
 78155  1  0  0  0
 78156  1  0  0  0
 79 81  1  0  0  0
 79157  1  0  0  0
 79158  1  0  0  0
 80 82  1  0  0  0
 80159  1  0  0  0
 80160  1  0  0  0
 81 83  1  0  0  0
 81161  1  0  0  0
 81162  1  0  0  0
 82 87  1  0  0  0
 82163  1  0  0  0
 82164  1  0  0  0
 83165  1  0  0  0
 83166  1  0  0  0
 84 85  1  0  0  0
 84 88  1  0  0  0
 84167  1  0  0  0
 84168  1  0  0  0
 85169  1  0  0  0
 87170  1  0  0  0
 88171  1  0  0  0
M  ISO  4   1 100  68 101  83 101  87 100
M  END
> <chiral flag>
0

> <version>
0

> <s_m_source_file>
/data/baiqing/PycharmProjects/Reinvent-master-3.2/result/LINK_invent/BTK/process_docking_weight1_custom_sum_contain_oxygen_bond_distance_aromatic_linkinvent_7_9_3/rearranged_h_0044.sdf

> <i_m_source_file_index>
85

> <r_mmod_Potential_Energy-OPLS-2005>
133.305297851562

> <r_mmod_Stretch_Energy-OPLS-2005>
144.571640014648

> <r_mmod_Bend_Energy-OPLS-2005>
221.999771118164

> <r_mmod_Torsional_Energy-OPLS-2005>
224.934646606445

> <r_mmod_Improper_Torsional_Energy-OPLS-2005>
5.73860216140747

> <r_mmod_Van_der_Waal_Energy-OPLS-2005>
138.962097167969

> <r_mmod_Electrostatic_Energy-OPLS-2005>
-474.495056152344

> <r_mmod_Solvation_Energy-OPLS-2005>
-214.36897277832

> <b_mmod_Minimization_Converged-OPLS-2005>
0

> <r_mmod_RMS_Derivative-OPLS-2005>
4.36819887161255

$$$$
85
                    3D
 Structure written by MMmdl.
175183  0  0  1  0            999 V2000
  -30.6226  -14.4587   20.6189 C   0  0  0  0  0  0
  -30.4371  -12.3121   19.4128 C   0  0  0  0  0  0
  -29.4975  -12.5090   18.2035 C   0  0  0  0  0  0
  -28.0137  -12.3665   18.6091 C   0  0  0  0  0  0
  -27.6616  -13.1851   19.8809 C   0  0  2  0  0  0
  -28.6915  -12.9026   20.9940 C   0  0  0  0  0  0
  -25.2590  -13.8106   20.5651 C   0  0  0  0  0  0
  -24.1826  -13.0414   20.9152 C   0  0  0  0  0  0
  -24.6349  -11.6871   20.8707 C   0  0  0  0  0  0
  -23.9018  -10.4283   21.0405 C   0  0  0  0  0  0
  -24.3594   -9.4207   21.9177 C   0  0  0  0  0  0
  -23.6285   -8.2238   22.0746 C   0  0  0  0  0  0
  -22.4265   -8.0270   21.3539 C   0  0  0  0  0  0
  -21.9889   -9.0238   20.4640 C   0  0  0  0  0  0
  -22.7201  -10.2122   20.3057 C   0  0  0  0  0  0
  -21.6850   -6.0740   22.5278 C   0  0  0  0  0  0
  -21.4014   -6.5641   23.8213 C   0  0  0  0  0  0
  -21.3658   -5.6788   24.9167 C   0  0  0  0  0  0
  -21.6047   -4.3052   24.7211 C   0  0  0  0  0  0
  -21.8822   -3.8150   23.4327 C   0  0  0  0  0  0
  -21.9193   -4.6971   22.3391 C   0  0  0  0  0  0
  -22.7866  -13.5229   21.1848 C   0  0  0  0  0  0
  -22.1661   -4.2163   21.0965 F   0  0  0  0  0  0
  -21.5629   -3.4530   25.7719 F   0  0  0  0  0  0
  -30.0190  -13.2521   20.4624 N   0  0  0  0  0  0
  -26.2995  -12.9233   20.3344 N   0  0  0  0  0  0
  -25.9259  -11.6411   20.5732 N   0  0  0  0  0  0
  -22.0515  -12.8215   22.0402 N   0  0  0  0  0  0
  -25.4331  -15.1828   20.4079 N   0  0  0  0  0  0
  -31.7352  -14.7236   20.1471 O   0  0  0  0  0  0
  -21.6631   -6.8872   21.4239 O   0  0  0  0  0  0
  -22.3557  -14.5556   20.6726 O   0  0  0  0  0  0
  -24.6811  -31.9777   23.1920 C   0  0  0  0  0  0
  -25.9730  -32.5174   23.8478 C   0  0  1  0  0  0
  -26.6449  -27.1972   20.2063 C   0  0  0  0  0  0
  -25.6634  -33.8896   24.2570 N   0  0  0  0  0  0
  -23.4468  -30.6685   21.5366 C   0  0  2  0  0  0
  -24.7923  -29.1250   19.9909 C   0  0  0  0  0  0
  -22.9108  -29.7298   22.6111 C   0  0  0  0  0  0
  -18.1814  -28.0179   22.5361 C   0  0  0  0  0  0
  -24.1537  -36.7360   23.2591 C   0  0  0  0  0  0
  -25.9886  -30.8064   21.4011 C   0  0  0  0  0  0
  -25.9368  -29.4442   20.7300 C   0  0  0  0  0  0
  -26.9370  -28.4487   20.8371 C   0  0  0  0  0  0
  -25.9688  -27.2460   19.0147 C   0  0  0  0  0  0
  -24.8318  -28.0650   19.0733 C   0  0  0  0  0  0
  -23.5778  -29.9964   20.1426 C   0  0  0  0  0  0
  -25.4166  -36.3234   24.0320 C   0  0  1  0  0  0
  -21.0262  -28.6239   23.6452 C   0  0  2  0  0  0
  -22.0474  -27.1178   23.1629 C   0  0  0  0  0  0
  -20.0102  -25.4785   21.0955 C   0  0  0  0  0  0
  -18.3114  -26.5314   21.4258 C   0  0  0  0  0  0
  -19.2812  -28.8304   23.3629 C   0  0  0  0  0  0
  -18.8910  -30.0451   23.9755 C   0  0  0  0  0  0
  -17.5716  -30.5016   24.0149 C   0  0  0  0  0  0
  -25.9239  -34.9683   23.5117 C   0  0  0  0  0  0
  -16.5592  -29.7146   23.4538 C   0  0  0  0  0  0
  -16.8602  -28.5231   22.7480 C   0  0  0  0  0  0
  -26.4647  -31.6664   25.0818 C   0  0  0  0  0  0
  -25.3637  -31.3863   26.1313 C   0  0  0  0  0  0
  -27.0357  -30.3043   24.6255 C   0  0  0  0  0  0
  -27.6211  -32.4166   25.7811 C   0  0  0  0  0  0
  -27.5618  -37.1928   24.8473 C   0  0  0  0  0  0
  -21.6007  -29.6529   22.7868 N   0  0  0  0  0  0
  -26.4309  -37.3954   23.9448 N   0  0  0  0  0  0
  -24.7275  -31.2171   22.0581 N   0  0  0  0  0  0
  -23.7016  -29.1800   23.3803 O   0  0  0  0  0  0
  -25.9191  -26.2501   20.9412 O   0  0  0  0  0  0
  -26.5525  -34.9106   22.4518 O   0  0  0  0  0  0
  -23.6035  -32.2772   23.7332 O   0  0  0  0  0  0
  -20.5814  -27.5166   21.5655 C   0  0  0  0  0  0
  -22.1325  -24.8276   22.3179 C   0  0  0  0  0  0
  -20.8391  -25.1015   23.2624 C   0  0  0  0  0  0
  -22.6999  -25.8258   21.1854 C   0  0  0  0  0  0
  -18.9793  -24.4291   24.8865 C   0  0  0  0  0  0
  -23.0825  -23.6927   22.7683 C   0  0  0  0  0  0
  -20.4339  -24.2158   24.4310 C   0  0  0  0  0  0
  -24.3660  -25.6672   20.6007 C   0  0  0  0  0  0
  -27.6984  -17.9060   21.7716 C   0  0  0  0  0  0
  -26.6550  -18.9190   21.2219 C   0  0  0  0  0  0
  -28.8948  -17.6891   20.8092 C   0  0  0  0  0  0
  -25.5108  -19.2735   22.2083 C   0  0  0  0  0  0
  -30.0691  -16.8225   21.3430 C   0  0  0  0  0  0
  -23.2047  -22.4316   21.8620 C   0  0  0  0  0  0
  -24.3942  -20.2059   21.6372 C   0  0  0  0  0  0
  -20.0031  -26.4277   23.0611 N   0  0  0  0  0  0
  -21.8493  -27.0517   20.7892 N   0  0  0  0  0  0
  -29.8371  -15.3812   21.2123 N   0  0  0  0  0  0
  -24.2936  -21.5209   22.3282 N   0  3  0  0  0  0
  -31.4750  -12.4653   19.1092 H   0  0  0  0  0  0
  -30.3834  -11.2875   19.7820 H   0  0  0  0  0  0
  -29.7410  -11.7902   17.4194 H   0  0  0  0  0  0
  -29.6639  -13.4991   17.7772 H   0  0  0  0  0  0
  -27.8135  -11.3070   18.7785 H   0  0  0  0  0  0
  -27.3687  -12.6625   17.7806 H   0  0  0  0  0  0
  -27.7243  -14.2415   19.6163 H   0  0  0  0  0  0
  -28.6741  -11.8450   21.2627 H   0  0  0  0  0  0
  -28.4382  -13.4271   21.9157 H   0  0  0  0  0  0
  -25.2753   -9.5678   22.4721 H   0  0  0  0  0  0
  -24.0011   -7.4623   22.7445 H   0  0  0  0  0  0
  -21.0836   -8.8741   19.8928 H   0  0  0  0  0  0
  -22.3673  -10.9655   19.6155 H   0  0  0  0  0  0
  -21.2008   -7.6147   23.9719 H   0  0  0  0  0  0
  -21.1480   -6.0510   25.9071 H   0  0  0  0  0  0
  -22.0606   -2.7613   23.2814 H   0  0  0  0  0  0
  -22.4147  -11.9872   22.4774 H   0  0  0  0  0  0
  -21.1134  -13.1225   22.2620 H   0  0  0  0  0  0
  -24.6690  -15.8349   20.5400 H   0  0  0  0  0  0
  -26.2852  -15.6266   20.0905 H   0  0  0  0  0  0
  -26.7900  -32.5693   23.1299 H   0  0  0  0  0  0
  -25.0995  -34.0021   25.0869 H   0  0  0  0  0  0
  -22.7379  -31.4940   21.4271 H   0  0  0  0  0  0
  -23.3858  -35.9633   23.3225 H   0  0  0  0  0  0
  -24.3637  -36.9016   22.2013 H   0  0  0  0  0  0
  -23.7221  -37.6532   23.6608 H   0  0  0  0  0  0
  -26.2233  -31.5496   20.6387 H   0  0  0  0  0  0
  -26.8476  -30.7829   22.0593 H   0  0  0  0  0  0
  -27.7195  -28.5411   21.5765 H   0  0  0  0  0  0
  -25.9271  -26.3851   18.3602 H   0  0  0  0  0  0
  -24.0088  -27.8987   18.3912 H   0  0  0  0  0  0
  -23.6431  -30.7745   19.3808 H   0  0  0  0  0  0
  -22.6776  -29.4296   19.9067 H   0  0  0  0  0  0
  -25.1309  -36.2063   25.0804 H   0  0  0  0  0  0
  -21.2467  -28.8739   24.6842 H   0  0  0  0  0  0
  -22.1932  -26.7152   24.1773 H   0  0  0  0  0  0
  -23.1183  -27.1499   22.9809 H   0  0  0  0  0  0
  -19.8118  -24.4097   21.2429 H   0  0  0  0  0  0
  -20.2238  -25.5136   20.0200 H   0  0  0  0  0  0
  -17.9119  -26.8318   20.4570 H   0  0  0  0  0  0
  -17.5733  -25.8248   21.8076 H   0  0  0  0  0  0
  -19.6392  -30.6459   24.4761 H   0  0  0  0  0  0
  -17.3285  -31.4272   24.5185 H   0  0  0  0  0  0
  -15.5306  -30.0448   23.5217 H   0  0  0  0  0  0
  -16.0392  -27.9942   22.2844 H   0  0  0  0  0  0
  -24.5748  -30.7459   25.7356 H   0  0  0  0  0  0
  -24.8950  -32.3084   26.4761 H   0  0  0  0  0  0
  -25.7666  -30.8812   27.0098 H   0  0  0  0  0  0
  -26.2932  -29.6994   24.1048 H   0  0  0  0  0  0
  -27.3765  -29.7128   25.4765 H   0  0  0  0  0  0
  -27.8985  -30.4277   23.9697 H   0  0  0  0  0  0
  -27.2916  -33.3477   26.2434 H   0  0  0  0  0  0
  -28.4156  -32.6674   25.0766 H   0  0  0  0  0  0
  -28.0689  -31.8156   26.5741 H   0  0  0  0  0  0
  -28.2579  -38.0283   24.7594 H   0  0  0  0  0  0
  -28.1185  -36.2823   24.6194 H   0  0  0  0  0  0
  -27.2357  -37.1445   25.8880 H   0  0  0  0  0  0
  -20.9796  -30.2464   22.2533 H   0  0  0  0  0  0
  -26.0164  -38.2998   24.1550 H   0  0  0  0  0  0
  -20.0863  -28.3701   21.1175 H   0  0  0  0  0  0
  -18.7284  -23.7700   25.7160 H   0  0  0  0  0  0
  -18.2774  -24.2377   24.0737 H   0  0  0  0  0  0
  -18.8240  -25.4554   25.2260 H   0  0  0  0  0  0
  -22.8132  -23.3599   23.7690 H   0  0  0  0  0  0
  -24.0679  -24.1374   22.9137 H   0  0  0  0  0  0
  -21.1150  -24.3934   25.2630 H   0  0  0  0  0  0
  -20.5536  -23.1722   24.1379 H   0  0  0  0  0  0
  -24.2141  -25.5980   19.5256 H   0  0  0  0  0  0
  -24.5700  -24.6230   20.7999 H   0  0  0  0  0  0
  -27.2122  -16.9515   21.9802 H   0  0  0  0  0  0
  -28.0742  -18.2710   22.7287 H   0  0  0  0  0  0
  -26.2252  -18.5129   20.3054 H   0  0  0  0  0  0
  -27.1664  -19.8383   20.9326 H   0  0  0  0  0  0
  -29.3039  -18.6739   20.5776 H   0  0  0  0  0  0
  -28.5405  -17.2930   19.8559 H   0  0  0  0  0  0
  -25.9376  -19.6936   23.1203 H   0  0  0  0  0  0
  -25.0414  -18.3399   22.5234 H   0  0  0  0  0  0
  -30.2659  -17.0520   22.3910 H   0  0  0  0  0  0
  -30.9755  -17.0950   20.8005 H   0  0  0  0  0  0
  -23.4000  -22.7098   20.8264 H   0  0  0  0  0  0
  -22.2532  -21.8969   21.8591 H   0  0  0  0  0  0
  -23.4329  -19.7026   21.7492 H   0  0  0  0  0  0
  -24.5298  -20.3590   20.5655 H   0  0  0  0  0  0
  -28.9508  -15.0392   21.5527 H   0  0  0  0  0  0
  -24.1566  -21.3445   23.3110 H   0  0  0  0  0  0
  -25.1767  -21.9963   22.2264 H   0  0  0  0  0  0
  1 25  1  0  0  0
  1 30  2  0  0  0
  1 88  1  0  0  0
  2  3  1  0  0  0
  2 25  1  0  0  0
  2 90  1  0  0  0
  2 91  1  0  0  0
  3  4  1  0  0  0
  3 92  1  0  0  0
  3 93  1  0  0  0
  4  5  1  0  0  0
  4 94  1  0  0  0
  4 95  1  0  0  0
  5  6  1  0  0  0
  5 26  1  0  0  0
  5 96  1  0  0  0
  6 25  1  0  0  0
  6 97  1  0  0  0
  6 98  1  0  0  0
  7  8  2  0  0  0
  7 26  1  0  0  0
  7 29  1  0  0  0
  8  9  1  0  0  0
  8 22  1  0  0  0
  9 10  1  0  0  0
  9 27  2  0  0  0
 10 11  2  0  0  0
 10 15  1  0  0  0
 11 12  1  0  0  0
 11 99  1  0  0  0
 12 13  2  0  0  0
 12100  1  0  0  0
 13 14  1  0  0  0
 13 31  1  0  0  0
 14 15  2  0  0  0
 14101  1  0  0  0
 15102  1  0  0  0
 16 17  2  0  0  0
 16 21  1  0  0  0
 16 31  1  0  0  0
 17 18  1  0  0  0
 17103  1  0  0  0
 18 19  2  0  0  0
 18104  1  0  0  0
 19 20  1  0  0  0
 19 24  1  0  0  0
 20 21  2  0  0  0
 20105  1  0  0  0
 21 23  1  0  0  0
 22 28  1  0  0  0
 22 32  2  0  0  0
 26 27  1  0  0  0
 28106  1  0  0  0
 28107  1  0  0  0
 29108  1  0  0  0
 29109  1  0  0  0
 33 34  1  0  0  0
 33 66  1  0  0  0
 33 70  2  0  0  0
 34 36  1  0  0  0
 34 59  1  0  0  0
 34110  1  0  0  0
 35 44  2  0  0  0
 35 45  1  0  0  0
 35 68  1  0  0  0
 36 56  1  0  0  0
 36111  1  0  0  0
 37 39  1  0  0  0
 37 47  1  0  0  0
 37 66  1  0  0  0
 37112  1  0  0  0
 38 43  2  0  0  0
 38 46  1  0  0  0
 38 47  1  0  0  0
 39 64  1  0  0  0
 39 67  2  0  0  0
 40 52  1  0  0  0
 40 53  2  0  0  0
 40 58  1  0  0  0
 41113  1  0  0  0
 41114  1  0  0  0
 41115  1  0  0  0
 41 48  1  0  0  0
 42 43  1  0  0  0
 42 66  1  0  0  0
 42116  1  0  0  0
 42117  1  0  0  0
 43 44  1  0  0  0
 44118  1  0  0  0
 45 46  2  0  0  0
 45119  1  0  0  0
 46120  1  0  0  0
 47121  1  0  0  0
 47122  1  0  0  0
 48 56  1  0  0  0
 48 65  1  0  0  0
 48123  1  0  0  0
 49 50  1  0  0  0
 49 53  1  0  0  0
 49 64  1  0  0  0
 49124  1  0  0  0
 50 51  1  0  0  0
 50125  1  0  0  0
 50126  1  0  0  0
 51 52  1  0  0  0
 51127  1  0  0  0
 51128  1  0  0  0
 52129  1  0  0  0
 52130  1  0  0  0
 53 54  1  0  0  0
 54 55  2  0  0  0
 54131  1  0  0  0
 55 57  1  0  0  0
 55132  1  0  0  0
 56 69  2  0  0  0
 57 58  2  0  0  0
 57133  1  0  0  0
 58134  1  0  0  0
 59 60  1  0  0  0
 59 61  1  0  0  0
 59 62  1  0  0  0
 60135  1  0  0  0
 60136  1  0  0  0
 60137  1  0  0  0
 61138  1  0  0  0
 61139  1  0  0  0
 61140  1  0  0  0
 62141  1  0  0  0
 62142  1  0  0  0
 62143  1  0  0  0
 63 65  1  0  0  0
 63144  1  0  0  0
 63145  1  0  0  0
 63146  1  0  0  0
 64147  1  0  0  0
 65148  1  0  0  0
 68 78  1  0  0  0
 71 86  2  0  0  0
 71 87  1  0  0  0
 71149  1  0  0  0
 72 73  2  0  0  0
 72 74  1  0  0  0
 72 76  1  0  0  0
 73 77  1  0  0  0
 73 86  1  0  0  0
 74 78  1  0  0  0
 74 87  2  0  0  0
 75 77  1  0  0  0
 75150  1  0  0  0
 75151  1  0  0  0
 75152  1  0  0  0
 76 84  1  0  0  0
 76153  1  0  0  0
 76154  1  0  0  0
 77155  1  0  0  0
 77156  1  0  0  0
 78157  1  0  0  0
 78158  1  0  0  0
 79 80  1  0  0  0
 79 81  1  0  0  0
 79159  1  0  0  0
 79160  1  0  0  0
 80 82  1  0  0  0
 80161  1  0  0  0
 80162  1  0  0  0
 81 83  1  0  0  0
 81163  1  0  0  0
 81164  1  0  0  0
 82 85  1  0  0  0
 82165  1  0  0  0
 82166  1  0  0  0
 83 88  1  0  0  0
 83167  1  0  0  0
 83168  1  0  0  0
 84 89  1  0  0  0
 84169  1  0  0  0
 84170  1  0  0  0
 85 89  1  0  0  0
 85171  1  0  0  0
 85172  1  0  0  0
 88173  1  0  0  0
 89174  1  0  0  0
 89175  1  0  0  0
M  CHG  1  89   1
M  ISO  4   1 100  68 101  78 101  88 100
M  END
> <chiral flag>
0

> <version>
0

> <s_m_source_file>
/data/baiqing/PycharmProjects/Reinvent-master-3.2/result/LINK_invent/BTK/process_docking_weight1_custom_sum_contain_oxygen_bond_distance_aromatic_linkinvent_7_9_3/rearranged_h_0044.sdf

> <i_m_source_file_index>
86

> <r_mmod_Potential_Energy-OPLS-2005>
10147.59375

> <r_mmod_Stretch_Energy-OPLS-2005>
5940.8212890625

> <r_mmod_Bend_Energy-OPLS-2005>
459.71240234375

> <r_mmod_Torsional_Energy-OPLS-2005>
453.530914306641

> <r_mmod_Improper_Torsional_Energy-OPLS-2005>
32.3453025817871

> <r_mmod_Van_der_Waal_Energy-OPLS-2005>
2821.57055664062

> <r_mmod_Electrostatic_Energy-OPLS-2005>
-588.706115722656

> <r_mmod_Solvation_Energy-OPLS-2005>
-494.333312988281

> <b_mmod_Minimization_Converged-OPLS-2005>
0

> <r_mmod_RMS_Derivative-OPLS-2005>
4.81352567672729

$$$$
86
                    3D
 Structure written by MMmdl.
171179  0  0  1  0            999 V2000
  -30.6724  -14.5313   20.5379 C   0  0  0  0  0  0
  -30.4261  -12.3349   19.4298 C   0  0  0  0  0  0
  -29.4958  -12.4959   18.2092 C   0  0  0  0  0  0
  -28.0182  -12.3487   18.6248 C   0  0  0  0  0  0
  -27.6561  -13.2083   19.8656 C   0  0  2  0  0  0
  -28.6990  -13.0244   20.9905 C   0  0  0  0  0  0
  -25.2575  -13.8158   20.5681 C   0  0  0  0  0  0
  -24.1830  -13.0431   20.9179 C   0  0  0  0  0  0
  -24.6386  -11.6900   20.8733 C   0  0  0  0  0  0
  -23.9055  -10.4288   21.0402 C   0  0  0  0  0  0
  -24.3610   -9.4205   21.9182 C   0  0  0  0  0  0
  -23.6288   -8.2242   22.0754 C   0  0  0  0  0  0
  -22.4271   -8.0275   21.3544 C   0  0  0  0  0  0
  -21.9902   -9.0247   20.4646 C   0  0  0  0  0  0
  -22.7228  -10.2129   20.3053 C   0  0  0  0  0  0
  -21.6852   -6.0733   22.5280 C   0  0  0  0  0  0
  -21.4012   -6.5639   23.8211 C   0  0  0  0  0  0
  -21.3657   -5.6790   24.9174 C   0  0  0  0  0  0
  -21.6044   -4.3055   24.7225 C   0  0  0  0  0  0
  -21.8820   -3.8147   23.4346 C   0  0  0  0  0  0
  -21.9193   -4.6961   22.3404 C   0  0  0  0  0  0
  -22.7857  -13.5233   21.1845 C   0  0  0  0  0  0
  -22.1663   -4.2149   21.0980 F   0  0  0  0  0  0
  -21.5628   -3.4541   25.7737 F   0  0  0  0  0  0
  -30.0213  -13.3394   20.4280 N   0  0  0  0  0  0
  -26.2998  -12.9327   20.3328 N   0  0  0  0  0  0
  -25.9310  -11.6487   20.5753 N   0  0  0  0  0  0
  -22.0501  -12.8223   22.0403 N   0  0  0  0  0  0
  -25.4294  -15.1875   20.4108 N   0  0  0  0  0  0
  -31.8259  -14.6926   20.1310 O   0  0  0  0  0  0
  -21.6637   -6.8873   21.4241 O   0  0  0  0  0  0
  -22.3544  -14.5542   20.6700 O   0  0  0  0  0  0
  -24.6171  -31.8633   23.2032 C   0  0  0  0  0  0
  -25.9048  -32.4797   23.8340 C   0  0  1  0  0  0
  -27.2368  -27.3910   20.1016 C   0  0  0  0  0  0
  -25.5875  -33.8596   24.2263 N   0  0  0  0  0  0
  -23.4068  -30.4838   21.5458 C   0  0  2  0  0  0
  -24.8528  -28.9393   20.1140 C   0  0  0  0  0  0
  -22.7419  -29.4632   22.4974 C   0  0  0  0  0  0
  -18.0266  -28.1393   22.8489 C   0  0  0  0  0  0
  -24.1482  -36.7318   23.2638 C   0  0  0  0  0  0
  -25.9381  -30.8159   21.3603 C   0  0  0  0  0  0
  -26.0133  -29.4457   20.7098 C   0  0  0  0  0  0
  -27.2041  -28.6790   20.6983 C   0  0  0  0  0  0
  -26.0528  -26.9032   19.5045 C   0  0  0  0  0  0
  -24.8694  -27.6701   19.5094 C   0  0  0  0  0  0
  -23.6157  -29.8105   20.1623 C   0  0  0  0  0  0
  -25.4108  -36.3097   24.0322 C   0  0  1  0  0  0
  -20.5859  -28.3677   23.1330 C   0  0  2  0  0  0
  -20.6765  -26.9410   22.5436 C   0  0  0  0  0  0
  -19.5745  -26.6394   21.5226 C   0  0  0  0  0  0
  -18.1917  -26.7936   22.1628 C   0  0  0  0  0  0
  -19.1520  -28.8850   23.2904 C   0  0  0  0  0  0
  -18.9450  -30.1456   23.8913 C   0  0  0  0  0  0
  -17.6456  -30.6598   24.0573 C   0  0  0  0  0  0
  -25.9043  -34.9463   23.5102 C   0  0  0  0  0  0
  -16.5344  -29.9106   23.6334 C   0  0  0  0  0  0
  -16.7259  -28.6529   23.0343 C   0  0  0  0  0  0
  -26.4449  -31.6596   25.0696 C   0  0  0  0  0  0
  -25.3693  -31.3741   26.1438 C   0  0  0  0  0  0
  -27.0266  -30.3021   24.6105 C   0  0  0  0  0  0
  -27.6016  -32.4327   25.7470 C   0  0  0  0  0  0
  -27.5576  -37.1805   24.8455 C   0  0  0  0  0  0
  -21.4141  -29.3034   22.3725 N   0  0  0  0  0  0
  -26.4288  -37.3788   23.9403 N   0  0  0  0  0  0
  -24.6728  -31.0696   22.0951 N   0  0  0  0  0  0
  -23.4173  -28.8188   23.3042 O   0  0  0  0  0  0
  -28.4231  -26.6719   20.1347 O   0  0  0  0  0  0
  -26.5633  -34.8927   22.4679 O   0  0  0  0  0  0
  -23.5355  -32.1401   23.7408 O   0  0  0  0  0  0
  -28.2770  -22.1471   18.2783 C   0  0  0  0  0  0
  -28.7629  -21.8690   19.5282 C   0  0  0  0  0  0
  -29.1754  -20.4814   19.4250 C   0  0  0  0  0  0
  -26.6281  -18.8746   16.2767 C   0  0  0  0  0  0
  -25.6706  -21.1937   16.2652 C   0  0  0  0  0  0
  -26.6673  -20.2351   14.1756 C   0  0  0  0  0  0
  -28.8685  -22.8522   20.6956 C   0  0  0  0  0  0
  -29.8651  -19.5283   20.4097 C   0  0  0  0  0  0
  -28.0428  -24.1918   20.6115 C   0  0  0  0  0  0
  -29.3916  -18.0277   20.3604 C   0  0  0  0  0  0
  -28.1923  -20.8839   16.0625 C   0  0  0  0  0  0
  -30.3413  -17.0037   21.0662 C   0  0  0  0  0  0
  -28.5308  -25.3130   19.6378 C   0  0  0  0  0  0
  -26.7962  -20.2988   15.7098 C   0  0  0  0  0  0
  -29.0367  -20.0390   18.1812 N   0  0  0  0  0  0
  -28.4623  -21.0397   17.4865 N   0  0  0  0  0  0
  -29.9248  -15.5808   20.9603 N   0  0  0  0  0  0
  -31.4692  -12.4438   19.1270 H   0  0  0  0  0  0
  -30.3411  -11.3317   19.8502 H   0  0  0  0  0  0
  -29.7435  -11.7555   17.4474 H   0  0  0  0  0  0
  -29.6529  -13.4727   17.7489 H   0  0  0  0  0  0
  -27.8417  -11.2947   18.8419 H   0  0  0  0  0  0
  -27.3643  -12.5986   17.7885 H   0  0  0  0  0  0
  -27.6886  -14.2494   19.5440 H   0  0  0  0  0  0
  -28.6893  -11.9963   21.3552 H   0  0  0  0  0  0
  -28.4596  -13.6468   21.8540 H   0  0  0  0  0  0
  -25.2754   -9.5685   22.4753 H   0  0  0  0  0  0
  -23.9998   -7.4634   22.7474 H   0  0  0  0  0  0
  -21.0832   -8.8760   19.8953 H   0  0  0  0  0  0
  -22.3682  -10.9665   19.6161 H   0  0  0  0  0  0
  -21.2005   -7.6145   23.9713 H   0  0  0  0  0  0
  -21.1478   -6.0523   25.9074 H   0  0  0  0  0  0
  -22.0603   -2.7608   23.2847 H   0  0  0  0  0  0
  -22.4117  -11.9881   22.4782 H   0  0  0  0  0  0
  -21.1120  -13.1248   22.2612 H   0  0  0  0  0  0
  -24.6622  -15.8414   20.5204 H   0  0  0  0  0  0
  -26.2795  -15.6279   20.0822 H   0  0  0  0  0  0
  -26.7116  -32.5481   23.1097 H   0  0  0  0  0  0
  -24.9940  -33.9737   25.0349 H   0  0  0  0  0  0
  -22.6987  -31.3023   21.4028 H   0  0  0  0  0  0
  -23.3731  -35.9661   23.3303 H   0  0  0  0  0  0
  -24.3572  -36.8953   22.2053 H   0  0  0  0  0  0
  -23.7252  -37.6525   23.6668 H   0  0  0  0  0  0
  -26.0517  -31.5770   20.5871 H   0  0  0  0  0  0
  -26.8255  -30.8720   21.9792 H   0  0  0  0  0  0
  -28.1023  -29.0678   21.1580 H   0  0  0  0  0  0
  -26.0213  -25.9296   19.0390 H   0  0  0  0  0  0
  -23.9739  -27.2732   19.0517 H   0  0  0  0  0  0
  -23.7241  -30.5827   19.4003 H   0  0  0  0  0  0
  -22.7379  -29.2310   19.8679 H   0  0  0  0  0  0
  -25.1286  -36.1951   25.0814 H   0  0  0  0  0  0
  -20.9946  -28.3255   24.1454 H   0  0  0  0  0  0
  -20.5702  -26.2270   23.3619 H   0  0  0  0  0  0
  -21.6633  -26.7476   22.1206 H   0  0  0  0  0  0
  -19.6920  -25.6311   21.1248 H   0  0  0  0  0  0
  -19.6701  -27.3216   20.6766 H   0  0  0  0  0  0
  -17.4191  -26.6680   21.4030 H   0  0  0  0  0  0
  -18.0321  -26.0079   22.9031 H   0  0  0  0  0  0
  -19.7926  -30.7265   24.2289 H   0  0  0  0  0  0
  -17.5012  -31.6277   24.5175 H   0  0  0  0  0  0
  -15.5349  -30.3018   23.7653 H   0  0  0  0  0  0
  -15.8652  -28.0869   22.7039 H   0  0  0  0  0  0
  -24.5854  -30.7105   25.7782 H   0  0  0  0  0  0
  -24.8892  -32.2914   26.4860 H   0  0  0  0  0  0
  -25.8018  -30.8926   27.0217 H   0  0  0  0  0  0
  -26.2819  -29.6815   24.1111 H   0  0  0  0  0  0
  -27.3958  -29.7241   25.4587 H   0  0  0  0  0  0
  -27.8687  -30.4312   23.9300 H   0  0  0  0  0  0
  -27.2613  -33.3619   26.2052 H   0  0  0  0  0  0
  -28.3817  -32.6908   25.0297 H   0  0  0  0  0  0
  -28.0671  -31.8443   26.5385 H   0  0  0  0  0  0
  -28.2588  -38.0103   24.7503 H   0  0  0  0  0  0
  -28.1076  -36.2640   24.6275 H   0  0  0  0  0  0
  -27.2295  -37.1456   25.8856 H   0  0  0  0  0  0
  -20.9305  -29.8737   21.6929 H   0  0  0  0  0  0
  -26.0176  -38.2867   24.1409 H   0  0  0  0  0  0
  -27.8522  -23.0514   17.8674 H   0  0  0  0  0  0
  -25.6849  -18.4266   15.9615 H   0  0  0  0  0  0
  -26.6369  -18.8711   17.3672 H   0  0  0  0  0  0
  -27.4315  -18.2167   15.9429 H   0  0  0  0  0  0
  -24.6880  -20.8266   15.9663 H   0  0  0  0  0  0
  -25.7620  -22.2186   15.9032 H   0  0  0  0  0  0
  -25.6818  -21.2282   17.3552 H   0  0  0  0  0  0
  -25.7007  -19.8329   13.8702 H   0  0  0  0  0  0
  -27.4372  -19.5996   13.7353 H   0  0  0  0  0  0
  -26.7657  -21.2236   13.7251 H   0  0  0  0  0  0
  -29.9152  -23.1073   20.8692 H   0  0  0  0  0  0
  -28.5614  -22.3415   21.6089 H   0  0  0  0  0  0
  -29.7478  -19.9015   21.4272 H   0  0  0  0  0  0
  -30.9374  -19.5593   20.2150 H   0  0  0  0  0  0
  -28.0750  -24.6251   21.6117 H   0  0  0  0  0  0
  -26.9887  -23.9774   20.4338 H   0  0  0  0  0  0
  -29.3090  -17.7150   19.3194 H   0  0  0  0  0  0
  -28.3846  -17.9595   20.7724 H   0  0  0  0  0  0
  -28.3098  -21.8647   15.5984 H   0  0  0  0  0  0
  -28.9792  -20.2612   15.6330 H   0  0  0  0  0  0
  -30.4100  -17.2504   22.1264 H   0  0  0  0  0  0
  -31.3493  -17.1268   20.6674 H   0  0  0  0  0  0
  -28.0728  -25.2143   18.6542 H   0  0  0  0  0  0
  -29.5963  -25.1610   19.4629 H   0  0  0  0  0  0
  -28.9797  -15.3609   21.2375 H   0  0  0  0  0  0
  1 25  1  0  0  0
  1 30  2  0  0  0
  1 87  1  0  0  0
  2  3  1  0  0  0
  2 25  1  0  0  0
  2 88  1  0  0  0
  2 89  1  0  0  0
  3  4  1  0  0  0
  3 90  1  0  0  0
  3 91  1  0  0  0
  4  5  1  0  0  0
  4 92  1  0  0  0
  4 93  1  0  0  0
  5  6  1  0  0  0
  5 26  1  0  0  0
  5 94  1  0  0  0
  6 25  1  0  0  0
  6 95  1  0  0  0
  6 96  1  0  0  0
  7  8  2  0  0  0
  7 26  1  0  0  0
  7 29  1  0  0  0
  8  9  1  0  0  0
  8 22  1  0  0  0
  9 10  1  0  0  0
  9 27  2  0  0  0
 10 11  2  0  0  0
 10 15  1  0  0  0
 11 12  1  0  0  0
 11 97  1  0  0  0
 12 13  2  0  0  0
 12 98  1  0  0  0
 13 14  1  0  0  0
 13 31  1  0  0  0
 14 15  2  0  0  0
 14 99  1  0  0  0
 15100  1  0  0  0
 16 17  2  0  0  0
 16 21  1  0  0  0
 16 31  1  0  0  0
 17 18  1  0  0  0
 17101  1  0  0  0
 18 19  2  0  0  0
 18102  1  0  0  0
 19 20  1  0  0  0
 19 24  1  0  0  0
 20 21  2  0  0  0
 20103  1  0  0  0
 21 23  1  0  0  0
 22 28  1  0  0  0
 22 32  2  0  0  0
 26 27  1  0  0  0
 28104  1  0  0  0
 28105  1  0  0  0
 29106  1  0  0  0
 29107  1  0  0  0
 33 34  1  0  0  0
 33 66  1  0  0  0
 33 70  2  0  0  0
 34 36  1  0  0  0
 34 59  1  0  0  0
 34108  1  0  0  0
 35 44  2  0  0  0
 35 45  1  0  0  0
 35 68  1  0  0  0
 36 56  1  0  0  0
 36109  1  0  0  0
 37 39  1  0  0  0
 37 47  1  0  0  0
 37 66  1  0  0  0
 37110  1  0  0  0
 38 43  2  0  0  0
 38 46  1  0  0  0
 38 47  1  0  0  0
 39 64  1  0  0  0
 39 67  2  0  0  0
 40 52  1  0  0  0
 40 53  2  0  0  0
 40 58  1  0  0  0
 41111  1  0  0  0
 41112  1  0  0  0
 41113  1  0  0  0
 41 48  1  0  0  0
 42 43  1  0  0  0
 42 66  1  0  0  0
 42114  1  0  0  0
 42115  1  0  0  0
 43 44  1  0  0  0
 44116  1  0  0  0
 45 46  2  0  0  0
 45117  1  0  0  0
 46118  1  0  0  0
 47119  1  0  0  0
 47120  1  0  0  0
 48 56  1  0  0  0
 48 65  1  0  0  0
 48121  1  0  0  0
 49 50  1  0  0  0
 49 53  1  0  0  0
 49 64  1  0  0  0
 49122  1  0  0  0
 50 51  1  0  0  0
 50123  1  0  0  0
 50124  1  0  0  0
 51 52  1  0  0  0
 51125  1  0  0  0
 51126  1  0  0  0
 52127  1  0  0  0
 52128  1  0  0  0
 53 54  1  0  0  0
 54 55  2  0  0  0
 54129  1  0  0  0
 55 57  1  0  0  0
 55130  1  0  0  0
 56 69  2  0  0  0
 57 58  2  0  0  0
 57131  1  0  0  0
 58132  1  0  0  0
 59 60  1  0  0  0
 59 61  1  0  0  0
 59 62  1  0  0  0
 60133  1  0  0  0
 60134  1  0  0  0
 60135  1  0  0  0
 61136  1  0  0  0
 61137  1  0  0  0
 61138  1  0  0  0
 62139  1  0  0  0
 62140  1  0  0  0
 62141  1  0  0  0
 63 65  1  0  0  0
 63142  1  0  0  0
 63143  1  0  0  0
 63144  1  0  0  0
 64145  1  0  0  0
 65146  1  0  0  0
 68 83  1  0  0  0
 71 72  2  0  0  0
 71 86  1  0  0  0
 71147  1  0  0  0
 72 73  1  0  0  0
 72 77  1  0  0  0
 73 78  1  0  0  0
 73 85  2  0  0  0
 74148  1  0  0  0
 74149  1  0  0  0
 74150  1  0  0  0
 74 84  1  0  0  0
 75 84  1  0  0  0
 75151  1  0  0  0
 75152  1  0  0  0
 75153  1  0  0  0
 76 84  1  0  0  0
 76154  1  0  0  0
 76155  1  0  0  0
 76156  1  0  0  0
 77 79  1  0  0  0
 77157  1  0  0  0
 77158  1  0  0  0
 78 80  1  0  0  0
 78159  1  0  0  0
 78160  1  0  0  0
 79 83  1  0  0  0
 79161  1  0  0  0
 79162  1  0  0  0
 80 82  1  0  0  0
 80163  1  0  0  0
 80164  1  0  0  0
 81 84  1  0  0  0
 81 86  1  0  0  0
 81165  1  0  0  0
 81166  1  0  0  0
 82 87  1  0  0  0
 82167  1  0  0  0
 82168  1  0  0  0
 83169  1  0  0  0
 83170  1  0  0  0
 85 86  1  0  0  0
 87171  1  0  0  0
M  ISO  4   1 100  68 101  83 101  87 100
M  END
> <chiral flag>
0

> <version>
0

> <s_m_source_file>
/data/baiqing/PycharmProjects/Reinvent-master-3.2/result/LINK_invent/BTK/process_docking_weight1_custom_sum_contain_oxygen_bond_distance_aromatic_linkinvent_7_9_3/rearranged_h_0044.sdf

> <i_m_source_file_index>
87

> <r_mmod_Potential_Energy-OPLS-2005>
-58.9002647399902

> <r_mmod_Stretch_Energy-OPLS-2005>
50.3647994995117

> <r_mmod_Bend_Energy-OPLS-2005>
127.617767333984

> <r_mmod_Torsional_Energy-OPLS-2005>
205.249099731445

> <r_mmod_Improper_Torsional_Energy-OPLS-2005>
4.32805204391479

> <r_mmod_Van_der_Waal_Energy-OPLS-2005>
118.753303527832

> <r_mmod_Electrostatic_Energy-OPLS-2005>
-374.500305175781

> <r_mmod_Solvation_Energy-OPLS-2005>
-212.070465087891

> <b_mmod_Minimization_Converged-OPLS-2005>
0

> <r_mmod_RMS_Derivative-OPLS-2005>
1.14491832256317

$$$$
87
                    3D
 Structure written by MMmdl.
160168  0  0  1  0            999 V2000
  -30.5403  -14.9508   20.4091 C   0  0  0  0  0  0
  -30.4392  -12.5870   19.5076 C   0  0  0  0  0  0
  -29.5268  -12.5538   18.2590 C   0  0  0  0  0  0
  -28.0578  -12.3374   18.6672 C   0  0  0  0  0  0
  -27.6326  -13.2555   19.8431 C   0  0  2  0  0  0
  -28.6749  -13.2765   20.9846 C   0  0  0  0  0  0
  -25.2478  -13.8231   20.5708 C   0  0  0  0  0  0
  -24.1794  -13.0445   20.9232 C   0  0  0  0  0  0
  -24.6423  -11.6930   20.8739 C   0  0  0  0  0  0
  -23.9086  -10.4302   21.0373 C   0  0  0  0  0  0
  -24.3626   -9.4228   21.9164 C   0  0  0  0  0  0
  -23.6308   -8.2256   22.0735 C   0  0  0  0  0  0
  -22.4290   -8.0284   21.3539 C   0  0  0  0  0  0
  -21.9932   -9.0254   20.4633 C   0  0  0  0  0  0
  -22.7254  -10.2135   20.3028 C   0  0  0  0  0  0
  -21.6860   -6.0742   22.5285 C   0  0  0  0  0  0
  -21.4024   -6.5639   23.8219 C   0  0  0  0  0  0
  -21.3679   -5.6782   24.9182 C   0  0  0  0  0  0
  -21.6050   -4.3039   24.7217 C   0  0  0  0  0  0
  -21.8820   -3.8142   23.4332 C   0  0  0  0  0  0
  -21.9193   -4.6968   22.3399 C   0  0  0  0  0  0
  -22.7821  -13.5196   21.1889 C   0  0  0  0  0  0
  -22.1656   -4.2147   21.0980 F   0  0  0  0  0  0
  -21.5632   -3.4529   25.7739 F   0  0  0  0  0  0
  -29.9559  -13.6851   20.3956 N   0  0  0  0  0  0
  -26.2913  -12.9477   20.3253 N   0  0  0  0  0  0
  -25.9357  -11.6595   20.5722 N   0  0  0  0  0  0
  -22.0444  -12.8206   22.0430 N   0  0  0  0  0  0
  -25.4113  -15.1967   20.4149 N   0  0  0  0  0  0
  -31.7334  -15.0228   20.0935 O   0  0  0  0  0  0
  -21.6648   -6.8888   21.4251 O   0  0  0  0  0  0
  -22.3516  -14.5495   20.6711 O   0  0  0  0  0  0
  -24.6431  -31.8442   23.1834 C   0  0  0  0  0  0
  -25.9200  -32.4684   23.8245 C   0  0  1  0  0  0
  -27.2185  -27.1266   20.1463 C   0  0  0  0  0  0
  -25.5956  -33.8492   24.2164 N   0  0  0  0  0  0
  -23.4468  -30.4610   21.5307 C   0  0  2  0  0  0
  -24.8937  -28.8807   20.1090 C   0  0  0  0  0  0
  -22.7562  -29.4546   22.4851 C   0  0  0  0  0  0
  -18.0318  -28.1368   22.8467 C   0  0  0  0  0  0
  -24.1509  -36.7289   23.2639 C   0  0  0  0  0  0
  -26.0015  -30.7122   21.3813 C   0  0  0  0  0  0
  -26.0723  -29.3213   20.7249 C   0  0  0  0  0  0
  -27.2350  -28.4616   20.7241 C   0  0  0  0  0  0
  -26.0117  -26.7846   19.4983 C   0  0  0  0  0  0
  -24.8761  -27.6245   19.4824 C   0  0  0  0  0  0
  -23.6722  -29.7880   20.1503 C   0  0  0  0  0  0
  -25.4135  -36.3036   24.0306 C   0  0  1  0  0  0
  -20.5921  -28.3703   23.1228 C   0  0  2  0  0  0
  -20.6790  -26.9407   22.5389 C   0  0  0  0  0  0
  -19.5775  -26.6355   21.5195 C   0  0  0  0  0  0
  -18.1959  -26.7908   22.1606 C   0  0  0  0  0  0
  -19.1565  -28.8858   23.2844 C   0  0  0  0  0  0
  -18.9483  -30.1449   23.8869 C   0  0  0  0  0  0
  -17.6476  -30.6562   24.0554 C   0  0  0  0  0  0
  -25.9082  -34.9404   23.5047 C   0  0  0  0  0  0
  -16.5368  -29.9049   23.6318 C   0  0  0  0  0  0
  -16.7304  -28.6466   23.0344 C   0  0  0  0  0  0
  -26.4494  -31.6547   25.0696 C   0  0  0  0  0  0
  -25.3665  -31.3761   26.1388 C   0  0  0  0  0  0
  -27.0326  -30.2928   24.6276 C   0  0  0  0  0  0
  -27.6020  -32.4305   25.7503 C   0  0  0  0  0  0
  -27.5597  -37.1800   24.8443 C   0  0  0  0  0  0
  -21.4251  -29.3046   22.3608 N   0  0  0  0  0  0
  -26.4300  -37.3745   23.9394 N   0  0  0  0  0  0
  -24.7180  -31.0272   22.0874 N   0  0  0  0  0  0
  -23.4206  -28.8113   23.3020 O   0  0  0  0  0  0
  -28.2768  -26.1469   20.2142 O   0  0  0  0  0  0
  -26.5669  -34.8908   22.4626 O   0  0  0  0  0  0
  -23.5548  -32.1343   23.7029 O   0  0  0  0  0  0
  -30.8068  -21.8915   20.8335 C   0  0  0  0  0  0
  -30.3782  -24.0681   20.8350 C   0  0  0  0  0  0
  -29.5031  -21.9813   20.4226 C   0  0  0  0  0  0
  -29.2063  -23.4967   20.4113 C   0  0  0  0  0  0
  -33.6599  -23.2848   20.2390 C   0  0  0  0  0  0
  -33.1964  -22.5246   22.6182 C   0  0  0  0  0  0
  -28.8582  -20.5152   20.0527 C   0  0  0  0  0  0
  -28.0367  -24.6059   20.0612 C   0  0  0  0  0  0
  -29.2622  -19.0176   20.7651 C   0  0  0  0  0  0
  -29.9574  -17.6363   20.0750 C   0  0  0  0  0  0
  -32.7284  -23.4128   21.4542 C   0  0  0  0  0  0
  -31.3489  -23.1286   21.0750 N   0  0  0  0  0  0
  -29.7565  -16.1329   20.5529 N   0  0  0  0  0  0
  -31.4757  -12.7357   19.2036 H   0  0  0  0  0  0
  -30.4222  -11.6286   20.0278 H   0  0  0  0  0  0
  -29.8520  -11.7762   17.5686 H   0  0  0  0  0  0
  -29.6206  -13.4979   17.7212 H   0  0  0  0  0  0
  -27.9468  -11.2927   18.9542 H   0  0  0  0  0  0
  -27.3981  -12.4887   17.8102 H   0  0  0  0  0  0
  -27.5956  -14.2627   19.4283 H   0  0  0  0  0  0
  -28.7610  -12.2987   21.4595 H   0  0  0  0  0  0
  -28.3791  -13.9788   21.7658 H   0  0  0  0  0  0
  -25.2745   -9.5712   22.4764 H   0  0  0  0  0  0
  -24.0021   -7.4645   22.7451 H   0  0  0  0  0  0
  -21.0862   -8.8750   19.8946 H   0  0  0  0  0  0
  -22.3680  -10.9664   19.6137 H   0  0  0  0  0  0
  -21.2011   -7.6142   23.9738 H   0  0  0  0  0  0
  -21.1514   -6.0498   25.9093 H   0  0  0  0  0  0
  -22.0583   -2.7602   23.2822 H   0  0  0  0  0  0
  -22.4022  -11.9875   22.4861 H   0  0  0  0  0  0
  -21.1044  -13.1245   22.2584 H   0  0  0  0  0  0
  -24.6333  -15.8385   20.5223 H   0  0  0  0  0  0
  -26.2452  -15.6442   20.0574 H   0  0  0  0  0  0
  -26.7275  -32.5270   23.0986 H   0  0  0  0  0  0
  -25.0082  -33.9604   25.0295 H   0  0  0  0  0  0
  -22.7500  -31.2867   21.3748 H   0  0  0  0  0  0
  -23.3764  -35.9624   23.3241 H   0  0  0  0  0  0
  -24.3632  -36.8981   22.2070 H   0  0  0  0  0  0
  -23.7260  -37.6469   23.6714 H   0  0  0  0  0  0
  -26.1552  -31.4650   20.6063 H   0  0  0  0  0  0
  -26.8722  -30.7647   22.0224 H   0  0  0  0  0  0
  -28.1327  -28.7960   21.2245 H   0  0  0  0  0  0
  -25.9165  -25.8241   19.0130 H   0  0  0  0  0  0
  -23.9764  -27.2766   18.9932 H   0  0  0  0  0  0
  -23.8101  -30.5630   19.3947 H   0  0  0  0  0  0
  -22.7838  -29.2349   19.8404 H   0  0  0  0  0  0
  -25.1316  -36.1875   25.0794 H   0  0  0  0  0  0
  -21.0032  -28.3286   24.1344 H   0  0  0  0  0  0
  -20.5658  -26.2327   23.3612 H   0  0  0  0  0  0
  -21.6661  -26.7391   22.1213 H   0  0  0  0  0  0
  -19.6934  -25.6260   21.1247 H   0  0  0  0  0  0
  -19.6710  -27.3136   20.6705 H   0  0  0  0  0  0
  -17.4231  -26.6662   21.4005 H   0  0  0  0  0  0
  -18.0361  -26.0046   22.8998 H   0  0  0  0  0  0
  -19.7965  -30.7266   24.2228 H   0  0  0  0  0  0
  -17.5031  -31.6238   24.5155 H   0  0  0  0  0  0
  -15.5367  -30.2934   23.7646 H   0  0  0  0  0  0
  -15.8718  -28.0767   22.7062 H   0  0  0  0  0  0
  -24.5837  -30.7118   25.7714 H   0  0  0  0  0  0
  -24.8863  -32.2952   26.4757 H   0  0  0  0  0  0
  -25.7937  -30.8970   27.0207 H   0  0  0  0  0  0
  -26.2911  -29.6675   24.1294 H   0  0  0  0  0  0
  -27.3924  -29.7215   25.4843 H   0  0  0  0  0  0
  -27.8835  -30.4129   23.9572 H   0  0  0  0  0  0
  -27.2595  -33.3609   26.2047 H   0  0  0  0  0  0
  -28.3867  -32.6863   25.0367 H   0  0  0  0  0  0
  -28.0648  -31.8455   26.5461 H   0  0  0  0  0  0
  -28.2547  -38.0161   24.7534 H   0  0  0  0  0  0
  -28.1162  -36.2687   24.6197 H   0  0  0  0  0  0
  -27.2337  -37.1353   25.8851 H   0  0  0  0  0  0
  -20.9450  -29.8806   21.6832 H   0  0  0  0  0  0
  -26.0168  -38.2816   24.1383 H   0  0  0  0  0  0
  -31.4234  -21.0114   20.9541 H   0  0  0  0  0  0
  -30.6190  -25.1157   20.9617 H   0  0  0  0  0  0
  -34.6836  -23.5569   20.4980 H   0  0  0  0  0  0
  -33.3419  -23.9411   19.4287 H   0  0  0  0  0  0
  -33.6782  -22.2658   19.8524 H   0  0  0  0  0  0
  -34.2029  -22.7974   22.9356 H   0  0  0  0  0  0
  -33.2230  -21.4719   22.3398 H   0  0  0  0  0  0
  -32.5396  -22.6277   23.4817 H   0  0  0  0  0  0
  -28.9684  -20.3994   18.9742 H   0  0  0  0  0  0
  -27.7843  -20.6463   20.1940 H   0  0  0  0  0  0
  -27.1636  -24.3413   20.6581 H   0  0  0  0  0  0
  -27.7506  -24.4246   19.0254 H   0  0  0  0  0  0
  -28.2958  -18.6541   21.1137 H   0  0  0  0  0  0
  -29.7937  -19.2234   21.6949 H   0  0  0  0  0  0
  -31.0345  -17.8079   20.0302 H   0  0  0  0  0  0
  -29.6429  -17.6315   19.0304 H   0  0  0  0  0  0
  -32.7652  -24.4488   21.7955 H   0  0  0  0  0  0
  -28.8130  -15.9273   20.8473 H   0  0  0  0  0  0
  1 25  1  0  0  0
  1 30  2  0  0  0
  1 83  1  0  0  0
  2  3  1  0  0  0
  2 25  1  0  0  0
  2 84  1  0  0  0
  2 85  1  0  0  0
  3  4  1  0  0  0
  3 86  1  0  0  0
  3 87  1  0  0  0
  4  5  1  0  0  0
  4 88  1  0  0  0
  4 89  1  0  0  0
  5  6  1  0  0  0
  5 26  1  0  0  0
  5 90  1  0  0  0
  6 25  1  0  0  0
  6 91  1  0  0  0
  6 92  1  0  0  0
  7  8  2  0  0  0
  7 26  1  0  0  0
  7 29  1  0  0  0
  8  9  1  0  0  0
  8 22  1  0  0  0
  9 10  1  0  0  0
  9 27  2  0  0  0
 10 11  2  0  0  0
 10 15  1  0  0  0
 11 12  1  0  0  0
 11 93  1  0  0  0
 12 13  2  0  0  0
 12 94  1  0  0  0
 13 14  1  0  0  0
 13 31  1  0  0  0
 14 15  2  0  0  0
 14 95  1  0  0  0
 15 96  1  0  0  0
 16 17  2  0  0  0
 16 21  1  0  0  0
 16 31  1  0  0  0
 17 18  1  0  0  0
 17 97  1  0  0  0
 18 19  2  0  0  0
 18 98  1  0  0  0
 19 20  1  0  0  0
 19 24  1  0  0  0
 20 21  2  0  0  0
 20 99  1  0  0  0
 21 23  1  0  0  0
 22 28  1  0  0  0
 22 32  2  0  0  0
 26 27  1  0  0  0
 28100  1  0  0  0
 28101  1  0  0  0
 29102  1  0  0  0
 29103  1  0  0  0
 33 34  1  0  0  0
 33 66  1  0  0  0
 33 70  2  0  0  0
 34 36  1  0  0  0
 34 59  1  0  0  0
 34104  1  0  0  0
 35 44  2  0  0  0
 35 45  1  0  0  0
 35 68  1  0  0  0
 36 56  1  0  0  0
 36105  1  0  0  0
 37 39  1  0  0  0
 37 47  1  0  0  0
 37 66  1  0  0  0
 37106  1  0  0  0
 38 43  2  0  0  0
 38 46  1  0  0  0
 38 47  1  0  0  0
 39 64  1  0  0  0
 39 67  2  0  0  0
 40 52  1  0  0  0
 40 53  2  0  0  0
 40 58  1  0  0  0
 41107  1  0  0  0
 41108  1  0  0  0
 41109  1  0  0  0
 41 48  1  0  0  0
 42 43  1  0  0  0
 42 66  1  0  0  0
 42110  1  0  0  0
 42111  1  0  0  0
 43 44  1  0  0  0
 44112  1  0  0  0
 45 46  2  0  0  0
 45113  1  0  0  0
 46114  1  0  0  0
 47115  1  0  0  0
 47116  1  0  0  0
 48 56  1  0  0  0
 48 65  1  0  0  0
 48117  1  0  0  0
 49 50  1  0  0  0
 49 53  1  0  0  0
 49 64  1  0  0  0
 49118  1  0  0  0
 50 51  1  0  0  0
 50119  1  0  0  0
 50120  1  0  0  0
 51 52  1  0  0  0
 51121  1  0  0  0
 51122  1  0  0  0
 52123  1  0  0  0
 52124  1  0  0  0
 53 54  1  0  0  0
 54 55  2  0  0  0
 54125  1  0  0  0
 55 57  1  0  0  0
 55126  1  0  0  0
 56 69  2  0  0  0
 57 58  2  0  0  0
 57127  1  0  0  0
 58128  1  0  0  0
 59 60  1  0  0  0
 59 61  1  0  0  0
 59 62  1  0  0  0
 60129  1  0  0  0
 60130  1  0  0  0
 60131  1  0  0  0
 61132  1  0  0  0
 61133  1  0  0  0
 61134  1  0  0  0
 62135  1  0  0  0
 62136  1  0  0  0
 62137  1  0  0  0
 63 65  1  0  0  0
 63138  1  0  0  0
 63139  1  0  0  0
 63140  1  0  0  0
 64141  1  0  0  0
 65142  1  0  0  0
 68 78  1  0  0  0
 71 73  2  0  0  0
 71 82  1  0  0  0
 71143  1  0  0  0
 72 74  2  0  0  0
 72 82  1  0  0  0
 72144  1  0  0  0
 73 74  1  0  0  0
 73 77  1  0  0  0
 74 78  1  0  0  0
 75145  1  0  0  0
 75146  1  0  0  0
 75147  1  0  0  0
 75 81  1  0  0  0
 76 81  1  0  0  0
 76148  1  0  0  0
 76149  1  0  0  0
 76150  1  0  0  0
 77 79  1  0  0  0
 77151  1  0  0  0
 77152  1  0  0  0
 78153  1  0  0  0
 78154  1  0  0  0
 79 80  1  0  0  0
 79155  1  0  0  0
 79156  1  0  0  0
 80 83  1  0  0  0
 80157  1  0  0  0
 80158  1  0  0  0
 81 82  1  0  0  0
 81159  1  0  0  0
 83160  1  0  0  0
M  ISO  4   1 100  68 101  78 101  83 100
M  END
> <chiral flag>
0

> <version>
0

> <s_m_source_file>
/data/baiqing/PycharmProjects/Reinvent-master-3.2/result/LINK_invent/BTK/process_docking_weight1_custom_sum_contain_oxygen_bond_distance_aromatic_linkinvent_7_9_3/rearranged_h_0044.sdf

> <i_m_source_file_index>
88

> <r_mmod_Potential_Energy-OPLS-2005>
559.169616699219

> <r_mmod_Stretch_Energy-OPLS-2005>
285.575836181641

> <r_mmod_Bend_Energy-OPLS-2005>
302.477294921875

> <r_mmod_Torsional_Energy-OPLS-2005>
253.339904785156

> <r_mmod_Improper_Torsional_Energy-OPLS-2005>
5.90632915496826

> <r_mmod_Van_der_Waal_Energy-OPLS-2005>
108.801696777344

> <r_mmod_Electrostatic_Energy-OPLS-2005>
-377.779388427734

> <r_mmod_Solvation_Energy-OPLS-2005>
-214.456817626953

> <b_mmod_Minimization_Converged-OPLS-2005>
0

> <r_mmod_RMS_Derivative-OPLS-2005>
2.47124910354614

$$$$
88
                    3D
 Structure written by MMmdl.
159167  0  0  1  0            999 V2000
  -30.7077  -14.4678   20.6044 C   0  0  0  0  0  0
  -30.4235  -12.3195   19.4139 C   0  0  0  0  0  0
  -29.4911  -12.5100   18.2008 C   0  0  0  0  0  0
  -28.0132  -12.3671   18.6164 C   0  0  0  0  0  0
  -27.6604  -13.2073   19.8729 C   0  0  2  0  0  0
  -28.7020  -12.9851   20.9912 C   0  0  0  0  0  0
  -25.2586  -13.8165   20.5678 C   0  0  0  0  0  0
  -24.1838  -13.0442   20.9175 C   0  0  0  0  0  0
  -24.6395  -11.6910   20.8737 C   0  0  0  0  0  0
  -23.9062  -10.4292   21.0409 C   0  0  0  0  0  0
  -24.3615   -9.4205   21.9187 C   0  0  0  0  0  0
  -23.6291   -8.2241   22.0754 C   0  0  0  0  0  0
  -22.4273   -8.0282   21.3541 C   0  0  0  0  0  0
  -21.9911   -9.0256   20.4645 C   0  0  0  0  0  0
  -22.7240  -10.2135   20.3054 C   0  0  0  0  0  0
  -21.6848   -6.0735   22.5280 C   0  0  0  0  0  0
  -21.4011   -6.5639   23.8214 C   0  0  0  0  0  0
  -21.3661   -5.6789   24.9175 C   0  0  0  0  0  0
  -21.6047   -4.3054   24.7226 C   0  0  0  0  0  0
  -21.8817   -3.8149   23.4346 C   0  0  0  0  0  0
  -21.9192   -4.6963   22.3402 C   0  0  0  0  0  0
  -22.7861  -13.5238   21.1844 C   0  0  0  0  0  0
  -22.1659   -4.2150   21.0980 F   0  0  0  0  0  0
  -21.5634   -3.4541   25.7739 F   0  0  0  0  0  0
  -30.0298  -13.2994   20.4385 N   0  0  0  0  0  0
  -26.3018  -12.9335   20.3356 N   0  0  0  0  0  0
  -25.9319  -11.6496   20.5761 N   0  0  0  0  0  0
  -22.0497  -12.8229   22.0400 N   0  0  0  0  0  0
  -25.4319  -15.1877   20.4079 N   0  0  0  0  0  0
  -31.8200  -14.6691   20.1090 O   0  0  0  0  0  0
  -21.6636   -6.8880   21.4241 O   0  0  0  0  0  0
  -22.3544  -14.5546   20.6698 O   0  0  0  0  0  0
  -24.6146  -31.8664   23.2068 C   0  0  0  0  0  0
  -25.9034  -32.4815   23.8376 C   0  0  1  0  0  0
  -27.2412  -27.4217   20.0909 C   0  0  0  0  0  0
  -25.5894  -33.8616   24.2304 N   0  0  0  0  0  0
  -23.4024  -30.4873   21.5490 C   0  0  2  0  0  0
  -24.8497  -28.9478   20.1152 C   0  0  0  0  0  0
  -22.7400  -29.4640   22.4994 C   0  0  0  0  0  0
  -18.0260  -28.1370   22.8492 C   0  0  0  0  0  0
  -24.1493  -36.7316   23.2635 C   0  0  0  0  0  0
  -25.9308  -30.8284   21.3591 C   0  0  0  0  0  0
  -26.0086  -29.4594   20.7097 C   0  0  0  0  0  0
  -27.2043  -28.7034   20.6926 C   0  0  0  0  0  0
  -26.0605  -26.9256   19.4924 C   0  0  0  0  0  0
  -24.8713  -27.6813   19.5054 C   0  0  0  0  0  0
  -23.6112  -29.8155   20.1650 C   0  0  0  0  0  0
  -25.4108  -36.3099   24.0326 C   0  0  1  0  0  0
  -20.5851  -28.3657   23.1327 C   0  0  2  0  0  0
  -20.6761  -26.9396   22.5416 C   0  0  0  0  0  0
  -19.5734  -26.6376   21.5211 C   0  0  0  0  0  0
  -18.1910  -26.7918   22.1618 C   0  0  0  0  0  0
  -19.1510  -28.8829   23.2905 C   0  0  0  0  0  0
  -18.9443  -30.1438   23.8911 C   0  0  0  0  0  0
  -17.6446  -30.6582   24.0557 C   0  0  0  0  0  0
  -25.9035  -34.9471   23.5109 C   0  0  0  0  0  0
  -16.5338  -29.9079   23.6329 C   0  0  0  0  0  0
  -16.7249  -28.6493   23.0351 C   0  0  0  0  0  0
  -26.4459  -31.6606   25.0717 C   0  0  0  0  0  0
  -25.3721  -31.3721   26.1472 C   0  0  0  0  0  0
  -27.0295  -30.3055   24.6081 C   0  0  0  0  0  0
  -27.6035  -32.4331   25.7477 C   0  0  0  0  0  0
  -27.5576  -37.1806   24.8449 C   0  0  0  0  0  0
  -21.4125  -29.3035   22.3747 N   0  0  0  0  0  0
  -26.4289  -37.3787   23.9406 N   0  0  0  0  0  0
  -24.6682  -31.0745   22.0976 N   0  0  0  0  0  0
  -23.4170  -28.8184   23.3038 O   0  0  0  0  0  0
  -28.4352  -26.7217   20.1016 O   0  0  0  0  0  0
  -26.5594  -34.8920   22.4670 O   0  0  0  0  0  0
  -23.5330  -32.1425   23.7455 O   0  0  0  0  0  0
  -28.6086  -22.2785   22.1194 C   0  0  0  0  0  0
  -28.8305  -20.8856   22.1650 C   0  0  0  0  0  0
  -28.2239  -22.1406   19.7315 C   0  0  0  0  0  0
  -28.2799  -22.9243   20.9084 C   0  0  0  0  0  0
  -28.7273  -20.0897   21.0035 C   0  0  0  0  0  0
  -28.4465  -20.7376   19.7706 C   0  0  0  0  0  0
  -28.3406  -19.9420   18.4812 C   0  0  0  0  0  0
  -27.9200  -24.4233   20.9315 C   0  0  0  0  0  0
  -28.8431  -18.5588   21.1444 C   0  0  0  0  0  0
  -30.2564  -17.9731   20.8961 C   0  0  0  0  0  0
  -30.6327  -16.7161   21.7342 C   0  0  0  0  0  0
  -28.4862  -25.3123   19.7945 C   0  0  0  0  0  0
  -30.0603  -15.4337   21.2861 N   0  0  0  0  0  0
  -31.4661  -12.4280   19.1099 H   0  0  0  0  0  0
  -30.3353  -11.3080   19.8121 H   0  0  0  0  0  0
  -29.7310  -11.7826   17.4247 H   0  0  0  0  0  0
  -29.6549  -13.4939   17.7589 H   0  0  0  0  0  0
  -27.8259  -11.3108   18.8143 H   0  0  0  0  0  0
  -27.3609  -12.6401   17.7861 H   0  0  0  0  0  0
  -27.7058  -14.2558   19.5776 H   0  0  0  0  0  0
  -28.6837  -11.9455   21.3221 H   0  0  0  0  0  0
  -28.4570  -13.5732   21.8761 H   0  0  0  0  0  0
  -25.2762   -9.5680   22.4759 H   0  0  0  0  0  0
  -24.0004   -7.4631   22.7471 H   0  0  0  0  0  0
  -21.0843   -8.8775   19.8949 H   0  0  0  0  0  0
  -22.3707  -10.9671   19.6158 H   0  0  0  0  0  0
  -21.1997   -7.6145   23.9716 H   0  0  0  0  0  0
  -21.1487   -6.0521   25.9075 H   0  0  0  0  0  0
  -22.0596   -2.7611   23.2847 H   0  0  0  0  0  0
  -22.4109  -11.9883   22.4773 H   0  0  0  0  0  0
  -21.1117  -13.1255   22.2609 H   0  0  0  0  0  0
  -24.6687  -15.8472   20.5145 H   0  0  0  0  0  0
  -26.2876  -15.6225   20.0864 H   0  0  0  0  0  0
  -26.7112  -32.5530   23.1150 H   0  0  0  0  0  0
  -25.0093  -33.9799   25.0484 H   0  0  0  0  0  0
  -22.6907  -31.3035   21.4078 H   0  0  0  0  0  0
  -23.3744  -35.9659   23.3296 H   0  0  0  0  0  0
  -24.3574  -36.8933   22.2046 H   0  0  0  0  0  0
  -23.7283  -37.6531   23.6661 H   0  0  0  0  0  0
  -26.0351  -31.5910   20.5859 H   0  0  0  0  0  0
  -26.8209  -30.8900   21.9727 H   0  0  0  0  0  0
  -28.1012  -29.0995   21.1477 H   0  0  0  0  0  0
  -26.0398  -25.9625   19.0048 H   0  0  0  0  0  0
  -23.9801  -27.2826   19.0417 H   0  0  0  0  0  0
  -23.7172  -30.5889   19.4034 H   0  0  0  0  0  0
  -22.7361  -29.2326   19.8728 H   0  0  0  0  0  0
  -25.1295  -36.1940   25.0820 H   0  0  0  0  0  0
  -20.9937  -28.3218   24.1445 H   0  0  0  0  0  0
  -20.5664  -26.2260   23.3597 H   0  0  0  0  0  0
  -21.6633  -26.7442   22.1206 H   0  0  0  0  0  0
  -19.6896  -25.6282   21.1244 H   0  0  0  0  0  0
  -19.6683  -27.3188   20.6741 H   0  0  0  0  0  0
  -17.4188  -26.6675   21.4010 H   0  0  0  0  0  0
  -18.0302  -26.0046   22.9001 H   0  0  0  0  0  0
  -19.7921  -30.7253   24.2278 H   0  0  0  0  0  0
  -17.5004  -31.6269   24.5145 H   0  0  0  0  0  0
  -15.5340  -30.2988   23.7639 H   0  0  0  0  0  0
  -15.8650  -28.0820   22.7055 H   0  0  0  0  0  0
  -24.5879  -30.7078   25.7821 H   0  0  0  0  0  0
  -24.8930  -32.2883   26.4933 H   0  0  0  0  0  0
  -25.8071  -30.8884   27.0230 H   0  0  0  0  0  0
  -26.2843  -29.6826   24.1120 H   0  0  0  0  0  0
  -27.4075  -29.7274   25.4526 H   0  0  0  0  0  0
  -27.8662  -30.4394   23.9220 H   0  0  0  0  0  0
  -27.2658  -33.3636   26.2060 H   0  0  0  0  0  0
  -28.3842  -32.6890   25.0299 H   0  0  0  0  0  0
  -28.0708  -31.8455   26.5392 H   0  0  0  0  0  0
  -28.2574  -38.0120   24.7520 H   0  0  0  0  0  0
  -28.1097  -36.2657   24.6251 H   0  0  0  0  0  0
  -27.2295  -37.1421   25.8850 H   0  0  0  0  0  0
  -20.9274  -29.8776   21.6999 H   0  0  0  0  0  0
  -26.0161  -38.2857   24.1420 H   0  0  0  0  0  0
  -28.6579  -22.8458   23.0388 H   0  0  0  0  0  0
  -29.0469  -20.4210   23.1178 H   0  0  0  0  0  0
  -27.9750  -22.6124   18.7906 H   0  0  0  0  0  0
  -28.3775  -20.5952   17.6090 H   0  0  0  0  0  0
  -27.3999  -19.3921   18.4500 H   0  0  0  0  0  0
  -29.1605  -19.2304   18.3884 H   0  0  0  0  0  0
  -28.2638  -24.8388   21.8797 H   0  0  0  0  0  0
  -26.8334  -24.5101   20.9531 H   0  0  0  0  0  0
  -28.1177  -18.0661   20.4966 H   0  0  0  0  0  0
  -28.5274  -18.3061   22.1576 H   0  0  0  0  0  0
  -30.9769  -18.7437   21.1725 H   0  0  0  0  0  0
  -30.4211  -17.7971   19.8325 H   0  0  0  0  0  0
  -30.3425  -16.8704   22.7743 H   0  0  0  0  0  0
  -31.7209  -16.6309   21.7581 H   0  0  0  0  0  0
  -28.0327  -25.0853   18.8296 H   0  0  0  0  0  0
  -29.5440  -25.0751   19.6781 H   0  0  0  0  0  0
  -29.1386  -15.1979   21.6229 H   0  0  0  0  0  0
  1 25  1  0  0  0
  1 30  2  0  0  0
  1 83  1  0  0  0
  2  3  1  0  0  0
  2 25  1  0  0  0
  2 84  1  0  0  0
  2 85  1  0  0  0
  3  4  1  0  0  0
  3 86  1  0  0  0
  3 87  1  0  0  0
  4  5  1  0  0  0
  4 88  1  0  0  0
  4 89  1  0  0  0
  5  6  1  0  0  0
  5 26  1  0  0  0
  5 90  1  0  0  0
  6 25  1  0  0  0
  6 91  1  0  0  0
  6 92  1  0  0  0
  7  8  2  0  0  0
  7 26  1  0  0  0
  7 29  1  0  0  0
  8  9  1  0  0  0
  8 22  1  0  0  0
  9 10  1  0  0  0
  9 27  2  0  0  0
 10 11  2  0  0  0
 10 15  1  0  0  0
 11 12  1  0  0  0
 11 93  1  0  0  0
 12 13  2  0  0  0
 12 94  1  0  0  0
 13 14  1  0  0  0
 13 31  1  0  0  0
 14 15  2  0  0  0
 14 95  1  0  0  0
 15 96  1  0  0  0
 16 17  2  0  0  0
 16 21  1  0  0  0
 16 31  1  0  0  0
 17 18  1  0  0  0
 17 97  1  0  0  0
 18 19  2  0  0  0
 18 98  1  0  0  0
 19 20  1  0  0  0
 19 24  1  0  0  0
 20 21  2  0  0  0
 20 99  1  0  0  0
 21 23  1  0  0  0
 22 28  1  0  0  0
 22 32  2  0  0  0
 26 27  1  0  0  0
 28100  1  0  0  0
 28101  1  0  0  0
 29102  1  0  0  0
 29103  1  0  0  0
 33 34  1  0  0  0
 33 66  1  0  0  0
 33 70  2  0  0  0
 34 36  1  0  0  0
 34 59  1  0  0  0
 34104  1  0  0  0
 35 44  2  0  0  0
 35 45  1  0  0  0
 35 68  1  0  0  0
 36 56  1  0  0  0
 36105  1  0  0  0
 37 39  1  0  0  0
 37 47  1  0  0  0
 37 66  1  0  0  0
 37106  1  0  0  0
 38 43  2  0  0  0
 38 46  1  0  0  0
 38 47  1  0  0  0
 39 64  1  0  0  0
 39 67  2  0  0  0
 40 52  1  0  0  0
 40 53  2  0  0  0
 40 58  1  0  0  0
 41107  1  0  0  0
 41108  1  0  0  0
 41109  1  0  0  0
 41 48  1  0  0  0
 42 43  1  0  0  0
 42 66  1  0  0  0
 42110  1  0  0  0
 42111  1  0  0  0
 43 44  1  0  0  0
 44112  1  0  0  0
 45 46  2  0  0  0
 45113  1  0  0  0
 46114  1  0  0  0
 47115  1  0  0  0
 47116  1  0  0  0
 48 56  1  0  0  0
 48 65  1  0  0  0
 48117  1  0  0  0
 49 50  1  0  0  0
 49 53  1  0  0  0
 49 64  1  0  0  0
 49118  1  0  0  0
 50 51  1  0  0  0
 50119  1  0  0  0
 50120  1  0  0  0
 51 52  1  0  0  0
 51121  1  0  0  0
 51122  1  0  0  0
 52123  1  0  0  0
 52124  1  0  0  0
 53 54  1  0  0  0
 54 55  2  0  0  0
 54125  1  0  0  0
 55 57  1  0  0  0
 55126  1  0  0  0
 56 69  2  0  0  0
 57 58  2  0  0  0
 57127  1  0  0  0
 58128  1  0  0  0
 59 60  1  0  0  0
 59 61  1  0  0  0
 59 62  1  0  0  0
 60129  1  0  0  0
 60130  1  0  0  0
 60131  1  0  0  0
 61132  1  0  0  0
 61133  1  0  0  0
 61134  1  0  0  0
 62135  1  0  0  0
 62136  1  0  0  0
 62137  1  0  0  0
 63 65  1  0  0  0
 63138  1  0  0  0
 63139  1  0  0  0
 63140  1  0  0  0
 64141  1  0  0  0
 65142  1  0  0  0
 68 82  1  0  0  0
 71 72  2  0  0  0
 71 74  1  0  0  0
 71143  1  0  0  0
 72 75  1  0  0  0
 72144  1  0  0  0
 73 74  2  0  0  0
 73 76  1  0  0  0
 73145  1  0  0  0
 74 78  1  0  0  0
 75 76  2  0  0  0
 75 79  1  0  0  0
 76 77  1  0  0  0
 77146  1  0  0  0
 77147  1  0  0  0
 77148  1  0  0  0
 78 82  1  0  0  0
 78149  1  0  0  0
 78150  1  0  0  0
 79 80  1  0  0  0
 79151  1  0  0  0
 79152  1  0  0  0
 80 81  1  0  0  0
 80153  1  0  0  0
 80154  1  0  0  0
 81 83  1  0  0  0
 81155  1  0  0  0
 81156  1  0  0  0
 82157  1  0  0  0
 82158  1  0  0  0
 83159  1  0  0  0
M  ISO  4   1 100  68 101  82 101  83 100
M  END
> <chiral flag>
0

> <version>
0

> <s_m_source_file>
/data/baiqing/PycharmProjects/Reinvent-master-3.2/result/LINK_invent/BTK/process_docking_weight1_custom_sum_contain_oxygen_bond_distance_aromatic_linkinvent_7_9_3/rearranged_h_0044.sdf

> <i_m_source_file_index>
89

> <r_mmod_Potential_Energy-OPLS-2005>
-69.4145736694336

> <r_mmod_Stretch_Energy-OPLS-2005>
40.685474395752

> <r_mmod_Bend_Energy-OPLS-2005>
108.154945373535

> <r_mmod_Torsional_Energy-OPLS-2005>
198.148361206055

> <r_mmod_Improper_Torsional_Energy-OPLS-2005>
2.55044507980347

> <r_mmod_Van_der_Waal_Energy-OPLS-2005>
146.879272460938

> <r_mmod_Electrostatic_Energy-OPLS-2005>
-373.661285400391

> <r_mmod_Solvation_Energy-OPLS-2005>
-204.713851928711

> <b_mmod_Minimization_Converged-OPLS-2005>
0

> <r_mmod_RMS_Derivative-OPLS-2005>
1.34105741977692

$$$$
89
                    3D
 Structure written by MMmdl.
144152  0  0  1  0            999 V2000
  -30.3778  -15.3010   20.3785 C   0  0  0  0  0  0
  -30.4513  -12.8226   19.5407 C   0  0  0  0  0  0
  -29.5478  -12.5943   18.2988 C   0  0  0  0  0  0
  -28.0941  -12.3085   18.7166 C   0  0  0  0  0  0
  -27.6171  -13.2762   19.8268 C   0  0  2  0  0  0
  -28.6464  -13.4368   20.9653 C   0  0  0  0  0  0
  -25.2412  -13.8245   20.5737 C   0  0  0  0  0  0
  -24.1758  -13.0435   20.9240 C   0  0  0  0  0  0
  -24.6412  -11.6932   20.8741 C   0  0  0  0  0  0
  -23.9102  -10.4293   21.0395 C   0  0  0  0  0  0
  -24.3642   -9.4208   21.9178 C   0  0  0  0  0  0
  -23.6307   -8.2247   22.0753 C   0  0  0  0  0  0
  -22.4288   -8.0286   21.3545 C   0  0  0  0  0  0
  -21.9930   -9.0260   20.4645 C   0  0  0  0  0  0
  -22.7268  -10.2134   20.3049 C   0  0  0  0  0  0
  -21.6858   -6.0739   22.5279 C   0  0  0  0  0  0
  -21.4018   -6.5642   23.8213 C   0  0  0  0  0  0
  -21.3661   -5.6793   24.9174 C   0  0  0  0  0  0
  -21.6044   -4.3056   24.7224 C   0  0  0  0  0  0
  -21.8819   -3.8149   23.4345 C   0  0  0  0  0  0
  -21.9194   -4.6966   22.3401 C   0  0  0  0  0  0
  -22.7775  -13.5188   21.1896 C   0  0  0  0  0  0
  -22.1662   -4.2151   21.0979 F   0  0  0  0  0  0
  -21.5628   -3.4539   25.7736 F   0  0  0  0  0  0
  -29.8872  -13.9569   20.3651 N   0  0  0  0  0  0
  -26.2844  -12.9522   20.3205 N   0  0  0  0  0  0
  -25.9352  -11.6625   20.5695 N   0  0  0  0  0  0
  -22.0436  -12.8168   22.0451 N   0  0  0  0  0  0
  -25.4054  -15.1982   20.4203 N   0  0  0  0  0  0
  -31.5813  -15.3396   20.0709 O   0  0  0  0  0  0
  -21.6647   -6.8885   21.4242 O   0  0  0  0  0  0
  -22.3450  -14.5489   20.6740 O   0  0  0  0  0  0
  -24.6644  -31.8207   23.1675 C   0  0  0  0  0  0
  -25.9315  -32.4572   23.8151 C   0  0  1  0  0  0
  -27.2250  -26.9078   20.1886 C   0  0  0  0  0  0
  -25.5973  -33.8388   24.2055 N   0  0  0  0  0  0
  -23.4807  -30.4297   21.5169 C   0  0  2  0  0  0
  -24.9359  -28.8101   20.1117 C   0  0  0  0  0  0
  -22.7675  -29.4422   22.4773 C   0  0  0  0  0  0
  -18.0323  -28.1409   22.8466 C   0  0  0  0  0  0
  -24.1494  -36.7201   23.2648 C   0  0  0  0  0  0
  -26.0501  -30.6206   21.4007 C   0  0  0  0  0  0
  -26.1189  -29.2076   20.7465 C   0  0  0  0  0  0
  -27.2558  -28.2778   20.7590 C   0  0  0  0  0  0
  -26.0135  -26.6659   19.5026 C   0  0  0  0  0  0
  -24.9098  -27.5606   19.4689 C   0  0  0  0  0  0
  -23.7220  -29.7402   20.1447 C   0  0  0  0  0  0
  -25.4136  -36.2959   24.0297 C   0  0  1  0  0  0
  -20.5948  -28.3755   23.1185 C   0  0  2  0  0  0
  -20.6798  -26.9434   22.5404 C   0  0  0  0  0  0
  -19.5773  -26.6376   21.5215 C   0  0  0  0  0  0
  -18.1955  -26.7942   22.1622 C   0  0  0  0  0  0
  -19.1585  -28.8904   23.2811 C   0  0  0  0  0  0
  -18.9495  -30.1493   23.8848 C   0  0  0  0  0  0
  -17.6487  -30.6598   24.0554 C   0  0  0  0  0  0
  -25.9102  -34.9342   23.5001 C   0  0  0  0  0  0
  -16.5378  -29.9084   23.6344 C   0  0  0  0  0  0
  -16.7305  -28.6505   23.0363 C   0  0  0  0  0  0
  -26.4561  -31.6530   25.0692 C   0  0  0  0  0  0
  -25.3682  -31.3787   26.1344 C   0  0  0  0  0  0
  -27.0465  -30.2894   24.6444 C   0  0  0  0  0  0
  -27.6045  -32.4349   25.7498 C   0  0  0  0  0  0
  -27.5570  -37.1757   24.8466 C   0  0  0  0  0  0
  -21.4342  -29.3038   22.3527 N   0  0  0  0  0  0
  -26.4279  -37.3698   23.9407 N   0  0  0  0  0  0
  -24.7532  -30.9848   22.0820 N   0  0  0  0  0  0
  -23.4211  -28.8001   23.3031 O   0  0  0  0  0  0
  -28.2326  -25.8025   20.2846 O   0  0  0  0  0  0
  -26.5720  -34.8883   22.4602 O   0  0  0  0  0  0
  -23.5709  -32.1186   23.6756 O   0  0  0  0  0  0
  -29.3191  -19.7872   21.0713 C   0  0  0  0  0  0
  -29.4608  -18.5258   20.3444 C   0  0  0  0  0  0
  -29.4909  -16.7937   20.7436 C   0  0  0  0  0  0
  -29.0118  -22.7026   20.5745 C   0  0  0  0  0  0
  -28.0593  -24.1609   20.0551 C   0  0  0  0  0  0
  -29.2332  -19.1010   19.0605 N   0  0  0  0  0  0
  -29.0514  -20.4488   19.0286 N   0  0  0  0  0  0
  -29.0287  -21.0267   20.2803 N   0  0  0  0  0  0
  -31.4692  -13.0360   19.2128 H   0  0  0  0  0  0
  -30.5246  -11.9113   20.1367 H   0  0  0  0  0  0
  -29.9337  -11.7738   17.6926 H   0  0  0  0  0  0
  -29.5760  -13.4829   17.6665 H   0  0  0  0  0  0
  -28.0505  -11.2820   19.0826 H   0  0  0  0  0  0
  -27.4299  -12.3550   17.8527 H   0  0  0  0  0  0
  -27.5370  -14.2474   19.3370 H   0  0  0  0  0  0
  -28.8114  -12.4942   21.4893 H   0  0  0  0  0  0
  -28.2774  -14.1428   21.7107 H   0  0  0  0  0  0
  -25.2785   -9.5682   22.4756 H   0  0  0  0  0  0
  -24.0012   -7.4640   22.7477 H   0  0  0  0  0  0
  -21.0860   -8.8784   19.8952 H   0  0  0  0  0  0
  -22.3726  -10.9673   19.6159 H   0  0  0  0  0  0
  -21.2011   -7.6150   23.9716 H   0  0  0  0  0  0
  -21.1483   -6.0523   25.9077 H   0  0  0  0  0  0
  -22.0596   -2.7610   23.2844 H   0  0  0  0  0  0
  -22.4071  -11.9839   22.4841 H   0  0  0  0  0  0
  -21.1047  -13.1174   22.2657 H   0  0  0  0  0  0
  -24.6359  -15.8485   20.5379 H   0  0  0  0  0  0
  -26.2503  -15.6429   20.0859 H   0  0  0  0  0  0
  -26.7385  -32.5105   23.0865 H   0  0  0  0  0  0
  -25.0060  -33.9462   25.0165 H   0  0  0  0  0  0
  -22.7951  -31.2615   21.3427 H   0  0  0  0  0  0
  -23.3769  -35.9518   23.3276 H   0  0  0  0  0  0
  -24.3569  -36.8885   22.2069 H   0  0  0  0  0  0
  -23.7239  -37.6373   23.6730 H   0  0  0  0  0  0
  -26.2318  -31.3600   20.6196 H   0  0  0  0  0  0
  -26.9093  -30.6796   22.0568 H   0  0  0  0  0  0
  -28.1499  -28.5804   21.2857 H   0  0  0  0  0  0
  -25.8871  -25.7103   19.0144 H   0  0  0  0  0  0
  -24.0112  -27.2502   18.9534 H   0  0  0  0  0  0
  -23.8780  -30.5065   19.3845 H   0  0  0  0  0  0
  -22.8316  -29.1942   19.8281 H   0  0  0  0  0  0
  -25.1337  -36.1750   25.0788 H   0  0  0  0  0  0
  -21.0036  -28.3365   24.1309 H   0  0  0  0  0  0
  -20.5675  -26.2374   23.3647 H   0  0  0  0  0  0
  -21.6661  -26.7405   22.1213 H   0  0  0  0  0  0
  -19.6931  -25.6273   21.1278 H   0  0  0  0  0  0
  -19.6713  -27.3158   20.6722 H   0  0  0  0  0  0
  -17.4224  -26.6685   21.4026 H   0  0  0  0  0  0
  -18.0349  -26.0096   22.9030 H   0  0  0  0  0  0
  -19.7970  -30.7323   24.2195 H   0  0  0  0  0  0
  -17.5038  -31.6273   24.5165 H   0  0  0  0  0  0
  -15.5376  -30.2970   23.7696 H   0  0  0  0  0  0
  -15.8706  -28.0806   22.7107 H   0  0  0  0  0  0
  -24.5879  -30.7122   25.7651 H   0  0  0  0  0  0
  -24.8854  -32.2991   26.4640 H   0  0  0  0  0  0
  -25.7906  -30.9038   27.0207 H   0  0  0  0  0  0
  -26.3139  -29.6559   24.1433 H   0  0  0  0  0  0
  -27.3970  -29.7272   25.5110 H   0  0  0  0  0  0
  -27.9089  -30.4070   23.9880 H   0  0  0  0  0  0
  -27.2606  -33.3695   26.1941 H   0  0  0  0  0  0
  -28.3926  -32.6838   25.0379 H   0  0  0  0  0  0
  -28.0637  -31.8567   26.5527 H   0  0  0  0  0  0
  -28.2566  -38.0073   24.7514 H   0  0  0  0  0  0
  -28.1088  -36.2599   24.6293 H   0  0  0  0  0  0
  -27.2285  -37.1397   25.8868 H   0  0  0  0  0  0
  -20.9603  -29.8717   21.6642 H   0  0  0  0  0  0
  -26.0125  -38.2754   24.1416 H   0  0  0  0  0  0
  -29.3869  -19.9051   22.1465 H   0  0  0  0  0  0
  -28.4723  -16.4657   20.5412 H   0  0  0  0  0  0
  -29.5309  -16.7749   21.8321 H   0  0  0  0  0  0
  -28.9903  -22.7647   21.6619 H   0  0  0  0  0  0
  -30.0338  -22.9918   20.3312 H   0  0  0  0  0  0
  -27.0444  -23.9582   20.3972 H   0  0  0  0  0  0
  -27.9918  -24.0708   18.9709 H   0  0  0  0  0  0
  1 25  1  0  0  0
  1 30  2  0  0  0
  1 73  1  0  0  0
  2  3  1  0  0  0
  2 25  1  0  0  0
  2 79  1  0  0  0
  2 80  1  0  0  0
  3  4  1  0  0  0
  3 81  1  0  0  0
  3 82  1  0  0  0
  4  5  1  0  0  0
  4 83  1  0  0  0
  4 84  1  0  0  0
  5  6  1  0  0  0
  5 26  1  0  0  0
  5 85  1  0  0  0
  6 25  1  0  0  0
  6 86  1  0  0  0
  6 87  1  0  0  0
  7  8  2  0  0  0
  7 26  1  0  0  0
  7 29  1  0  0  0
  8  9  1  0  0  0
  8 22  1  0  0  0
  9 10  1  0  0  0
  9 27  2  0  0  0
 10 11  2  0  0  0
 10 15  1  0  0  0
 11 12  1  0  0  0
 11 88  1  0  0  0
 12 13  2  0  0  0
 12 89  1  0  0  0
 13 14  1  0  0  0
 13 31  1  0  0  0
 14 15  2  0  0  0
 14 90  1  0  0  0
 15 91  1  0  0  0
 16 17  2  0  0  0
 16 21  1  0  0  0
 16 31  1  0  0  0
 17 18  1  0  0  0
 17 92  1  0  0  0
 18 19  2  0  0  0
 18 93  1  0  0  0
 19 20  1  0  0  0
 19 24  1  0  0  0
 20 21  2  0  0  0
 20 94  1  0  0  0
 21 23  1  0  0  0
 22 28  1  0  0  0
 22 32  2  0  0  0
 26 27  1  0  0  0
 28 95  1  0  0  0
 28 96  1  0  0  0
 29 97  1  0  0  0
 29 98  1  0  0  0
 33 34  1  0  0  0
 33 66  1  0  0  0
 33 70  2  0  0  0
 34 36  1  0  0  0
 34 59  1  0  0  0
 34 99  1  0  0  0
 35 44  2  0  0  0
 35 45  1  0  0  0
 35 68  1  0  0  0
 36 56  1  0  0  0
 36100  1  0  0  0
 37 39  1  0  0  0
 37 47  1  0  0  0
 37 66  1  0  0  0
 37101  1  0  0  0
 38 43  2  0  0  0
 38 46  1  0  0  0
 38 47  1  0  0  0
 39 64  1  0  0  0
 39 67  2  0  0  0
 40 52  1  0  0  0
 40 53  2  0  0  0
 40 58  1  0  0  0
 41102  1  0  0  0
 41103  1  0  0  0
 41104  1  0  0  0
 41 48  1  0  0  0
 42 43  1  0  0  0
 42 66  1  0  0  0
 42105  1  0  0  0
 42106  1  0  0  0
 43 44  1  0  0  0
 44107  1  0  0  0
 45 46  2  0  0  0
 45108  1  0  0  0
 46109  1  0  0  0
 47110  1  0  0  0
 47111  1  0  0  0
 48 56  1  0  0  0
 48 65  1  0  0  0
 48112  1  0  0  0
 49 50  1  0  0  0
 49 53  1  0  0  0
 49 64  1  0  0  0
 49113  1  0  0  0
 50 51  1  0  0  0
 50114  1  0  0  0
 50115  1  0  0  0
 51 52  1  0  0  0
 51116  1  0  0  0
 51117  1  0  0  0
 52118  1  0  0  0
 52119  1  0  0  0
 53 54  1  0  0  0
 54 55  2  0  0  0
 54120  1  0  0  0
 55 57  1  0  0  0
 55121  1  0  0  0
 56 69  2  0  0  0
 57 58  2  0  0  0
 57122  1  0  0  0
 58123  1  0  0  0
 59 60  1  0  0  0
 59 61  1  0  0  0
 59 62  1  0  0  0
 60124  1  0  0  0
 60125  1  0  0  0
 60126  1  0  0  0
 61127  1  0  0  0
 61128  1  0  0  0
 61129  1  0  0  0
 62130  1  0  0  0
 62131  1  0  0  0
 62132  1  0  0  0
 63 65  1  0  0  0
 63133  1  0  0  0
 63134  1  0  0  0
 63135  1  0  0  0
 64136  1  0  0  0
 65137  1  0  0  0
 68 75  1  0  0  0
 71 72  2  0  0  0
 71 78  1  0  0  0
 71138  1  0  0  0
 72 73  1  0  0  0
 72 76  1  0  0  0
 73139  1  0  0  0
 73140  1  0  0  0
 74 75  1  0  0  0
 74 78  1  0  0  0
 74141  1  0  0  0
 74142  1  0  0  0
 75143  1  0  0  0
 75144  1  0  0  0
 76 77  2  0  0  0
 77 78  1  0  0  0
M  ISO  4   1 100  68 101  73 100  75 101
M  END
> <chiral flag>
0

> <version>
0

> <s_m_source_file>
/data/baiqing/PycharmProjects/Reinvent-master-3.2/result/LINK_invent/BTK/process_docking_weight1_custom_sum_contain_oxygen_bond_distance_aromatic_linkinvent_7_9_3/rearranged_h_0044.sdf

> <i_m_source_file_index>
90

> <r_mmod_Potential_Energy-OPLS-2005>
1402.99926757812

> <r_mmod_Stretch_Energy-OPLS-2005>
629.428527832031

> <r_mmod_Bend_Energy-OPLS-2005>
494.507202148438

> <r_mmod_Torsional_Energy-OPLS-2005>
190.350479125977

> <r_mmod_Improper_Torsional_Energy-OPLS-2005>
4.43445682525635

> <r_mmod_Van_der_Waal_Energy-OPLS-2005>
104.972854614258

> <r_mmod_Electrostatic_Energy-OPLS-2005>
-282.215484619141

> <r_mmod_Solvation_Energy-OPLS-2005>
-230.318313598633

> <b_mmod_Minimization_Converged-OPLS-2005>
0

> <r_mmod_RMS_Derivative-OPLS-2005>
0.0551949888467789

$$$$
90
                    3D
 Structure written by MMmdl.
149156  0  0  1  0            999 V2000
  -30.3365  -15.5523   20.3388 C   0  0  0  0  0  0
  -30.4269  -13.0207   19.5295 C   0  0  0  0  0  0
  -29.5441  -12.6375   18.3101 C   0  0  0  0  0  0
  -28.1108  -12.3012   18.7508 C   0  0  0  0  0  0
  -27.5969  -13.3016   19.8118 C   0  0  2  0  0  0
  -28.6202  -13.6025   20.9300 C   0  0  0  0  0  0
  -25.2323  -13.8278   20.5790 C   0  0  0  0  0  0
  -24.1709  -13.0432   20.9289 C   0  0  0  0  0  0
  -24.6405  -11.6941   20.8764 C   0  0  0  0  0  0
  -23.9106  -10.4291   21.0401 C   0  0  0  0  0  0
  -24.3643   -9.4204   21.9183 C   0  0  0  0  0  0
  -23.6307   -8.2243   22.0754 C   0  0  0  0  0  0
  -22.4288   -8.0284   21.3543 C   0  0  0  0  0  0
  -21.9931   -9.0258   20.4642 C   0  0  0  0  0  0
  -22.7273  -10.2131   20.3051 C   0  0  0  0  0  0
  -21.6858   -6.0736   22.5278 C   0  0  0  0  0  0
  -21.4021   -6.5638   23.8212 C   0  0  0  0  0  0
  -21.3664   -5.6791   24.9173 C   0  0  0  0  0  0
  -21.6046   -4.3054   24.7224 C   0  0  0  0  0  0
  -21.8818   -3.8146   23.4345 C   0  0  0  0  0  0
  -21.9195   -4.6962   22.3401 C   0  0  0  0  0  0
  -22.7721  -13.5162   21.1930 C   0  0  0  0  0  0
  -22.1662   -4.2148   21.0978 F   0  0  0  0  0  0
  -21.5627   -3.4538   25.7736 F   0  0  0  0  0  0
  -29.8035  -14.2001   20.2734 N   0  0  0  0  0  0
  -26.2769  -12.9599   20.3228 N   0  0  0  0  0  0
  -25.9348  -11.6675   20.5699 N   0  0  0  0  0  0
  -22.0391  -12.8132   22.0482 N   0  0  0  0  0  0
  -25.3915  -15.2020   20.4233 N   0  0  0  0  0  0
  -31.5729  -15.4990   20.2060 O   0  0  0  0  0  0
  -21.6649   -6.8881   21.4240 O   0  0  0  0  0  0
  -22.3393  -14.5464   20.6774 O   0  0  0  0  0  0
  -24.6813  -31.8046   23.1541 C   0  0  0  0  0  0
  -25.9407  -32.4493   23.8077 C   0  0  1  0  0  0
  -27.2254  -26.7393   20.1991 C   0  0  0  0  0  0
  -25.5998  -33.8316   24.1968 N   0  0  0  0  0  0
  -23.5046  -30.4092   21.5090 C   0  0  2  0  0  0
  -24.9590  -28.7604   20.1171 C   0  0  0  0  0  0
  -22.7754  -29.4343   22.4729 C   0  0  0  0  0  0
  -18.0340  -28.1419   22.8465 C   0  0  0  0  0  0
  -24.1494  -36.7164   23.2651 C   0  0  0  0  0  0
  -26.0849  -30.5513   21.4102 C   0  0  0  0  0  0
  -26.1511  -29.1212   20.7558 C   0  0  0  0  0  0
  -27.2702  -28.1392   20.7626 C   0  0  0  0  0  0
  -25.9851  -26.5719   19.5326 C   0  0  0  0  0  0
  -24.9127  -27.5090   19.4828 C   0  0  0  0  0  0
  -23.7547  -29.7118   20.1424 C   0  0  0  0  0  0
  -25.4145  -36.2913   24.0282 C   0  0  1  0  0  0
  -20.5975  -28.3778   23.1153 C   0  0  2  0  0  0
  -20.6811  -26.9441   22.5404 C   0  0  0  0  0  0
  -19.5782  -26.6375   21.5221 C   0  0  0  0  0  0
  -18.1963  -26.7950   22.1624 C   0  0  0  0  0  0
  -19.1605  -28.8922   23.2791 C   0  0  0  0  0  0
  -18.9508  -30.1509   23.8833 C   0  0  0  0  0  0
  -17.6496  -30.6603   24.0551 C   0  0  0  0  0  0
  -25.9124  -34.9301   23.4958 C   0  0  0  0  0  0
  -16.5388  -29.9083   23.6351 C   0  0  0  0  0  0
  -16.7318  -28.6504   23.0370 C   0  0  0  0  0  0
  -26.4589  -31.6512   25.0685 C   0  0  0  0  0  0
  -25.3658  -31.3822   26.1301 C   0  0  0  0  0  0
  -27.0508  -30.2853   24.6554 C   0  0  0  0  0  0
  -27.6039  -32.4369   25.7505 C   0  0  0  0  0  0
  -27.5565  -37.1741   24.8464 C   0  0  0  0  0  0
  -21.4405  -29.3034   22.3479 N   0  0  0  0  0  0
  -26.4273  -37.3671   23.9408 N   0  0  0  0  0  0
  -24.7805  -30.9527   22.0774 N   0  0  0  0  0  0
  -23.4216  -28.7940   23.3057 O   0  0  0  0  0  0
  -28.2029  -25.5424   20.2916 O   0  0  0  0  0  0
  -26.5758  -34.8872   22.4572 O   0  0  0  0  0  0
  -23.5840  -32.1105   23.6516 O   0  0  0  0  0  0
  -27.6134  -24.5772   17.4604 C   0  0  0  0  0  0
  -28.5056  -23.8027   18.4359 C   0  0  0  0  0  0
  -28.8134  -20.2730   20.1453 C   0  0  0  0  0  0
  -28.9302  -22.1656   20.4797 C   0  0  0  0  0  0
  -29.7880  -18.6493   20.4708 C   0  0  0  0  0  0
  -28.1292  -23.8290   19.9376 C   0  0  1  0  0  0
  -29.5776  -16.9009   20.3647 N   0  0  0  0  0  0
  -31.4259  -13.2719   19.1712 H   0  0  0  0  0  0
  -30.5670  -12.1648   20.1922 H   0  0  0  0  0  0
  -29.9796  -11.7970   17.7683 H   0  0  0  0  0  0
  -29.5200  -13.4756   17.6115 H   0  0  0  0  0  0
  -28.1198  -11.2957   19.1728 H   0  0  0  0  0  0
  -27.4406  -12.2710   17.8907 H   0  0  0  0  0  0
  -27.4675  -14.2332   19.2588 H   0  0  0  0  0  0
  -28.8632  -12.7106   21.5097 H   0  0  0  0  0  0
  -28.2053  -14.3255   21.6338 H   0  0  0  0  0  0
  -25.2781   -9.5679   22.4769 H   0  0  0  0  0  0
  -24.0011   -7.4633   22.7475 H   0  0  0  0  0  0
  -21.0863   -8.8780   19.8942 H   0  0  0  0  0  0
  -22.3731  -10.9671   19.6162 H   0  0  0  0  0  0
  -21.2018   -7.6148   23.9714 H   0  0  0  0  0  0
  -21.1486   -6.0522   25.9076 H   0  0  0  0  0  0
  -22.0594   -2.7606   23.2847 H   0  0  0  0  0  0
  -22.4032  -11.9797   22.4860 H   0  0  0  0  0  0
  -21.1000  -13.1122   22.2697 H   0  0  0  0  0  0
  -24.6185  -15.8491   20.5359 H   0  0  0  0  0  0
  -26.2296  -15.6453   20.0721 H   0  0  0  0  0  0
  -26.7485  -32.4978   23.0790 H   0  0  0  0  0  0
  -25.0072  -33.9367   25.0069 H   0  0  0  0  0  0
  -22.8281  -31.2463   21.3240 H   0  0  0  0  0  0
  -23.3778  -35.9471   23.3265 H   0  0  0  0  0  0
  -24.3563  -36.8874   22.2075 H   0  0  0  0  0  0
  -23.7232  -37.6322   23.6756 H   0  0  0  0  0  0
  -26.2842  -31.2814   20.6247 H   0  0  0  0  0  0
  -26.9365  -30.6157   22.0748 H   0  0  0  0  0  0
  -28.1691  -28.4237   21.2913 H   0  0  0  0  0  0
  -25.7877  -25.6136   19.0810 H   0  0  0  0  0  0
  -24.0053  -27.2161   18.9719 H   0  0  0  0  0  0
  -23.9257  -30.4745   19.3816 H   0  0  0  0  0  0
  -22.8596  -29.1770   19.8202 H   0  0  0  0  0  0
  -25.1352  -36.1681   25.0772 H   0  0  0  0  0  0
  -21.0060  -28.3399   24.1276 H   0  0  0  0  0  0
  -20.5688  -26.2398   23.3662 H   0  0  0  0  0  0
  -21.6670  -26.7396   22.1210 H   0  0  0  0  0  0
  -19.6937  -25.6268   21.1296 H   0  0  0  0  0  0
  -19.6723  -27.3149   20.6722 H   0  0  0  0  0  0
  -17.4236  -26.6704   21.4022 H   0  0  0  0  0  0
  -18.0343  -26.0104   22.9030 H   0  0  0  0  0  0
  -19.7980  -30.7350   24.2168 H   0  0  0  0  0  0
  -17.5041  -31.6276   24.5168 H   0  0  0  0  0  0
  -15.5383  -30.2959   23.7711 H   0  0  0  0  0  0
  -15.8723  -28.0798   22.7120 H   0  0  0  0  0  0
  -24.5872  -30.7142   25.7600 H   0  0  0  0  0  0
  -24.8816  -32.3041   26.4529 H   0  0  0  0  0  0
  -25.7839  -30.9119   27.0208 H   0  0  0  0  0  0
  -26.3209  -29.6483   24.1548 H   0  0  0  0  0  0
  -27.3946  -29.7286   25.5280 H   0  0  0  0  0  0
  -27.9187  -30.3982   24.0057 H   0  0  0  0  0  0
  -27.2578  -33.3742   26.1875 H   0  0  0  0  0  0
  -28.3953  -32.6821   25.0409 H   0  0  0  0  0  0
  -28.0587  -31.8639   26.5595 H   0  0  0  0  0  0
  -28.2549  -38.0067   24.7519 H   0  0  0  0  0  0
  -28.1095  -36.2591   24.6283 H   0  0  0  0  0  0
  -27.2281  -37.1365   25.8865 H   0  0  0  0  0  0
  -20.9699  -29.8693   21.6557 H   0  0  0  0  0  0
  -26.0103  -38.2719   24.1425 H   0  0  0  0  0  0
  -27.9336  -24.4016   16.4333 H   0  0  0  0  0  0
  -27.6716  -25.6514   17.6267 H   0  0  0  0  0  0
  -26.5739  -24.2579   17.5306 H   0  0  0  0  0  0
  -29.5348  -24.1464   18.3278 H   0  0  0  0  0  0
  -28.5083  -22.7663   18.0959 H   0  0  0  0  0  0
  -28.6682  -20.2384   19.0654 H   0  0  0  0  0  0
  -27.8231  -20.0342   20.5338 H   0  0  0  0  0  0
  -29.9892  -22.3603   20.3093 H   0  0  0  0  0  0
  -28.8448  -22.2113   21.5654 H   0  0  0  0  0  0
  -30.0883  -18.7548   21.5139 H   0  0  0  0  0  0
  -30.7221  -18.7994   19.9282 H   0  0  0  0  0  0
  -27.0619  -23.6231   20.0235 H   0  0  0  0  0  0
  -28.5900  -16.6866   20.3705 H   0  0  0  0  0  0
  1 25  1  0  0  0
  1 30  2  0  0  0
  1 77  1  0  0  0
  2  3  1  0  0  0
  2 25  1  0  0  0
  2 78  1  0  0  0
  2 79  1  0  0  0
  3  4  1  0  0  0
  3 80  1  0  0  0
  3 81  1  0  0  0
  4  5  1  0  0  0
  4 82  1  0  0  0
  4 83  1  0  0  0
  5  6  1  0  0  0
  5 26  1  0  0  0
  5 84  1  0  0  0
  6 25  1  0  0  0
  6 85  1  0  0  0
  6 86  1  0  0  0
  7  8  2  0  0  0
  7 26  1  0  0  0
  7 29  1  0  0  0
  8  9  1  0  0  0
  8 22  1  0  0  0
  9 10  1  0  0  0
  9 27  2  0  0  0
 10 11  2  0  0  0
 10 15  1  0  0  0
 11 12  1  0  0  0
 11 87  1  0  0  0
 12 13  2  0  0  0
 12 88  1  0  0  0
 13 14  1  0  0  0
 13 31  1  0  0  0
 14 15  2  0  0  0
 14 89  1  0  0  0
 15 90  1  0  0  0
 16 17  2  0  0  0
 16 21  1  0  0  0
 16 31  1  0  0  0
 17 18  1  0  0  0
 17 91  1  0  0  0
 18 19  2  0  0  0
 18 92  1  0  0  0
 19 20  1  0  0  0
 19 24  1  0  0  0
 20 21  2  0  0  0
 20 93  1  0  0  0
 21 23  1  0  0  0
 22 28  1  0  0  0
 22 32  2  0  0  0
 26 27  1  0  0  0
 28 94  1  0  0  0
 28 95  1  0  0  0
 29 96  1  0  0  0
 29 97  1  0  0  0
 33 34  1  0  0  0
 33 66  1  0  0  0
 33 70  2  0  0  0
 34 36  1  0  0  0
 34 59  1  0  0  0
 34 98  1  0  0  0
 35 44  2  0  0  0
 35 45  1  0  0  0
 35 68  1  0  0  0
 36 56  1  0  0  0
 36 99  1  0  0  0
 37 39  1  0  0  0
 37 47  1  0  0  0
 37 66  1  0  0  0
 37100  1  0  0  0
 38 43  2  0  0  0
 38 46  1  0  0  0
 38 47  1  0  0  0
 39 64  1  0  0  0
 39 67  2  0  0  0
 40 52  1  0  0  0
 40 53  2  0  0  0
 40 58  1  0  0  0
 41101  1  0  0  0
 41102  1  0  0  0
 41103  1  0  0  0
 41 48  1  0  0  0
 42 43  1  0  0  0
 42 66  1  0  0  0
 42104  1  0  0  0
 42105  1  0  0  0
 43 44  1  0  0  0
 44106  1  0  0  0
 45 46  2  0  0  0
 45107  1  0  0  0
 46108  1  0  0  0
 47109  1  0  0  0
 47110  1  0  0  0
 48 56  1  0  0  0
 48 65  1  0  0  0
 48111  1  0  0  0
 49 50  1  0  0  0
 49 53  1  0  0  0
 49 64  1  0  0  0
 49112  1  0  0  0
 50 51  1  0  0  0
 50113  1  0  0  0
 50114  1  0  0  0
 51 52  1  0  0  0
 51115  1  0  0  0
 51116  1  0  0  0
 52117  1  0  0  0
 52118  1  0  0  0
 53 54  1  0  0  0
 54 55  2  0  0  0
 54119  1  0  0  0
 55 57  1  0  0  0
 55120  1  0  0  0
 56 69  2  0  0  0
 57 58  2  0  0  0
 57121  1  0  0  0
 58122  1  0  0  0
 59 60  1  0  0  0
 59 61  1  0  0  0
 59 62  1  0  0  0
 60123  1  0  0  0
 60124  1  0  0  0
 60125  1  0  0  0
 61126  1  0  0  0
 61127  1  0  0  0
 61128  1  0  0  0
 62129  1  0  0  0
 62130  1  0  0  0
 62131  1  0  0  0
 63 65  1  0  0  0
 63132  1  0  0  0
 63133  1  0  0  0
 63134  1  0  0  0
 64135  1  0  0  0
 65136  1  0  0  0
 68 76  1  0  0  0
 71 72  1  0  0  0
 71137  1  0  0  0
 71138  1  0  0  0
 71139  1  0  0  0
 72140  1  0  0  0
 72141  1  0  0  0
 72 76  1  0  0  0
 73 74  1  0  0  0
 73 75  1  0  0  0
 73142  1  0  0  0
 73143  1  0  0  0
 74 76  1  0  0  0
 74144  1  0  0  0
 74145  1  0  0  0
 75 77  1  0  0  0
 75146  1  0  0  0
 75147  1  0  0  0
 76148  1  0  0  0
 77149  1  0  0  0
M  ISO  4   1 100  68 101  76 101  77 100
M  END
> <chiral flag>
0

> <version>
0

> <s_m_source_file>
/data/baiqing/PycharmProjects/Reinvent-master-3.2/result/LINK_invent/BTK/process_docking_weight1_custom_sum_contain_oxygen_bond_distance_aromatic_linkinvent_7_9_3/rearranged_h_0044.sdf

> <i_m_source_file_index>
91

> <r_mmod_Potential_Energy-OPLS-2005>
2271.90283203125

> <r_mmod_Stretch_Energy-OPLS-2005>
1098.70715332031

> <r_mmod_Bend_Energy-OPLS-2005>
619.745239257812

> <r_mmod_Torsional_Energy-OPLS-2005>
209.742446899414

> <r_mmod_Improper_Torsional_Energy-OPLS-2005>
3.95253992080688

> <r_mmod_Van_der_Waal_Energy-OPLS-2005>
111.772476196289

> <r_mmod_Electrostatic_Energy-OPLS-2005>
-360.842498779297

> <r_mmod_Solvation_Energy-OPLS-2005>
-210.654403686523

> <b_mmod_Minimization_Converged-OPLS-2005>
0

> <r_mmod_RMS_Derivative-OPLS-2005>
0.596448540687561

$$$$
91
                    3D
 Structure written by MMmdl.
158166  0  0  1  0            999 V2000
  -30.6529  -14.6028   20.5819 C   0  0  0  0  0  0
  -30.4163  -12.3907   19.4479 C   0  0  0  0  0  0
  -29.4854  -12.5200   18.2205 C   0  0  0  0  0  0
  -28.0190  -12.3421   18.6522 C   0  0  0  0  0  0
  -27.6531  -13.2139   19.8811 C   0  0  2  0  0  0
  -28.6956  -13.0612   21.0115 C   0  0  0  0  0  0
  -25.2588  -13.8158   20.5776 C   0  0  0  0  0  0
  -24.1843  -13.0450   20.9197 C   0  0  0  0  0  0
  -24.6389  -11.6895   20.8746 C   0  0  0  0  0  0
  -23.9066  -10.4295   21.0408 C   0  0  0  0  0  0
  -24.3606   -9.4205   21.9176 C   0  0  0  0  0  0
  -23.6291   -8.2241   22.0755 C   0  0  0  0  0  0
  -22.4275   -8.0275   21.3548 C   0  0  0  0  0  0
  -21.9916   -9.0244   20.4633 C   0  0  0  0  0  0
  -22.7244  -10.2123   20.3052 C   0  0  0  0  0  0
  -21.6846   -6.0731   22.5267 C   0  0  0  0  0  0
  -21.4009   -6.5637   23.8196 C   0  0  0  0  0  0
  -21.3671   -5.6791   24.9157 C   0  0  0  0  0  0
  -21.6050   -4.3062   24.7204 C   0  0  0  0  0  0
  -21.8825   -3.8152   23.4330 C   0  0  0  0  0  0
  -21.9192   -4.6960   22.3392 C   0  0  0  0  0  0
  -22.7870  -13.5221   21.1863 C   0  0  0  0  0  0
  -22.1668   -4.2159   21.0971 F   0  0  0  0  0  0
  -21.5631   -3.4553   25.7711 F   0  0  0  0  0  0
  -30.0040  -13.4047   20.4440 N   0  0  0  0  0  0
  -26.3009  -12.9342   20.3467 N   0  0  0  0  0  0
  -25.9335  -11.6477   20.5838 N   0  0  0  0  0  0
  -22.0553  -12.8181   22.0403 N   0  0  0  0  0  0
  -25.4397  -15.1891   20.4233 N   0  0  0  0  0  0
  -31.7810  -14.7701   20.1146 O   0  0  0  0  0  0
  -21.6647   -6.8870   21.4223 O   0  0  0  0  0  0
  -22.3546  -14.5554   20.6741 O   0  0  0  0  0  0
  -24.6292  -31.8557   23.2060 C   0  0  0  0  0  0
  -25.9125  -32.4757   23.8387 C   0  0  1  0  0  0
  -27.2011  -27.2870   20.1168 C   0  0  0  0  0  0
  -25.5946  -33.8569   24.2283 N   0  0  0  0  0  0
  -23.4244  -30.4859   21.5449 C   0  0  2  0  0  0
  -24.8716  -28.9582   20.0990 C   0  0  0  0  0  0
  -22.7512  -29.4585   22.4890 C   0  0  0  0  0  0
  -18.0299  -28.1378   22.8474 C   0  0  0  0  0  0
  -24.1478  -36.7268   23.2642 C   0  0  0  0  0  0
  -25.9744  -30.7709   21.3942 C   0  0  0  0  0  0
  -26.0415  -29.4038   20.7255 C   0  0  0  0  0  0
  -27.2109  -28.5787   20.7316 C   0  0  0  0  0  0
  -26.0116  -26.9256   19.4377 C   0  0  0  0  0  0
  -24.8648  -27.7302   19.4345 C   0  0  0  0  0  0
  -23.6432  -29.8403   20.1547 C   0  0  0  0  0  0
  -25.4107  -36.3058   24.0335 C   0  0  1  0  0  0
  -20.5907  -28.3673   23.1266 C   0  0  2  0  0  0
  -20.6797  -26.9394   22.5407 C   0  0  0  0  0  0
  -19.5769  -26.6360   21.5221 C   0  0  0  0  0  0
  -18.1930  -26.7927   22.1601 C   0  0  0  0  0  0
  -19.1553  -28.8848   23.2851 C   0  0  0  0  0  0
  -18.9480  -30.1449   23.8870 C   0  0  0  0  0  0
  -17.6491  -30.6578   24.0577 C   0  0  0  0  0  0
  -25.9050  -34.9432   23.5096 C   0  0  0  0  0  0
  -16.5381  -29.9077   23.6366 C   0  0  0  0  0  0
  -16.7293  -28.6507   23.0354 C   0  0  0  0  0  0
  -26.4514  -31.6591   25.0756 C   0  0  0  0  0  0
  -25.3735  -31.3733   26.1458 C   0  0  0  0  0  0
  -27.0405  -30.3024   24.6238 C   0  0  0  0  0  0
  -27.6032  -32.4394   25.7526 C   0  0  0  0  0  0
  -27.5581  -37.1771   24.8471 C   0  0  0  0  0  0
  -21.4214  -29.3029   22.3657 N   0  0  0  0  0  0
  -26.4284  -37.3748   23.9426 N   0  0  0  0  0  0
  -24.6935  -31.0559   22.1019 N   0  0  0  0  0  0
  -23.4235  -28.8083   23.2938 O   0  0  0  0  0  0
  -28.2656  -26.3635   20.1985 O   0  0  0  0  0  0
  -26.5592  -34.8900   22.4653 O   0  0  0  0  0  0
  -23.5439  -32.1391   23.7356 O   0  0  0  0  0  0
  -29.3388  -23.4361   21.5873 C   0  0  0  0  0  0
  -29.8722  -22.1485   21.9021 C   0  0  0  0  0  0
  -29.8038  -21.0824   20.9508 C   0  0  0  0  0  0
  -28.7577  -23.6862   20.3248 C   0  0  0  0  0  0
  -29.2402  -21.4403   19.7003 C   0  0  0  0  0  0
  -30.5340  -21.9489   23.2565 C   0  0  0  0  0  0
  -29.1824  -20.4268   18.5754 C   0  0  0  0  0  0
  -30.4796  -19.6692   21.1956 C   0  0  0  0  0  0
  -27.8666  -24.9409   19.9959 C   0  0  0  0  0  0
  -29.6916  -18.2814   21.0853 C   0  0  0  0  0  0
  -30.5169  -16.9989   21.5118 C   0  0  0  0  0  0
  -28.7388  -22.6765   19.4093 N   0  0  0  0  0  0
  -29.9681  -15.6402   21.1574 N   0  0  0  0  0  0
  -31.4628  -12.4950   19.1510 H   0  0  0  0  0  0
  -30.3199  -11.3912   19.8765 H   0  0  0  0  0  0
  -29.7407  -11.7724   17.4689 H   0  0  0  0  0  0
  -29.6163  -13.4942   17.7424 H   0  0  0  0  0  0
  -27.8794  -11.2877   18.8958 H   0  0  0  0  0  0
  -27.3407  -12.5523   17.8244 H   0  0  0  0  0  0
  -27.6780  -14.2525   19.5485 H   0  0  0  0  0  0
  -28.7164  -12.0394   21.3944 H   0  0  0  0  0  0
  -28.4436  -13.6886   21.8675 H   0  0  0  0  0  0
  -25.2732   -9.5677   22.4757 H   0  0  0  0  0  0
  -24.0000   -7.4637   22.7497 H   0  0  0  0  0  0
  -21.0855   -8.8762   19.8931 H   0  0  0  0  0  0
  -22.3711  -10.9663   19.6179 H   0  0  0  0  0  0
  -21.2011   -7.6140   23.9691 H   0  0  0  0  0  0
  -21.1494   -6.0524   25.9050 H   0  0  0  0  0  0
  -22.0598   -2.7613   23.2820 H   0  0  0  0  0  0
  -22.4219  -11.9786   22.4646 H   0  0  0  0  0  0
  -21.1209  -13.1197   22.2757 H   0  0  0  0  0  0
  -24.6816  -15.8524   20.5342 H   0  0  0  0  0  0
  -26.3085  -15.6246   20.1396 H   0  0  0  0  0  0
  -26.7163  -32.5391   23.1112 H   0  0  0  0  0  0
  -25.0220  -33.9755   25.0511 H   0  0  0  0  0  0
  -22.7154  -31.3025   21.4044 H   0  0  0  0  0  0
  -23.3748  -35.9593   23.3293 H   0  0  0  0  0  0
  -24.3577  -36.8902   22.2056 H   0  0  0  0  0  0
  -23.7246  -37.6471   23.6687 H   0  0  0  0  0  0
  -26.1237  -31.5303   20.6264 H   0  0  0  0  0  0
  -26.8502  -30.8082   22.0321 H   0  0  0  0  0  0
  -28.0962  -28.9019   21.2603 H   0  0  0  0  0  0
  -25.9026  -25.9956   18.9046 H   0  0  0  0  0  0
  -23.9802  -27.3964   18.9078 H   0  0  0  0  0  0
  -23.7665  -30.6217   19.4044 H   0  0  0  0  0  0
  -22.7660  -29.2706   19.8436 H   0  0  0  0  0  0
  -25.1279  -36.1899   25.0834 H   0  0  0  0  0  0
  -20.9995  -28.3246   24.1389 H   0  0  0  0  0  0
  -20.5719  -26.2279   23.3592 H   0  0  0  0  0  0
  -21.6652  -26.7416   22.1176 H   0  0  0  0  0  0
  -19.6920  -25.6260   21.1247 H   0  0  0  0  0  0
  -19.6725  -27.3175   20.6746 H   0  0  0  0  0  0
  -17.4217  -26.6739   21.3956 H   0  0  0  0  0  0
  -18.0254  -26.0046   22.8951 H   0  0  0  0  0  0
  -19.7961  -30.7273   24.2211 H   0  0  0  0  0  0
  -17.5045  -31.6261   24.5160 H   0  0  0  0  0  0
  -15.5377  -30.2970   23.7704 H   0  0  0  0  0  0
  -15.8693  -28.0846   22.7068 H   0  0  0  0  0  0
  -24.6070  -30.6870   25.7840 H   0  0  0  0  0  0
  -24.8729  -32.2859   26.4673 H   0  0  0  0  0  0
  -25.8064  -30.9149   27.0351 H   0  0  0  0  0  0
  -26.3000  -29.6713   24.1296 H   0  0  0  0  0  0
  -27.4168  -29.7331   25.4746 H   0  0  0  0  0  0
  -27.8815  -30.4348   23.9441 H   0  0  0  0  0  0
  -27.2649  -33.3789   26.1927 H   0  0  0  0  0  0
  -28.3910  -32.6819   25.0378 H   0  0  0  0  0  0
  -28.0601  -31.8642   26.5588 H   0  0  0  0  0  0
  -28.2544  -38.0097   24.7547 H   0  0  0  0  0  0
  -28.1127  -36.2640   24.6269 H   0  0  0  0  0  0
  -27.2305  -37.1382   25.8866 H   0  0  0  0  0  0
  -20.9392  -29.8837   21.6941 H   0  0  0  0  0  0
  -26.0148  -38.2813   24.1461 H   0  0  0  0  0  0
  -29.3410  -24.2352   22.3166 H   0  0  0  0  0  0
  -30.4747  -22.8465   23.8711 H   0  0  0  0  0  0
  -31.5905  -21.7112   23.1250 H   0  0  0  0  0  0
  -30.0677  -21.1317   23.8090 H   0  0  0  0  0  0
  -28.5862  -19.5753   18.8877 H   0  0  0  0  0  0
  -30.1860  -20.0890   18.3088 H   0  0  0  0  0  0
  -28.6966  -20.8100   17.6815 H   0  0  0  0  0  0
  -30.9844  -19.6753   22.1602 H   0  0  0  0  0  0
  -31.3043  -19.6269   20.4837 H   0  0  0  0  0  0
  -26.9491  -24.7620   20.5669 H   0  0  0  0  0  0
  -27.6067  -24.8342   18.9395 H   0  0  0  0  0  0
  -29.4087  -18.0875   20.0563 H   0  0  0  0  0  0
  -28.7606  -18.3333   21.6570 H   0  0  0  0  0  0
  -30.6490  -17.0189   22.5987 H   0  0  0  0  0  0
  -31.5184  -17.0993   21.0872 H   0  0  0  0  0  0
  -29.0272  -15.4334   21.4673 H   0  0  0  0  0  0
  1 25  1  0  0  0
  1 30  2  0  0  0
  1 83  1  0  0  0
  2  3  1  0  0  0
  2 25  1  0  0  0
  2 84  1  0  0  0
  2 85  1  0  0  0
  3  4  1  0  0  0
  3 86  1  0  0  0
  3 87  1  0  0  0
  4  5  1  0  0  0
  4 88  1  0  0  0
  4 89  1  0  0  0
  5  6  1  0  0  0
  5 26  1  0  0  0
  5 90  1  0  0  0
  6 25  1  0  0  0
  6 91  1  0  0  0
  6 92  1  0  0  0
  7  8  2  0  0  0
  7 26  1  0  0  0
  7 29  1  0  0  0
  8  9  1  0  0  0
  8 22  1  0  0  0
  9 10  1  0  0  0
  9 27  2  0  0  0
 10 11  2  0  0  0
 10 15  1  0  0  0
 11 12  1  0  0  0
 11 93  1  0  0  0
 12 13  2  0  0  0
 12 94  1  0  0  0
 13 14  1  0  0  0
 13 31  1  0  0  0
 14 15  2  0  0  0
 14 95  1  0  0  0
 15 96  1  0  0  0
 16 17  2  0  0  0
 16 21  1  0  0  0
 16 31  1  0  0  0
 17 18  1  0  0  0
 17 97  1  0  0  0
 18 19  2  0  0  0
 18 98  1  0  0  0
 19 20  1  0  0  0
 19 24  1  0  0  0
 20 21  2  0  0  0
 20 99  1  0  0  0
 21 23  1  0  0  0
 22 28  1  0  0  0
 22 32  2  0  0  0
 26 27  1  0  0  0
 28100  1  0  0  0
 28101  1  0  0  0
 29102  1  0  0  0
 29103  1  0  0  0
 33 34  1  0  0  0
 33 66  1  0  0  0
 33 70  2  0  0  0
 34 36  1  0  0  0
 34 59  1  0  0  0
 34104  1  0  0  0
 35 44  2  0  0  0
 35 45  1  0  0  0
 35 68  1  0  0  0
 36 56  1  0  0  0
 36105  1  0  0  0
 37 39  1  0  0  0
 37 47  1  0  0  0
 37 66  1  0  0  0
 37106  1  0  0  0
 38 43  2  0  0  0
 38 46  1  0  0  0
 38 47  1  0  0  0
 39 64  1  0  0  0
 39 67  2  0  0  0
 40 52  1  0  0  0
 40 53  2  0  0  0
 40 58  1  0  0  0
 41107  1  0  0  0
 41108  1  0  0  0
 41109  1  0  0  0
 41 48  1  0  0  0
 42 43  1  0  0  0
 42 66  1  0  0  0
 42110  1  0  0  0
 42111  1  0  0  0
 43 44  1  0  0  0
 44112  1  0  0  0
 45 46  2  0  0  0
 45113  1  0  0  0
 46114  1  0  0  0
 47115  1  0  0  0
 47116  1  0  0  0
 48 56  1  0  0  0
 48 65  1  0  0  0
 48117  1  0  0  0
 49 50  1  0  0  0
 49 53  1  0  0  0
 49 64  1  0  0  0
 49118  1  0  0  0
 50 51  1  0  0  0
 50119  1  0  0  0
 50120  1  0  0  0
 51 52  1  0  0  0
 51121  1  0  0  0
 51122  1  0  0  0
 52123  1  0  0  0
 52124  1  0  0  0
 53 54  1  0  0  0
 54 55  2  0  0  0
 54125  1  0  0  0
 55 57  1  0  0  0
 55126  1  0  0  0
 56 69  2  0  0  0
 57 58  2  0  0  0
 57127  1  0  0  0
 58128  1  0  0  0
 59 60  1  0  0  0
 59 61  1  0  0  0
 59 62  1  0  0  0
 60129  1  0  0  0
 60130  1  0  0  0
 60131  1  0  0  0
 61132  1  0  0  0
 61133  1  0  0  0
 61134  1  0  0  0
 62135  1  0  0  0
 62136  1  0  0  0
 62137  1  0  0  0
 63 65  1  0  0  0
 63138  1  0  0  0
 63139  1  0  0  0
 63140  1  0  0  0
 64141  1  0  0  0
 65142  1  0  0  0
 68 79  1  0  0  0
 71 72  2  0  0  0
 71 74  1  0  0  0
 71143  1  0  0  0
 72 73  1  0  0  0
 72 76  1  0  0  0
 73 75  2  0  0  0
 73 78  1  0  0  0
 74 79  1  0  0  0
 74 82  2  0  0  0
 75 77  1  0  0  0
 75 82  1  0  0  0
 76144  1  0  0  0
 76145  1  0  0  0
 76146  1  0  0  0
 77147  1  0  0  0
 77148  1  0  0  0
 77149  1  0  0  0
 78 80  1  0  0  0
 78150  1  0  0  0
 78151  1  0  0  0
 79152  1  0  0  0
 79153  1  0  0  0
 80 81  1  0  0  0
 80154  1  0  0  0
 80155  1  0  0  0
 81 83  1  0  0  0
 81156  1  0  0  0
 81157  1  0  0  0
 83158  1  0  0  0
M  ISO  4   1 100  68 101  79 101  83 100
M  END
> <chiral flag>
0

> <version>
0

> <s_m_source_file>
/data/baiqing/PycharmProjects/Reinvent-master-3.2/result/LINK_invent/BTK/process_docking_weight1_custom_sum_contain_oxygen_bond_distance_aromatic_linkinvent_7_9_3/rearranged_h_0044.sdf

> <i_m_source_file_index>
92

> <r_mmod_Potential_Energy-OPLS-2005>
-51.4845199584961

> <r_mmod_Stretch_Energy-OPLS-2005>
84.2181549072266

> <r_mmod_Bend_Energy-OPLS-2005>
146.872619628906

> <r_mmod_Torsional_Energy-OPLS-2005>
206.281311035156

> <r_mmod_Improper_Torsional_Energy-OPLS-2005>
4.78259468078613

> <r_mmod_Van_der_Waal_Energy-OPLS-2005>
165.892883300781

> <r_mmod_Electrostatic_Energy-OPLS-2005>
-492.489013671875

> <r_mmod_Solvation_Energy-OPLS-2005>
-224.184204101562

> <b_mmod_Minimization_Converged-OPLS-2005>
0

> <r_mmod_RMS_Derivative-OPLS-2005>
6.37439012527466

$$$$
92
                    3D
 Structure written by MMmdl.
159167  0  0  1  0            999 V2000
  -30.7037  -14.5089   20.5939 C   0  0  0  0  0  0
  -30.4304  -12.3368   19.4342 C   0  0  0  0  0  0
  -29.5027  -12.5235   18.2158 C   0  0  0  0  0  0
  -28.0250  -12.3707   18.6251 C   0  0  0  0  0  0
  -27.6625  -13.2145   19.8761 C   0  0  2  0  0  0
  -28.7051  -13.0110   20.9995 C   0  0  0  0  0  0
  -25.2581  -13.8172   20.5698 C   0  0  0  0  0  0
  -24.1835  -13.0440   20.9175 C   0  0  0  0  0  0
  -24.6398  -11.6906   20.8720 C   0  0  0  0  0  0
  -23.9065  -10.4291   21.0392 C   0  0  0  0  0  0
  -24.3615   -9.4210   21.9168 C   0  0  0  0  0  0
  -23.6300   -8.2237   22.0740 C   0  0  0  0  0  0
  -22.4280   -8.0275   21.3536 C   0  0  0  0  0  0
  -21.9904   -9.0252   20.4637 C   0  0  0  0  0  0
  -22.7230  -10.2130   20.3045 C   0  0  0  0  0  0
  -21.6850   -6.0737   22.5287 C   0  0  0  0  0  0
  -21.4018   -6.5635   23.8221 C   0  0  0  0  0  0
  -21.3663   -5.6785   24.9181 C   0  0  0  0  0  0
  -21.6045   -4.3053   24.7229 C   0  0  0  0  0  0
  -21.8817   -3.8143   23.4346 C   0  0  0  0  0  0
  -21.9192   -4.6962   22.3410 C   0  0  0  0  0  0
  -22.7854  -13.5227   21.1847 C   0  0  0  0  0  0
  -22.1658   -4.2153   21.0989 F   0  0  0  0  0  0
  -21.5630   -3.4534   25.7735 F   0  0  0  0  0  0
  -30.0368  -13.3254   20.4529 N   0  0  0  0  0  0
  -26.3031  -12.9357   20.3376 N   0  0  0  0  0  0
  -25.9327  -11.6502   20.5746 N   0  0  0  0  0  0
  -22.0499  -12.8230   22.0417 N   0  0  0  0  0  0
  -25.4269  -15.1902   20.4125 N   0  0  0  0  0  0
  -31.8149  -14.7088   20.0980 O   0  0  0  0  0  0
  -21.6630   -6.8880   21.4245 O   0  0  0  0  0  0
  -22.3532  -14.5534   20.6695 O   0  0  0  0  0  0
  -24.6197  -31.8658   23.2107 C   0  0  0  0  0  0
  -25.9060  -32.4810   23.8421 C   0  0  1  0  0  0
  -27.2306  -27.3855   20.0953 C   0  0  0  0  0  0
  -25.5895  -33.8614   24.2330 N   0  0  0  0  0  0
  -23.4094  -30.4924   21.5506 C   0  0  2  0  0  0
  -24.8555  -28.9593   20.1120 C   0  0  0  0  0  0
  -22.7431  -29.4654   22.4963 C   0  0  0  0  0  0
  -18.0280  -28.1369   22.8479 C   0  0  0  0  0  0
  -24.1476  -36.7333   23.2634 C   0  0  0  0  0  0
  -25.9456  -30.8128   21.3765 C   0  0  0  0  0  0
  -26.0203  -29.4454   20.7191 C   0  0  0  0  0  0
  -27.2073  -28.6662   20.7113 C   0  0  0  0  0  0
  -26.0412  -26.9432   19.4612 C   0  0  0  0  0  0
  -24.8642  -27.7087   19.4779 C   0  0  0  0  0  0
  -23.6218  -29.8321   20.1634 C   0  0  0  0  0  0
  -25.4096  -36.3116   24.0336 C   0  0  1  0  0  0
  -20.5875  -28.3676   23.1292 C   0  0  2  0  0  0
  -20.6771  -26.9410   22.5396 C   0  0  0  0  0  0
  -19.5754  -26.6382   21.5184 C   0  0  0  0  0  0
  -18.1933  -26.7916   22.1606 C   0  0  0  0  0  0
  -19.1529  -28.8832   23.2888 C   0  0  0  0  0  0
  -18.9462  -30.1445   23.8900 C   0  0  0  0  0  0
  -17.6456  -30.6573   24.0556 C   0  0  0  0  0  0
  -25.9035  -34.9475   23.5135 C   0  0  0  0  0  0
  -16.5356  -29.9074   23.6326 C   0  0  0  0  0  0
  -16.7268  -28.6494   23.0339 C   0  0  0  0  0  0
  -26.4463  -31.6602   25.0774 C   0  0  0  0  0  0
  -25.3717  -31.3719   26.1518 C   0  0  0  0  0  0
  -27.0280  -30.3034   24.6182 C   0  0  0  0  0  0
  -27.6051  -32.4315   25.7526 C   0  0  0  0  0  0
  -27.5579  -37.1819   24.8452 C   0  0  0  0  0  0
  -21.4155  -29.3043   22.3690 N   0  0  0  0  0  0
  -26.4281  -37.3807   23.9413 N   0  0  0  0  0  0
  -24.6763  -31.0718   22.1034 N   0  0  0  0  0  0
  -23.4181  -28.8192   23.3022 O   0  0  0  0  0  0
  -28.3792  -26.5932   20.1396 O   0  0  0  0  0  0
  -26.5613  -34.8934   22.4707 O   0  0  0  0  0  0
  -23.5377  -32.1430   23.7467 O   0  0  0  0  0  0
  -30.7824  -21.3379   20.5995 C   0  0  0  0  0  0
  -29.9341  -19.3563   20.3246 C   0  0  0  0  0  0
  -29.0773  -20.2930   19.7648 C   0  0  0  0  0  0
  -27.8056  -20.0690   19.0012 C   0  0  0  0  0  0
  -29.7353  -22.9375   17.8846 C   0  0  0  0  0  0
  -29.8597  -17.8285   20.1950 C   0  0  0  0  0  0
  -29.3535  -24.1703   20.1017 C   0  0  0  0  0  0
  -30.4006  -16.9340   21.3512 C   0  0  0  0  0  0
  -28.2290  -25.2011   19.7518 C   0  0  0  0  0  0
  -29.1580  -22.8288   19.3082 C   0  0  2  0  0  0
  -31.0292  -20.0466   20.8531 N   0  0  0  0  0  0
  -29.6462  -21.5696   19.9216 N   0  0  0  0  0  0
  -30.0230  -15.5021   21.2079 N   0  0  0  0  0  0
  -31.4758  -12.4387   19.1381 H   0  0  0  0  0  0
  -30.3373  -11.3258   19.8335 H   0  0  0  0  0  0
  -29.7529  -11.8028   17.4365 H   0  0  0  0  0  0
  -29.6635  -13.5134   17.7834 H   0  0  0  0  0  0
  -27.8471  -11.3136   18.8268 H   0  0  0  0  0  0
  -27.3723  -12.6332   17.7914 H   0  0  0  0  0  0
  -27.7017  -14.2613   19.5701 H   0  0  0  0  0  0
  -28.6859  -11.9764   21.3474 H   0  0  0  0  0  0
  -28.4564  -13.6135   21.8730 H   0  0  0  0  0  0
  -25.2765   -9.5692   22.4739 H   0  0  0  0  0  0
  -24.0021   -7.4623   22.7450 H   0  0  0  0  0  0
  -21.0828   -8.8758   19.8954 H   0  0  0  0  0  0
  -22.3677  -10.9659   19.6151 H   0  0  0  0  0  0
  -21.2004   -7.6142   23.9739 H   0  0  0  0  0  0
  -21.1494   -6.0506   25.9092 H   0  0  0  0  0  0
  -22.0591   -2.7603   23.2842 H   0  0  0  0  0  0
  -22.4080  -11.9892   22.4845 H   0  0  0  0  0  0
  -21.1113  -13.1257   22.2607 H   0  0  0  0  0  0
  -24.6568  -15.8416   20.5215 H   0  0  0  0  0  0
  -26.2823  -15.6367   20.1086 H   0  0  0  0  0  0
  -26.7133  -32.5504   23.1183 H   0  0  0  0  0  0
  -24.9982  -33.9769   25.0431 H   0  0  0  0  0  0
  -22.7023  -31.3128   21.4114 H   0  0  0  0  0  0
  -23.3742  -35.9659   23.3270 H   0  0  0  0  0  0
  -24.3577  -36.8984   22.2056 H   0  0  0  0  0  0
  -23.7218  -37.6530   23.6667 H   0  0  0  0  0  0
  -26.0704  -31.5775   20.6092 H   0  0  0  0  0  0
  -26.8303  -30.8619   21.9998 H   0  0  0  0  0  0
  -28.0998  -29.0322   21.2004 H   0  0  0  0  0  0
  -25.9848  -25.9998   18.9396 H   0  0  0  0  0  0
  -23.9751  -27.3319   18.9898 H   0  0  0  0  0  0
  -23.7413  -30.6099   19.4082 H   0  0  0  0  0  0
  -22.7434  -29.2604   19.8594 H   0  0  0  0  0  0
  -25.1264  -36.1984   25.0830 H   0  0  0  0  0  0
  -20.9981  -28.3243   24.1410 H   0  0  0  0  0  0
  -20.5643  -26.2296   23.3589 H   0  0  0  0  0  0
  -21.6649  -26.7427   22.1214 H   0  0  0  0  0  0
  -19.6918  -25.6288   21.1222 H   0  0  0  0  0  0
  -19.6690  -27.3187   20.6708 H   0  0  0  0  0  0
  -17.4203  -26.6658   21.4013 H   0  0  0  0  0  0
  -18.0360  -26.0049   22.8998 H   0  0  0  0  0  0
  -19.7936  -30.7249   24.2284 H   0  0  0  0  0  0
  -17.5013  -31.6252   24.5157 H   0  0  0  0  0  0
  -15.5353  -30.2968   23.7635 H   0  0  0  0  0  0
  -15.8679  -28.0800   22.7050 H   0  0  0  0  0  0
  -24.5886  -30.7063   25.7863 H   0  0  0  0  0  0
  -24.8909  -32.2871   26.4990 H   0  0  0  0  0  0
  -25.8073  -30.8879   27.0266 H   0  0  0  0  0  0
  -26.2832  -29.6835   24.1175 H   0  0  0  0  0  0
  -27.3950  -29.7253   25.4672 H   0  0  0  0  0  0
  -27.8722  -30.4345   23.9409 H   0  0  0  0  0  0
  -27.2686  -33.3607   26.2141 H   0  0  0  0  0  0
  -28.3839  -32.6881   25.0331 H   0  0  0  0  0  0
  -28.0730  -31.8404   26.5408 H   0  0  0  0  0  0
  -28.2583  -38.0132   24.7526 H   0  0  0  0  0  0
  -28.1088  -36.2669   24.6221 H   0  0  0  0  0  0
  -27.2317  -37.1415   25.8861 H   0  0  0  0  0  0
  -20.9318  -29.8794   21.6934 H   0  0  0  0  0  0
  -26.0170  -38.2882   24.1436 H   0  0  0  0  0  0
  -31.4787  -22.1262   20.8536 H   0  0  0  0  0  0
  -27.4714  -19.0352   19.0610 H   0  0  0  0  0  0
  -27.9399  -20.3049   17.9454 H   0  0  0  0  0  0
  -26.9979  -20.6902   19.3867 H   0  0  0  0  0  0
  -29.3540  -23.8091   17.3531 H   0  0  0  0  0  0
  -29.4788  -22.0636   17.2861 H   0  0  0  0  0  0
  -30.8234  -23.0149   17.9011 H   0  0  0  0  0  0
  -30.3563  -17.5305   19.2716 H   0  0  0  0  0  0
  -28.8158  -17.5494   20.0570 H   0  0  0  0  0  0
  -29.3386  -23.9793   21.1750 H   0  0  0  0  0  0
  -30.3337  -24.5930   19.8795 H   0  0  0  0  0  0
  -30.0007  -17.2903   22.3014 H   0  0  0  0  0  0
  -31.4845  -17.0333   21.4276 H   0  0  0  0  0  0
  -27.3224  -24.8037   20.2116 H   0  0  0  0  0  0
  -28.0724  -25.1916   18.6733 H   0  0  0  0  0  0
  -28.0802  -22.7080   19.2064 H   0  0  0  0  0  0
  -29.1258  -15.2373   21.5872 H   0  0  0  0  0  0
  1 25  1  0  0  0
  1 30  2  0  0  0
  1 83  1  0  0  0
  2  3  1  0  0  0
  2 25  1  0  0  0
  2 84  1  0  0  0
  2 85  1  0  0  0
  3  4  1  0  0  0
  3 86  1  0  0  0
  3 87  1  0  0  0
  4  5  1  0  0  0
  4 88  1  0  0  0
  4 89  1  0  0  0
  5  6  1  0  0  0
  5 26  1  0  0  0
  5 90  1  0  0  0
  6 25  1  0  0  0
  6 91  1  0  0  0
  6 92  1  0  0  0
  7  8  2  0  0  0
  7 26  1  0  0  0
  7 29  1  0  0  0
  8  9  1  0  0  0
  8 22  1  0  0  0
  9 10  1  0  0  0
  9 27  2  0  0  0
 10 11  2  0  0  0
 10 15  1  0  0  0
 11 12  1  0  0  0
 11 93  1  0  0  0
 12 13  2  0  0  0
 12 94  1  0  0  0
 13 14  1  0  0  0
 13 31  1  0  0  0
 14 15  2  0  0  0
 14 95  1  0  0  0
 15 96  1  0  0  0
 16 17  2  0  0  0
 16 21  1  0  0  0
 16 31  1  0  0  0
 17 18  1  0  0  0
 17 97  1  0  0  0
 18 19  2  0  0  0
 18 98  1  0  0  0
 19 20  1  0  0  0
 19 24  1  0  0  0
 20 21  2  0  0  0
 20 99  1  0  0  0
 21 23  1  0  0  0
 22 28  1  0  0  0
 22 32  2  0  0  0
 26 27  1  0  0  0
 28100  1  0  0  0
 28101  1  0  0  0
 29102  1  0  0  0
 29103  1  0  0  0
 33 34  1  0  0  0
 33 66  1  0  0  0
 33 70  2  0  0  0
 34 36  1  0  0  0
 34 59  1  0  0  0
 34104  1  0  0  0
 35 44  2  0  0  0
 35 45  1  0  0  0
 35 68  1  0  0  0
 36 56  1  0  0  0
 36105  1  0  0  0
 37 39  1  0  0  0
 37 47  1  0  0  0
 37 66  1  0  0  0
 37106  1  0  0  0
 38 43  2  0  0  0
 38 46  1  0  0  0
 38 47  1  0  0  0
 39 64  1  0  0  0
 39 67  2  0  0  0
 40 52  1  0  0  0
 40 53  2  0  0  0
 40 58  1  0  0  0
 41107  1  0  0  0
 41108  1  0  0  0
 41109  1  0  0  0
 41 48  1  0  0  0
 42 43  1  0  0  0
 42 66  1  0  0  0
 42110  1  0  0  0
 42111  1  0  0  0
 43 44  1  0  0  0
 44112  1  0  0  0
 45 46  2  0  0  0
 45113  1  0  0  0
 46114  1  0  0  0
 47115  1  0  0  0
 47116  1  0  0  0
 48 56  1  0  0  0
 48 65  1  0  0  0
 48117  1  0  0  0
 49 50  1  0  0  0
 49 53  1  0  0  0
 49 64  1  0  0  0
 49118  1  0  0  0
 50 51  1  0  0  0
 50119  1  0  0  0
 50120  1  0  0  0
 51 52  1  0  0  0
 51121  1  0  0  0
 51122  1  0  0  0
 52123  1  0  0  0
 52124  1  0  0  0
 53 54  1  0  0  0
 54 55  2  0  0  0
 54125  1  0  0  0
 55 57  1  0  0  0
 55126  1  0  0  0
 56 69  2  0  0  0
 57 58  2  0  0  0
 57127  1  0  0  0
 58128  1  0  0  0
 59 60  1  0  0  0
 59 61  1  0  0  0
 59 62  1  0  0  0
 60129  1  0  0  0
 60130  1  0  0  0
 60131  1  0  0  0
 61132  1  0  0  0
 61133  1  0  0  0
 61134  1  0  0  0
 62135  1  0  0  0
 62136  1  0  0  0
 62137  1  0  0  0
 63 65  1  0  0  0
 63138  1  0  0  0
 63139  1  0  0  0
 63140  1  0  0  0
 64141  1  0  0  0
 65142  1  0  0  0
 68 79  1  0  0  0
 71 81  2  0  0  0
 71 82  1  0  0  0
 71143  1  0  0  0
 72 73  2  0  0  0
 72 76  1  0  0  0
 72 81  1  0  0  0
 73 74  1  0  0  0
 73 82  1  0  0  0
 74144  1  0  0  0
 74145  1  0  0  0
 74146  1  0  0  0
 75147  1  0  0  0
 75148  1  0  0  0
 75149  1  0  0  0
 75 80  1  0  0  0
 76 78  1  0  0  0
 76150  1  0  0  0
 76151  1  0  0  0
 77 79  1  0  0  0
 77 80  1  0  0  0
 77152  1  0  0  0
 77153  1  0  0  0
 78 83  1  0  0  0
 78154  1  0  0  0
 78155  1  0  0  0
 79156  1  0  0  0
 79157  1  0  0  0
 80 82  1  0  0  0
 80158  1  0  0  0
 83159  1  0  0  0
M  ISO  4   1 100  68 101  79 101  83 100
M  END
> <chiral flag>
0

> <version>
0

> <s_m_source_file>
/data/baiqing/PycharmProjects/Reinvent-master-3.2/result/LINK_invent/BTK/process_docking_weight1_custom_sum_contain_oxygen_bond_distance_aromatic_linkinvent_7_9_3/rearranged_h_0044.sdf

> <i_m_source_file_index>
93

> <r_mmod_Potential_Energy-OPLS-2005>
-40.6970291137695

> <r_mmod_Stretch_Energy-OPLS-2005>
49.4677124023438

> <r_mmod_Bend_Energy-OPLS-2005>
122.764984130859

> <r_mmod_Torsional_Energy-OPLS-2005>
221.363174438477

> <r_mmod_Improper_Torsional_Energy-OPLS-2005>
4.71837663650513

> <r_mmod_Van_der_Waal_Energy-OPLS-2005>
130.98600769043

> <r_mmod_Electrostatic_Energy-OPLS-2005>
-360.121398925781

> <r_mmod_Solvation_Energy-OPLS-2005>
-230.254959106445

> <b_mmod_Minimization_Converged-OPLS-2005>
0

> <r_mmod_RMS_Derivative-OPLS-2005>
2.22738647460938

$$$$
93
                    3D
 Structure written by MMmdl.
157165  0  0  1  0            999 V2000
  -30.6489  -14.4517   20.5146 C   0  0  0  0  0  0
  -30.4106  -12.2921   19.3782 C   0  0  0  0  0  0
  -29.4619  -12.5017   18.1768 C   0  0  0  0  0  0
  -27.9869  -12.3539   18.6005 C   0  0  0  0  0  0
  -27.6517  -13.1785   19.8698 C   0  0  2  0  0  0
  -28.7002  -12.9456   20.9803 C   0  0  0  0  0  0
  -25.2580  -13.8062   20.5689 C   0  0  0  0  0  0
  -24.1815  -13.0393   20.9158 C   0  0  0  0  0  0
  -24.6313  -11.6838   20.8696 C   0  0  0  0  0  0
  -23.8976  -10.4262   21.0331 C   0  0  0  0  0  0
  -24.3569   -9.4225   21.9141 C   0  0  0  0  0  0
  -23.6301   -8.2235   22.0720 C   0  0  0  0  0  0
  -22.4291   -8.0233   21.3507 C   0  0  0  0  0  0
  -21.9892   -9.0191   20.4600 C   0  0  0  0  0  0
  -22.7144  -10.2103   20.3013 C   0  0  0  0  0  0
  -21.6852   -6.0696   22.5277 C   0  0  0  0  0  0
  -21.3997   -6.5613   23.8199 C   0  0  0  0  0  0
  -21.3690   -5.6803   24.9177 C   0  0  0  0  0  0
  -21.6058   -4.3062   24.7244 C   0  0  0  0  0  0
  -21.8822   -3.8127   23.4368 C   0  0  0  0  0  0
  -21.9176   -4.6918   22.3404 C   0  0  0  0  0  0
  -22.7854  -13.5195   21.1899 C   0  0  0  0  0  0
  -22.1649   -4.2107   21.0977 F   0  0  0  0  0  0
  -21.5663   -3.4559   25.7751 F   0  0  0  0  0  0
  -30.0239  -13.2546   20.4174 N   0  0  0  0  0  0
  -26.2965  -12.9191   20.3390 N   0  0  0  0  0  0
  -25.9218  -11.6358   20.5730 N   0  0  0  0  0  0
  -22.0551  -12.8136   22.0423 N   0  0  0  0  0  0
  -25.4367  -15.1805   20.4099 N   0  0  0  0  0  0
  -31.8215  -14.6324   20.1767 O   0  0  0  0  0  0
  -21.6652   -6.8843   21.4224 O   0  0  0  0  0  0
  -22.3567  -14.5581   20.6837 O   0  0  0  0  0  0
  -24.6142  -31.8671   23.2079 C   0  0  0  0  0  0
  -25.9063  -32.4778   23.8370 C   0  0  1  0  0  0
  -27.2324  -27.4271   20.1094 C   0  0  0  0  0  0
  -25.5954  -33.8578   24.2322 N   0  0  0  0  0  0
  -23.4033  -30.4880   21.5492 C   0  0  2  0  0  0
  -24.8430  -28.9450   20.1222 C   0  0  0  0  0  0
  -22.7373  -29.4661   22.4974 C   0  0  0  0  0  0
  -18.0278  -28.1403   22.8521 C   0  0  0  0  0  0
  -24.1513  -36.7212   23.2632 C   0  0  0  0  0  0
  -25.9341  -30.8157   21.3768 C   0  0  0  0  0  0
  -26.0050  -29.4598   20.7109 C   0  0  0  0  0  0
  -27.1993  -28.7086   20.7008 C   0  0  0  0  0  0
  -26.0562  -26.9279   19.5054 C   0  0  0  0  0  0
  -24.8613  -27.6744   19.5199 C   0  0  0  0  0  0
  -23.6118  -29.8199   20.1668 C   0  0  0  0  0  0
  -25.4137  -36.3047   24.0338 C   0  0  1  0  0  0
  -20.5861  -28.3692   23.1306 C   0  0  2  0  0  0
  -20.6765  -26.9428   22.5391 C   0  0  0  0  0  0
  -19.5738  -26.6403   21.5208 C   0  0  0  0  0  0
  -18.1927  -26.7948   22.1647 C   0  0  0  0  0  0
  -19.1535  -28.8855   23.2911 C   0  0  0  0  0  0
  -18.9465  -30.1450   23.8904 C   0  0  0  0  0  0
  -17.6474  -30.6593   24.0577 C   0  0  0  0  0  0
  -25.9072  -34.9429   23.5123 C   0  0  0  0  0  0
  -16.5347  -29.9086   23.6355 C   0  0  0  0  0  0
  -16.7265  -28.6509   23.0366 C   0  0  0  0  0  0
  -26.4474  -31.6539   25.0703 C   0  0  0  0  0  0
  -25.3687  -31.3638   26.1396 C   0  0  0  0  0  0
  -27.0345  -30.2968   24.6151 C   0  0  0  0  0  0
  -27.6072  -32.4237   25.7450 C   0  0  0  0  0  0
  -27.5591  -37.1756   24.8488 C   0  0  0  0  0  0
  -21.4106  -29.3021   22.3667 N   0  0  0  0  0  0
  -26.4312  -37.3740   23.9425 N   0  0  0  0  0  0
  -24.6677  -31.0713   22.1019 N   0  0  0  0  0  0
  -23.4102  -28.8226   23.3084 O   0  0  0  0  0  0
  -28.4089  -26.7090   20.1292 O   0  0  0  0  0  0
  -26.5610  -34.8890   22.4676 O   0  0  0  0  0  0
  -23.5323  -32.1499   23.7414 O   0  0  0  0  0  0
  -29.2455  -20.7203   19.0604 C   0  0  0  0  0  0
  -29.0097  -22.3854   20.7791 C   0  0  0  0  0  0
  -29.7219  -19.6316   18.1529 C   0  0  0  0  0  0
  -29.1545  -23.3911   21.8815 C   0  0  0  0  0  0
  -30.7728  -18.7308   18.8481 C   0  0  0  0  0  0
  -29.3127  -24.8495   21.4073 C   0  0  0  0  0  0
  -30.3780  -17.2606   19.0916 C   0  0  0  0  0  0
  -30.0996  -16.9026   20.5756 C   0  0  0  0  0  0
  -28.3067  -25.2939   20.3317 C   0  0  0  0  0  0
  -27.9905  -20.7932   19.5258 N   0  0  0  0  0  0
  -27.8509  -21.7708   20.5015 N   0  0  0  0  0  0
  -29.8135  -15.4766   20.7522 N   0  0  0  0  0  0
  -30.3426  -21.9223   19.7329 S   0  0  0  0  0  0
  -31.4480  -12.4091   19.0630 H   0  0  0  0  0  0
  -30.3171  -11.2684   19.7469 H   0  0  0  0  0  0
  -29.6945  -11.7847   17.3897 H   0  0  0  0  0  0
  -29.6122  -13.4930   17.7407 H   0  0  0  0  0  0
  -27.7973  -11.2944   18.7697 H   0  0  0  0  0  0
  -27.3236  -12.6487   17.7803 H   0  0  0  0  0  0
  -27.6931  -14.2256   19.5757 H   0  0  0  0  0  0
  -28.4789  -13.5353   21.8711 H   0  0  0  0  0  0
  -28.6769  -11.9049   21.3056 H   0  0  0  0  0  0
  -25.2697   -9.5719   22.4729 H   0  0  0  0  0  0
  -24.0001   -7.4638   22.7451 H   0  0  0  0  0  0
  -21.0837   -8.8646   19.8945 H   0  0  0  0  0  0
  -22.3535  -10.9615   19.6151 H   0  0  0  0  0  0
  -21.1946   -7.6123   23.9666 H   0  0  0  0  0  0
  -21.1563   -6.0545   25.9083 H   0  0  0  0  0  0
  -22.0569   -2.7576   23.2861 H   0  0  0  0  0  0
  -22.4241  -11.9748   22.4647 H   0  0  0  0  0  0
  -21.1197  -13.1134   22.2815 H   0  0  0  0  0  0
  -24.6856  -15.8452   20.5572 H   0  0  0  0  0  0
  -26.2894  -15.6144   20.0783 H   0  0  0  0  0  0
  -26.7109  -32.5463   23.1092 H   0  0  0  0  0  0
  -25.0188  -33.9778   25.0518 H   0  0  0  0  0  0
  -22.6944  -31.3052   21.4115 H   0  0  0  0  0  0
  -23.3818  -35.9510   23.3338 H   0  0  0  0  0  0
  -24.3569  -36.8778   22.2035 H   0  0  0  0  0  0
  -23.7276  -37.6421   23.6622 H   0  0  0  0  0  0
  -26.0826  -31.5879   20.6221 H   0  0  0  0  0  0
  -26.8021  -30.8288   22.0248 H   0  0  0  0  0  0
  -28.0938  -29.0905   21.1698 H   0  0  0  0  0  0
  -26.0451  -25.9600   19.0199 H   0  0  0  0  0  0
  -23.9612  -27.2581   19.0842 H   0  0  0  0  0  0
  -23.7310  -30.5974   19.4087 H   0  0  0  0  0  0
  -22.7319  -29.2445   19.8733 H   0  0  0  0  0  0
  -25.1339  -36.1858   25.0833 H   0  0  0  0  0  0
  -20.9991  -28.3262   24.1418 H   0  0  0  0  0  0
  -20.5729  -26.2282   23.3586 H   0  0  0  0  0  0
  -21.6643  -26.7499   22.1162 H   0  0  0  0  0  0
  -19.6903  -25.6317   21.1237 H   0  0  0  0  0  0
  -19.6674  -27.3230   20.6771 H   0  0  0  0  0  0
  -17.4192  -26.6710   21.4035 H   0  0  0  0  0  0
  -18.0311  -26.0055   22.9032 H   0  0  0  0  0  0
  -19.7921  -30.7294   24.2240 H   0  0  0  0  0  0
  -17.5016  -31.6295   24.5175 H   0  0  0  0  0  0
  -15.5347  -30.3012   23.7674 H   0  0  0  0  0  0
  -15.8667  -28.0848   22.7078 H   0  0  0  0  0  0
  -24.5896  -30.6974   25.7667 H   0  0  0  0  0  0
  -24.8813  -32.2775   26.4778 H   0  0  0  0  0  0
  -25.7949  -30.8803   27.0192 H   0  0  0  0  0  0
  -26.2906  -29.6616   24.1313 H   0  0  0  0  0  0
  -27.4208  -29.7310   25.4646 H   0  0  0  0  0  0
  -27.8697  -30.4263   23.9268 H   0  0  0  0  0  0
  -27.2757  -33.3563   26.2025 H   0  0  0  0  0  0
  -28.3866  -32.6740   25.0240 H   0  0  0  0  0  0
  -28.0762  -31.8345   26.5335 H   0  0  0  0  0  0
  -28.2621  -38.0038   24.7549 H   0  0  0  0  0  0
  -28.1089  -36.2584   24.6333 H   0  0  0  0  0  0
  -27.2289  -37.1409   25.8881 H   0  0  0  0  0  0
  -20.9229  -29.8616   21.6819 H   0  0  0  0  0  0
  -26.0188  -38.2807   24.1434 H   0  0  0  0  0  0
  -30.1445  -20.0799   17.2542 H   0  0  0  0  0  0
  -28.8636  -19.0551   17.8042 H   0  0  0  0  0  0
  -30.0025  -23.0973   22.5028 H   0  0  0  0  0  0
  -28.2872  -23.3296   22.5388 H   0  0  0  0  0  0
  -31.1028  -19.1898   19.7817 H   0  0  0  0  0  0
  -31.6745  -18.7224   18.2321 H   0  0  0  0  0  0
  -30.3356  -24.9974   21.0553 H   0  0  0  0  0  0
  -29.2023  -25.4905   22.2826 H   0  0  0  0  0  0
  -31.2275  -16.6688   18.7552 H   0  0  0  0  0  0
  -29.5553  -16.9608   18.4474 H   0  0  0  0  0  0
  -30.9480  -17.1640   21.2111 H   0  0  0  0  0  0
  -29.2407  -17.4606   20.9602 H   0  0  0  0  0  0
  -28.4955  -24.7762   19.3910 H   0  0  0  0  0  0
  -27.3120  -24.9897   20.6599 H   0  0  0  0  0  0
  -28.8509  -15.2331   20.9351 H   0  0  0  0  0  0
  1 25  1  0  0  0
  1 30  2  0  0  0
  1 82  1  0  0  0
  2  3  1  0  0  0
  2 25  1  0  0  0
  2 84  1  0  0  0
  2 85  1  0  0  0
  3  4  1  0  0  0
  3 86  1  0  0  0
  3 87  1  0  0  0
  4  5  1  0  0  0
  4 88  1  0  0  0
  4 89  1  0  0  0
  5  6  1  0  0  0
  5 26  1  0  0  0
  5 90  1  0  0  0
  6 25  1  0  0  0
  6 91  1  0  0  0
  6 92  1  0  0  0
  7  8  2  0  0  0
  7 26  1  0  0  0
  7 29  1  0  0  0
  8  9  1  0  0  0
  8 22  1  0  0  0
  9 10  1  0  0  0
  9 27  2  0  0  0
 10 11  2  0  0  0
 10 15  1  0  0  0
 11 12  1  0  0  0
 11 93  1  0  0  0
 12 13  2  0  0  0
 12 94  1  0  0  0
 13 14  1  0  0  0
 13 31  1  0  0  0
 14 15  2  0  0  0
 14 95  1  0  0  0
 15 96  1  0  0  0
 16 17  2  0  0  0
 16 21  1  0  0  0
 16 31  1  0  0  0
 17 18  1  0  0  0
 17 97  1  0  0  0
 18 19  2  0  0  0
 18 98  1  0  0  0
 19 20  1  0  0  0
 19 24  1  0  0  0
 20 21  2  0  0  0
 20 99  1  0  0  0
 21 23  1  0  0  0
 22 28  1  0  0  0
 22 32  2  0  0  0
 26 27  1  0  0  0
 28100  1  0  0  0
 28101  1  0  0  0
 29102  1  0  0  0
 29103  1  0  0  0
 33 34  1  0  0  0
 33 66  1  0  0  0
 33 70  2  0  0  0
 34 36  1  0  0  0
 34 59  1  0  0  0
 34104  1  0  0  0
 35 44  2  0  0  0
 35 45  1  0  0  0
 35 68  1  0  0  0
 36 56  1  0  0  0
 36105  1  0  0  0
 37 39  1  0  0  0
 37 47  1  0  0  0
 37 66  1  0  0  0
 37106  1  0  0  0
 38 43  2  0  0  0
 38 46  1  0  0  0
 38 47  1  0  0  0
 39 64  1  0  0  0
 39 67  2  0  0  0
 40 52  1  0  0  0
 40 53  2  0  0  0
 40 58  1  0  0  0
 41107  1  0  0  0
 41108  1  0  0  0
 41109  1  0  0  0
 41 48  1  0  0  0
 42 43  1  0  0  0
 42 66  1  0  0  0
 42110  1  0  0  0
 42111  1  0  0  0
 43 44  1  0  0  0
 44112  1  0  0  0
 45 46  2  0  0  0
 45113  1  0  0  0
 46114  1  0  0  0
 47115  1  0  0  0
 47116  1  0  0  0
 48 56  1  0  0  0
 48 65  1  0  0  0
 48117  1  0  0  0
 49 50  1  0  0  0
 49 53  1  0  0  0
 49 64  1  0  0  0
 49118  1  0  0  0
 50 51  1  0  0  0
 50119  1  0  0  0
 50120  1  0  0  0
 51 52  1  0  0  0
 51121  1  0  0  0
 51122  1  0  0  0
 52123  1  0  0  0
 52124  1  0  0  0
 53 54  1  0  0  0
 54 55  2  0  0  0
 54125  1  0  0  0
 55 57  1  0  0  0
 55126  1  0  0  0
 56 69  2  0  0  0
 57 58  2  0  0  0
 57127  1  0  0  0
 58128  1  0  0  0
 59 60  1  0  0  0
 59 61  1  0  0  0
 59 62  1  0  0  0
 60129  1  0  0  0
 60130  1  0  0  0
 60131  1  0  0  0
 61132  1  0  0  0
 61133  1  0  0  0
 61134  1  0  0  0
 62135  1  0  0  0
 62136  1  0  0  0
 62137  1  0  0  0
 63 65  1  0  0  0
 63138  1  0  0  0
 63139  1  0  0  0
 63140  1  0  0  0
 64141  1  0  0  0
 65142  1  0  0  0
 68 79  1  0  0  0
 71 73  1  0  0  0
 71 80  2  0  0  0
 71 83  1  0  0  0
 72 74  1  0  0  0
 72 81  2  0  0  0
 72 83  1  0  0  0
 73 75  1  0  0  0
 73143  1  0  0  0
 73144  1  0  0  0
 74 76  1  0  0  0
 74145  1  0  0  0
 74146  1  0  0  0
 75 77  1  0  0  0
 75147  1  0  0  0
 75148  1  0  0  0
 76 79  1  0  0  0
 76149  1  0  0  0
 76150  1  0  0  0
 77 78  1  0  0  0
 77151  1  0  0  0
 77152  1  0  0  0
 78 82  1  0  0  0
 78153  1  0  0  0
 78154  1  0  0  0
 79155  1  0  0  0
 79156  1  0  0  0
 80 81  1  0  0  0
 82157  1  0  0  0
M  ISO  4   1 100  68 101  79 101  82 100
M  END
> <chiral flag>
0

> <version>
0

> <s_m_source_file>
/data/baiqing/PycharmProjects/Reinvent-master-3.2/result/LINK_invent/BTK/process_docking_weight1_custom_sum_contain_oxygen_bond_distance_aromatic_linkinvent_7_9_3/rearranged_h_0044.sdf

> <i_m_source_file_index>
94

> <r_mmod_Potential_Energy-OPLS-2005>
-124.580200195312

> <r_mmod_Stretch_Energy-OPLS-2005>
30.9796676635742

> <r_mmod_Bend_Energy-OPLS-2005>
96.9695358276367

> <r_mmod_Torsional_Energy-OPLS-2005>
204.056686401367

> <r_mmod_Improper_Torsional_Energy-OPLS-2005>
6.8725733757019

> <r_mmod_Van_der_Waal_Energy-OPLS-2005>
131.684280395508

> <r_mmod_Electrostatic_Energy-OPLS-2005>
-386.326751708984

> <r_mmod_Solvation_Energy-OPLS-2005>
-225.577987670898

> <b_mmod_Minimization_Converged-OPLS-2005>
0

> <r_mmod_RMS_Derivative-OPLS-2005>
8.06052589416504

$$$$
94
                    3D
 Structure written by MMmdl.
160168  0  0  1  0            999 V2000
  -30.6243  -14.6799   20.5135 C   0  0  0  0  0  0
  -30.4373  -12.4303   19.4426 C   0  0  0  0  0  0
  -29.5057  -12.5165   18.2145 C   0  0  0  0  0  0
  -28.0308  -12.3418   18.6313 C   0  0  0  0  0  0
  -27.6463  -13.2224   19.8508 C   0  0  2  0  0  0
  -28.6953  -13.1091   20.9791 C   0  0  0  0  0  0
  -25.2542  -13.8183   20.5685 C   0  0  0  0  0  0
  -24.1831  -13.0427   20.9200 C   0  0  0  0  0  0
  -24.6413  -11.6912   20.8742 C   0  0  0  0  0  0
  -23.9077  -10.4282   21.0406 C   0  0  0  0  0  0
  -24.3621   -9.4208   21.9191 C   0  0  0  0  0  0
  -23.6300   -8.2244   22.0762 C   0  0  0  0  0  0
  -22.4279   -8.0277   21.3544 C   0  0  0  0  0  0
  -21.9922   -9.0257   20.4639 C   0  0  0  0  0  0
  -22.7260  -10.2128   20.3049 C   0  0  0  0  0  0
  -21.6846   -6.0745   22.5289 C   0  0  0  0  0  0
  -21.4002   -6.5649   23.8228 C   0  0  0  0  0  0
  -21.3648   -5.6797   24.9187 C   0  0  0  0  0  0
  -21.6030   -4.3060   24.7235 C   0  0  0  0  0  0
  -21.8822   -3.8157   23.4360 C   0  0  0  0  0  0
  -21.9197   -4.6970   22.3414 C   0  0  0  0  0  0
  -22.7854  -13.5216   21.1870 C   0  0  0  0  0  0
  -22.1662   -4.2152   21.0988 F   0  0  0  0  0  0
  -21.5623   -3.4542   25.7752 F   0  0  0  0  0  0
  -29.9966  -13.4646   20.4001 N   0  0  0  0  0  0
  -26.2963  -12.9376   20.3279 N   0  0  0  0  0  0
  -25.9328  -11.6512   20.5737 N   0  0  0  0  0  0
  -22.0484  -12.8188   22.0401 N   0  0  0  0  0  0
  -25.4235  -15.1909   20.4085 N   0  0  0  0  0  0
  -31.8089  -14.8109   20.1953 O   0  0  0  0  0  0
  -21.6643   -6.8881   21.4246 O   0  0  0  0  0  0
  -22.3543  -14.5540   20.6740 O   0  0  0  0  0  0
  -24.6275  -31.8604   23.2026 C   0  0  0  0  0  0
  -25.9143  -32.4774   23.8351 C   0  0  1  0  0  0
  -27.2105  -27.3133   20.1237 C   0  0  0  0  0  0
  -25.5997  -33.8568   24.2315 N   0  0  0  0  0  0
  -23.4189  -30.4857   21.5437 C   0  0  2  0  0  0
  -24.8636  -28.9374   20.1105 C   0  0  0  0  0  0
  -22.7484  -29.4642   22.4935 C   0  0  0  0  0  0
  -18.0291  -28.1392   22.8492 C   0  0  0  0  0  0
  -24.1474  -36.7215   23.2649 C   0  0  0  0  0  0
  -25.9584  -30.7940   21.3655 C   0  0  0  0  0  0
  -26.0349  -29.4176   20.7144 C   0  0  0  0  0  0
  -27.2143  -28.6129   20.7175 C   0  0  0  0  0  0
  -26.0226  -26.8815   19.5031 C   0  0  0  0  0  0
  -24.8590  -27.6725   19.5014 C   0  0  0  0  0  0
  -23.6334  -29.8214   20.1580 C   0  0  0  0  0  0
  -25.4100  -36.3050   24.0345 C   0  0  1  0  0  0
  -20.5902  -28.3679   23.1286 C   0  0  2  0  0  0
  -20.6811  -26.9422   22.5381 C   0  0  0  0  0  0
  -19.5769  -26.6402   21.5218 C   0  0  0  0  0  0
  -18.1934  -26.7947   22.1612 C   0  0  0  0  0  0
  -19.1550  -28.8850   23.2886 C   0  0  0  0  0  0
  -18.9490  -30.1468   23.8882 C   0  0  0  0  0  0
  -17.6482  -30.6599   24.0561 C   0  0  0  0  0  0
  -25.9047  -34.9432   23.5099 C   0  0  0  0  0  0
  -16.5366  -29.9082   23.6364 C   0  0  0  0  0  0
  -16.7273  -28.6503   23.0374 C   0  0  0  0  0  0
  -26.4554  -31.6558   25.0681 C   0  0  0  0  0  0
  -25.3799  -31.3587   26.1382 C   0  0  0  0  0  0
  -27.0477  -30.3042   24.6056 C   0  0  0  0  0  0
  -27.6105  -32.4268   25.7486 C   0  0  0  0  0  0
  -27.5537  -37.1758   24.8504 C   0  0  0  0  0  0
  -21.4191  -29.3042   22.3674 N   0  0  0  0  0  0
  -26.4255  -37.3771   23.9448 N   0  0  0  0  0  0
  -24.6878  -31.0641   22.0959 N   0  0  0  0  0  0
  -23.4219  -28.8175   23.2992 O   0  0  0  0  0  0
  -28.2751  -26.4064   20.1594 O   0  0  0  0  0  0
  -26.5579  -34.8920   22.4647 O   0  0  0  0  0  0
  -23.5440  -32.1392   23.7369 O   0  0  0  0  0  0
  -29.1265  -21.9222   19.7103 C   0  0  0  0  0  0
  -28.8066  -21.0010   20.7626 C   0  0  0  0  0  0
  -28.1178  -22.8744   22.0182 C   0  0  0  0  0  0
  -28.4138  -23.8009   20.9655 C   0  0  0  0  0  0
  -29.6636  -21.4188   18.3857 C   0  0  0  0  0  0
  -25.9411  -23.1568   23.2950 C   0  0  0  0  0  0
  -27.4714  -23.2986   23.3324 C   0  0  0  0  0  0
  -28.7582  -19.4148   20.6736 C   0  0  0  0  0  0
  -28.1198  -25.3498   21.1815 C   0  0  0  0  0  0
  -30.0544  -18.5026   20.4881 C   0  0  0  0  0  0
  -30.2604  -17.1423   21.3249 C   0  0  0  0  0  0
  -28.9445  -23.2913   19.8093 N   0  0  0  0  0  0
  -28.3178  -21.5252   21.9155 N   0  0  0  0  0  0
  -29.8466  -15.7703   20.8344 N   0  0  0  0  0  0
  -31.4764  -12.5666   19.1393 H   0  0  0  0  0  0
  -30.3837  -11.4407   19.8989 H   0  0  0  0  0  0
  -29.7795  -11.7620   17.4761 H   0  0  0  0  0  0
  -29.6351  -13.4829   17.7243 H   0  0  0  0  0  0
  -27.8795  -11.2893   18.8735 H   0  0  0  0  0  0
  -27.3716  -12.5578   17.7893 H   0  0  0  0  0  0
  -27.6513  -14.2526   19.4930 H   0  0  0  0  0  0
  -28.7288  -12.0935   21.3770 H   0  0  0  0  0  0
  -28.4405  -13.7554   21.8199 H   0  0  0  0  0  0
  -25.2762   -9.5702   22.4766 H   0  0  0  0  0  0
  -24.0015   -7.4636   22.7481 H   0  0  0  0  0  0
  -21.0860   -8.8758   19.8939 H   0  0  0  0  0  0
  -22.3721  -10.9655   19.6142 H   0  0  0  0  0  0
  -21.1978   -7.6153   23.9728 H   0  0  0  0  0  0
  -21.1453   -6.0529   25.9086 H   0  0  0  0  0  0
  -22.0608   -2.7612   23.2862 H   0  0  0  0  0  0
  -22.4092  -11.9812   22.4735 H   0  0  0  0  0  0
  -21.1088  -13.1189   22.2587 H   0  0  0  0  0  0
  -24.6493  -15.8387   20.5062 H   0  0  0  0  0  0
  -26.2658  -15.6308   20.0620 H   0  0  0  0  0  0
  -26.7177  -32.5455   23.1072 H   0  0  0  0  0  0
  -25.0331  -33.9749   25.0579 H   0  0  0  0  0  0
  -22.7110  -31.3047   21.4030 H   0  0  0  0  0  0
  -23.3773  -35.9509   23.3323 H   0  0  0  0  0  0
  -24.3562  -36.8817   22.2063 H   0  0  0  0  0  0
  -23.7173  -37.6396   23.6653 H   0  0  0  0  0  0
  -26.0772  -31.5538   20.5903 H   0  0  0  0  0  0
  -26.8463  -30.8557   21.9830 H   0  0  0  0  0  0
  -28.1072  -28.9713   21.2086 H   0  0  0  0  0  0
  -25.9851  -25.9012   19.0496 H   0  0  0  0  0  0
  -23.9546  -27.2922   19.0453 H   0  0  0  0  0  0
  -23.7509  -30.6038   19.4071 H   0  0  0  0  0  0
  -22.7524  -29.2557   19.8480 H   0  0  0  0  0  0
  -25.1268  -36.1883   25.0829 H   0  0  0  0  0  0
  -20.9982  -28.3221   24.1414 H   0  0  0  0  0  0
  -20.5821  -26.2267   23.3551 H   0  0  0  0  0  0
  -21.6659  -26.7506   22.1106 H   0  0  0  0  0  0
  -19.6951  -25.6335   21.1212 H   0  0  0  0  0  0
  -19.6722  -27.3239   20.6773 H   0  0  0  0  0  0
  -17.4230  -26.6728   21.3989 H   0  0  0  0  0  0
  -18.0296  -26.0085   22.8993 H   0  0  0  0  0  0
  -19.7973  -30.7295   24.2225 H   0  0  0  0  0  0
  -17.5045  -31.6288   24.5159 H   0  0  0  0  0  0
  -15.5376  -30.2976   23.7753 H   0  0  0  0  0  0
  -15.8665  -28.0819   22.7112 H   0  0  0  0  0  0
  -24.6005  -30.6938   25.7632 H   0  0  0  0  0  0
  -24.8970  -32.2719   26.4862 H   0  0  0  0  0  0
  -25.8139  -30.8682   27.0105 H   0  0  0  0  0  0
  -26.3029  -29.6671   24.1264 H   0  0  0  0  0  0
  -27.4511  -29.7366   25.4460 H   0  0  0  0  0  0
  -27.8733  -30.4442   23.9063 H   0  0  0  0  0  0
  -27.2734  -33.3596   26.2003 H   0  0  0  0  0  0
  -28.3987  -32.6760   25.0366 H   0  0  0  0  0  0
  -28.0687  -31.8400   26.5461 H   0  0  0  0  0  0
  -28.2558  -38.0055   24.7562 H   0  0  0  0  0  0
  -28.1020  -36.2580   24.6314 H   0  0  0  0  0  0
  -27.2247  -37.1358   25.8909 H   0  0  0  0  0  0
  -20.9367  -29.8674   21.6819 H   0  0  0  0  0  0
  -26.0113  -38.2821   24.1524 H   0  0  0  0  0  0
  -30.5129  -20.7558   18.5537 H   0  0  0  0  0  0
  -29.9994  -22.2391   17.7513 H   0  0  0  0  0  0
  -28.8958  -20.8641   17.8455 H   0  0  0  0  0  0
  -25.4979  -23.4223   24.2558 H   0  0  0  0  0  0
  -25.6412  -22.1329   23.0667 H   0  0  0  0  0  0
  -25.5035  -23.8044   22.5341 H   0  0  0  0  0  0
  -27.7505  -24.3166   23.6033 H   0  0  0  0  0  0
  -27.8655  -22.6740   24.1338 H   0  0  0  0  0  0
  -28.0539  -19.1681   19.8784 H   0  0  0  0  0  0
  -28.2602  -19.0742   21.5833 H   0  0  0  0  0  0
  -28.7696  -25.6585   22.0006 H   0  0  0  0  0  0
  -27.1084  -25.4050   21.5888 H   0  0  0  0  0  0
  -30.8818  -19.1454   20.7946 H   0  0  0  0  0  0
  -30.2380  -18.3246   19.4284 H   0  0  0  0  0  0
  -29.7976  -17.2785   22.3024 H   0  0  0  0  0  0
  -31.3255  -17.0709   21.5530 H   0  0  0  0  0  0
  -28.8729  -15.5461   20.9799 H   0  0  0  0  0  0
  1 25  1  0  0  0
  1 30  2  0  0  0
  1 84  1  0  0  0
  2  3  1  0  0  0
  2 25  1  0  0  0
  2 85  1  0  0  0
  2 86  1  0  0  0
  3  4  1  0  0  0
  3 87  1  0  0  0
  3 88  1  0  0  0
  4  5  1  0  0  0
  4 89  1  0  0  0
  4 90  1  0  0  0
  5  6  1  0  0  0
  5 26  1  0  0  0
  5 91  1  0  0  0
  6 25  1  0  0  0
  6 92  1  0  0  0
  6 93  1  0  0  0
  7  8  2  0  0  0
  7 26  1  0  0  0
  7 29  1  0  0  0
  8  9  1  0  0  0
  8 22  1  0  0  0
  9 10  1  0  0  0
  9 27  2  0  0  0
 10 11  2  0  0  0
 10 15  1  0  0  0
 11 12  1  0  0  0
 11 94  1  0  0  0
 12 13  2  0  0  0
 12 95  1  0  0  0
 13 14  1  0  0  0
 13 31  1  0  0  0
 14 15  2  0  0  0
 14 96  1  0  0  0
 15 97  1  0  0  0
 16 17  2  0  0  0
 16 21  1  0  0  0
 16 31  1  0  0  0
 17 18  1  0  0  0
 17 98  1  0  0  0
 18 19  2  0  0  0
 18 99  1  0  0  0
 19 20  1  0  0  0
 19 24  1  0  0  0
 20 21  2  0  0  0
 20100  1  0  0  0
 21 23  1  0  0  0
 22 28  1  0  0  0
 22 32  2  0  0  0
 26 27  1  0  0  0
 28101  1  0  0  0
 28102  1  0  0  0
 29103  1  0  0  0
 29104  1  0  0  0
 33 34  1  0  0  0
 33 66  1  0  0  0
 33 70  2  0  0  0
 34 36  1  0  0  0
 34 59  1  0  0  0
 34105  1  0  0  0
 35 44  2  0  0  0
 35 45  1  0  0  0
 35 68  1  0  0  0
 36 56  1  0  0  0
 36106  1  0  0  0
 37 39  1  0  0  0
 37 47  1  0  0  0
 37 66  1  0  0  0
 37107  1  0  0  0
 38 43  2  0  0  0
 38 46  1  0  0  0
 38 47  1  0  0  0
 39 64  1  0  0  0
 39 67  2  0  0  0
 40 52  1  0  0  0
 40 53  2  0  0  0
 40 58  1  0  0  0
 41108  1  0  0  0
 41109  1  0  0  0
 41110  1  0  0  0
 41 48  1  0  0  0
 42 43  1  0  0  0
 42 66  1  0  0  0
 42111  1  0  0  0
 42112  1  0  0  0
 43 44  1  0  0  0
 44113  1  0  0  0
 45 46  2  0  0  0
 45114  1  0  0  0
 46115  1  0  0  0
 47116  1  0  0  0
 47117  1  0  0  0
 48 56  1  0  0  0
 48 65  1  0  0  0
 48118  1  0  0  0
 49 50  1  0  0  0
 49 53  1  0  0  0
 49 64  1  0  0  0
 49119  1  0  0  0
 50 51  1  0  0  0
 50120  1  0  0  0
 50121  1  0  0  0
 51 52  1  0  0  0
 51122  1  0  0  0
 51123  1  0  0  0
 52124  1  0  0  0
 52125  1  0  0  0
 53 54  1  0  0  0
 54 55  2  0  0  0
 54126  1  0  0  0
 55 57  1  0  0  0
 55127  1  0  0  0
 56 69  2  0  0  0
 57 58  2  0  0  0
 57128  1  0  0  0
 58129  1  0  0  0
 59 60  1  0  0  0
 59 61  1  0  0  0
 59 62  1  0  0  0
 60130  1  0  0  0
 60131  1  0  0  0
 60132  1  0  0  0
 61133  1  0  0  0
 61134  1  0  0  0
 61135  1  0  0  0
 62136  1  0  0  0
 62137  1  0  0  0
 62138  1  0  0  0
 63 65  1  0  0  0
 63139  1  0  0  0
 63140  1  0  0  0
 63141  1  0  0  0
 64142  1  0  0  0
 65143  1  0  0  0
 68 79  1  0  0  0
 71 72  2  0  0  0
 71 75  1  0  0  0
 71 82  1  0  0  0
 72 78  1  0  0  0
 72 83  1  0  0  0
 73 74  1  0  0  0
 73 77  1  0  0  0
 73 83  2  0  0  0
 74 79  1  0  0  0
 74 82  2  0  0  0
 75144  1  0  0  0
 75145  1  0  0  0
 75146  1  0  0  0
 76 77  1  0  0  0
 76147  1  0  0  0
 76148  1  0  0  0
 76149  1  0  0  0
 77150  1  0  0  0
 77151  1  0  0  0
 78 80  1  0  0  0
 78152  1  0  0  0
 78153  1  0  0  0
 79154  1  0  0  0
 79155  1  0  0  0
 80 81  1  0  0  0
 80156  1  0  0  0
 80157  1  0  0  0
 81 84  1  0  0  0
 81158  1  0  0  0
 81159  1  0  0  0
 84160  1  0  0  0
M  ISO  4   1 100  68 101  79 101  84 100
M  END
> <chiral flag>
0

> <version>
0

> <s_m_source_file>
/data/baiqing/PycharmProjects/Reinvent-master-3.2/result/LINK_invent/BTK/process_docking_weight1_custom_sum_contain_oxygen_bond_distance_aromatic_linkinvent_7_9_3/rearranged_h_0044.sdf

> <i_m_source_file_index>
95

> <r_mmod_Potential_Energy-OPLS-2005>
175.939987182617

> <r_mmod_Stretch_Energy-OPLS-2005>
95.968620300293

> <r_mmod_Bend_Energy-OPLS-2005>
178.715698242188

> <r_mmod_Torsional_Energy-OPLS-2005>
243.853729248047

> <r_mmod_Improper_Torsional_Energy-OPLS-2005>
4.99176406860352

> <r_mmod_Van_der_Waal_Energy-OPLS-2005>
138.6533203125

> <r_mmod_Electrostatic_Energy-OPLS-2005>
-323.703491210938

> <r_mmod_Solvation_Energy-OPLS-2005>
-225.279495239258

> <b_mmod_Minimization_Converged-OPLS-2005>
0

> <r_mmod_RMS_Derivative-OPLS-2005>
3.2753381729126

$$$$
