0
                    3D
 Structure written by MMmdl.
149157  0  0  1  0            999 V2000
  -30.2052  -15.8283   20.3153 C   0  0  0  0  0  0
  -30.4059  -13.2238   19.5554 C   0  0  0  0  0  0
  -29.5619  -12.7095   18.3483 C   0  0  0  0  0  0
  -28.1438  -12.3157   18.7820 C   0  0  0  0  0  0
  -27.5837  -13.3283   19.8039 C   0  0  2  0  0  0
  -28.5791  -13.7364   20.9187 C   0  0  0  0  0  0
  -25.2259  -13.8295   20.5796 C   0  0  0  0  0  0
  -24.1672  -13.0417   20.9284 C   0  0  0  0  0  0
  -24.6391  -11.6937   20.8733 C   0  0  0  0  0  0
  -23.9093  -10.4284   21.0375 C   0  0  0  0  0  0
  -24.3623   -9.4208   21.9173 C   0  0  0  0  0  0
  -23.6289   -8.2247   22.0751 C   0  0  0  0  0  0
  -22.4277   -8.0273   21.3535 C   0  0  0  0  0  0
  -21.9908   -9.0247   20.4642 C   0  0  0  0  0  0
  -22.7243  -10.2120   20.3044 C   0  0  0  0  0  0
  -21.6856   -6.0724   22.5271 C   0  0  0  0  0  0
  -21.4024   -6.5632   23.8206 C   0  0  0  0  0  0
  -21.3662   -5.6779   24.9168 C   0  0  0  0  0  0
  -21.6040   -4.3042   24.7213 C   0  0  0  0  0  0
  -21.8818   -3.8134   23.4335 C   0  0  0  0  0  0
  -21.9198   -4.6954   22.3395 C   0  0  0  0  0  0
  -22.7686  -13.5147   21.1911 C   0  0  0  0  0  0
  -22.1667   -4.2143   21.0969 F   0  0  0  0  0  0
  -21.5620   -3.4527   25.7726 F   0  0  0  0  0  0
  -29.7241  -14.4216   20.2606 N   0  0  0  0  0  0
  -26.2707  -12.9655   20.3176 N   0  0  0  0  0  0
  -25.9345  -11.6708   20.5627 N   0  0  0  0  0  0
  -22.0320  -12.8165   22.0464 N   0  0  0  0  0  0
  -25.3865  -15.2036   20.4272 N   0  0  0  0  0  0
  -31.4443  -15.7389   20.1707 O   0  0  0  0  0  0
  -21.6645   -6.8861   21.4230 O   0  0  0  0  0  0
  -22.3371  -14.5438   20.6725 O   0  0  0  0  0  0
  -24.6979  -31.7815   23.1409 C   0  0  0  0  0  0
  -25.9516  -32.4344   23.7996 C   0  0  1  0  0  0
  -27.2224  -26.5461   20.2379 C   0  0  0  0  0  0
  -25.6038  -33.8185   24.1852 N   0  0  0  0  0  0
  -23.5305  -30.3752   21.4996 C   0  0  2  0  0  0
  -24.9881  -28.6858   20.1289 C   0  0  0  0  0  0
  -22.7839  -29.4186   22.4696 C   0  0  0  0  0  0
  -18.0338  -28.1428   22.8432 C   0  0  0  0  0  0
  -24.1512  -36.7084   23.2649 C   0  0  0  0  0  0
  -26.1168  -30.4572   21.4394 C   0  0  0  0  0  0
  -26.1740  -29.0043   20.7972 C   0  0  0  0  0  0
  -27.2659  -27.9647   20.8208 C   0  0  0  0  0  0
  -26.0135  -26.4897   19.4859 C   0  0  0  0  0  0
  -24.9532  -27.4548   19.4517 C   0  0  0  0  0  0
  -23.7930  -29.6592   20.1422 C   0  0  0  0  0  0
  -25.4176  -36.2819   24.0252 C   0  0  1  0  0  0
  -20.5975  -28.3779   23.1121 C   0  0  2  0  0  0
  -20.6811  -26.9430   22.5404 C   0  0  0  0  0  0
  -19.5795  -26.6363   21.5216 C   0  0  0  0  0  0
  -18.1971  -26.7951   22.1603 C   0  0  0  0  0  0
  -19.1604  -28.8940   23.2743 C   0  0  0  0  0  0
  -18.9507  -30.1520   23.8799 C   0  0  0  0  0  0
  -17.6494  -30.6602   24.0544 C   0  0  0  0  0  0
  -25.9157  -34.9210   23.4897 C   0  0  0  0  0  0
  -16.5385  -29.9072   23.6358 C   0  0  0  0  0  0
  -16.7317  -28.6500   23.0366 C   0  0  0  0  0  0
  -26.4608  -31.6441   25.0696 C   0  0  0  0  0  0
  -25.3595  -31.3821   26.1236 C   0  0  0  0  0  0
  -27.0551  -30.2734   24.6756 C   0  0  0  0  0  0
  -27.6034  -32.4300   25.7567 C   0  0  0  0  0  0
  -27.5564  -37.1690   24.8461 C   0  0  0  0  0  0
  -21.4477  -29.2983   22.3435 N   0  0  0  0  0  0
  -26.4292  -37.3596   23.9377 N   0  0  0  0  0  0
  -24.8061  -30.9098   22.0762 N   0  0  0  0  0  0
  -23.4207  -28.7815   23.3115 O   0  0  0  0  0  0
  -28.2031  -25.2859   20.2399 O   0  0  0  0  0  0
  -26.5811  -34.8815   22.4522 O   0  0  0  0  0  0
  -23.5962  -32.0972   23.6257 O   0  0  0  0  0  0
  -31.0289  -20.9332   19.7128 C   0  0  0  0  0  0
  -29.4914  -19.0061   20.2631 C   0  0  0  0  0  0
  -28.7943  -21.9930   20.2588 C   0  0  0  0  0  0
  -30.7456  -19.5358   19.8763 C   0  0  0  0  0  0
  -30.1636  -22.0697   19.8898 C   0  0  0  0  0  0
  -28.5535  -20.3590   20.4251 C   0  0  0  0  0  0
  -26.1794  -23.6464   22.1138 C   0  0  0  0  0  0
  -26.5308  -23.2016   20.6881 C   0  0  0  0  0  0
  -29.4122  -17.2250   20.3749 N   0  0  0  0  0  0
  -27.9333  -23.4371   20.3752 N   0  0  0  0  0  0
  -31.7523  -18.6650   19.6268 F   0  0  0  0  0  0
  -30.7004  -23.2949   19.6695 F   0  0  0  0  0  0
  -27.2809  -20.0474   20.7751 F   0  0  0  0  0  0
  -31.3880  -13.5139   19.1799 H   0  0  0  0  0  0
  -30.6093  -12.4170   20.2614 H   0  0  0  0  0  0
  -30.0572  -11.8681   17.8615 H   0  0  0  0  0  0
  -29.5013  -13.5058   17.6062 H   0  0  0  0  0  0
  -28.1867  -11.3241   19.2345 H   0  0  0  0  0  0
  -27.4858  -12.2363   17.9145 H   0  0  0  0  0  0
  -27.4204  -14.2276   19.2074 H   0  0  0  0  0  0
  -28.8806  -12.8858   21.5327 H   0  0  0  0  0  0
  -28.1001  -14.4443   21.5963 H   0  0  0  0  0  0
  -25.2739   -9.5713   22.4782 H   0  0  0  0  0  0
  -23.9993   -7.4646   22.7492 H   0  0  0  0  0  0
  -21.0827   -8.8749   19.8969 H   0  0  0  0  0  0
  -22.3655  -10.9659   19.6179 H   0  0  0  0  0  0
  -21.2033   -7.6145   23.9709 H   0  0  0  0  0  0
  -21.1487   -6.0511   25.9066 H   0  0  0  0  0  0
  -22.0603   -2.7598   23.2833 H   0  0  0  0  0  0
  -22.3886  -11.9857   22.4951 H   0  0  0  0  0  0
  -21.0941  -13.1238   22.2591 H   0  0  0  0  0  0
  -24.6195  -15.8562   20.5529 H   0  0  0  0  0  0
  -26.2252  -15.6434   20.0723 H   0  0  0  0  0  0
  -26.7609  -32.4763   23.0714 H   0  0  0  0  0  0
  -25.0119  -33.9199   24.9966 H   0  0  0  0  0  0
  -22.8627  -31.2150   21.2966 H   0  0  0  0  0  0
  -23.3791  -35.9391   23.3287 H   0  0  0  0  0  0
  -24.3552  -36.8785   22.2066 H   0  0  0  0  0  0
  -23.7267  -37.6247   23.6762 H   0  0  0  0  0  0
  -26.3483  -31.1691   20.6462 H   0  0  0  0  0  0
  -26.9585  -30.5230   22.1164 H   0  0  0  0  0  0
  -28.1619  -28.2221   21.3676 H   0  0  0  0  0  0
  -25.8403  -25.5898   18.9159 H   0  0  0  0  0  0
  -24.0686  -27.2073   18.8816 H   0  0  0  0  0  0
  -23.9782  -30.4091   19.3716 H   0  0  0  0  0  0
  -22.8966  -29.1262   19.8217 H   0  0  0  0  0  0
  -25.1405  -36.1558   25.0741 H   0  0  0  0  0  0
  -21.0026  -28.3417   24.1260 H   0  0  0  0  0  0
  -20.5672  -26.2403   23.3669 H   0  0  0  0  0  0
  -21.6671  -26.7368   22.1224 H   0  0  0  0  0  0
  -19.6950  -25.6251   21.1296 H   0  0  0  0  0  0
  -19.6760  -27.3134   20.6719 H   0  0  0  0  0  0
  -17.4244  -26.6678   21.4002 H   0  0  0  0  0  0
  -18.0360  -26.0122   22.9030 H   0  0  0  0  0  0
  -19.7984  -30.7368   24.2118 H   0  0  0  0  0  0
  -17.5041  -31.6278   24.5165 H   0  0  0  0  0  0
  -15.5375  -30.2946   23.7758 H   0  0  0  0  0  0
  -15.8714  -28.0801   22.7130 H   0  0  0  0  0  0
  -24.5858  -30.7104   25.7499 H   0  0  0  0  0  0
  -24.8719  -32.3063   26.4352 H   0  0  0  0  0  0
  -25.7688  -30.9162   27.0203 H   0  0  0  0  0  0
  -26.3286  -29.6323   24.1754 H   0  0  0  0  0  0
  -27.3837  -29.7237   25.5588 H   0  0  0  0  0  0
  -27.9348  -30.3775   24.0401 H   0  0  0  0  0  0
  -28.0323  -31.8673   26.5870 H   0  0  0  0  0  0
  -28.4132  -32.6453   25.0587 H   0  0  0  0  0  0
  -27.2656  -33.3834   26.1652 H   0  0  0  0  0  0
  -28.2558  -38.0006   24.7490 H   0  0  0  0  0  0
  -28.1090  -36.2520   24.6350 H   0  0  0  0  0  0
  -27.2240  -37.1380   25.8853 H   0  0  0  0  0  0
  -20.9831  -29.8581   21.6423 H   0  0  0  0  0  0
  -26.0111  -38.2633   24.1397 H   0  0  0  0  0  0
  -32.0374  -21.1558   19.4003 H   0  0  0  0  0  0
  -25.0994  -23.6483   22.2648 H   0  0  0  0  0  0
  -26.5349  -24.6556   22.3277 H   0  0  0  0  0  0
  -26.6136  -22.9683   22.8476 H   0  0  0  0  0  0
  -25.9214  -23.7448   19.9694 H   0  0  0  0  0  0
  -26.2658  -22.1555   20.5518 H   0  0  0  0  0  0
  -28.4472  -16.9661   20.5139 H   0  0  0  0  0  0
  1 25  1  0  0  0
  1 30  2  0  0  0
  1 79  1  0  0  0
  2  3  1  0  0  0
  2 25  1  0  0  0
  2 84  1  0  0  0
  2 85  1  0  0  0
  3  4  1  0  0  0
  3 86  1  0  0  0
  3 87  1  0  0  0
  4  5  1  0  0  0
  4 88  1  0  0  0
  4 89  1  0  0  0
  5  6  1  0  0  0
  5 26  1  0  0  0
  5 90  1  0  0  0
  6 25  1  0  0  0
  6 91  1  0  0  0
  6 92  1  0  0  0
  7  8  2  0  0  0
  7 26  1  0  0  0
  7 29  1  0  0  0
  8  9  1  0  0  0
  8 22  1  0  0  0
  9 10  1  0  0  0
  9 27  2  0  0  0
 10 11  2  0  0  0
 10 15  1  0  0  0
 11 12  1  0  0  0
 11 93  1  0  0  0
 12 13  2  0  0  0
 12 94  1  0  0  0
 13 14  1  0  0  0
 13 31  1  0  0  0
 14 15  2  0  0  0
 14 95  1  0  0  0
 15 96  1  0  0  0
 16 17  2  0  0  0
 16 21  1  0  0  0
 16 31  1  0  0  0
 17 18  1  0  0  0
 17 97  1  0  0  0
 18 19  2  0  0  0
 18 98  1  0  0  0
 19 20  1  0  0  0
 19 24  1  0  0  0
 20 21  2  0  0  0
 20 99  1  0  0  0
 21 23  1  0  0  0
 22 28  1  0  0  0
 22 32  2  0  0  0
 26 27  1  0  0  0
 28100  1  0  0  0
 28101  1  0  0  0
 29102  1  0  0  0
 29103  1  0  0  0
 33 34  1  0  0  0
 33 66  1  0  0  0
 33 70  2  0  0  0
 34 36  1  0  0  0
 34 59  1  0  0  0
 34104  1  0  0  0
 35 44  2  0  0  0
 35 45  1  0  0  0
 35 68  1  0  0  0
 36 56  1  0  0  0
 36105  1  0  0  0
 37 39  1  0  0  0
 37 47  1  0  0  0
 37 66  1  0  0  0
 37106  1  0  0  0
 38 43  2  0  0  0
 38 46  1  0  0  0
 38 47  1  0  0  0
 39 64  1  0  0  0
 39 67  2  0  0  0
 40 52  1  0  0  0
 40 53  2  0  0  0
 40 58  1  0  0  0
 41107  1  0  0  0
 41108  1  0  0  0
 41109  1  0  0  0
 41 48  1  0  0  0
 42 43  1  0  0  0
 42 66  1  0  0  0
 42110  1  0  0  0
 42111  1  0  0  0
 43 44  1  0  0  0
 44112  1  0  0  0
 45 46  2  0  0  0
 45113  1  0  0  0
 46114  1  0  0  0
 47115  1  0  0  0
 47116  1  0  0  0
 48 56  1  0  0  0
 48 65  1  0  0  0
 48117  1  0  0  0
 49 50  1  0  0  0
 49 53  1  0  0  0
 49 64  1  0  0  0
 49118  1  0  0  0
 50 51  1  0  0  0
 50119  1  0  0  0
 50120  1  0  0  0
 51 52  1  0  0  0
 51121  1  0  0  0
 51122  1  0  0  0
 52123  1  0  0  0
 52124  1  0  0  0
 53 54  1  0  0  0
 54 55  2  0  0  0
 54125  1  0  0  0
 55 57  1  0  0  0
 55126  1  0  0  0
 56 69  2  0  0  0
 57 58  2  0  0  0
 57127  1  0  0  0
 58128  1  0  0  0
 59 60  1  0  0  0
 59 61  1  0  0  0
 59 62  1  0  0  0
 60129  1  0  0  0
 60130  1  0  0  0
 60131  1  0  0  0
 61132  1  0  0  0
 61133  1  0  0  0
 61134  1  0  0  0
 62135  1  0  0  0
 62136  1  0  0  0
 62137  1  0  0  0
 63 65  1  0  0  0
 63138  1  0  0  0
 63139  1  0  0  0
 63140  1  0  0  0
 64141  1  0  0  0
 65142  1  0  0  0
 68 80  1  0  0  0
 71 74  2  0  0  0
 71 75  1  0  0  0
 71143  1  0  0  0
 72 74  1  0  0  0
 72 76  2  0  0  0
 72 79  1  0  0  0
 73 75  2  0  0  0
 73 76  1  0  0  0
 73 80  1  0  0  0
 74 81  1  0  0  0
 75 82  1  0  0  0
 76 83  1  0  0  0
 77 78  1  0  0  0
 77144  1  0  0  0
 77145  1  0  0  0
 77146  1  0  0  0
 78 80  1  0  0  0
 78147  1  0  0  0
 78148  1  0  0  0
 79149  1  0  0  0
M  ISO  4   1 100  68 101  79 100  80 101
M  END
> <chiral flag>
0

> <version>
0

> <s_m_source_file>
/data/baiqing/PycharmProjects/Reinvent-master-3.2/result/LINK_invent/BTK/process_docking_weight1_custom_sum_contain_oxygen_bond_distance_aromatic_linkinvent_7_9_3/rearranged_h_0012.sdf

> <i_m_source_file_index>
1

> <r_mmod_Potential_Energy-OPLS-2005>
2961.6259765625

> <r_mmod_Stretch_Energy-OPLS-2005>
1344.80395507812

> <r_mmod_Bend_Energy-OPLS-2005>
686.495788574219

> <r_mmod_Torsional_Energy-OPLS-2005>
193.093246459961

> <r_mmod_Improper_Torsional_Energy-OPLS-2005>
3.22837519645691

> <r_mmod_Van_der_Waal_Energy-OPLS-2005>
126.203628540039

> <r_mmod_Electrostatic_Energy-OPLS-2005>
-389.155731201172

> <r_mmod_Solvation_Energy-OPLS-2005>
-226.938491821289

> <b_mmod_Minimization_Converged-OPLS-2005>
0

> <r_mmod_RMS_Derivative-OPLS-2005>
3.03160047531128

$$$$
1
                    3D
 Structure written by MMmdl.
156164  0  0  1  0            999 V2000
  -30.6860  -14.4612   20.6166 C   0  0  0  0  0  0
  -30.4345  -12.3133   19.4211 C   0  0  0  0  0  0
  -29.4991  -12.5167   18.2102 C   0  0  0  0  0  0
  -28.0210  -12.3633   18.6208 C   0  0  0  0  0  0
  -27.6656  -13.1945   19.8814 C   0  0  2  0  0  0
  -28.7031  -12.9498   20.9999 C   0  0  0  0  0  0
  -25.2611  -13.8129   20.5676 C   0  0  0  0  0  0
  -24.1846  -13.0427   20.9173 C   0  0  0  0  0  0
  -24.6386  -11.6889   20.8733 C   0  0  0  0  0  0
  -23.9044  -10.4285   21.0406 C   0  0  0  0  0  0
  -24.3598   -9.4206   21.9187 C   0  0  0  0  0  0
  -23.6282   -8.2239   22.0755 C   0  0  0  0  0  0
  -22.4267   -8.0272   21.3541 C   0  0  0  0  0  0
  -21.9895   -9.0243   20.4647 C   0  0  0  0  0  0
  -22.7216  -10.2126   20.3059 C   0  0  0  0  0  0
  -21.6847   -6.0733   22.5283 C   0  0  0  0  0  0
  -21.4012   -6.5639   23.8215 C   0  0  0  0  0  0
  -21.3661   -5.6792   24.9177 C   0  0  0  0  0  0
  -21.6045   -4.3054   24.7230 C   0  0  0  0  0  0
  -21.8816   -3.8146   23.4350 C   0  0  0  0  0  0
  -21.9192   -4.6962   22.3407 C   0  0  0  0  0  0
  -22.7871  -13.5237   21.1845 C   0  0  0  0  0  0
  -22.1658   -4.2150   21.0983 F   0  0  0  0  0  0
  -21.5631   -3.4538   25.7743 F   0  0  0  0  0  0
  -30.0415  -13.2715   20.4656 N   0  0  0  0  0  0
  -26.3034  -12.9274   20.3369 N   0  0  0  0  0  0
  -25.9306  -11.6445   20.5755 N   0  0  0  0  0  0
  -22.0508  -12.8231   22.0399 N   0  0  0  0  0  0
  -25.4365  -15.1844   20.4072 N   0  0  0  0  0  0
  -31.7683  -14.7203   20.0802 O   0  0  0  0  0  0
  -21.6629   -6.8874   21.4244 O   0  0  0  0  0  0
  -22.3564  -14.5553   20.6710 O   0  0  0  0  0  0
  -24.6145  -31.8690   23.2096 C   0  0  0  0  0  0
  -25.9044  -32.4825   23.8393 C   0  0  1  0  0  0
  -27.2322  -27.4307   20.0882 C   0  0  0  0  0  0
  -25.5902  -33.8617   24.2336 N   0  0  0  0  0  0
  -23.4010  -30.4940   21.5505 C   0  0  2  0  0  0
  -24.8461  -28.9620   20.1117 C   0  0  0  0  0  0
  -22.7414  -29.4660   22.4982 C   0  0  0  0  0  0
  -18.0273  -28.1367   22.8470 C   0  0  0  0  0  0
  -24.1492  -36.7311   23.2637 C   0  0  0  0  0  0
  -25.9310  -30.8347   21.3605 C   0  0  0  0  0  0
  -26.0081  -29.4695   20.7052 C   0  0  0  0  0  0
  -27.2034  -28.7130   20.6865 C   0  0  0  0  0  0
  -26.0445  -26.9382   19.4954 C   0  0  0  0  0  0
  -24.8598  -27.6963   19.5039 C   0  0  0  0  0  0
  -23.6071  -29.8280   20.1641 C   0  0  0  0  0  0
  -25.4107  -36.3104   24.0345 C   0  0  1  0  0  0
  -20.5863  -28.3647   23.1317 C   0  0  2  0  0  0
  -20.6757  -26.9386   22.5411 C   0  0  0  0  0  0
  -19.5741  -26.6376   21.5196 C   0  0  0  0  0  0
  -18.1919  -26.7909   22.1608 C   0  0  0  0  0  0
  -19.1521  -28.8825   23.2886 C   0  0  0  0  0  0
  -18.9455  -30.1431   23.8896 C   0  0  0  0  0  0
  -17.6458  -30.6570   24.0557 C   0  0  0  0  0  0
  -25.9037  -34.9471   23.5139 C   0  0  0  0  0  0
  -16.5347  -29.9073   23.6323 C   0  0  0  0  0  0
  -16.7262  -28.6497   23.0327 C   0  0  0  0  0  0
  -26.4462  -31.6595   25.0718 C   0  0  0  0  0  0
  -25.3729  -31.3699   26.1473 C   0  0  0  0  0  0
  -27.0291  -30.3045   24.6069 C   0  0  0  0  0  0
  -27.6047  -32.4302   25.7478 C   0  0  0  0  0  0
  -27.5580  -37.1805   24.8464 C   0  0  0  0  0  0
  -21.4146  -29.3023   22.3733 N   0  0  0  0  0  0
  -26.4292  -37.3791   23.9417 N   0  0  0  0  0  0
  -24.6673  -31.0800   22.0990 N   0  0  0  0  0  0
  -23.4193  -28.8192   23.3003 O   0  0  0  0  0  0
  -28.4094  -26.7013   20.1008 O   0  0  0  0  0  0
  -26.5594  -34.8924   22.4691 O   0  0  0  0  0  0
  -23.5343  -32.1439   23.7504 O   0  0  0  0  0  0
  -30.4986  -18.9044   22.4395 C   0  0  0  0  0  0
  -29.4082  -18.9062   20.2598 C   0  0  0  0  0  0
  -29.8866  -19.6137   21.3842 C   0  0  0  0  0  0
  -30.0979  -16.7792   21.2846 C   0  0  0  0  0  0
  -30.6007  -17.4976   22.3910 C   0  0  0  0  0  0
  -29.5100  -17.4963   20.2084 C   0  0  0  0  0  0
  -29.8626  -22.0202   20.6413 C   0  0  0  0  0  0
  -30.5182  -21.7508   19.3105 C   0  0  0  0  0  0
  -29.6484  -24.5513   20.2148 C   0  0  0  0  0  0
  -28.3075  -25.2745   19.9437 C   0  0  0  0  0  0
  -29.6378  -21.0372   21.5562 N   0  0  0  0  0  0
  -30.0291  -15.3575   21.3688 N   0  0  0  0  0  0
  -29.4818  -23.2836   20.9721 N   0  3  0  0  0  0
  -31.1403  -16.8301   23.4411 F   0  0  0  0  0  0
  -28.8295  -16.6746   18.8468 Cl  0  0  0  0  0  0
  -31.4773  -12.4337   19.1214 H   0  0  0  0  0  0
  -30.3524  -11.2947   19.8039 H   0  0  0  0  0  0
  -29.7448  -11.8031   17.4226 H   0  0  0  0  0  0
  -29.6600  -13.5089   17.7860 H   0  0  0  0  0  0
  -27.8372  -11.3052   18.8130 H   0  0  0  0  0  0
  -27.3692  -12.6385   17.7909 H   0  0  0  0  0  0
  -27.7151  -14.2435   19.5979 H   0  0  0  0  0  0
  -28.6809  -11.9036   21.3103 H   0  0  0  0  0  0
  -28.4439  -13.5133   21.8970 H   0  0  0  0  0  0
  -25.2742   -9.5682   22.4756 H   0  0  0  0  0  0
  -23.9994   -7.4630   22.7468 H   0  0  0  0  0  0
  -21.0830   -8.8754   19.8951 H   0  0  0  0  0  0
  -22.3673  -10.9662   19.6164 H   0  0  0  0  0  0
  -21.2000   -7.6146   23.9720 H   0  0  0  0  0  0
  -21.1489   -6.0522   25.9080 H   0  0  0  0  0  0
  -22.0596   -2.7611   23.2850 H   0  0  0  0  0  0
  -22.4096  -11.9862   22.4757 H   0  0  0  0  0  0
  -21.1135  -13.1266   22.2622 H   0  0  0  0  0  0
  -24.6694  -15.8405   20.5069 H   0  0  0  0  0  0
  -26.2850  -15.6157   20.0629 H   0  0  0  0  0  0
  -26.7114  -32.5536   23.1165 H   0  0  0  0  0  0
  -25.0054  -33.9767   25.0481 H   0  0  0  0  0  0
  -22.6877  -31.3098   21.4141 H   0  0  0  0  0  0
  -23.3742  -35.9654   23.3299 H   0  0  0  0  0  0
  -24.3592  -36.8927   22.2051 H   0  0  0  0  0  0
  -23.7253  -37.6522   23.6648 H   0  0  0  0  0  0
  -26.0388  -31.6022   20.5925 H   0  0  0  0  0  0
  -26.8209  -30.8909   21.9763 H   0  0  0  0  0  0
  -28.1006  -29.1043   21.1457 H   0  0  0  0  0  0
  -26.0062  -25.9712   19.0162 H   0  0  0  0  0  0
  -23.9672  -27.2996   19.0403 H   0  0  0  0  0  0
  -23.7085  -30.6043   19.4037 H   0  0  0  0  0  0
  -22.7316  -29.2448   19.8719 H   0  0  0  0  0  0
  -25.1275  -36.1966   25.0837 H   0  0  0  0  0  0
  -20.9947  -28.3207   24.1438 H   0  0  0  0  0  0
  -20.5646  -26.2258   23.3589 H   0  0  0  0  0  0
  -21.6632  -26.7417   22.1218 H   0  0  0  0  0  0
  -19.6911  -25.6296   21.1202 H   0  0  0  0  0  0
  -19.6689  -27.3204   20.6737 H   0  0  0  0  0  0
  -17.4191  -26.6649   21.4007 H   0  0  0  0  0  0
  -18.0325  -26.0048   22.9005 H   0  0  0  0  0  0
  -19.7942  -30.7236   24.2259 H   0  0  0  0  0  0
  -17.5024  -31.6249   24.5159 H   0  0  0  0  0  0
  -15.5352  -30.2972   23.7654 H   0  0  0  0  0  0
  -15.8660  -28.0831   22.7014 H   0  0  0  0  0  0
  -24.5910  -30.7034   25.7822 H   0  0  0  0  0  0
  -24.8898  -32.2851   26.4902 H   0  0  0  0  0  0
  -25.8081  -30.8891   27.0242 H   0  0  0  0  0  0
  -26.2832  -29.6814   24.1129 H   0  0  0  0  0  0
  -27.4092  -29.7271   25.4502 H   0  0  0  0  0  0
  -27.8648  -30.4383   23.9198 H   0  0  0  0  0  0
  -27.2673  -33.3605   26.2058 H   0  0  0  0  0  0
  -28.3846  -32.6854   25.0291 H   0  0  0  0  0  0
  -28.0716  -31.8413   26.5385 H   0  0  0  0  0  0
  -28.2585  -38.0111   24.7512 H   0  0  0  0  0  0
  -28.1085  -36.2642   24.6276 H   0  0  0  0  0  0
  -27.2305  -37.1444   25.8868 H   0  0  0  0  0  0
  -20.9293  -29.8771   21.6989 H   0  0  0  0  0  0
  -26.0177  -38.2869   24.1418 H   0  0  0  0  0  0
  -30.8542  -19.4261   23.3157 H   0  0  0  0  0  0
  -28.9059  -19.4282   19.4590 H   0  0  0  0  0  0
  -31.0562  -20.8043   19.2977 H   0  0  0  0  0  0
  -31.2564  -22.5182   19.0795 H   0  0  0  0  0  0
  -29.7706  -21.7372   18.5171 H   0  0  0  0  0  0
  -30.2813  -25.1978   20.8240 H   0  0  0  0  0  0
  -30.1839  -24.4083   19.2781 H   0  0  0  0  0  0
  -27.5331  -24.8863   20.6079 H   0  0  0  0  0  0
  -28.0026  -25.0431   18.9219 H   0  0  0  0  0  0
  -29.5064  -21.3645   22.5045 H   0  0  0  0  0  0
  -29.2360  -14.9929   21.8727 H   0  0  0  0  0  0
  -29.0440  -23.4284   21.8728 H   0  0  0  0  0  0
  1 25  1  0  0  0
  1 30  2  0  0  0
  1 82  1  0  0  0
  2  3  1  0  0  0
  2 25  1  0  0  0
  2 86  1  0  0  0
  2 87  1  0  0  0
  3  4  1  0  0  0
  3 88  1  0  0  0
  3 89  1  0  0  0
  4  5  1  0  0  0
  4 90  1  0  0  0
  4 91  1  0  0  0
  5  6  1  0  0  0
  5 26  1  0  0  0
  5 92  1  0  0  0
  6 25  1  0  0  0
  6 93  1  0  0  0
  6 94  1  0  0  0
  7  8  2  0  0  0
  7 26  1  0  0  0
  7 29  1  0  0  0
  8  9  1  0  0  0
  8 22  1  0  0  0
  9 10  1  0  0  0
  9 27  2  0  0  0
 10 11  2  0  0  0
 10 15  1  0  0  0
 11 12  1  0  0  0
 11 95  1  0  0  0
 12 13  2  0  0  0
 12 96  1  0  0  0
 13 14  1  0  0  0
 13 31  1  0  0  0
 14 15  2  0  0  0
 14 97  1  0  0  0
 15 98  1  0  0  0
 16 17  2  0  0  0
 16 21  1  0  0  0
 16 31  1  0  0  0
 17 18  1  0  0  0
 17 99  1  0  0  0
 18 19  2  0  0  0
 18100  1  0  0  0
 19 20  1  0  0  0
 19 24  1  0  0  0
 20 21  2  0  0  0
 20101  1  0  0  0
 21 23  1  0  0  0
 22 28  1  0  0  0
 22 32  2  0  0  0
 26 27  1  0  0  0
 28102  1  0  0  0
 28103  1  0  0  0
 29104  1  0  0  0
 29105  1  0  0  0
 33 34  1  0  0  0
 33 66  1  0  0  0
 33 70  2  0  0  0
 34 36  1  0  0  0
 34 59  1  0  0  0
 34106  1  0  0  0
 35 44  2  0  0  0
 35 45  1  0  0  0
 35 68  1  0  0  0
 36 56  1  0  0  0
 36107  1  0  0  0
 37 39  1  0  0  0
 37 47  1  0  0  0
 37 66  1  0  0  0
 37108  1  0  0  0
 38 43  2  0  0  0
 38 46  1  0  0  0
 38 47  1  0  0  0
 39 64  1  0  0  0
 39 67  2  0  0  0
 40 52  1  0  0  0
 40 53  2  0  0  0
 40 58  1  0  0  0
 41109  1  0  0  0
 41110  1  0  0  0
 41111  1  0  0  0
 41 48  1  0  0  0
 42 43  1  0  0  0
 42 66  1  0  0  0
 42112  1  0  0  0
 42113  1  0  0  0
 43 44  1  0  0  0
 44114  1  0  0  0
 45 46  2  0  0  0
 45115  1  0  0  0
 46116  1  0  0  0
 47117  1  0  0  0
 47118  1  0  0  0
 48 56  1  0  0  0
 48 65  1  0  0  0
 48119  1  0  0  0
 49 50  1  0  0  0
 49 53  1  0  0  0
 49 64  1  0  0  0
 49120  1  0  0  0
 50 51  1  0  0  0
 50121  1  0  0  0
 50122  1  0  0  0
 51 52  1  0  0  0
 51123  1  0  0  0
 51124  1  0  0  0
 52125  1  0  0  0
 52126  1  0  0  0
 53 54  1  0  0  0
 54 55  2  0  0  0
 54127  1  0  0  0
 55 57  1  0  0  0
 55128  1  0  0  0
 56 69  2  0  0  0
 57 58  2  0  0  0
 57129  1  0  0  0
 58130  1  0  0  0
 59 60  1  0  0  0
 59 61  1  0  0  0
 59 62  1  0  0  0
 60131  1  0  0  0
 60132  1  0  0  0
 60133  1  0  0  0
 61134  1  0  0  0
 61135  1  0  0  0
 61136  1  0  0  0
 62137  1  0  0  0
 62138  1  0  0  0
 62139  1  0  0  0
 63 65  1  0  0  0
 63140  1  0  0  0
 63141  1  0  0  0
 63142  1  0  0  0
 64143  1  0  0  0
 65144  1  0  0  0
 68 80  1  0  0  0
 71 73  2  0  0  0
 71 75  1  0  0  0
 71145  1  0  0  0
 72 73  1  0  0  0
 72 76  2  0  0  0
 72146  1  0  0  0
 73 81  1  0  0  0
 74 75  2  0  0  0
 74 76  1  0  0  0
 74 82  1  0  0  0
 75 84  1  0  0  0
 76 85  1  0  0  0
 77 78  1  0  0  0
 77 81  1  0  0  0
 77 83  2  0  0  0
 78147  1  0  0  0
 78148  1  0  0  0
 78149  1  0  0  0
 79 80  1  0  0  0
 79 83  1  0  0  0
 79150  1  0  0  0
 79151  1  0  0  0
 80152  1  0  0  0
 80153  1  0  0  0
 81154  1  0  0  0
 82155  1  0  0  0
 83156  1  0  0  0
M  CHG  1  83   1
M  ISO  4   1 100  68 101  80 101  82 100
M  END
> <chiral flag>
0

> <version>
0

> <s_m_source_file>
/data/baiqing/PycharmProjects/Reinvent-master-3.2/result/LINK_invent/BTK/process_docking_weight1_custom_sum_contain_oxygen_bond_distance_aromatic_linkinvent_7_9_3/rearranged_h_0012.sdf

> <i_m_source_file_index>
2

> <r_mmod_Potential_Energy-OPLS-2005>
-157.851516723633

> <r_mmod_Stretch_Energy-OPLS-2005>
39.2326164245605

> <r_mmod_Bend_Energy-OPLS-2005>
105.628593444824

> <r_mmod_Torsional_Energy-OPLS-2005>
239.68310546875

> <r_mmod_Improper_Torsional_Energy-OPLS-2005>
5.07781219482422

> <r_mmod_Van_der_Waal_Energy-OPLS-2005>
152.476211547852

> <r_mmod_Electrostatic_Energy-OPLS-2005>
-263.446899414062

> <r_mmod_Solvation_Energy-OPLS-2005>
-448.261047363281

> <b_mmod_Minimization_Converged-OPLS-2005>
0

> <r_mmod_RMS_Derivative-OPLS-2005>
1.34134316444397

$$$$
2
                    3D
 Structure written by MMmdl.
157165  0  0  1  0            999 V2000
  -30.5350  -14.9636   20.3923 C   0  0  0  0  0  0
  -30.4543  -12.5999   19.4833 C   0  0  0  0  0  0
  -29.5232  -12.5137   18.2507 C   0  0  0  0  0  0
  -28.0630  -12.2839   18.6828 C   0  0  0  0  0  0
  -27.6326  -13.2339   19.8275 C   0  0  2  0  0  0
  -28.6815  -13.2842   20.9635 C   0  0  0  0  0  0
  -25.2487  -13.8138   20.5768 C   0  0  0  0  0  0
  -24.1831  -13.0400   20.9290 C   0  0  0  0  0  0
  -24.6409  -11.6889   20.8713 C   0  0  0  0  0  0
  -23.9067  -10.4305   21.0364 C   0  0  0  0  0  0
  -24.3631   -9.4230   21.9148 C   0  0  0  0  0  0
  -23.6309   -8.2277   22.0733 C   0  0  0  0  0  0
  -22.4290   -8.0310   21.3536 C   0  0  0  0  0  0
  -21.9922   -9.0279   20.4621 C   0  0  0  0  0  0
  -22.7238  -10.2156   20.3007 C   0  0  0  0  0  0
  -21.6869   -6.0750   22.5270 C   0  0  0  0  0  0
  -21.4033   -6.5640   23.8210 C   0  0  0  0  0  0
  -21.3654   -5.6789   24.9172 C   0  0  0  0  0  0
  -21.6039   -4.3048   24.7215 C   0  0  0  0  0  0
  -21.8821   -3.8148   23.4329 C   0  0  0  0  0  0
  -21.9207   -4.6978   22.3388 C   0  0  0  0  0  0
  -22.7868  -13.5206   21.1957 C   0  0  0  0  0  0
  -22.1678   -4.2154   21.0968 F   0  0  0  0  0  0
  -21.5615   -3.4533   25.7722 F   0  0  0  0  0  0
  -29.9577  -13.6957   20.3590 N   0  0  0  0  0  0
  -26.2904  -12.9369   20.3174 N   0  0  0  0  0  0
  -25.9330  -11.6502   20.5696 N   0  0  0  0  0  0
  -22.0515  -12.8199   22.0459 N   0  0  0  0  0  0
  -25.4019  -15.1870   20.4344 N   0  0  0  0  0  0
  -31.7423  -15.0597   20.1527 O   0  0  0  0  0  0
  -21.6658   -6.8898   21.4238 O   0  0  0  0  0  0
  -22.3559  -14.5541   20.6825 O   0  0  0  0  0  0
  -24.6432  -31.8461   23.1864 C   0  0  0  0  0  0
  -25.9236  -32.4700   23.8230 C   0  0  1  0  0  0
  -27.2189  -27.1589   20.1622 C   0  0  0  0  0  0
  -25.6001  -33.8505   24.2201 N   0  0  0  0  0  0
  -23.4419  -30.4665   21.5309 C   0  0  2  0  0  0
  -24.8937  -28.8954   20.1094 C   0  0  0  0  0  0
  -22.7534  -29.4583   22.4859 C   0  0  0  0  0  0
  -18.0266  -28.1421   22.8454 C   0  0  0  0  0  0
  -24.1469  -36.7257   23.2634 C   0  0  0  0  0  0
  -25.9961  -30.7355   21.3705 C   0  0  0  0  0  0
  -26.0703  -29.3452   20.7212 C   0  0  0  0  0  0
  -27.2393  -28.4979   20.7194 C   0  0  0  0  0  0
  -26.0172  -26.8057   19.5052 C   0  0  0  0  0  0
  -24.8787  -27.6387   19.4831 C   0  0  0  0  0  0
  -23.6659  -29.7920   20.1562 C   0  0  0  0  0  0
  -25.4094  -36.3020   24.0325 C   0  0  1  0  0  0
  -20.5865  -28.3756   23.1250 C   0  0  2  0  0  0
  -20.6752  -26.9463   22.5397 C   0  0  0  0  0  0
  -19.5748  -26.6422   21.5191 C   0  0  0  0  0  0
  -18.1932  -26.7952   22.1591 C   0  0  0  0  0  0
  -19.1509  -28.8893   23.2853 C   0  0  0  0  0  0
  -18.9450  -30.1477   23.8899 C   0  0  0  0  0  0
  -17.6467  -30.6629   24.0540 C   0  0  0  0  0  0
  -25.9081  -34.9401   23.5064 C   0  0  0  0  0  0
  -16.5346  -29.9122   23.6332 C   0  0  0  0  0  0
  -16.7262  -28.6518   23.0370 C   0  0  0  0  0  0
  -26.4591  -31.6506   25.0619 C   0  0  0  0  0  0
  -25.3825  -31.3709   26.1355 C   0  0  0  0  0  0
  -27.0405  -30.2858   24.6134 C   0  0  0  0  0  0
  -27.6081  -32.4274   25.7458 C   0  0  0  0  0  0
  -27.5550  -37.1781   24.8498 C   0  0  0  0  0  0
  -21.4212  -29.3074   22.3610 N   0  0  0  0  0  0
  -26.4266  -37.3719   23.9440 N   0  0  0  0  0  0
  -24.7143  -31.0352   22.0878 N   0  0  0  0  0  0
  -23.4166  -28.8122   23.3017 O   0  0  0  0  0  0
  -28.2727  -26.1798   20.2092 O   0  0  0  0  0  0
  -26.5621  -34.8883   22.4606 O   0  0  0  0  0  0
  -23.5570  -32.1329   23.7143 O   0  0  0  0  0  0
  -30.6718  -18.5828   20.7979 C   0  0  0  0  0  0
  -30.4493  -20.0315   20.8703 C   0  0  0  0  0  0
  -28.2128  -19.7388   20.1133 C   0  0  0  0  0  0
  -29.6763  -17.6291   20.3906 C   0  0  0  0  0  0
  -29.1911  -20.6927   20.5789 C   0  0  0  0  0  0
  -28.4767  -18.3110   19.9785 C   0  0  0  0  0  0
  -28.7827  -23.3702   20.2129 C   0  0  0  0  0  0
  -31.6220  -20.8943   21.3203 C   0  0  0  0  0  0
  -26.7812  -20.2029   19.8357 C   0  0  0  0  0  0
  -28.5756  -22.3078   22.4042 C   0  0  0  0  0  0
  -27.9673  -24.7378   20.7039 C   0  0  0  0  0  0
  -29.6715  -16.0896   20.4373 N   0  0  0  0  0  0
  -28.8512  -22.1526   20.9663 N   0  0  0  0  0  0
  -29.3317  -23.4252   19.1055 O   0  0  0  0  0  0
  -27.2620  -17.3227   19.2446 Cl  0  0  0  0  0  0
  -31.4815  -12.7768   19.1657 H   0  0  0  0  0  0
  -30.4676  -11.6566   20.0283 H   0  0  0  0  0  0
  -29.8516  -11.7059   17.5952 H   0  0  0  0  0  0
  -29.5893  -13.4302   17.6654 H   0  0  0  0  0  0
  -27.9848  -11.2482   19.0225 H   0  0  0  0  0  0
  -27.3936  -12.3819   17.8249 H   0  0  0  0  0  0
  -27.5875  -14.2254   19.3749 H   0  0  0  0  0  0
  -28.7814  -12.3186   21.4612 H   0  0  0  0  0  0
  -28.3757  -13.9988   21.7302 H   0  0  0  0  0  0
  -25.2817   -9.5717   22.4676 H   0  0  0  0  0  0
  -24.0038   -7.4685   22.7448 H   0  0  0  0  0  0
  -21.0839   -8.8785   19.8923 H   0  0  0  0  0  0
  -22.3717  -10.9687   19.6086 H   0  0  0  0  0  0
  -21.2034   -7.6155   23.9720 H   0  0  0  0  0  0
  -21.1469   -6.0516   25.9072 H   0  0  0  0  0  0
  -22.0604   -2.7611   23.2831 H   0  0  0  0  0  0
  -22.4238  -11.9920   22.4872 H   0  0  0  0  0  0
  -21.1099  -13.1168   22.2571 H   0  0  0  0  0  0
  -24.6165  -15.8133   20.5619 H   0  0  0  0  0  0
  -26.2061  -15.6532   20.0310 H   0  0  0  0  0  0
  -26.7266  -32.5332   23.0923 H   0  0  0  0  0  0
  -25.0199  -33.9633   25.0390 H   0  0  0  0  0  0
  -22.7333  -31.2854   21.3728 H   0  0  0  0  0  0
  -23.3722  -35.9608   23.3326 H   0  0  0  0  0  0
  -24.3562  -36.8848   22.2042 H   0  0  0  0  0  0
  -23.7214  -37.6461   23.6645 H   0  0  0  0  0  0
  -26.1211  -31.4874   20.5890 H   0  0  0  0  0  0
  -26.8809  -30.8069   21.9929 H   0  0  0  0  0  0
  -28.1451  -28.8465   21.1932 H   0  0  0  0  0  0
  -25.9324  -25.8441   19.0179 H   0  0  0  0  0  0
  -23.9785  -27.2910   18.9959 H   0  0  0  0  0  0
  -23.7947  -30.5643   19.3986 H   0  0  0  0  0  0
  -22.7812  -29.2313   19.8527 H   0  0  0  0  0  0
  -25.1235  -36.1820   25.0805 H   0  0  0  0  0  0
  -20.9921  -28.3359   24.1387 H   0  0  0  0  0  0
  -20.5631  -26.2369   23.3609 H   0  0  0  0  0  0
  -21.6632  -26.7499   22.1185 H   0  0  0  0  0  0
  -19.6952  -25.6344   21.1236 H   0  0  0  0  0  0
  -19.6704  -27.3202   20.6702 H   0  0  0  0  0  0
  -17.4172  -26.6672   21.4028 H   0  0  0  0  0  0
  -18.0361  -26.0133   22.9017 H   0  0  0  0  0  0
  -19.7939  -30.7256   24.2308 H   0  0  0  0  0  0
  -17.5044  -31.6317   24.5134 H   0  0  0  0  0  0
  -15.5360  -30.3031   23.7721 H   0  0  0  0  0  0
  -15.8626  -28.0863   22.7135 H   0  0  0  0  0  0
  -24.6057  -30.6924   25.7801 H   0  0  0  0  0  0
  -24.8987  -32.2907   26.4627 H   0  0  0  0  0  0
  -25.8243  -30.9073   27.0181 H   0  0  0  0  0  0
  -26.2991  -29.6592   24.1141 H   0  0  0  0  0  0
  -27.4005  -29.7079   25.4667 H   0  0  0  0  0  0
  -27.8899  -30.4032   23.9397 H   0  0  0  0  0  0
  -27.2618  -33.3604   26.1894 H   0  0  0  0  0  0
  -28.4012  -32.6774   25.0408 H   0  0  0  0  0  0
  -28.0571  -31.8464   26.5507 H   0  0  0  0  0  0
  -28.2582  -38.0057   24.7440 H   0  0  0  0  0  0
  -28.0999  -36.2563   24.6398 H   0  0  0  0  0  0
  -27.2287  -37.1522   25.8914 H   0  0  0  0  0  0
  -20.9421  -29.8745   21.6747 H   0  0  0  0  0  0
  -26.0124  -38.2787   24.1412 H   0  0  0  0  0  0
  -31.6383  -18.2072   21.1061 H   0  0  0  0  0  0
  -31.6087  -21.8625   20.8149 H   0  0  0  0  0  0
  -32.5826  -20.4335   21.0827 H   0  0  0  0  0  0
  -31.5972  -21.0743   22.3973 H   0  0  0  0  0  0
  -26.4602  -19.9099   18.8344 H   0  0  0  0  0  0
  -26.6319  -21.2785   19.9383 H   0  0  0  0  0  0
  -26.1132  -19.7124   20.5469 H   0  0  0  0  0  0
  -29.2364  -23.0510   22.8582 H   0  0  0  0  0  0
  -28.7407  -21.3809   22.9600 H   0  0  0  0  0  0
  -27.5420  -22.6030   22.5914 H   0  0  0  0  0  0
  -27.9736  -24.7907   21.7934 H   0  0  0  0  0  0
  -26.9268  -24.5073   20.4727 H   0  0  0  0  0  0
  -28.7198  -15.7584   20.4473 H   0  0  0  0  0  0
  1 25  1  0  0  0
  1 30  2  0  0  0
  1 82  1  0  0  0
  2  3  1  0  0  0
  2 25  1  0  0  0
  2 86  1  0  0  0
  2 87  1  0  0  0
  3  4  1  0  0  0
  3 88  1  0  0  0
  3 89  1  0  0  0
  4  5  1  0  0  0
  4 90  1  0  0  0
  4 91  1  0  0  0
  5  6  1  0  0  0
  5 26  1  0  0  0
  5 92  1  0  0  0
  6 25  1  0  0  0
  6 93  1  0  0  0
  6 94  1  0  0  0
  7  8  2  0  0  0
  7 26  1  0  0  0
  7 29  1  0  0  0
  8  9  1  0  0  0
  8 22  1  0  0  0
  9 10  1  0  0  0
  9 27  2  0  0  0
 10 11  2  0  0  0
 10 15  1  0  0  0
 11 12  1  0  0  0
 11 95  1  0  0  0
 12 13  2  0  0  0
 12 96  1  0  0  0
 13 14  1  0  0  0
 13 31  1  0  0  0
 14 15  2  0  0  0
 14 97  1  0  0  0
 15 98  1  0  0  0
 16 17  2  0  0  0
 16 21  1  0  0  0
 16 31  1  0  0  0
 17 18  1  0  0  0
 17 99  1  0  0  0
 18 19  2  0  0  0
 18100  1  0  0  0
 19 20  1  0  0  0
 19 24  1  0  0  0
 20 21  2  0  0  0
 20101  1  0  0  0
 21 23  1  0  0  0
 22 28  1  0  0  0
 22 32  2  0  0  0
 26 27  1  0  0  0
 28102  1  0  0  0
 28103  1  0  0  0
 29104  1  0  0  0
 29105  1  0  0  0
 33 34  1  0  0  0
 33 66  1  0  0  0
 33 70  2  0  0  0
 34 36  1  0  0  0
 34 59  1  0  0  0
 34106  1  0  0  0
 35 44  2  0  0  0
 35 45  1  0  0  0
 35 68  1  0  0  0
 36 56  1  0  0  0
 36107  1  0  0  0
 37 39  1  0  0  0
 37 47  1  0  0  0
 37 66  1  0  0  0
 37108  1  0  0  0
 38 43  2  0  0  0
 38 46  1  0  0  0
 38 47  1  0  0  0
 39 64  1  0  0  0
 39 67  2  0  0  0
 40 52  1  0  0  0
 40 53  2  0  0  0
 40 58  1  0  0  0
 41109  1  0  0  0
 41110  1  0  0  0
 41111  1  0  0  0
 41 48  1  0  0  0
 42 43  1  0  0  0
 42 66  1  0  0  0
 42112  1  0  0  0
 42113  1  0  0  0
 43 44  1  0  0  0
 44114  1  0  0  0
 45 46  2  0  0  0
 45115  1  0  0  0
 46116  1  0  0  0
 47117  1  0  0  0
 47118  1  0  0  0
 48 56  1  0  0  0
 48 65  1  0  0  0
 48119  1  0  0  0
 49 50  1  0  0  0
 49 53  1  0  0  0
 49 64  1  0  0  0
 49120  1  0  0  0
 50 51  1  0  0  0
 50121  1  0  0  0
 50122  1  0  0  0
 51 52  1  0  0  0
 51123  1  0  0  0
 51124  1  0  0  0
 52125  1  0  0  0
 52126  1  0  0  0
 53 54  1  0  0  0
 54 55  2  0  0  0
 54127  1  0  0  0
 55 57  1  0  0  0
 55128  1  0  0  0
 56 69  2  0  0  0
 57 58  2  0  0  0
 57129  1  0  0  0
 58130  1  0  0  0
 59 60  1  0  0  0
 59 61  1  0  0  0
 59 62  1  0  0  0
 60131  1  0  0  0
 60132  1  0  0  0
 60133  1  0  0  0
 61134  1  0  0  0
 61135  1  0  0  0
 61136  1  0  0  0
 62137  1  0  0  0
 62138  1  0  0  0
 62139  1  0  0  0
 63 65  1  0  0  0
 63140  1  0  0  0
 63141  1  0  0  0
 63142  1  0  0  0
 64143  1  0  0  0
 65144  1  0  0  0
 68 81  1  0  0  0
 71 72  2  0  0  0
 71 74  1  0  0  0
 71145  1  0  0  0
 72 75  1  0  0  0
 72 78  1  0  0  0
 73 75  2  0  0  0
 73 76  1  0  0  0
 73 79  1  0  0  0
 74 76  2  0  0  0
 74 82  1  0  0  0
 75 83  1  0  0  0
 76 85  1  0  0  0
 77 81  1  0  0  0
 77 83  1  0  0  0
 77 84  2  0  0  0
 78146  1  0  0  0
 78147  1  0  0  0
 78148  1  0  0  0
 79149  1  0  0  0
 79150  1  0  0  0
 79151  1  0  0  0
 80 83  1  0  0  0
 80152  1  0  0  0
 80153  1  0  0  0
 80154  1  0  0  0
 81155  1  0  0  0
 81156  1  0  0  0
 82157  1  0  0  0
M  ISO  4   1 100  68 101  81 101  82 100
M  END
> <chiral flag>
0

> <version>
0

> <s_m_source_file>
/data/baiqing/PycharmProjects/Reinvent-master-3.2/result/LINK_invent/BTK/process_docking_weight1_custom_sum_contain_oxygen_bond_distance_aromatic_linkinvent_7_9_3/rearranged_h_0012.sdf

> <i_m_source_file_index>
3

> <r_mmod_Potential_Energy-OPLS-2005>
569.210510253906

> <r_mmod_Stretch_Energy-OPLS-2005>
241.270660400391

> <r_mmod_Bend_Energy-OPLS-2005>
255.884155273438

> <r_mmod_Torsional_Energy-OPLS-2005>
319.878387451172

> <r_mmod_Improper_Torsional_Energy-OPLS-2005>
8.39181900024414

> <r_mmod_Van_der_Waal_Energy-OPLS-2005>
132.930526733398

> <r_mmod_Electrostatic_Energy-OPLS-2005>
-361.247985839844

> <r_mmod_Solvation_Energy-OPLS-2005>
-221.249496459961

> <b_mmod_Minimization_Converged-OPLS-2005>
0

> <r_mmod_RMS_Derivative-OPLS-2005>
6.84520483016968

$$$$
3
                    3D
 Structure written by MMmdl.
154162  0  0  1  0            999 V2000
  -30.5160  -15.0472   20.4068 C   0  0  0  0  0  0
  -30.4396  -12.6585   19.5010 C   0  0  0  0  0  0
  -29.5231  -12.5396   18.2611 C   0  0  0  0  0  0
  -28.0621  -12.3040   18.6866 C   0  0  0  0  0  0
  -27.6216  -13.2556   19.8289 C   0  0  2  0  0  0
  -28.6634  -13.3377   20.9637 C   0  0  0  0  0  0
  -25.2434  -13.8225   20.5721 C   0  0  0  0  0  0
  -24.1764  -13.0439   20.9244 C   0  0  0  0  0  0
  -24.6393  -11.6928   20.8763 C   0  0  0  0  0  0
  -23.9084  -10.4294   21.0414 C   0  0  0  0  0  0
  -24.3630   -9.4207   21.9191 C   0  0  0  0  0  0
  -23.6301   -8.2243   22.0757 C   0  0  0  0  0  0
  -22.4283   -8.0284   21.3545 C   0  0  0  0  0  0
  -21.9924   -9.0260   20.4646 C   0  0  0  0  0  0
  -22.7258  -10.2136   20.3059 C   0  0  0  0  0  0
  -21.6854   -6.0740   22.5281 C   0  0  0  0  0  0
  -21.4014   -6.5642   23.8215 C   0  0  0  0  0  0
  -21.3659   -5.6793   24.9175 C   0  0  0  0  0  0
  -21.6043   -4.3056   24.7225 C   0  0  0  0  0  0
  -21.8819   -3.8150   23.4345 C   0  0  0  0  0  0
  -21.9193   -4.6967   22.3402 C   0  0  0  0  0  0
  -22.7783  -13.5204   21.1893 C   0  0  0  0  0  0
  -22.1661   -4.2153   21.0979 F   0  0  0  0  0  0
  -21.5628   -3.4539   25.7737 F   0  0  0  0  0  0
  -29.9220  -13.7778   20.3476 N   0  0  0  0  0  0
  -26.2852  -12.9466   20.3221 N   0  0  0  0  0  0
  -25.9325  -11.6591   20.5735 N   0  0  0  0  0  0
  -22.0432  -12.8188   22.0443 N   0  0  0  0  0  0
  -25.4081  -15.1954   20.4135 N   0  0  0  0  0  0
  -31.7342  -15.0696   20.1923 O   0  0  0  0  0  0
  -21.6642   -6.8883   21.4243 O   0  0  0  0  0  0
  -22.3467  -14.5507   20.6734 O   0  0  0  0  0  0
  -24.6506  -31.8375   23.1830 C   0  0  0  0  0  0
  -25.9246  -32.4658   23.8242 C   0  0  1  0  0  0
  -27.2125  -27.0612   20.1629 C   0  0  0  0  0  0
  -25.5970  -33.8467   24.2155 N   0  0  0  0  0  0
  -23.4577  -30.4557   21.5302 C   0  0  2  0  0  0
  -24.9073  -28.8706   20.1121 C   0  0  0  0  0  0
  -22.7601  -29.4517   22.4835 C   0  0  0  0  0  0
  -18.0312  -28.1401   22.8474 C   0  0  0  0  0  0
  -24.1493  -36.7238   23.2644 C   0  0  0  0  0  0
  -26.0196  -30.6874   21.3933 C   0  0  0  0  0  0
  -26.0889  -29.2915   20.7355 C   0  0  0  0  0  0
  -27.2415  -28.4058   20.7395 C   0  0  0  0  0  0
  -26.0027  -26.7634   19.4962 C   0  0  0  0  0  0
  -24.8820  -27.6226   19.4744 C   0  0  0  0  0  0
  -23.6885  -29.7825   20.1514 C   0  0  0  0  0  0
  -25.4129  -36.3010   24.0311 C   0  0  1  0  0  0
  -20.5929  -28.3733   23.1218 C   0  0  2  0  0  0
  -20.6797  -26.9431   22.5401 C   0  0  0  0  0  0
  -19.5771  -26.6383   21.5210 C   0  0  0  0  0  0
  -18.1951  -26.7942   22.1619 C   0  0  0  0  0  0
  -19.1570  -28.8888   23.2837 C   0  0  0  0  0  0
  -18.9486  -30.1481   23.8865 C   0  0  0  0  0  0
  -17.6481  -30.6596   24.0558 C   0  0  0  0  0  0
  -25.9084  -34.9387   23.5045 C   0  0  0  0  0  0
  -16.5371  -29.9086   23.6340 C   0  0  0  0  0  0
  -16.7295  -28.6505   23.0360 C   0  0  0  0  0  0
  -26.4544  -31.6551   25.0710 C   0  0  0  0  0  0
  -25.3709  -31.3760   26.1390 C   0  0  0  0  0  0
  -27.0424  -30.2940   24.6344 C   0  0  0  0  0  0
  -27.6061  -32.4331   25.7503 C   0  0  0  0  0  0
  -27.5574  -37.1779   24.8466 C   0  0  0  0  0  0
  -21.4286  -29.3049   22.3582 N   0  0  0  0  0  0
  -26.4285  -37.3731   23.9407 N   0  0  0  0  0  0
  -24.7299  -31.0164   22.0899 N   0  0  0  0  0  0
  -23.4210  -28.8069   23.3014 O   0  0  0  0  0  0
  -28.2397  -26.0240   20.2212 O   0  0  0  0  0  0
  -26.5673  -34.8897   22.4625 O   0  0  0  0  0  0
  -23.5608  -32.1283   23.7007 O   0  0  0  0  0  0
  -31.7030  -19.4147   21.4445 C   0  0  0  0  0  0
  -31.3235  -18.0995   21.1205 C   0  0  0  0  0  0
  -30.8801  -20.5531   21.2629 C   0  0  0  0  0  0
  -29.2179  -19.0305   20.3450 C   0  0  0  0  0  0
  -30.0558  -17.7911   20.5978 C   0  0  0  0  0  0
  -29.6025  -20.4742   20.6232 C   0  0  0  0  0  0
  -29.0118  -23.2082   20.2178 C   0  0  0  0  0  0
  -31.4312  -21.8297   21.8787 C   0  0  0  0  0  0
  -27.8410  -18.7974   19.7549 C   0  0  0  0  0  0
  -27.8904  -24.4692   20.2200 C   0  0  0  0  0  0
  -28.7544  -21.7903   20.4202 N   0  0  0  0  0  0
  -29.7369  -16.2668   20.4483 N   0  0  0  0  0  0
  -30.1561  -23.5651   19.9324 O   0  0  0  0  0  0
  -31.4677  -12.8329   19.1805 H   0  0  0  0  0  0
  -30.4585  -11.7238   20.0636 H   0  0  0  0  0  0
  -29.8617  -11.7296   17.6135 H   0  0  0  0  0  0
  -29.5890  -13.4542   17.6697 H   0  0  0  0  0  0
  -27.9823  -11.2691   19.0217 H   0  0  0  0  0  0
  -27.3941  -12.3991   17.8297 H   0  0  0  0  0  0
  -27.5665  -14.2444   19.3728 H   0  0  0  0  0  0
  -28.7787  -12.3774   21.4688 H   0  0  0  0  0  0
  -28.3454  -14.0539   21.7232 H   0  0  0  0  0  0
  -25.2773   -9.5681   22.4770 H   0  0  0  0  0  0
  -24.0006   -7.4633   22.7477 H   0  0  0  0  0  0
  -21.0856   -8.8784   19.8948 H   0  0  0  0  0  0
  -22.3722  -10.9678   19.6168 H   0  0  0  0  0  0
  -21.2007   -7.6151   23.9719 H   0  0  0  0  0  0
  -21.1478   -6.0523   25.9078 H   0  0  0  0  0  0
  -22.0598   -2.7613   23.2844 H   0  0  0  0  0  0
  -22.4053  -11.9852   22.4831 H   0  0  0  0  0  0
  -21.1045  -13.1203   22.2641 H   0  0  0  0  0  0
  -24.6362  -15.8437   20.5259 H   0  0  0  0  0  0
  -26.2431  -15.6362   20.0531 H   0  0  0  0  0  0
  -26.7309  -32.5241   23.0962 H   0  0  0  0  0  0
  -25.0096  -33.9572   25.0292 H   0  0  0  0  0  0
  -22.7642  -31.2842   21.3715 H   0  0  0  0  0  0
  -23.3763  -35.9559   23.3284 H   0  0  0  0  0  0
  -24.3580  -36.8893   22.2062 H   0  0  0  0  0  0
  -23.7240  -37.6423   23.6700 H   0  0  0  0  0  0
  -26.1849  -31.4373   20.6186 H   0  0  0  0  0  0
  -26.8862  -30.7389   22.0406 H   0  0  0  0  0  0
  -28.1395  -28.7243   21.2498 H   0  0  0  0  0  0
  -25.8819  -25.8168   18.9943 H   0  0  0  0  0  0
  -23.9827  -27.2969   18.9698 H   0  0  0  0  0  0
  -23.8335  -30.5558   19.3963 H   0  0  0  0  0  0
  -22.8005  -29.2312   19.8367 H   0  0  0  0  0  0
  -25.1323  -36.1825   25.0802 H   0  0  0  0  0  0
  -21.0022  -28.3326   24.1338 H   0  0  0  0  0  0
  -20.5691  -26.2346   23.3625 H   0  0  0  0  0  0
  -21.6662  -26.7432   22.1197 H   0  0  0  0  0  0
  -19.6931  -25.6287   21.1257 H   0  0  0  0  0  0
  -19.6707  -27.3178   20.6727 H   0  0  0  0  0  0
  -17.4222  -26.6682   21.4021 H   0  0  0  0  0  0
  -18.0349  -26.0093   22.9024 H   0  0  0  0  0  0
  -19.7960  -30.7308   24.2216 H   0  0  0  0  0  0
  -17.5033  -31.6271   24.5168 H   0  0  0  0  0  0
  -15.5371  -30.2976   23.7688 H   0  0  0  0  0  0
  -15.8695  -28.0813   22.7094 H   0  0  0  0  0  0
  -24.5906  -30.7086   25.7709 H   0  0  0  0  0  0
  -24.8877  -32.2947   26.4727 H   0  0  0  0  0  0
  -25.7978  -30.8994   27.0223 H   0  0  0  0  0  0
  -26.3062  -29.6640   24.1341 H   0  0  0  0  0  0
  -27.4003  -29.7264   25.4944 H   0  0  0  0  0  0
  -27.8982  -30.4159   23.9702 H   0  0  0  0  0  0
  -27.2652  -33.3670   26.1983 H   0  0  0  0  0  0
  -28.3927  -32.6825   25.0368 H   0  0  0  0  0  0
  -28.0666  -31.8515   26.5499 H   0  0  0  0  0  0
  -28.2581  -38.0086   24.7516 H   0  0  0  0  0  0
  -28.1083  -36.2615   24.6292 H   0  0  0  0  0  0
  -27.2292  -37.1419   25.8869 H   0  0  0  0  0  0
  -20.9511  -29.8752   21.6744 H   0  0  0  0  0  0
  -26.0143  -38.2793   24.1412 H   0  0  0  0  0  0
  -32.6734  -19.5414   21.9046 H   0  0  0  0  0  0
  -32.0264  -17.3105   21.3450 H   0  0  0  0  0  0
  -32.1105  -21.6044   22.7017 H   0  0  0  0  0  0
  -30.6450  -22.4498   22.3064 H   0  0  0  0  0  0
  -31.9990  -22.4010   21.1455 H   0  0  0  0  0  0
  -27.8285  -17.9031   19.1319 H   0  0  0  0  0  0
  -27.5363  -19.6346   19.1274 H   0  0  0  0  0  0
  -27.1042  -18.6746   20.5487 H   0  0  0  0  0  0
  -27.2276  -24.2939   21.0675 H   0  0  0  0  0  0
  -27.2897  -24.2708   19.3344 H   0  0  0  0  0  0
  -27.7591  -21.6171   20.4594 H   0  0  0  0  0  0
  -28.7488  -16.0698   20.4113 H   0  0  0  0  0  0
  1 25  1  0  0  0
  1 30  2  0  0  0
  1 82  1  0  0  0
  2  3  1  0  0  0
  2 25  1  0  0  0
  2 84  1  0  0  0
  2 85  1  0  0  0
  3  4  1  0  0  0
  3 86  1  0  0  0
  3 87  1  0  0  0
  4  5  1  0  0  0
  4 88  1  0  0  0
  4 89  1  0  0  0
  5  6  1  0  0  0
  5 26  1  0  0  0
  5 90  1  0  0  0
  6 25  1  0  0  0
  6 91  1  0  0  0
  6 92  1  0  0  0
  7  8  2  0  0  0
  7 26  1  0  0  0
  7 29  1  0  0  0
  8  9  1  0  0  0
  8 22  1  0  0  0
  9 10  1  0  0  0
  9 27  2  0  0  0
 10 11  2  0  0  0
 10 15  1  0  0  0
 11 12  1  0  0  0
 11 93  1  0  0  0
 12 13  2  0  0  0
 12 94  1  0  0  0
 13 14  1  0  0  0
 13 31  1  0  0  0
 14 15  2  0  0  0
 14 95  1  0  0  0
 15 96  1  0  0  0
 16 17  2  0  0  0
 16 21  1  0  0  0
 16 31  1  0  0  0
 17 18  1  0  0  0
 17 97  1  0  0  0
 18 19  2  0  0  0
 18 98  1  0  0  0
 19 20  1  0  0  0
 19 24  1  0  0  0
 20 21  2  0  0  0
 20 99  1  0  0  0
 21 23  1  0  0  0
 22 28  1  0  0  0
 22 32  2  0  0  0
 26 27  1  0  0  0
 28100  1  0  0  0
 28101  1  0  0  0
 29102  1  0  0  0
 29103  1  0  0  0
 33 34  1  0  0  0
 33 66  1  0  0  0
 33 70  2  0  0  0
 34 36  1  0  0  0
 34 59  1  0  0  0
 34104  1  0  0  0
 35 44  2  0  0  0
 35 45  1  0  0  0
 35 68  1  0  0  0
 36 56  1  0  0  0
 36105  1  0  0  0
 37 39  1  0  0  0
 37 47  1  0  0  0
 37 66  1  0  0  0
 37106  1  0  0  0
 38 43  2  0  0  0
 38 46  1  0  0  0
 38 47  1  0  0  0
 39 64  1  0  0  0
 39 67  2  0  0  0
 40 52  1  0  0  0
 40 53  2  0  0  0
 40 58  1  0  0  0
 41107  1  0  0  0
 41108  1  0  0  0
 41109  1  0  0  0
 41 48  1  0  0  0
 42 43  1  0  0  0
 42 66  1  0  0  0
 42110  1  0  0  0
 42111  1  0  0  0
 43 44  1  0  0  0
 44112  1  0  0  0
 45 46  2  0  0  0
 45113  1  0  0  0
 46114  1  0  0  0
 47115  1  0  0  0
 47116  1  0  0  0
 48 56  1  0  0  0
 48 65  1  0  0  0
 48117  1  0  0  0
 49 50  1  0  0  0
 49 53  1  0  0  0
 49 64  1  0  0  0
 49118  1  0  0  0
 50 51  1  0  0  0
 50119  1  0  0  0
 50120  1  0  0  0
 51 52  1  0  0  0
 51121  1  0  0  0
 51122  1  0  0  0
 52123  1  0  0  0
 52124  1  0  0  0
 53 54  1  0  0  0
 54 55  2  0  0  0
 54125  1  0  0  0
 55 57  1  0  0  0
 55126  1  0  0  0
 56 69  2  0  0  0
 57 58  2  0  0  0
 57127  1  0  0  0
 58128  1  0  0  0
 59 60  1  0  0  0
 59 61  1  0  0  0
 59 62  1  0  0  0
 60129  1  0  0  0
 60130  1  0  0  0
 60131  1  0  0  0
 61132  1  0  0  0
 61133  1  0  0  0
 61134  1  0  0  0
 62135  1  0  0  0
 62136  1  0  0  0
 62137  1  0  0  0
 63 65  1  0  0  0
 63138  1  0  0  0
 63139  1  0  0  0
 63140  1  0  0  0
 64141  1  0  0  0
 65142  1  0  0  0
 68 80  1  0  0  0
 71 72  2  0  0  0
 71 73  1  0  0  0
 71143  1  0  0  0
 72 75  1  0  0  0
 72144  1  0  0  0
 73 76  2  0  0  0
 73 78  1  0  0  0
 74 75  2  0  0  0
 74 76  1  0  0  0
 74 79  1  0  0  0
 75 82  1  0  0  0
 76 81  1  0  0  0
 77 80  1  0  0  0
 77 81  1  0  0  0
 77 83  2  0  0  0
 78145  1  0  0  0
 78146  1  0  0  0
 78147  1  0  0  0
 79148  1  0  0  0
 79149  1  0  0  0
 79150  1  0  0  0
 80151  1  0  0  0
 80152  1  0  0  0
 81153  1  0  0  0
 82154  1  0  0  0
M  ISO  4   1 100  68 101  80 101  82 100
M  END
> <chiral flag>
0

> <version>
0

> <s_m_source_file>
/data/baiqing/PycharmProjects/Reinvent-master-3.2/result/LINK_invent/BTK/process_docking_weight1_custom_sum_contain_oxygen_bond_distance_aromatic_linkinvent_7_9_3/rearranged_h_0012.sdf

> <i_m_source_file_index>
4

> <r_mmod_Potential_Energy-OPLS-2005>
643.945495605469

> <r_mmod_Stretch_Energy-OPLS-2005>
355.445526123047

> <r_mmod_Bend_Energy-OPLS-2005>
279.269470214844

> <r_mmod_Torsional_Energy-OPLS-2005>
237.504043579102

> <r_mmod_Improper_Torsional_Energy-OPLS-2005>
6.95645999908447

> <r_mmod_Van_der_Waal_Energy-OPLS-2005>
137.987991333008

> <r_mmod_Electrostatic_Energy-OPLS-2005>
-395.845062255859

> <r_mmod_Solvation_Energy-OPLS-2005>
-245.532302856445

> <b_mmod_Minimization_Converged-OPLS-2005>
0

> <r_mmod_RMS_Derivative-OPLS-2005>
0.506847143173218

$$$$
4
                    3D
 Structure written by MMmdl.
152160  0  0  1  0            999 V2000
  -30.5288  -14.9379   20.4003 C   0  0  0  0  0  0
  -30.4496  -12.5778   19.4843 C   0  0  0  0  0  0
  -29.5232  -12.5362   18.2464 C   0  0  0  0  0  0
  -28.0531  -12.3265   18.6629 C   0  0  0  0  0  0
  -27.6305  -13.2460   19.8396 C   0  0  2  0  0  0
  -28.6820  -13.2534   20.9714 C   0  0  0  0  0  0
  -25.2402  -13.8071   20.5789 C   0  0  0  0  0  0
  -24.1740  -13.0303   20.9260 C   0  0  0  0  0  0
  -24.6399  -11.6827   20.8747 C   0  0  0  0  0  0
  -23.9085  -10.4220   21.0387 C   0  0  0  0  0  0
  -24.3629   -9.4144   21.9172 C   0  0  0  0  0  0
  -23.6287   -8.2194   22.0744 C   0  0  0  0  0  0
  -22.4265   -8.0248   21.3535 C   0  0  0  0  0  0
  -21.9911   -9.0220   20.4629 C   0  0  0  0  0  0
  -22.7257  -10.2084   20.3031 C   0  0  0  0  0  0
  -21.6840   -6.0716   22.5280 C   0  0  0  0  0  0
  -21.4005   -6.5623   23.8215 C   0  0  0  0  0  0
  -21.3661   -5.6778   24.9178 C   0  0  0  0  0  0
  -21.6048   -4.3043   24.7227 C   0  0  0  0  0  0
  -21.8822   -3.8133   23.4348 C   0  0  0  0  0  0
  -21.9189   -4.6948   22.3404 C   0  0  0  0  0  0
  -22.7763  -13.5104   21.1900 C   0  0  0  0  0  0
  -22.1657   -4.2134   21.0980 F   0  0  0  0  0  0
  -21.5638   -3.4530   25.7739 F   0  0  0  0  0  0
  -29.9617  -13.6654   20.3736 N   0  0  0  0  0  0
  -26.2885  -12.9385   20.3259 N   0  0  0  0  0  0
  -25.9338  -11.6503   20.5721 N   0  0  0  0  0  0
  -22.0410  -12.8112   22.0464 N   0  0  0  0  0  0
  -25.3815  -15.1773   20.4368 N   0  0  0  0  0  0
  -31.7349  -15.0410   20.1519 O   0  0  0  0  0  0
  -21.6615   -6.8853   21.4239 O   0  0  0  0  0  0
  -22.3459  -14.5415   20.6739 O   0  0  0  0  0  0
  -24.6393  -31.8440   23.1882 C   0  0  0  0  0  0
  -25.9174  -32.4695   23.8261 C   0  0  1  0  0  0
  -27.2387  -27.1615   20.1345 C   0  0  0  0  0  0
  -25.5929  -33.8506   24.2176 N   0  0  0  0  0  0
  -23.4424  -30.4604   21.5338 C   0  0  2  0  0  0
  -24.8944  -28.8853   20.1095 C   0  0  0  0  0  0
  -22.7546  -29.4539   22.4887 C   0  0  0  0  0  0
  -18.0298  -28.1386   22.8485 C   0  0  0  0  0  0
  -24.1494  -36.7266   23.2642 C   0  0  0  0  0  0
  -25.9950  -30.7236   21.3838 C   0  0  0  0  0  0
  -26.0683  -29.3365   20.7241 C   0  0  0  0  0  0
  -27.2347  -28.4882   20.7223 C   0  0  0  0  0  0
  -26.0330  -26.7983   19.4931 C   0  0  0  0  0  0
  -24.8880  -27.6279   19.4832 C   0  0  0  0  0  0
  -23.6668  -29.7828   20.1546 C   0  0  0  0  0  0
  -25.4132  -36.3040   24.0310 C   0  0  1  0  0  0
  -20.5909  -28.3709   23.1260 C   0  0  2  0  0  0
  -20.6784  -26.9419   22.5415 C   0  0  0  0  0  0
  -19.5761  -26.6374   21.5221 C   0  0  0  0  0  0
  -18.1941  -26.7925   22.1628 C   0  0  0  0  0  0
  -19.1552  -28.8867   23.2858 C   0  0  0  0  0  0
  -18.9467  -30.1469   23.8871 C   0  0  0  0  0  0
  -17.6465  -30.6587   24.0561 C   0  0  0  0  0  0
  -25.9071  -34.9412   23.5052 C   0  0  0  0  0  0
  -16.5357  -29.9078   23.6339 C   0  0  0  0  0  0
  -16.7282  -28.6498   23.0355 C   0  0  0  0  0  0
  -26.4502  -31.6562   25.0698 C   0  0  0  0  0  0
  -25.3682  -31.3750   26.1388 C   0  0  0  0  0  0
  -27.0359  -30.2957   24.6272 C   0  0  0  0  0  0
  -27.6029  -32.4330   25.7485 C   0  0  0  0  0  0
  -27.5584  -37.1795   24.8463 C   0  0  0  0  0  0
  -21.4243  -29.3034   22.3636 N   0  0  0  0  0  0
  -26.4299  -37.3753   23.9394 N   0  0  0  0  0  0
  -24.7114  -31.0306   22.0907 N   0  0  0  0  0  0
  -23.4200  -28.8102   23.3042 O   0  0  0  0  0  0
  -28.3381  -26.2376   20.2333 O   0  0  0  0  0  0
  -26.5671  -34.8909   22.4642 O   0  0  0  0  0  0
  -23.5521  -32.1309   23.7120 O   0  0  0  0  0  0
  -30.7565  -18.5169   20.6238 C   0  0  0  0  0  0
  -28.3739  -19.7503   19.8820 C   0  0  0  0  0  0
  -29.6949  -17.5905   20.3435 C   0  0  0  0  0  0
  -29.4265  -20.6759   20.1488 C   0  0  0  0  0  0
  -30.6334  -19.9684   20.5112 C   0  0  0  0  0  0
  -28.5095  -18.3076   19.9471 C   0  0  0  0  0  0
  -27.3172  -22.9176   21.1434 C   0  0  0  0  0  0
  -28.4282  -24.7928   19.6784 C   0  0  0  0  0  0
  -28.6495  -23.3538   20.5257 C   0  0  2  0  0  0
  -29.6647  -16.0575   20.4800 N   0  0  0  0  0  0
  -29.3711  -22.1385   19.8728 N   0  0  0  0  0  0
  -31.7405  -20.7156   20.7450 F   0  0  0  0  0  0
  -27.1507  -17.3936   19.4250 Cl  0  0  0  0  0  0
  -31.4815  -12.7442   19.1716 H   0  0  0  0  0  0
  -30.4441  -11.6201   20.0072 H   0  0  0  0  0  0
  -29.8394  -11.7461   17.5650 H   0  0  0  0  0  0
  -29.6142  -13.4720   17.6921 H   0  0  0  0  0  0
  -27.9407  -11.2813   18.9529 H   0  0  0  0  0  0
  -27.3920  -12.4758   17.8077 H   0  0  0  0  0  0
  -27.5907  -14.2530   19.4245 H   0  0  0  0  0  0
  -28.7664  -12.2692   21.4346 H   0  0  0  0  0  0
  -28.3873  -13.9430   21.7641 H   0  0  0  0  0  0
  -25.2769   -9.5620   22.4751 H   0  0  0  0  0  0
  -23.9986   -7.4580   22.7468 H   0  0  0  0  0  0
  -21.0837   -8.8738   19.8937 H   0  0  0  0  0  0
  -22.3718  -10.9621   19.6142 H   0  0  0  0  0  0
  -21.1987   -7.6128   23.9716 H   0  0  0  0  0  0
  -21.1490   -6.0503   25.9080 H   0  0  0  0  0  0
  -22.0605   -2.7594   23.2850 H   0  0  0  0  0  0
  -22.4038  -11.9795   22.4879 H   0  0  0  0  0  0
  -21.1016  -13.1122   22.2640 H   0  0  0  0  0  0
  -24.5906  -15.7995   20.5524 H   0  0  0  0  0  0
  -26.1930  -15.6553   20.0646 H   0  0  0  0  0  0
  -26.7232  -32.5302   23.0984 H   0  0  0  0  0  0
  -25.0021  -33.9621   25.0285 H   0  0  0  0  0  0
  -22.7434  -31.2845   21.3787 H   0  0  0  0  0  0
  -23.3755  -35.9598   23.3297 H   0  0  0  0  0  0
  -24.3578  -36.8908   22.2057 H   0  0  0  0  0  0
  -23.7249  -37.6462   23.6685 H   0  0  0  0  0  0
  -26.1469  -31.4806   20.6130 H   0  0  0  0  0  0
  -26.8665  -30.7741   22.0246 H   0  0  0  0  0  0
  -28.1297  -28.8295   21.2231 H   0  0  0  0  0  0
  -25.9297  -25.8349   19.0205 H   0  0  0  0  0  0
  -23.9884  -27.2718   19.0002 H   0  0  0  0  0  0
  -23.7948  -30.5536   19.3933 H   0  0  0  0  0  0
  -22.7825  -29.2185   19.8523 H   0  0  0  0  0  0
  -25.1328  -36.1869   25.0804 H   0  0  0  0  0  0
  -20.9995  -28.3284   24.1383 H   0  0  0  0  0  0
  -20.5679  -26.2319   23.3627 H   0  0  0  0  0  0
  -21.6653  -26.7429   22.1213 H   0  0  0  0  0  0
  -19.6922  -25.6277   21.1267 H   0  0  0  0  0  0
  -19.6696  -27.3170   20.6736 H   0  0  0  0  0  0
  -17.4216  -26.6670   21.4024 H   0  0  0  0  0  0
  -18.0335  -26.0066   22.9021 H   0  0  0  0  0  0
  -19.7943  -30.7299   24.2217 H   0  0  0  0  0  0
  -17.5015  -31.6266   24.5168 H   0  0  0  0  0  0
  -15.5354  -30.2967   23.7680 H   0  0  0  0  0  0
  -15.8682  -28.0808   22.7076 H   0  0  0  0  0  0
  -24.5857  -30.7114   25.7696 H   0  0  0  0  0  0
  -24.8872  -32.2931   26.4773 H   0  0  0  0  0  0
  -25.7951  -30.8935   27.0191 H   0  0  0  0  0  0
  -26.2966  -29.6684   24.1281 H   0  0  0  0  0  0
  -27.3965  -29.7261   25.4846 H   0  0  0  0  0  0
  -27.8880  -30.4187   23.9584 H   0  0  0  0  0  0
  -27.2613  -33.3637   26.2028 H   0  0  0  0  0  0
  -28.3859  -32.6883   25.0332 H   0  0  0  0  0  0
  -28.0674  -31.8477   26.5429 H   0  0  0  0  0  0
  -28.2598  -38.0095   24.7513 H   0  0  0  0  0  0
  -28.1083  -36.2626   24.6291 H   0  0  0  0  0  0
  -27.2297  -37.1449   25.8864 H   0  0  0  0  0  0
  -20.9448  -29.8728   21.6804 H   0  0  0  0  0  0
  -26.0163  -38.2822   24.1388 H   0  0  0  0  0  0
  -31.7119  -18.1193   20.9327 H   0  0  0  0  0  0
  -27.4303  -20.1476   19.5383 H   0  0  0  0  0  0
  -26.8618  -23.7432   21.6913 H   0  0  0  0  0  0
  -27.4500  -22.0969   21.8487 H   0  0  0  0  0  0
  -26.6095  -22.6005   20.3775 H   0  0  0  0  0  0
  -27.6317  -24.6248   18.9577 H   0  0  0  0  0  0
  -29.3104  -24.8629   19.0410 H   0  0  0  0  0  0
  -29.3071  -23.6210   21.3547 H   0  0  0  0  0  0
  -28.7151  -15.7282   20.5574 H   0  0  0  0  0  0
  -30.3081  -22.4370   19.6093 H   0  0  0  0  0  0
  1 25  1  0  0  0
  1 30  2  0  0  0
  1 80  1  0  0  0
  2  3  1  0  0  0
  2 25  1  0  0  0
  2 84  1  0  0  0
  2 85  1  0  0  0
  3  4  1  0  0  0
  3 86  1  0  0  0
  3 87  1  0  0  0
  4  5  1  0  0  0
  4 88  1  0  0  0
  4 89  1  0  0  0
  5  6  1  0  0  0
  5 26  1  0  0  0
  5 90  1  0  0  0
  6 25  1  0  0  0
  6 91  1  0  0  0
  6 92  1  0  0  0
  7  8  2  0  0  0
  7 26  1  0  0  0
  7 29  1  0  0  0
  8  9  1  0  0  0
  8 22  1  0  0  0
  9 10  1  0  0  0
  9 27  2  0  0  0
 10 11  2  0  0  0
 10 15  1  0  0  0
 11 12  1  0  0  0
 11 93  1  0  0  0
 12 13  2  0  0  0
 12 94  1  0  0  0
 13 14  1  0  0  0
 13 31  1  0  0  0
 14 15  2  0  0  0
 14 95  1  0  0  0
 15 96  1  0  0  0
 16 17  2  0  0  0
 16 21  1  0  0  0
 16 31  1  0  0  0
 17 18  1  0  0  0
 17 97  1  0  0  0
 18 19  2  0  0  0
 18 98  1  0  0  0
 19 20  1  0  0  0
 19 24  1  0  0  0
 20 21  2  0  0  0
 20 99  1  0  0  0
 21 23  1  0  0  0
 22 28  1  0  0  0
 22 32  2  0  0  0
 26 27  1  0  0  0
 28100  1  0  0  0
 28101  1  0  0  0
 29102  1  0  0  0
 29103  1  0  0  0
 33 34  1  0  0  0
 33 66  1  0  0  0
 33 70  2  0  0  0
 34 36  1  0  0  0
 34 59  1  0  0  0
 34104  1  0  0  0
 35 44  2  0  0  0
 35 45  1  0  0  0
 35 68  1  0  0  0
 36 56  1  0  0  0
 36105  1  0  0  0
 37 39  1  0  0  0
 37 47  1  0  0  0
 37 66  1  0  0  0
 37106  1  0  0  0
 38 43  2  0  0  0
 38 46  1  0  0  0
 38 47  1  0  0  0
 39 64  1  0  0  0
 39 67  2  0  0  0
 40 52  1  0  0  0
 40 53  2  0  0  0
 40 58  1  0  0  0
 41107  1  0  0  0
 41108  1  0  0  0
 41109  1  0  0  0
 41 48  1  0  0  0
 42 43  1  0  0  0
 42 66  1  0  0  0
 42110  1  0  0  0
 42111  1  0  0  0
 43 44  1  0  0  0
 44112  1  0  0  0
 45 46  2  0  0  0
 45113  1  0  0  0
 46114  1  0  0  0
 47115  1  0  0  0
 47116  1  0  0  0
 48 56  1  0  0  0
 48 65  1  0  0  0
 48117  1  0  0  0
 49 50  1  0  0  0
 49 53  1  0  0  0
 49 64  1  0  0  0
 49118  1  0  0  0
 50 51  1  0  0  0
 50119  1  0  0  0
 50120  1  0  0  0
 51 52  1  0  0  0
 51121  1  0  0  0
 51122  1  0  0  0
 52123  1  0  0  0
 52124  1  0  0  0
 53 54  1  0  0  0
 54 55  2  0  0  0
 54125  1  0  0  0
 55 57  1  0  0  0
 55126  1  0  0  0
 56 69  2  0  0  0
 57 58  2  0  0  0
 57127  1  0  0  0
 58128  1  0  0  0
 59 60  1  0  0  0
 59 61  1  0  0  0
 59 62  1  0  0  0
 60129  1  0  0  0
 60130  1  0  0  0
 60131  1  0  0  0
 61132  1  0  0  0
 61133  1  0  0  0
 61134  1  0  0  0
 62135  1  0  0  0
 62136  1  0  0  0
 62137  1  0  0  0
 63 65  1  0  0  0
 63138  1  0  0  0
 63139  1  0  0  0
 63140  1  0  0  0
 64141  1  0  0  0
 65142  1  0  0  0
 68 78  1  0  0  0
 71 73  2  0  0  0
 71 75  1  0  0  0
 71143  1  0  0  0
 72 74  1  0  0  0
 72 76  2  0  0  0
 72144  1  0  0  0
 73 76  1  0  0  0
 73 80  1  0  0  0
 74 75  2  0  0  0
 74 81  1  0  0  0
 75 82  1  0  0  0
 76 83  1  0  0  0
 77145  1  0  0  0
 77146  1  0  0  0
 77147  1  0  0  0
 77 79  1  0  0  0
 78 79  1  0  0  0
 78148  1  0  0  0
 78149  1  0  0  0
 79 81  1  0  0  0
 79150  1  0  0  0
 80151  1  0  0  0
 81152  1  0  0  0
M  ISO  4   1 100  68 101  78 101  80 100
M  END
> <chiral flag>
0

> <version>
0

> <s_m_source_file>
/data/baiqing/PycharmProjects/Reinvent-master-3.2/result/LINK_invent/BTK/process_docking_weight1_custom_sum_contain_oxygen_bond_distance_aromatic_linkinvent_7_9_3/rearranged_h_0012.sdf

> <i_m_source_file_index>
5

> <r_mmod_Potential_Energy-OPLS-2005>
448.761199951172

> <r_mmod_Stretch_Energy-OPLS-2005>
215.20246887207

> <r_mmod_Bend_Energy-OPLS-2005>
286.546112060547

> <r_mmod_Torsional_Energy-OPLS-2005>
233.878326416016

> <r_mmod_Improper_Torsional_Energy-OPLS-2005>
10.441385269165

> <r_mmod_Van_der_Waal_Energy-OPLS-2005>
129.058639526367

> <r_mmod_Electrostatic_Energy-OPLS-2005>
-395.850921630859

> <r_mmod_Solvation_Energy-OPLS-2005>
-206.464599609375

> <b_mmod_Minimization_Converged-OPLS-2005>
0

> <r_mmod_RMS_Derivative-OPLS-2005>
1.32360780239105

$$$$
5
                    3D
 Structure written by MMmdl.
185192  0  0  1  0            999 V2000
  -30.8872  -14.2032   20.8063 C   0  0  0  0  0  0
  -30.4036  -12.2931   19.3438 C   0  0  0  0  0  0
  -29.4581  -12.5499   18.1647 C   0  0  0  0  0  0
  -27.9974  -12.3746   18.6067 C   0  0  0  0  0  0
  -27.6644  -13.2053   19.8718 C   0  0  2  0  0  0
  -28.7083  -12.9741   20.9879 C   0  0  0  0  0  0
  -25.2604  -13.8175   20.5672 C   0  0  0  0  0  0
  -24.1844  -13.0440   20.9167 C   0  0  0  0  0  0
  -24.6399  -11.6913   20.8724 C   0  0  0  0  0  0
  -23.9053  -10.4294   21.0397 C   0  0  0  0  0  0
  -24.3611   -9.4212   21.9180 C   0  0  0  0  0  0
  -23.6288   -8.2247   22.0751 C   0  0  0  0  0  0
  -22.4271   -8.0285   21.3542 C   0  0  0  0  0  0
  -21.9904   -9.0252   20.4642 C   0  0  0  0  0  0
  -22.7227  -10.2135   20.3047 C   0  0  0  0  0  0
  -21.6854   -6.0734   22.5279 C   0  0  0  0  0  0
  -21.4019   -6.5641   23.8211 C   0  0  0  0  0  0
  -21.3662   -5.6794   24.9175 C   0  0  0  0  0  0
  -21.6044   -4.3056   24.7228 C   0  0  0  0  0  0
  -21.8818   -3.8147   23.4348 C   0  0  0  0  0  0
  -21.9194   -4.6959   22.3405 C   0  0  0  0  0  0
  -22.7869  -13.5241   21.1833 C   0  0  0  0  0  0
  -22.1660   -4.2147   21.0981 F   0  0  0  0  0  0
  -21.5628   -3.4541   25.7739 F   0  0  0  0  0  0
  -30.0584  -13.2011   20.4433 N   0  0  0  0  0  0
  -26.3041  -12.9342   20.3371 N   0  0  0  0  0  0
  -25.9330  -11.6495   20.5761 N   0  0  0  0  0  0
  -22.0507  -12.8230   22.0395 N   0  0  0  0  0  0
  -25.4332  -15.1881   20.4078 N   0  0  0  0  0  0
  -31.7396  -14.7034   20.0640 O   0  0  0  0  0  0
  -21.6641   -6.8879   21.4240 O   0  0  0  0  0  0
  -22.3551  -14.5547   20.6692 O   0  0  0  0  0  0
  -24.6104  -31.8715   23.2093 C   0  0  0  0  0  0
  -25.9018  -32.4839   23.8396 C   0  0  1  0  0  0
  -27.2385  -27.4649   20.1049 C   0  0  0  0  0  0
  -25.5890  -33.8629   24.2335 N   0  0  0  0  0  0
  -23.3983  -30.4939   21.5480 C   0  0  2  0  0  0
  -24.8494  -28.9592   20.1192 C   0  0  0  0  0  0
  -22.7402  -29.4675   22.4972 C   0  0  0  0  0  0
  -18.0260  -28.1391   22.8464 C   0  0  0  0  0  0
  -24.1493  -36.7315   23.2633 C   0  0  0  0  0  0
  -25.9225  -30.8445   21.3604 C   0  0  0  0  0  0
  -26.0031  -29.4766   20.7215 C   0  0  0  0  0  0
  -27.2001  -28.7318   20.7241 C   0  0  0  0  0  0
  -26.0790  -26.9557   19.4898 C   0  0  0  0  0  0
  -24.8792  -27.6939   19.5030 C   0  0  0  0  0  0
  -23.6105  -29.8229   20.1643 C   0  0  0  0  0  0
  -25.4111  -36.3108   24.0326 C   0  0  1  0  0  0
  -20.5852  -28.3674   23.1310 C   0  0  2  0  0  0
  -20.6771  -26.9404   22.5432 C   0  0  0  0  0  0
  -19.5757  -26.6392   21.5226 C   0  0  0  0  0  0
  -18.1916  -26.7934   22.1606 C   0  0  0  0  0  0
  -19.1510  -28.8837   23.2886 C   0  0  0  0  0  0
  -18.9454  -30.1435   23.8907 C   0  0  0  0  0  0
  -17.6462  -30.6587   24.0562 C   0  0  0  0  0  0
  -25.9032  -34.9477   23.5126 C   0  0  0  0  0  0
  -16.5341  -29.9103   23.6318 C   0  0  0  0  0  0
  -16.7252  -28.6523   23.0328 C   0  0  0  0  0  0
  -26.4453  -31.6593   25.0701 C   0  0  0  0  0  0
  -25.3705  -31.3731   26.1443 C   0  0  0  0  0  0
  -27.0271  -30.3027   24.6052 C   0  0  0  0  0  0
  -27.6035  -32.4295   25.7483 C   0  0  0  0  0  0
  -27.5573  -37.1807   24.8461 C   0  0  0  0  0  0
  -21.4124  -29.3039   22.3714 N   0  0  0  0  0  0
  -26.4297  -37.3781   23.9400 N   0  0  0  0  0  0
  -24.6611  -31.0863   22.0970 N   0  0  0  0  0  0
  -23.4180  -28.8209   23.3000 O   0  0  0  0  0  0
  -28.3914  -26.7259   20.0474 O   0  0  0  0  0  0
  -26.5599  -34.8923   22.4688 O   0  0  0  0  0  0
  -23.5299  -32.1432   23.7516 O   0  0  0  0  0  0
  -29.8450  -16.8969   27.9459 C   0  0  0  0  0  0
  -32.1165  -16.1723   23.3510 C   0  0  0  0  0  0
  -28.8145  -24.7596   21.4046 C   0  0  0  0  0  0
  -29.3793  -18.0355   30.1065 C   0  0  0  0  0  0
  -31.3490  -16.8920   28.2791 C   0  0  0  0  0  0
  -32.1564  -14.7226   22.8729 C   0  0  0  0  0  0
  -28.9002  -26.2915   21.3108 C   0  0  0  0  0  0
  -32.2866  -16.7476   27.0568 C   0  0  0  0  0  0
  -27.5495  -20.7904   26.1000 C   0  0  0  0  0  0
  -28.1520  -21.0635   24.7163 C   0  0  0  0  0  0
  -27.8097  -19.3525   26.5647 C   0  0  0  0  0  0
  -32.2626  -17.9420   26.0736 C   0  0  0  0  0  0
  -28.1279  -22.5532   24.3447 C   0  0  0  0  0  0
  -27.2058  -19.0502   27.9456 C   0  0  0  0  0  0
  -33.2371  -17.7994   24.8867 C   0  0  0  0  0  0
  -28.6229  -22.7968   22.9135 C   0  0  0  0  0  0
  -27.5471  -17.6464   28.4857 C   0  0  0  0  0  0
  -33.0908  -16.5198   24.1995 N   0  0  0  0  0  0
  -28.6931  -24.2247   22.6273 N   0  0  0  0  0  0
  -30.9640  -14.3103   22.1348 N   0  0  0  0  0  0
  -28.9791  -17.5032   28.7971 N   0  0  0  0  0  0
  -29.4681  -16.3555   26.9017 O   0  0  0  0  0  0
  -31.2290  -16.9446   22.9831 O   0  0  0  0  0  0
  -28.8653  -24.0637   20.3858 O   0  0  0  0  0  0
  -31.4417  -12.4065   19.0241 H   0  0  0  0  0  0
  -30.3099  -11.2614   19.6875 H   0  0  0  0  0  0
  -29.6857  -11.8701   17.3427 H   0  0  0  0  0  0
  -29.6114  -13.5603   17.7820 H   0  0  0  0  0  0
  -27.8291  -11.3145   18.8014 H   0  0  0  0  0  0
  -27.3239  -12.6439   17.7915 H   0  0  0  0  0  0
  -27.7165  -14.2556   19.5840 H   0  0  0  0  0  0
  -28.6437  -11.9540   21.3686 H   0  0  0  0  0  0
  -28.4838  -13.6339   21.8271 H   0  0  0  0  0  0
  -25.2759   -9.5696   22.4750 H   0  0  0  0  0  0
  -24.0001   -7.4642   22.7473 H   0  0  0  0  0  0
  -21.0836   -8.8766   19.8950 H   0  0  0  0  0  0
  -22.3683  -10.9670   19.6154 H   0  0  0  0  0  0
  -21.2013   -7.6150   23.9716 H   0  0  0  0  0  0
  -21.1486   -6.0525   25.9078 H   0  0  0  0  0  0
  -22.0596   -2.7609   23.2849 H   0  0  0  0  0  0
  -22.4119  -11.9887   22.4775 H   0  0  0  0  0  0
  -21.1126  -13.1262   22.2606 H   0  0  0  0  0  0
  -24.6705  -15.8483   20.5133 H   0  0  0  0  0  0
  -26.2976  -15.6245   20.1111 H   0  0  0  0  0  0
  -26.7095  -32.5583   23.1186 H   0  0  0  0  0  0
  -25.0052  -33.9808   25.0483 H   0  0  0  0  0  0
  -22.6821  -31.3060   21.4082 H   0  0  0  0  0  0
  -23.3742  -35.9662   23.3306 H   0  0  0  0  0  0
  -24.3583  -36.8916   22.2041 H   0  0  0  0  0  0
  -23.7260  -37.6530   23.6644 H   0  0  0  0  0  0
  -26.0258  -31.5983   20.5786 H   0  0  0  0  0  0
  -26.8146  -30.9086   21.9716 H   0  0  0  0  0  0
  -28.0921  -29.1340   21.1844 H   0  0  0  0  0  0
  -26.1071  -25.9890   19.0053 H   0  0  0  0  0  0
  -23.9927  -27.2902   19.0348 H   0  0  0  0  0  0
  -23.7184  -30.5960   19.4024 H   0  0  0  0  0  0
  -22.7374  -29.2384   19.8704 H   0  0  0  0  0  0
  -25.1285  -36.1980   25.0817 H   0  0  0  0  0  0
  -20.9932  -28.3279   24.1437 H   0  0  0  0  0  0
  -20.5709  -26.2275   23.3622 H   0  0  0  0  0  0
  -21.6642  -26.7469   22.1214 H   0  0  0  0  0  0
  -19.6937  -25.6318   21.1229 H   0  0  0  0  0  0
  -19.6737  -27.3221   20.6775 H   0  0  0  0  0  0
  -17.4217  -26.6673   21.3985 H   0  0  0  0  0  0
  -18.0287  -26.0084   22.9002 H   0  0  0  0  0  0
  -19.7936  -30.7224   24.2309 H   0  0  0  0  0  0
  -17.5030  -31.6270   24.5167 H   0  0  0  0  0  0
  -15.5348  -30.3027   23.7641 H   0  0  0  0  0  0
  -15.8640  -28.0866   22.7038 H   0  0  0  0  0  0
  -24.5938  -30.6995   25.7801 H   0  0  0  0  0  0
  -24.8822  -32.2890   26.4783 H   0  0  0  0  0  0
  -25.8043  -30.9022   27.0266 H   0  0  0  0  0  0
  -26.2814  -29.6823   24.1051 H   0  0  0  0  0  0
  -27.3979  -29.7237   25.4524 H   0  0  0  0  0  0
  -27.8679  -30.4336   23.9227 H   0  0  0  0  0  0
  -27.2688  -33.3650   26.1991 H   0  0  0  0  0  0
  -28.3911  -32.6738   25.0340 H   0  0  0  0  0  0
  -28.0599  -31.8426   26.5472 H   0  0  0  0  0  0
  -28.2589  -38.0102   24.7508 H   0  0  0  0  0  0
  -28.1072  -36.2631   24.6309 H   0  0  0  0  0  0
  -27.2276  -37.1460   25.8860 H   0  0  0  0  0  0
  -20.9280  -29.8770   21.6943 H   0  0  0  0  0  0
  -26.0190  -38.2856   24.1427 H   0  0  0  0  0  0
  -29.9602  -18.9495   29.9808 H   0  0  0  0  0  0
  -29.9797  -17.3186   30.6684 H   0  0  0  0  0  0
  -28.5222  -18.2886   30.7322 H   0  0  0  0  0  0
  -31.5164  -16.0569   28.9595 H   0  0  0  0  0  0
  -31.6283  -17.7930   28.8229 H   0  0  0  0  0  0
  -32.2449  -14.0719   23.7438 H   0  0  0  0  0  0
  -33.0608  -14.5612   22.2826 H   0  0  0  0  0  0
  -29.9447  -26.5929   21.3862 H   0  0  0  0  0  0
  -28.3757  -26.7419   22.1543 H   0  0  0  0  0  0
  -32.0374  -15.8246   26.5295 H   0  0  0  0  0  0
  -33.3070  -16.6141   27.4188 H   0  0  0  0  0  0
  -26.4766  -20.9924   26.0775 H   0  0  0  0  0  0
  -27.9845  -21.4781   26.8264 H   0  0  0  0  0  0
  -27.6119  -20.4799   23.9682 H   0  0  0  0  0  0
  -29.1862  -20.7124   24.6927 H   0  0  0  0  0  0
  -28.8891  -19.2021   26.5913 H   0  0  0  0  0  0
  -27.4116  -18.6473   25.8330 H   0  0  0  0  0  0
  -32.4991  -18.8612   26.6114 H   0  0  0  0  0  0
  -31.2543  -18.0803   25.6822 H   0  0  0  0  0  0
  -27.1183  -22.9518   24.4577 H   0  0  0  0  0  0
  -28.7561  -23.1019   25.0463 H   0  0  0  0  0  0
  -26.1207  -19.1486   27.8839 H   0  0  0  0  0  0
  -27.5330  -19.8038   28.6642 H   0  0  0  0  0  0
  -34.2640  -17.8656   25.2485 H   0  0  0  0  0  0
  -33.1103  -18.6240   24.1833 H   0  0  0  0  0  0
  -27.9541  -22.3039   22.2051 H   0  0  0  0  0  0
  -29.6126  -22.3550   22.7821 H   0  0  0  0  0  0
  -27.2179  -16.8882   27.7730 H   0  0  0  0  0  0
  -26.9594  -17.4505   29.3829 H   0  0  0  0  0  0
  -33.7821  -15.8132   24.4184 H   0  0  0  0  0  0
  -28.6714  -24.8607   23.4137 H   0  0  0  0  0  0
  -30.2484  -13.8380   22.6653 H   0  0  0  0  0  0
  1 25  1  0  0  0
  1 30  2  0  0  0
  1 90  1  0  0  0
  2  3  1  0  0  0
  2 25  1  0  0  0
  2 95  1  0  0  0
  2 96  1  0  0  0
  3  4  1  0  0  0
  3 97  1  0  0  0
  3 98  1  0  0  0
  4  5  1  0  0  0
  4 99  1  0  0  0
  4100  1  0  0  0
  5  6  1  0  0  0
  5 26  1  0  0  0
  5101  1  0  0  0
  6 25  1  0  0  0
  6102  1  0  0  0
  6103  1  0  0  0
  7  8  2  0  0  0
  7 26  1  0  0  0
  7 29  1  0  0  0
  8  9  1  0  0  0
  8 22  1  0  0  0
  9 10  1  0  0  0
  9 27  2  0  0  0
 10 11  2  0  0  0
 10 15  1  0  0  0
 11 12  1  0  0  0
 11104  1  0  0  0
 12 13  2  0  0  0
 12105  1  0  0  0
 13 14  1  0  0  0
 13 31  1  0  0  0
 14 15  2  0  0  0
 14106  1  0  0  0
 15107  1  0  0  0
 16 17  2  0  0  0
 16 21  1  0  0  0
 16 31  1  0  0  0
 17 18  1  0  0  0
 17108  1  0  0  0
 18 19  2  0  0  0
 18109  1  0  0  0
 19 20  1  0  0  0
 19 24  1  0  0  0
 20 21  2  0  0  0
 20110  1  0  0  0
 21 23  1  0  0  0
 22 28  1  0  0  0
 22 32  2  0  0  0
 26 27  1  0  0  0
 28111  1  0  0  0
 28112  1  0  0  0
 29113  1  0  0  0
 29114  1  0  0  0
 33 34  1  0  0  0
 33 66  1  0  0  0
 33 70  2  0  0  0
 34 36  1  0  0  0
 34 59  1  0  0  0
 34115  1  0  0  0
 35 44  2  0  0  0
 35 45  1  0  0  0
 35 68  1  0  0  0
 36 56  1  0  0  0
 36116  1  0  0  0
 37 39  1  0  0  0
 37 47  1  0  0  0
 37 66  1  0  0  0
 37117  1  0  0  0
 38 43  2  0  0  0
 38 46  1  0  0  0
 38 47  1  0  0  0
 39 64  1  0  0  0
 39 67  2  0  0  0
 40 52  1  0  0  0
 40 53  2  0  0  0
 40 58  1  0  0  0
 41118  1  0  0  0
 41119  1  0  0  0
 41120  1  0  0  0
 41 48  1  0  0  0
 42 43  1  0  0  0
 42 66  1  0  0  0
 42121  1  0  0  0
 42122  1  0  0  0
 43 44  1  0  0  0
 44123  1  0  0  0
 45 46  2  0  0  0
 45124  1  0  0  0
 46125  1  0  0  0
 47126  1  0  0  0
 47127  1  0  0  0
 48 56  1  0  0  0
 48 65  1  0  0  0
 48128  1  0  0  0
 49 50  1  0  0  0
 49 53  1  0  0  0
 49 64  1  0  0  0
 49129  1  0  0  0
 50 51  1  0  0  0
 50130  1  0  0  0
 50131  1  0  0  0
 51 52  1  0  0  0
 51132  1  0  0  0
 51133  1  0  0  0
 52134  1  0  0  0
 52135  1  0  0  0
 53 54  1  0  0  0
 54 55  2  0  0  0
 54136  1  0  0  0
 55 57  1  0  0  0
 55137  1  0  0  0
 56 69  2  0  0  0
 57 58  2  0  0  0
 57138  1  0  0  0
 58139  1  0  0  0
 59 60  1  0  0  0
 59 61  1  0  0  0
 59 62  1  0  0  0
 60140  1  0  0  0
 60141  1  0  0  0
 60142  1  0  0  0
 61143  1  0  0  0
 61144  1  0  0  0
 61145  1  0  0  0
 62146  1  0  0  0
 62147  1  0  0  0
 62148  1  0  0  0
 63 65  1  0  0  0
 63149  1  0  0  0
 63150  1  0  0  0
 63151  1  0  0  0
 64152  1  0  0  0
 65153  1  0  0  0
 68 77  1  0  0  0
 71 75  1  0  0  0
 71 91  1  0  0  0
 71 92  2  0  0  0
 72 76  1  0  0  0
 72 88  1  0  0  0
 72 93  2  0  0  0
 73 77  1  0  0  0
 73 89  1  0  0  0
 73 94  2  0  0  0
 74 91  1  0  0  0
 74154  1  0  0  0
 74155  1  0  0  0
 74156  1  0  0  0
 75 78  1  0  0  0
 75157  1  0  0  0
 75158  1  0  0  0
 76 90  1  0  0  0
 76159  1  0  0  0
 76160  1  0  0  0
 77161  1  0  0  0
 77162  1  0  0  0
 78 82  1  0  0  0
 78163  1  0  0  0
 78164  1  0  0  0
 79 80  1  0  0  0
 79 81  1  0  0  0
 79165  1  0  0  0
 79166  1  0  0  0
 80 83  1  0  0  0
 80167  1  0  0  0
 80168  1  0  0  0
 81 84  1  0  0  0
 81169  1  0  0  0
 81170  1  0  0  0
 82 85  1  0  0  0
 82171  1  0  0  0
 82172  1  0  0  0
 83 86  1  0  0  0
 83173  1  0  0  0
 83174  1  0  0  0
 84 87  1  0  0  0
 84175  1  0  0  0
 84176  1  0  0  0
 85 88  1  0  0  0
 85177  1  0  0  0
 85178  1  0  0  0
 86 89  1  0  0  0
 86179  1  0  0  0
 86180  1  0  0  0
 87 91  1  0  0  0
 87181  1  0  0  0
 87182  1  0  0  0
 88183  1  0  0  0
 89184  1  0  0  0
 90185  1  0  0  0
M  ISO  4   1 100  68 101  77 101  90 100
M  END
> <chiral flag>
0

> <version>
0

> <s_m_source_file>
/data/baiqing/PycharmProjects/Reinvent-master-3.2/result/LINK_invent/BTK/process_docking_weight1_custom_sum_contain_oxygen_bond_distance_aromatic_linkinvent_7_9_3/rearranged_h_0012.sdf

> <i_m_source_file_index>
6

> <r_mmod_Potential_Energy-OPLS-2005>
-281.149719238281

> <r_mmod_Stretch_Energy-OPLS-2005>
32.9105377197266

> <r_mmod_Bend_Energy-OPLS-2005>
91.1555023193359

> <r_mmod_Torsional_Energy-OPLS-2005>
248.265029907227

> <r_mmod_Improper_Torsional_Energy-OPLS-2005>
10.7980289459229

> <r_mmod_Van_der_Waal_Energy-OPLS-2005>
136.890182495117

> <r_mmod_Electrostatic_Energy-OPLS-2005>
-509.767028808594

> <r_mmod_Solvation_Energy-OPLS-2005>
-304.189605712891

> <b_mmod_Minimization_Converged-OPLS-2005>
0

> <r_mmod_RMS_Derivative-OPLS-2005>
2.68102622032166

$$$$
6
                    3D
 Structure written by MMmdl.
151159  0  0  1  0            999 V2000
  -30.4822  -15.0892   20.3750 C   0  0  0  0  0  0
  -30.4410  -12.6722   19.5352 C   0  0  0  0  0  0
  -29.5340  -12.5462   18.2864 C   0  0  0  0  0  0
  -28.0698  -12.3138   18.6982 C   0  0  0  0  0  0
  -27.6257  -13.2592   19.8433 C   0  0  2  0  0  0
  -28.6613  -13.3449   20.9868 C   0  0  0  0  0  0
  -25.2442  -13.8238   20.5758 C   0  0  0  0  0  0
  -24.1763  -13.0445   20.9237 C   0  0  0  0  0  0
  -24.6391  -11.6933   20.8749 C   0  0  0  0  0  0
  -23.9077  -10.4296   21.0398 C   0  0  0  0  0  0
  -24.3629   -9.4210   21.9177 C   0  0  0  0  0  0
  -23.6299   -8.2248   22.0748 C   0  0  0  0  0  0
  -22.4277   -8.0283   21.3539 C   0  0  0  0  0  0
  -21.9915   -9.0257   20.4641 C   0  0  0  0  0  0
  -22.7247  -10.2138   20.3047 C   0  0  0  0  0  0
  -21.6858   -6.0732   22.5273 C   0  0  0  0  0  0
  -21.4019   -6.5636   23.8206 C   0  0  0  0  0  0
  -21.3662   -5.6787   24.9169 C   0  0  0  0  0  0
  -21.6047   -4.3050   24.7218 C   0  0  0  0  0  0
  -21.8819   -3.8142   23.4337 C   0  0  0  0  0  0
  -21.9194   -4.6958   22.3395 C   0  0  0  0  0  0
  -22.7782  -13.5205   21.1886 C   0  0  0  0  0  0
  -22.1659   -4.2144   21.0971 F   0  0  0  0  0  0
  -21.5633   -3.4533   25.7730 F   0  0  0  0  0  0
  -29.9285  -13.7938   20.3920 N   0  0  0  0  0  0
  -26.2867  -12.9481   20.3276 N   0  0  0  0  0  0
  -25.9328  -11.6601   20.5748 N   0  0  0  0  0  0
  -22.0443  -12.8182   22.0443 N   0  0  0  0  0  0
  -25.4129  -15.1973   20.4248 N   0  0  0  0  0  0
  -31.6667  -15.1460   20.0219 O   0  0  0  0  0  0
  -21.6643   -6.8877   21.4237 O   0  0  0  0  0  0
  -22.3451  -14.5504   20.6731 O   0  0  0  0  0  0
  -24.6499  -31.8344   23.1780 C   0  0  0  0  0  0
  -25.9233  -32.4644   23.8216 C   0  0  1  0  0  0
  -27.2303  -27.0544   20.1601 C   0  0  0  0  0  0
  -25.5947  -33.8455   24.2134 N   0  0  0  0  0  0
  -23.4602  -30.4464   21.5225 C   0  0  2  0  0  0
  -24.9157  -28.8556   20.0990 C   0  0  0  0  0  0
  -22.7608  -29.4484   22.4803 C   0  0  0  0  0  0
  -18.0314  -28.1399   22.8476 C   0  0  0  0  0  0
  -24.1492  -36.7238   23.2644 C   0  0  0  0  0  0
  -26.0185  -30.6793   21.3905 C   0  0  0  0  0  0
  -26.0885  -29.2816   20.7328 C   0  0  0  0  0  0
  -27.2362  -28.3936   20.7521 C   0  0  0  0  0  0
  -26.0379  -26.7482   19.4705 C   0  0  0  0  0  0
  -24.9089  -27.6071   19.4504 C   0  0  0  0  0  0
  -23.6925  -29.7652   20.1440 C   0  0  0  0  0  0
  -25.4129  -36.3006   24.0308 C   0  0  1  0  0  0
  -20.5931  -28.3733   23.1211 C   0  0  2  0  0  0
  -20.6789  -26.9426   22.5401 C   0  0  0  0  0  0
  -19.5760  -26.6376   21.5212 C   0  0  0  0  0  0
  -18.1947  -26.7934   22.1630 C   0  0  0  0  0  0
  -19.1574  -28.8885   23.2835 C   0  0  0  0  0  0
  -18.9486  -30.1477   23.8866 C   0  0  0  0  0  0
  -17.6481  -30.6592   24.0555 C   0  0  0  0  0  0
  -25.9080  -34.9379   23.5040 C   0  0  0  0  0  0
  -16.5372  -29.9083   23.6333 C   0  0  0  0  0  0
  -16.7298  -28.6502   23.0357 C   0  0  0  0  0  0
  -26.4531  -31.6547   25.0695 C   0  0  0  0  0  0
  -25.3694  -31.3763   26.1377 C   0  0  0  0  0  0
  -27.0400  -30.2929   24.6333 C   0  0  0  0  0  0
  -27.6053  -32.4327   25.7482 C   0  0  0  0  0  0
  -27.5577  -37.1776   24.8466 C   0  0  0  0  0  0
  -21.4289  -29.3041   22.3566 N   0  0  0  0  0  0
  -26.4287  -37.3729   23.9407 N   0  0  0  0  0  0
  -24.7294  -31.0113   22.0851 N   0  0  0  0  0  0
  -23.4211  -28.8051   23.3000 O   0  0  0  0  0  0
  -28.2629  -26.0369   20.3373 O   0  0  0  0  0  0
  -26.5688  -34.8896   22.4631 O   0  0  0  0  0  0
  -23.5596  -32.1261   23.6940 O   0  0  0  0  0  0
  -28.4794  -20.1574   18.6962 C   0  0  0  0  0  0
  -29.0273  -20.3956   19.9714 C   0  0  0  0  0  0
  -29.4823  -17.7081   20.0377 C   0  0  0  0  0  0
  -28.4573  -18.8818   18.0933 C   0  0  0  0  0  0
  -29.5115  -19.1092   20.6284 C   0  0  0  0  0  0
  -28.9414  -17.7059   18.7218 C   0  0  0  0  0  0
  -28.2256  -23.0422   20.2076 C   0  0  0  0  0  0
  -30.4857  -22.3056   20.8176 C   0  0  0  0  0  0
  -28.4934  -24.6268   19.6351 C   0  0  0  0  0  0
  -29.7319  -16.2895   20.6858 N   0  0  0  0  0  0
  -29.1598  -21.9288   20.3265 N   0  0  0  0  0  0
  -27.0459  -22.8009   20.4819 O   0  0  0  0  0  0
  -27.9395  -18.7878   16.8437 F   0  0  0  0  0  0
  -30.1440  -19.2310   22.2301 Cl  0  0  0  0  0  0
  -28.7789  -16.2318   17.8275 Cl  0  0  0  0  0  0
  -31.4728  -12.8371   19.2214 H   0  0  0  0  0  0
  -30.4542  -11.7367   20.0963 H   0  0  0  0  0  0
  -29.8767  -11.7311   17.6476 H   0  0  0  0  0  0
  -29.6081  -13.4547   17.6885 H   0  0  0  0  0  0
  -27.9821  -11.2771   19.0243 H   0  0  0  0  0  0
  -27.4095  -12.4214   17.8368 H   0  0  0  0  0  0
  -27.5694  -14.2487   19.3935 H   0  0  0  0  0  0
  -28.7768  -12.3832   21.4892 H   0  0  0  0  0  0
  -28.3305  -14.0522   21.7487 H   0  0  0  0  0  0
  -25.2775   -9.5690   22.4750 H   0  0  0  0  0  0
  -24.0005   -7.4635   22.7469 H   0  0  0  0  0  0
  -21.0843   -8.8779   19.8948 H   0  0  0  0  0  0
  -22.3699  -10.9677   19.6158 H   0  0  0  0  0  0
  -21.2015   -7.6145   23.9709 H   0  0  0  0  0  0
  -21.1487   -6.0520   25.9073 H   0  0  0  0  0  0
  -22.0597   -2.7604   23.2840 H   0  0  0  0  0  0
  -22.4074  -11.9849   22.4827 H   0  0  0  0  0  0
  -21.1065  -13.1203   22.2664 H   0  0  0  0  0  0
  -24.6514  -15.8544   20.5547 H   0  0  0  0  0  0
  -26.2625  -15.6349   20.0946 H   0  0  0  0  0  0
  -26.7296  -32.5225   23.0935 H   0  0  0  0  0  0
  -25.0049  -33.9558   25.0252 H   0  0  0  0  0  0
  -22.7675  -31.2743   21.3586 H   0  0  0  0  0  0
  -23.3762  -35.9560   23.3278 H   0  0  0  0  0  0
  -24.3576  -36.8904   22.2064 H   0  0  0  0  0  0
  -23.7239  -37.6418   23.6709 H   0  0  0  0  0  0
  -26.1836  -31.4281   20.6146 H   0  0  0  0  0  0
  -26.8843  -30.7347   22.0385 H   0  0  0  0  0  0
  -28.1199  -28.7066   21.2902 H   0  0  0  0  0  0
  -25.9402  -25.7836   18.9942 H   0  0  0  0  0  0
  -24.0142  -27.2776   18.9403 H   0  0  0  0  0  0
  -23.8313  -30.5361   19.3850 H   0  0  0  0  0  0
  -22.8071  -29.2079   19.8338 H   0  0  0  0  0  0
  -25.1321  -36.1823   25.0801 H   0  0  0  0  0  0
  -21.0032  -28.3331   24.1328 H   0  0  0  0  0  0
  -20.5672  -26.2353   23.3632 H   0  0  0  0  0  0
  -21.6653  -26.7410   22.1204 H   0  0  0  0  0  0
  -19.6918  -25.6277   21.1265 H   0  0  0  0  0  0
  -19.6691  -27.3164   20.6722 H   0  0  0  0  0  0
  -17.4212  -26.6669   21.4040 H   0  0  0  0  0  0
  -18.0353  -26.0088   22.9042 H   0  0  0  0  0  0
  -19.7960  -30.7302   24.2224 H   0  0  0  0  0  0
  -17.5030  -31.6269   24.5162 H   0  0  0  0  0  0
  -15.5370  -30.2974   23.7666 H   0  0  0  0  0  0
  -15.8701  -28.0804   22.7091 H   0  0  0  0  0  0
  -24.5851  -30.7152   25.7676 H   0  0  0  0  0  0
  -24.8916  -32.2957   26.4770 H   0  0  0  0  0  0
  -25.7943  -30.8929   27.0182 H   0  0  0  0  0  0
  -26.3024  -29.6635   24.1342 H   0  0  0  0  0  0
  -27.3977  -29.7260   25.4938 H   0  0  0  0  0  0
  -27.8952  -30.4140   23.9682 H   0  0  0  0  0  0
  -27.2644  -33.3653   26.1991 H   0  0  0  0  0  0
  -28.3896  -32.6846   25.0332 H   0  0  0  0  0  0
  -28.0685  -31.8499   26.5454 H   0  0  0  0  0  0
  -28.2576  -38.0087   24.7516 H   0  0  0  0  0  0
  -28.1088  -36.2616   24.6288 H   0  0  0  0  0  0
  -27.2292  -37.1412   25.8866 H   0  0  0  0  0  0
  -20.9521  -29.8748   21.6726 H   0  0  0  0  0  0
  -26.0145  -38.2791   24.1408 H   0  0  0  0  0  0
  -28.1090  -20.9886   18.1147 H   0  0  0  0  0  0
  -31.2621  -21.8443   20.2070 H   0  0  0  0  0  0
  -30.6153  -21.9630   21.8434 H   0  0  0  0  0  0
  -30.6726  -23.3798   20.8206 H   0  0  0  0  0  0
  -27.9523  -24.6739   18.6906 H   0  0  0  0  0  0
  -29.5369  -24.6473   19.3228 H   0  0  0  0  0  0
  -28.9528  -16.0409   21.2765 H   0  0  0  0  0  0
  1 25  1  0  0  0
  1 30  2  0  0  0
  1 80  1  0  0  0
  2  3  1  0  0  0
  2 25  1  0  0  0
  2 86  1  0  0  0
  2 87  1  0  0  0
  3  4  1  0  0  0
  3 88  1  0  0  0
  3 89  1  0  0  0
  4  5  1  0  0  0
  4 90  1  0  0  0
  4 91  1  0  0  0
  5  6  1  0  0  0
  5 26  1  0  0  0
  5 92  1  0  0  0
  6 25  1  0  0  0
  6 93  1  0  0  0
  6 94  1  0  0  0
  7  8  2  0  0  0
  7 26  1  0  0  0
  7 29  1  0  0  0
  8  9  1  0  0  0
  8 22  1  0  0  0
  9 10  1  0  0  0
  9 27  2  0  0  0
 10 11  2  0  0  0
 10 15  1  0  0  0
 11 12  1  0  0  0
 11 95  1  0  0  0
 12 13  2  0  0  0
 12 96  1  0  0  0
 13 14  1  0  0  0
 13 31  1  0  0  0
 14 15  2  0  0  0
 14 97  1  0  0  0
 15 98  1  0  0  0
 16 17  2  0  0  0
 16 21  1  0  0  0
 16 31  1  0  0  0
 17 18  1  0  0  0
 17 99  1  0  0  0
 18 19  2  0  0  0
 18100  1  0  0  0
 19 20  1  0  0  0
 19 24  1  0  0  0
 20 21  2  0  0  0
 20101  1  0  0  0
 21 23  1  0  0  0
 22 28  1  0  0  0
 22 32  2  0  0  0
 26 27  1  0  0  0
 28102  1  0  0  0
 28103  1  0  0  0
 29104  1  0  0  0
 29105  1  0  0  0
 33 34  1  0  0  0
 33 66  1  0  0  0
 33 70  2  0  0  0
 34 36  1  0  0  0
 34 59  1  0  0  0
 34106  1  0  0  0
 35 44  2  0  0  0
 35 45  1  0  0  0
 35 68  1  0  0  0
 36 56  1  0  0  0
 36107  1  0  0  0
 37 39  1  0  0  0
 37 47  1  0  0  0
 37 66  1  0  0  0
 37108  1  0  0  0
 38 43  2  0  0  0
 38 46  1  0  0  0
 38 47  1  0  0  0
 39 64  1  0  0  0
 39 67  2  0  0  0
 40 52  1  0  0  0
 40 53  2  0  0  0
 40 58  1  0  0  0
 41109  1  0  0  0
 41110  1  0  0  0
 41111  1  0  0  0
 41 48  1  0  0  0
 42 43  1  0  0  0
 42 66  1  0  0  0
 42112  1  0  0  0
 42113  1  0  0  0
 43 44  1  0  0  0
 44114  1  0  0  0
 45 46  2  0  0  0
 45115  1  0  0  0
 46116  1  0  0  0
 47117  1  0  0  0
 47118  1  0  0  0
 48 56  1  0  0  0
 48 65  1  0  0  0
 48119  1  0  0  0
 49 50  1  0  0  0
 49 53  1  0  0  0
 49 64  1  0  0  0
 49120  1  0  0  0
 50 51  1  0  0  0
 50121  1  0  0  0
 50122  1  0  0  0
 51 52  1  0  0  0
 51123  1  0  0  0
 51124  1  0  0  0
 52125  1  0  0  0
 52126  1  0  0  0
 53 54  1  0  0  0
 54 55  2  0  0  0
 54127  1  0  0  0
 55 57  1  0  0  0
 55128  1  0  0  0
 56 69  2  0  0  0
 57 58  2  0  0  0
 57129  1  0  0  0
 58130  1  0  0  0
 59 60  1  0  0  0
 59 61  1  0  0  0
 59 62  1  0  0  0
 60131  1  0  0  0
 60132  1  0  0  0
 60133  1  0  0  0
 61134  1  0  0  0
 61135  1  0  0  0
 61136  1  0  0  0
 62137  1  0  0  0
 62138  1  0  0  0
 62139  1  0  0  0
 63 65  1  0  0  0
 63140  1  0  0  0
 63141  1  0  0  0
 63142  1  0  0  0
 64143  1  0  0  0
 65144  1  0  0  0
 68 79  1  0  0  0
 71 72  2  0  0  0
 71 74  1  0  0  0
 71145  1  0  0  0
 72 75  1  0  0  0
 72 81  1  0  0  0
 73 75  2  0  0  0
 73 76  1  0  0  0
 73 80  1  0  0  0
 74 76  2  0  0  0
 74 83  1  0  0  0
 75 84  1  0  0  0
 76 85  1  0  0  0
 77 79  1  0  0  0
 77 81  1  0  0  0
 77 82  2  0  0  0
 78 81  1  0  0  0
 78146  1  0  0  0
 78147  1  0  0  0
 78148  1  0  0  0
 79149  1  0  0  0
 79150  1  0  0  0
 80151  1  0  0  0
M  ISO  4   1 100  68 101  79 101  80 100
M  END
> <chiral flag>
0

> <version>
0

> <s_m_source_file>
/data/baiqing/PycharmProjects/Reinvent-master-3.2/result/LINK_invent/BTK/process_docking_weight1_custom_sum_contain_oxygen_bond_distance_aromatic_linkinvent_7_9_3/rearranged_h_0012.sdf

> <i_m_source_file_index>
7

> <r_mmod_Potential_Energy-OPLS-2005>
881.192321777344

> <r_mmod_Stretch_Energy-OPLS-2005>
379.989898681641

> <r_mmod_Bend_Energy-OPLS-2005>
349.970550537109

> <r_mmod_Torsional_Energy-OPLS-2005>
330.175445556641

> <r_mmod_Improper_Torsional_Energy-OPLS-2005>
6.57600069046021

> <r_mmod_Van_der_Waal_Energy-OPLS-2005>
119.709762573242

> <r_mmod_Electrostatic_Energy-OPLS-2005>
-363.217346191406

> <r_mmod_Solvation_Energy-OPLS-2005>
-237.32307434082

> <b_mmod_Minimization_Converged-OPLS-2005>
0

> <r_mmod_RMS_Derivative-OPLS-2005>
0.838522255420685

$$$$
7
                    3D
 Structure written by MMmdl.
148156  0  0  1  0            999 V2000
  -30.5208  -15.0462   20.4027 C   0  0  0  0  0  0
  -30.4389  -12.6568   19.5008 C   0  0  0  0  0  0
  -29.5220  -12.5362   18.2614 C   0  0  0  0  0  0
  -28.0604  -12.3050   18.6869 C   0  0  0  0  0  0
  -27.6219  -13.2566   19.8300 C   0  0  2  0  0  0
  -28.6650  -13.3389   20.9640 C   0  0  0  0  0  0
  -25.2433  -13.8227   20.5727 C   0  0  0  0  0  0
  -24.1763  -13.0439   20.9245 C   0  0  0  0  0  0
  -24.6393  -11.6927   20.8763 C   0  0  0  0  0  0
  -23.9084  -10.4293   21.0412 C   0  0  0  0  0  0
  -24.3631   -9.4204   21.9187 C   0  0  0  0  0  0
  -23.6300   -8.2241   22.0754 C   0  0  0  0  0  0
  -22.4282   -8.0282   21.3545 C   0  0  0  0  0  0
  -21.9923   -9.0257   20.4646 C   0  0  0  0  0  0
  -22.7257  -10.2134   20.3057 C   0  0  0  0  0  0
  -21.6855   -6.0739   22.5277 C   0  0  0  0  0  0
  -21.4016   -6.5641   23.8212 C   0  0  0  0  0  0
  -21.3659   -5.6793   24.9174 C   0  0  0  0  0  0
  -21.6044   -4.3056   24.7225 C   0  0  0  0  0  0
  -21.8819   -3.8147   23.4347 C   0  0  0  0  0  0
  -21.9193   -4.6965   22.3402 C   0  0  0  0  0  0
  -22.7782  -13.5202   21.1896 C   0  0  0  0  0  0
  -22.1662   -4.2151   21.0979 F   0  0  0  0  0  0
  -21.5628   -3.4539   25.7738 F   0  0  0  0  0  0
  -29.9237  -13.7780   20.3471 N   0  0  0  0  0  0
  -26.2856  -12.9471   20.3237 N   0  0  0  0  0  0
  -25.9327  -11.6594   20.5745 N   0  0  0  0  0  0
  -22.0436  -12.8182   22.0447 N   0  0  0  0  0  0
  -25.4073  -15.1960   20.4151 N   0  0  0  0  0  0
  -31.7375  -15.0644   20.1826 O   0  0  0  0  0  0
  -21.6642   -6.8882   21.4239 O   0  0  0  0  0  0
  -22.3462  -14.5504   20.6739 O   0  0  0  0  0  0
  -24.6509  -31.8372   23.1817 C   0  0  0  0  0  0
  -25.9246  -32.4661   23.8232 C   0  0  1  0  0  0
  -27.2143  -27.0608   20.1608 C   0  0  0  0  0  0
  -25.5963  -33.8467   24.2147 N   0  0  0  0  0  0
  -23.4580  -30.4547   21.5294 C   0  0  2  0  0  0
  -24.9079  -28.8686   20.1115 C   0  0  0  0  0  0
  -22.7603  -29.4513   22.4829 C   0  0  0  0  0  0
  -18.0310  -28.1406   22.8471 C   0  0  0  0  0  0
  -24.1490  -36.7239   23.2645 C   0  0  0  0  0  0
  -26.0194  -30.6873   21.3912 C   0  0  0  0  0  0
  -26.0897  -29.2910   20.7339 C   0  0  0  0  0  0
  -27.2431  -28.4058   20.7373 C   0  0  0  0  0  0
  -26.0034  -26.7601   19.4977 C   0  0  0  0  0  0
  -24.8823  -27.6193   19.4760 C   0  0  0  0  0  0
  -23.6889  -29.7807   20.1511 C   0  0  0  0  0  0
  -25.4125  -36.3012   24.0310 C   0  0  1  0  0  0
  -20.5927  -28.3738   23.1216 C   0  0  2  0  0  0
  -20.6791  -26.9432   22.5402 C   0  0  0  0  0  0
  -19.5765  -26.6383   21.5213 C   0  0  0  0  0  0
  -18.1947  -26.7939   22.1624 C   0  0  0  0  0  0
  -19.1568  -28.8890   23.2834 C   0  0  0  0  0  0
  -18.9485  -30.1481   23.8864 C   0  0  0  0  0  0
  -17.6481  -30.6599   24.0559 C   0  0  0  0  0  0
  -25.9083  -34.9389   23.5042 C   0  0  0  0  0  0
  -16.5370  -29.9091   23.6342 C   0  0  0  0  0  0
  -16.7295  -28.6510   23.0359 C   0  0  0  0  0  0
  -26.4538  -31.6554   25.0704 C   0  0  0  0  0  0
  -25.3700  -31.3763   26.1384 C   0  0  0  0  0  0
  -27.0416  -30.2941   24.6335 C   0  0  0  0  0  0
  -27.6052  -32.4335   25.7501 C   0  0  0  0  0  0
  -27.5568  -37.1781   24.8469 C   0  0  0  0  0  0
  -21.4285  -29.3051   22.3580 N   0  0  0  0  0  0
  -26.4284  -37.3731   23.9404 N   0  0  0  0  0  0
  -24.7300  -31.0161   22.0889 N   0  0  0  0  0  0
  -23.4212  -28.8064   23.3009 O   0  0  0  0  0  0
  -28.2420  -26.0244   20.2232 O   0  0  0  0  0  0
  -26.5681  -34.8902   22.4629 O   0  0  0  0  0  0
  -23.5610  -32.1279   23.6996 O   0  0  0  0  0  0
  -31.4069  -18.1290   20.9021 C   0  0  0  0  0  0
  -30.0869  -17.7963   20.5401 C   0  0  0  0  0  0
  -29.6283  -20.4724   20.5068 C   0  0  0  0  0  0
  -31.8283  -19.4594   21.0996 C   0  0  0  0  0  0
  -29.2177  -19.0219   20.3485 C   0  0  0  0  0  0
  -30.9819  -20.5805   20.9321 C   0  0  0  0  0  0
  -29.0306  -23.2172   20.2494 C   0  0  0  0  0  0
  -27.9020  -24.4689   20.1578 C   0  0  0  0  0  0
  -28.7722  -21.7880   20.3375 N   0  0  0  0  0  0
  -29.7501  -16.2692   20.4570 N   0  0  0  0  0  0
  -30.1937  -23.6117   20.1672 O   0  0  0  0  0  0
  -33.1074  -19.6699   21.4941 F   0  0  0  0  0  0
  -27.9284  -18.7931   20.0022 F   0  0  0  0  0  0
  -31.5222  -21.7777   21.2480 F   0  0  0  0  0  0
  -31.4675  -12.8275   19.1795 H   0  0  0  0  0  0
  -30.4566  -11.7231   20.0649 H   0  0  0  0  0  0
  -29.8583  -11.7226   17.6173 H   0  0  0  0  0  0
  -29.5904  -13.4478   17.6656 H   0  0  0  0  0  0
  -27.9773  -11.2700   19.0207 H   0  0  0  0  0  0
  -27.3930  -12.4032   17.8299 H   0  0  0  0  0  0
  -27.5666  -14.2457   19.3741 H   0  0  0  0  0  0
  -28.7804  -12.3789   21.4687 H   0  0  0  0  0  0
  -28.3490  -14.0549   21.7243 H   0  0  0  0  0  0
  -25.2772   -9.5681   22.4768 H   0  0  0  0  0  0
  -24.0007   -7.4634   22.7473 H   0  0  0  0  0  0
  -21.0855   -8.8782   19.8949 H   0  0  0  0  0  0
  -22.3716  -10.9678   19.6169 H   0  0  0  0  0  0
  -21.2009   -7.6149   23.9716 H   0  0  0  0  0  0
  -21.1481   -6.0524   25.9078 H   0  0  0  0  0  0
  -22.0598   -2.7609   23.2846 H   0  0  0  0  0  0
  -22.4066  -11.9850   22.4836 H   0  0  0  0  0  0
  -21.1048  -13.1193   22.2652 H   0  0  0  0  0  0
  -24.6350  -15.8441   20.5275 H   0  0  0  0  0  0
  -26.2449  -15.6412   20.0643 H   0  0  0  0  0  0
  -26.7312  -32.5244   23.0954 H   0  0  0  0  0  0
  -25.0065  -33.9564   25.0265 H   0  0  0  0  0  0
  -22.7648  -31.2832   21.3699 H   0  0  0  0  0  0
  -23.3755  -35.9570   23.3305 H   0  0  0  0  0  0
  -24.3564  -36.8881   22.2060 H   0  0  0  0  0  0
  -23.7250  -37.6433   23.6691 H   0  0  0  0  0  0
  -26.1815  -31.4362   20.6147 H   0  0  0  0  0  0
  -26.8872  -30.7413   22.0367 H   0  0  0  0  0  0
  -28.1412  -28.7253   21.2472 H   0  0  0  0  0  0
  -25.8830  -25.8092   19.0029 H   0  0  0  0  0  0
  -23.9819  -27.2897   18.9753 H   0  0  0  0  0  0
  -23.8336  -30.5536   19.3953 H   0  0  0  0  0  0
  -22.8014  -29.2279   19.8378 H   0  0  0  0  0  0
  -25.1319  -36.1827   25.0803 H   0  0  0  0  0  0
  -21.0016  -28.3339   24.1338 H   0  0  0  0  0  0
  -20.5684  -26.2353   23.3630 H   0  0  0  0  0  0
  -21.6657  -26.7431   22.1200 H   0  0  0  0  0  0
  -19.6925  -25.6286   21.1263 H   0  0  0  0  0  0
  -19.6704  -27.3176   20.6729 H   0  0  0  0  0  0
  -17.4213  -26.6681   21.4030 H   0  0  0  0  0  0
  -18.0346  -26.0092   22.9032 H   0  0  0  0  0  0
  -19.7963  -30.7302   24.2223 H   0  0  0  0  0  0
  -17.5037  -31.6276   24.5164 H   0  0  0  0  0  0
  -15.5371  -30.2984   23.7685 H   0  0  0  0  0  0
  -15.8693  -28.0822   22.7092 H   0  0  0  0  0  0
  -24.5895  -30.7096   25.7698 H   0  0  0  0  0  0
  -24.8869  -32.2950   26.4722 H   0  0  0  0  0  0
  -25.7960  -30.8992   27.0220 H   0  0  0  0  0  0
  -26.3052  -29.6645   24.1326 H   0  0  0  0  0  0
  -27.3990  -29.7262   25.4937 H   0  0  0  0  0  0
  -27.8976  -30.4158   23.9693 H   0  0  0  0  0  0
  -27.2636  -33.3668   26.1989 H   0  0  0  0  0  0
  -28.3910  -32.6844   25.0362 H   0  0  0  0  0  0
  -28.0665  -31.8518   26.5493 H   0  0  0  0  0  0
  -28.2588  -38.0075   24.7496 H   0  0  0  0  0  0
  -28.1064  -36.2600   24.6324 H   0  0  0  0  0  0
  -27.2280  -37.1460   25.8873 H   0  0  0  0  0  0
  -20.9510  -29.8764   21.6748 H   0  0  0  0  0  0
  -26.0146  -38.2799   24.1403 H   0  0  0  0  0  0
  -32.1348  -17.3533   21.0798 H   0  0  0  0  0  0
  -27.1588  -24.2726   20.9305 H   0  0  0  0  0  0
  -27.3954  -24.2923   19.2102 H   0  0  0  0  0  0
  -27.7824  -21.5911   20.2778 H   0  0  0  0  0  0
  -28.7585  -16.0871   20.4509 H   0  0  0  0  0  0
  1 25  1  0  0  0
  1 30  2  0  0  0
  1 80  1  0  0  0
  2  3  1  0  0  0
  2 25  1  0  0  0
  2 85  1  0  0  0
  2 86  1  0  0  0
  3  4  1  0  0  0
  3 87  1  0  0  0
  3 88  1  0  0  0
  4  5  1  0  0  0
  4 89  1  0  0  0
  4 90  1  0  0  0
  5  6  1  0  0  0
  5 26  1  0  0  0
  5 91  1  0  0  0
  6 25  1  0  0  0
  6 92  1  0  0  0
  6 93  1  0  0  0
  7  8  2  0  0  0
  7 26  1  0  0  0
  7 29  1  0  0  0
  8  9  1  0  0  0
  8 22  1  0  0  0
  9 10  1  0  0  0
  9 27  2  0  0  0
 10 11  2  0  0  0
 10 15  1  0  0  0
 11 12  1  0  0  0
 11 94  1  0  0  0
 12 13  2  0  0  0
 12 95  1  0  0  0
 13 14  1  0  0  0
 13 31  1  0  0  0
 14 15  2  0  0  0
 14 96  1  0  0  0
 15 97  1  0  0  0
 16 17  2  0  0  0
 16 21  1  0  0  0
 16 31  1  0  0  0
 17 18  1  0  0  0
 17 98  1  0  0  0
 18 19  2  0  0  0
 18 99  1  0  0  0
 19 20  1  0  0  0
 19 24  1  0  0  0
 20 21  2  0  0  0
 20100  1  0  0  0
 21 23  1  0  0  0
 22 28  1  0  0  0
 22 32  2  0  0  0
 26 27  1  0  0  0
 28101  1  0  0  0
 28102  1  0  0  0
 29103  1  0  0  0
 29104  1  0  0  0
 33 34  1  0  0  0
 33 66  1  0  0  0
 33 70  2  0  0  0
 34 36  1  0  0  0
 34 59  1  0  0  0
 34105  1  0  0  0
 35 44  2  0  0  0
 35 45  1  0  0  0
 35 68  1  0  0  0
 36 56  1  0  0  0
 36106  1  0  0  0
 37 39  1  0  0  0
 37 47  1  0  0  0
 37 66  1  0  0  0
 37107  1  0  0  0
 38 43  2  0  0  0
 38 46  1  0  0  0
 38 47  1  0  0  0
 39 64  1  0  0  0
 39 67  2  0  0  0
 40 52  1  0  0  0
 40 53  2  0  0  0
 40 58  1  0  0  0
 41108  1  0  0  0
 41109  1  0  0  0
 41110  1  0  0  0
 41 48  1  0  0  0
 42 43  1  0  0  0
 42 66  1  0  0  0
 42111  1  0  0  0
 42112  1  0  0  0
 43 44  1  0  0  0
 44113  1  0  0  0
 45 46  2  0  0  0
 45114  1  0  0  0
 46115  1  0  0  0
 47116  1  0  0  0
 47117  1  0  0  0
 48 56  1  0  0  0
 48 65  1  0  0  0
 48118  1  0  0  0
 49 50  1  0  0  0
 49 53  1  0  0  0
 49 64  1  0  0  0
 49119  1  0  0  0
 50 51  1  0  0  0
 50120  1  0  0  0
 50121  1  0  0  0
 51 52  1  0  0  0
 51122  1  0  0  0
 51123  1  0  0  0
 52124  1  0  0  0
 52125  1  0  0  0
 53 54  1  0  0  0
 54 55  2  0  0  0
 54126  1  0  0  0
 55 57  1  0  0  0
 55127  1  0  0  0
 56 69  2  0  0  0
 57 58  2  0  0  0
 57128  1  0  0  0
 58129  1  0  0  0
 59 60  1  0  0  0
 59 61  1  0  0  0
 59 62  1  0  0  0
 60130  1  0  0  0
 60131  1  0  0  0
 60132  1  0  0  0
 61133  1  0  0  0
 61134  1  0  0  0
 61135  1  0  0  0
 62136  1  0  0  0
 62137  1  0  0  0
 62138  1  0  0  0
 63 65  1  0  0  0
 63139  1  0  0  0
 63140  1  0  0  0
 63141  1  0  0  0
 64142  1  0  0  0
 65143  1  0  0  0
 68 78  1  0  0  0
 71 72  2  0  0  0
 71 74  1  0  0  0
 71144  1  0  0  0
 72 75  1  0  0  0
 72 80  1  0  0  0
 73 75  2  0  0  0
 73 76  1  0  0  0
 73 79  1  0  0  0
 74 76  2  0  0  0
 74 82  1  0  0  0
 75 83  1  0  0  0
 76 84  1  0  0  0
 77 78  1  0  0  0
 77 79  1  0  0  0
 77 81  2  0  0  0
 78145  1  0  0  0
 78146  1  0  0  0
 79147  1  0  0  0
 80148  1  0  0  0
M  ISO  4   1 100  68 101  78 101  80 100
M  END
> <chiral flag>
0

> <version>
0

> <s_m_source_file>
/data/baiqing/PycharmProjects/Reinvent-master-3.2/result/LINK_invent/BTK/process_docking_weight1_custom_sum_contain_oxygen_bond_distance_aromatic_linkinvent_7_9_3/rearranged_h_0012.sdf

> <i_m_source_file_index>
8

> <r_mmod_Potential_Energy-OPLS-2005>
618.624572753906

> <r_mmod_Stretch_Energy-OPLS-2005>
352.039672851562

> <r_mmod_Bend_Energy-OPLS-2005>
273.59326171875

> <r_mmod_Torsional_Energy-OPLS-2005>
224.647674560547

> <r_mmod_Improper_Torsional_Energy-OPLS-2005>
5.93822002410889

> <r_mmod_Van_der_Waal_Energy-OPLS-2005>
137.453277587891

> <r_mmod_Electrostatic_Energy-OPLS-2005>
-399.628387451172

> <r_mmod_Solvation_Energy-OPLS-2005>
-242.851867675781

> <b_mmod_Minimization_Converged-OPLS-2005>
0

> <r_mmod_RMS_Derivative-OPLS-2005>
0.584098935127258

$$$$
8
                    3D
 Structure written by MMmdl.
155163  0  0  1  0            999 V2000
  -30.4875  -15.0328   20.3662 C   0  0  0  0  0  0
  -30.4454  -12.6394   19.5122 C   0  0  0  0  0  0
  -29.5335  -12.5437   18.2667 C   0  0  0  0  0  0
  -28.0665  -12.3241   18.6809 C   0  0  0  0  0  0
  -27.6294  -13.2580   19.8395 C   0  0  2  0  0  0
  -28.6682  -13.3074   20.9774 C   0  0  0  0  0  0
  -25.2440  -13.8230   20.5743 C   0  0  0  0  0  0
  -24.1758  -13.0446   20.9227 C   0  0  0  0  0  0
  -24.6398  -11.6937   20.8752 C   0  0  0  0  0  0
  -23.9095  -10.4295   21.0414 C   0  0  0  0  0  0
  -24.3637   -9.4206   21.9199 C   0  0  0  0  0  0
  -23.6308   -8.2244   22.0774 C   0  0  0  0  0  0
  -22.4286   -8.0308   21.3564 C   0  0  0  0  0  0
  -21.9917   -9.0285   20.4667 C   0  0  0  0  0  0
  -22.7260  -10.2149   20.3073 C   0  0  0  0  0  0
  -21.6854   -6.0745   22.5280 C   0  0  0  0  0  0
  -21.4040   -6.5648   23.8221 C   0  0  0  0  0  0
  -21.3660   -5.6792   24.9168 C   0  0  0  0  0  0
  -21.6040   -4.3058   24.7215 C   0  0  0  0  0  0
  -21.8817   -3.8150   23.4334 C   0  0  0  0  0  0
  -21.9188   -4.6971   22.3390 C   0  0  0  0  0  0
  -22.7774  -13.5238   21.1847 C   0  0  0  0  0  0
  -22.1647   -4.2172   21.0963 F   0  0  0  0  0  0
  -21.5608   -3.4532   25.7716 F   0  0  0  0  0  0
  -29.9341  -13.7450   20.3773 N   0  0  0  0  0  0
  -26.2878  -12.9490   20.3262 N   0  0  0  0  0  0
  -25.9340  -11.6608   20.5741 N   0  0  0  0  0  0
  -22.0375  -12.8300   22.0415 N   0  0  0  0  0  0
  -25.4047  -15.1963   20.4166 N   0  0  0  0  0  0
  -31.6894  -15.0959   20.0763 O   0  0  0  0  0  0
  -21.6646   -6.8904   21.4253 O   0  0  0  0  0  0
  -22.3493  -14.5533   20.6642 O   0  0  0  0  0  0
  -24.6491  -31.8388   23.1836 C   0  0  0  0  0  0
  -25.9241  -32.4647   23.8249 C   0  0  1  0  0  0
  -27.2082  -27.0769   20.1739 C   0  0  0  0  0  0
  -25.5955  -33.8466   24.2143 N   0  0  0  0  0  0
  -23.4557  -30.4570   21.5289 C   0  0  2  0  0  0
  -24.9041  -28.8702   20.1174 C   0  0  0  0  0  0
  -22.7602  -29.4540   22.4840 C   0  0  0  0  0  0
  -18.0318  -28.1377   22.8478 C   0  0  0  0  0  0
  -24.1497  -36.7239   23.2649 C   0  0  0  0  0  0
  -26.0165  -30.6964   21.3918 C   0  0  0  0  0  0
  -26.0847  -29.3005   20.7352 C   0  0  0  0  0  0
  -27.2400  -28.4230   20.7387 C   0  0  0  0  0  0
  -26.0022  -26.7610   19.5120 C   0  0  0  0  0  0
  -24.8772  -27.6139   19.4918 C   0  0  0  0  0  0
  -23.6847  -29.7802   20.1519 C   0  0  0  0  0  0
  -25.4134  -36.3012   24.0310 C   0  0  1  0  0  0
  -20.5936  -28.3727   23.1203 C   0  0  2  0  0  0
  -20.6792  -26.9416   22.5398 C   0  0  0  0  0  0
  -19.5761  -26.6364   21.5207 C   0  0  0  0  0  0
  -18.1946  -26.7916   22.1623 C   0  0  0  0  0  0
  -19.1577  -28.8875   23.2832 C   0  0  0  0  0  0
  -18.9493  -30.1465   23.8850 C   0  0  0  0  0  0
  -17.6486  -30.6580   24.0558 C   0  0  0  0  0  0
  -25.9087  -34.9386   23.5048 C   0  0  0  0  0  0
  -16.5376  -29.9066   23.6334 C   0  0  0  0  0  0
  -16.7304  -28.6487   23.0362 C   0  0  0  0  0  0
  -26.4524  -31.6549   25.0729 C   0  0  0  0  0  0
  -25.3684  -31.3782   26.1411 C   0  0  0  0  0  0
  -27.0383  -30.2918   24.6396 C   0  0  0  0  0  0
  -27.6032  -32.4333   25.7526 C   0  0  0  0  0  0
  -27.5577  -37.1775   24.8467 C   0  0  0  0  0  0
  -21.4289  -29.3052   22.3575 N   0  0  0  0  0  0
  -26.4286  -37.3729   23.9407 N   0  0  0  0  0  0
  -24.7276  -31.0216   22.0884 N   0  0  0  0  0  0
  -23.4210  -28.8105   23.3023 O   0  0  0  0  0  0
  -28.2459  -26.0602   20.2075 O   0  0  0  0  0  0
  -26.5699  -34.8900   22.4639 O   0  0  0  0  0  0
  -23.5600  -32.1284   23.7010 O   0  0  0  0  0  0
  -29.5656  -20.3062   18.6968 C   0  0  0  0  0  0
  -29.2047  -18.9432   20.6547 C   0  0  0  0  0  0
  -30.0076  -19.1353   18.0269 C   0  0  0  0  0  0
  -29.1329  -20.3142   20.0345 C   0  0  0  0  0  0
  -29.6999  -17.6750   20.0219 C   0  0  0  0  0  0
  -30.0817  -17.8646   18.6686 C   0  0  0  0  0  0
  -28.2342  -21.4846   21.9788 C   0  0  0  0  0  0
  -28.8885  -23.1287   20.0821 C   0  0  0  0  0  0
  -27.9635  -24.5229   20.4836 C   0  0  0  0  0  0
  -30.3660  -19.2374   16.5472 C   0  0  0  0  0  0
  -29.6960  -16.2155   20.5751 N   0  0  0  0  0  0
  -28.6498  -21.6345   20.5887 N   0  0  0  0  0  0
  -30.4612  -16.7893   17.9369 F   0  0  0  0  0  0
  -30.3592  -20.4992   16.1110 F   0  0  0  0  0  0
  -31.5823  -18.7422   16.3210 F   0  0  0  0  0  0
  -29.4809  -18.5525   15.8211 F   0  0  0  0  0  0
  -31.4741  -12.8140   19.1974 H   0  0  0  0  0  0
  -30.4627  -11.6968   20.0622 H   0  0  0  0  0  0
  -29.8672  -11.7356   17.6161 H   0  0  0  0  0  0
  -29.6126  -13.4603   17.6788 H   0  0  0  0  0  0
  -27.9666  -11.2847   18.9949 H   0  0  0  0  0  0
  -27.4073  -12.4466   17.8198 H   0  0  0  0  0  0
  -27.5873  -14.2572   19.4060 H   0  0  0  0  0  0
  -28.7682  -12.3359   21.4636 H   0  0  0  0  0  0
  -28.3546  -14.0062   21.7545 H   0  0  0  0  0  0
  -25.2771   -9.5685   22.4783 H   0  0  0  0  0  0
  -23.9995   -7.4644   22.7518 H   0  0  0  0  0  0
  -21.0828   -8.8831   19.8997 H   0  0  0  0  0  0
  -22.3725  -10.9702   19.6192 H   0  0  0  0  0  0
  -21.2061   -7.6166   23.9748 H   0  0  0  0  0  0
  -21.1480   -6.0503   25.9079 H   0  0  0  0  0  0
  -22.0587   -2.7625   23.2804 H   0  0  0  0  0  0
  -22.3939  -12.0028   22.4947 H   0  0  0  0  0  0
  -21.0992  -13.1405   22.2532 H   0  0  0  0  0  0
  -24.6249  -15.8363   20.5332 H   0  0  0  0  0  0
  -26.2376  -15.6466   20.0589 H   0  0  0  0  0  0
  -26.7329  -32.5233   23.0991 H   0  0  0  0  0  0
  -25.0014  -33.9548   25.0235 H   0  0  0  0  0  0
  -22.7631  -31.2858   21.3669 H   0  0  0  0  0  0
  -23.3757  -35.9568   23.3288 H   0  0  0  0  0  0
  -24.3594  -36.8898   22.2071 H   0  0  0  0  0  0
  -23.7239  -37.6426   23.6702 H   0  0  0  0  0  0
  -26.1903  -31.4488   20.6223 H   0  0  0  0  0  0
  -26.8810  -30.7401   22.0440 H   0  0  0  0  0  0
  -28.1422  -28.7501   21.2358 H   0  0  0  0  0  0
  -25.9037  -25.8070   19.0166 H   0  0  0  0  0  0
  -23.9771  -27.2773   18.9981 H   0  0  0  0  0  0
  -23.8307  -30.5492   19.3910 H   0  0  0  0  0  0
  -22.7986  -29.2245   19.8400 H   0  0  0  0  0  0
  -25.1316  -36.1832   25.0797 H   0  0  0  0  0  0
  -21.0037  -28.3319   24.1324 H   0  0  0  0  0  0
  -20.5668  -26.2344   23.3634 H   0  0  0  0  0  0
  -21.6658  -26.7394   22.1206 H   0  0  0  0  0  0
  -19.6919  -25.6267   21.1254 H   0  0  0  0  0  0
  -19.6679  -27.3163   20.6725 H   0  0  0  0  0  0
  -17.4213  -26.6670   21.4029 H   0  0  0  0  0  0
  -18.0344  -26.0050   22.9022 H   0  0  0  0  0  0
  -19.7980  -30.7298   24.2181 H   0  0  0  0  0  0
  -17.5049  -31.6256   24.5169 H   0  0  0  0  0  0
  -15.5371  -30.2963   23.7675 H   0  0  0  0  0  0
  -15.8714  -28.0793   22.7088 H   0  0  0  0  0  0
  -24.5848  -30.7140   25.7753 H   0  0  0  0  0  0
  -24.8887  -32.2977   26.4782 H   0  0  0  0  0  0
  -25.7942  -30.8997   27.0239 H   0  0  0  0  0  0
  -26.3018  -29.6631   24.1378 H   0  0  0  0  0  0
  -27.3908  -29.7252   25.5032 H   0  0  0  0  0  0
  -27.8976  -30.4107   23.9786 H   0  0  0  0  0  0
  -27.2588  -33.3644   26.2047 H   0  0  0  0  0  0
  -28.3869  -32.6876   25.0373 H   0  0  0  0  0  0
  -28.0669  -31.8498   26.5495 H   0  0  0  0  0  0
  -28.2578  -38.0090   24.7513 H   0  0  0  0  0  0
  -28.1076  -36.2608   24.6268 H   0  0  0  0  0  0
  -27.2299  -37.1413   25.8874 H   0  0  0  0  0  0
  -20.9521  -29.8735   21.6730 H   0  0  0  0  0  0
  -26.0142  -38.2796   24.1396 H   0  0  0  0  0  0
  -29.5217  -21.2272   18.1380 H   0  0  0  0  0  0
  -28.8559  -18.8509   21.6721 H   0  0  0  0  0  0
  -29.0364  -21.0527   22.5805 H   0  0  0  0  0  0
  -27.3640  -20.8297   22.0514 H   0  0  0  0  0  0
  -27.9615  -22.4365   22.4334 H   0  0  0  0  0  0
  -29.9143  -23.3600   20.3687 H   0  0  0  0  0  0
  -28.9084  -23.0973   18.9940 H   0  0  0  0  0  0
  -27.8906  -24.4995   21.5710 H   0  0  0  0  0  0
  -26.9501  -24.2989   20.1534 H   0  0  0  0  0  0
  -28.8380  -15.9960   21.0571 H   0  0  0  0  0  0
  1 25  1  0  0  0
  1 30  2  0  0  0
  1 81  1  0  0  0
  2  3  1  0  0  0
  2 25  1  0  0  0
  2 87  1  0  0  0
  2 88  1  0  0  0
  3  4  1  0  0  0
  3 89  1  0  0  0
  3 90  1  0  0  0
  4  5  1  0  0  0
  4 91  1  0  0  0
  4 92  1  0  0  0
  5  6  1  0  0  0
  5 26  1  0  0  0
  5 93  1  0  0  0
  6 25  1  0  0  0
  6 94  1  0  0  0
  6 95  1  0  0  0
  7  8  2  0  0  0
  7 26  1  0  0  0
  7 29  1  0  0  0
  8  9  1  0  0  0
  8 22  1  0  0  0
  9 10  1  0  0  0
  9 27  2  0  0  0
 10 11  2  0  0  0
 10 15  1  0  0  0
 11 12  1  0  0  0
 11 96  1  0  0  0
 12 13  2  0  0  0
 12 97  1  0  0  0
 13 14  1  0  0  0
 13 31  1  0  0  0
 14 15  2  0  0  0
 14 98  1  0  0  0
 15 99  1  0  0  0
 16 17  2  0  0  0
 16 21  1  0  0  0
 16 31  1  0  0  0
 17 18  1  0  0  0
 17100  1  0  0  0
 18 19  2  0  0  0
 18101  1  0  0  0
 19 20  1  0  0  0
 19 24  1  0  0  0
 20 21  2  0  0  0
 20102  1  0  0  0
 21 23  1  0  0  0
 22 28  1  0  0  0
 22 32  2  0  0  0
 26 27  1  0  0  0
 28103  1  0  0  0
 28104  1  0  0  0
 29105  1  0  0  0
 29106  1  0  0  0
 33 34  1  0  0  0
 33 66  1  0  0  0
 33 70  2  0  0  0
 34 36  1  0  0  0
 34 59  1  0  0  0
 34107  1  0  0  0
 35 44  2  0  0  0
 35 45  1  0  0  0
 35 68  1  0  0  0
 36 56  1  0  0  0
 36108  1  0  0  0
 37 39  1  0  0  0
 37 47  1  0  0  0
 37 66  1  0  0  0
 37109  1  0  0  0
 38 43  2  0  0  0
 38 46  1  0  0  0
 38 47  1  0  0  0
 39 64  1  0  0  0
 39 67  2  0  0  0
 40 52  1  0  0  0
 40 53  2  0  0  0
 40 58  1  0  0  0
 41110  1  0  0  0
 41111  1  0  0  0
 41112  1  0  0  0
 41 48  1  0  0  0
 42 43  1  0  0  0
 42 66  1  0  0  0
 42113  1  0  0  0
 42114  1  0  0  0
 43 44  1  0  0  0
 44115  1  0  0  0
 45 46  2  0  0  0
 45116  1  0  0  0
 46117  1  0  0  0
 47118  1  0  0  0
 47119  1  0  0  0
 48 56  1  0  0  0
 48 65  1  0  0  0
 48120  1  0  0  0
 49 50  1  0  0  0
 49 53  1  0  0  0
 49 64  1  0  0  0
 49121  1  0  0  0
 50 51  1  0  0  0
 50122  1  0  0  0
 50123  1  0  0  0
 51 52  1  0  0  0
 51124  1  0  0  0
 51125  1  0  0  0
 52126  1  0  0  0
 52127  1  0  0  0
 53 54  1  0  0  0
 54 55  2  0  0  0
 54128  1  0  0  0
 55 57  1  0  0  0
 55129  1  0  0  0
 56 69  2  0  0  0
 57 58  2  0  0  0
 57130  1  0  0  0
 58131  1  0  0  0
 59 60  1  0  0  0
 59 61  1  0  0  0
 59 62  1  0  0  0
 60132  1  0  0  0
 60133  1  0  0  0
 60134  1  0  0  0
 61135  1  0  0  0
 61136  1  0  0  0
 61137  1  0  0  0
 62138  1  0  0  0
 62139  1  0  0  0
 62140  1  0  0  0
 63 65  1  0  0  0
 63141  1  0  0  0
 63142  1  0  0  0
 63143  1  0  0  0
 64144  1  0  0  0
 65145  1  0  0  0
 68 79  1  0  0  0
 71 73  2  0  0  0
 71 74  1  0  0  0
 71146  1  0  0  0
 72 74  2  0  0  0
 72 75  1  0  0  0
 72147  1  0  0  0
 73 76  1  0  0  0
 73 80  1  0  0  0
 74 82  1  0  0  0
 75 76  2  0  0  0
 75 81  1  0  0  0
 76 83  1  0  0  0
 77 82  1  0  0  0
 77148  1  0  0  0
 77149  1  0  0  0
 77150  1  0  0  0
 78 79  1  0  0  0
 78 82  1  0  0  0
 78151  1  0  0  0
 78152  1  0  0  0
 79153  1  0  0  0
 79154  1  0  0  0
 80 84  1  0  0  0
 80 85  1  0  0  0
 80 86  1  0  0  0
 81155  1  0  0  0
M  ISO  4   1 100  68 101  79 101  81 100
M  END
> <chiral flag>
0

> <version>
0

> <s_m_source_file>
/data/baiqing/PycharmProjects/Reinvent-master-3.2/result/LINK_invent/BTK/process_docking_weight1_custom_sum_contain_oxygen_bond_distance_aromatic_linkinvent_7_9_3/rearranged_h_0012.sdf

> <i_m_source_file_index>
9

> <r_mmod_Potential_Energy-OPLS-2005>
625.714782714844

> <r_mmod_Stretch_Energy-OPLS-2005>
321.683776855469

> <r_mmod_Bend_Energy-OPLS-2005>
284.399749755859

> <r_mmod_Torsional_Energy-OPLS-2005>
233.076751708984

> <r_mmod_Improper_Torsional_Energy-OPLS-2005>
4.69247484207153

> <r_mmod_Van_der_Waal_Energy-OPLS-2005>
136.82470703125

> <r_mmod_Electrostatic_Energy-OPLS-2005>
-370.995971679688

> <r_mmod_Solvation_Energy-OPLS-2005>
-237.273284912109

> <b_mmod_Minimization_Converged-OPLS-2005>
0

> <r_mmod_RMS_Derivative-OPLS-2005>
3.73906540870667

$$$$
9
                    3D
 Structure written by MMmdl.
158166  0  0  1  0            999 V2000
  -30.5039  -15.0447   20.3764 C   0  0  0  0  0  0
  -30.4347  -12.6446   19.5169 C   0  0  0  0  0  0
  -29.5277  -12.5487   18.2668 C   0  0  0  0  0  0
  -28.0617  -12.3218   18.6804 C   0  0  0  0  0  0
  -27.6237  -13.2604   19.8353 C   0  0  2  0  0  0
  -28.6617  -13.3283   20.9756 C   0  0  0  0  0  0
  -25.2439  -13.8236   20.5726 C   0  0  0  0  0  0
  -24.1769  -13.0444   20.9232 C   0  0  0  0  0  0
  -24.6398  -11.6937   20.8760 C   0  0  0  0  0  0
  -23.9090  -10.4299   21.0410 C   0  0  0  0  0  0
  -24.3636   -9.4211   21.9187 C   0  0  0  0  0  0
  -23.6301   -8.2249   22.0756 C   0  0  0  0  0  0
  -22.4279   -8.0290   21.3553 C   0  0  0  0  0  0
  -21.9921   -9.0265   20.4653 C   0  0  0  0  0  0
  -22.7259  -10.2139   20.3060 C   0  0  0  0  0  0
  -21.6854   -6.0744   22.5283 C   0  0  0  0  0  0
  -21.4021   -6.5646   23.8217 C   0  0  0  0  0  0
  -21.3664   -5.6798   24.9179 C   0  0  0  0  0  0
  -21.6037   -4.3059   24.7228 C   0  0  0  0  0  0
  -21.8816   -3.8153   23.4347 C   0  0  0  0  0  0
  -21.9192   -4.6970   22.3404 C   0  0  0  0  0  0
  -22.7790  -13.5213   21.1887 C   0  0  0  0  0  0
  -22.1660   -4.2160   21.0980 F   0  0  0  0  0  0
  -21.5624   -3.4541   25.7738 F   0  0  0  0  0  0
  -29.9270  -13.7646   20.3728 N   0  0  0  0  0  0
  -26.2860  -12.9489   20.3232 N   0  0  0  0  0  0
  -25.9329  -11.6609   20.5728 N   0  0  0  0  0  0
  -22.0434  -12.8203   22.0442 N   0  0  0  0  0  0
  -25.4093  -15.1969   20.4180 N   0  0  0  0  0  0
  -31.7159  -15.0740   20.1327 O   0  0  0  0  0  0
  -21.6642   -6.8890   21.4246 O   0  0  0  0  0  0
  -22.3475  -14.5516   20.6725 O   0  0  0  0  0  0
  -24.6505  -31.8372   23.1817 C   0  0  0  0  0  0
  -25.9247  -32.4651   23.8238 C   0  0  1  0  0  0
  -27.2112  -27.0589   20.1674 C   0  0  0  0  0  0
  -25.5968  -33.8461   24.2149 N   0  0  0  0  0  0
  -23.4580  -30.4543   21.5294 C   0  0  2  0  0  0
  -24.9084  -28.8670   20.1127 C   0  0  0  0  0  0
  -22.7605  -29.4513   22.4835 C   0  0  0  0  0  0
  -18.0315  -28.1401   22.8469 C   0  0  0  0  0  0
  -24.1495  -36.7240   23.2644 C   0  0  0  0  0  0
  -26.0202  -30.6848   21.3950 C   0  0  0  0  0  0
  -26.0893  -29.2887   20.7379 C   0  0  0  0  0  0
  -27.2423  -28.4038   20.7426 C   0  0  0  0  0  0
  -26.0075  -26.7620   19.4931 C   0  0  0  0  0  0
  -24.8852  -27.6202   19.4713 C   0  0  0  0  0  0
  -23.6893  -29.7795   20.1511 C   0  0  0  0  0  0
  -25.4131  -36.3004   24.0307 C   0  0  1  0  0  0
  -20.5931  -28.3732   23.1217 C   0  0  2  0  0  0
  -20.6797  -26.9427   22.5403 C   0  0  0  0  0  0
  -19.5772  -26.6378   21.5214 C   0  0  0  0  0  0
  -18.1953  -26.7936   22.1622 C   0  0  0  0  0  0
  -19.1571  -28.8887   23.2833 C   0  0  0  0  0  0
  -18.9483  -30.1482   23.8862 C   0  0  0  0  0  0
  -17.6476  -30.6590   24.0560 C   0  0  0  0  0  0
  -25.9085  -34.9382   23.5041 C   0  0  0  0  0  0
  -16.5371  -29.9079   23.6339 C   0  0  0  0  0  0
  -16.7298  -28.6504   23.0353 C   0  0  0  0  0  0
  -26.4534  -31.6549   25.0717 C   0  0  0  0  0  0
  -25.3688  -31.3773   26.1394 C   0  0  0  0  0  0
  -27.0411  -30.2926   24.6378 C   0  0  0  0  0  0
  -27.6049  -32.4333   25.7510 C   0  0  0  0  0  0
  -27.5577  -37.1777   24.8461 C   0  0  0  0  0  0
  -21.4289  -29.3043   22.3576 N   0  0  0  0  0  0
  -26.4287  -37.3725   23.9402 N   0  0  0  0  0  0
  -24.7299  -31.0157   22.0893 N   0  0  0  0  0  0
  -23.4212  -28.8073   23.3021 O   0  0  0  0  0  0
  -28.2391  -26.0234   20.1992 O   0  0  0  0  0  0
  -26.5681  -34.8892   22.4626 O   0  0  0  0  0  0
  -23.5605  -32.1289   23.6990 O   0  0  0  0  0  0
  -29.9817  -20.4230   18.7095 C   0  0  0  0  0  0
  -29.2588  -19.0162   20.5298 C   0  0  0  0  0  0
  -30.3580  -17.9493   18.6310 C   0  0  0  0  0  0
  -29.3124  -20.4111   19.9469 C   0  0  0  0  0  0
  -30.4564  -19.2570   18.0594 C   0  0  0  0  0  0
  -29.8136  -17.7354   19.9391 C   0  0  0  0  0  0
  -30.5847  -20.0754   15.7226 C   0  0  0  0  0  0
  -28.8752  -23.1733   20.0388 C   0  0  0  0  0  0
  -30.7610  -16.7650   17.7482 C   0  0  0  0  0  0
  -31.4055  -20.0015   14.4432 C   0  0  0  0  0  0
  -27.9103  -24.4891   20.4792 C   0  0  0  0  0  0
  -28.7060  -21.7812   20.4224 N   0  0  0  0  0  0
  -31.0730  -19.4114   16.7840 N   0  0  0  0  0  0
  -29.7227  -16.2616   20.4895 N   0  0  0  0  0  0
  -29.5306  -20.7156   15.7320 O   0  0  0  0  0  0
  -29.8356  -23.4683   19.3235 O   0  0  0  0  0  0
  -31.4710  -12.7984   19.2129 H   0  0  0  0  0  0
  -30.4269  -11.7035   20.0689 H   0  0  0  0  0  0
  -29.8634  -11.7432   17.6117 H   0  0  0  0  0  0
  -29.6077  -13.4691   17.6857 H   0  0  0  0  0  0
  -27.9676  -11.2822   18.9960 H   0  0  0  0  0  0
  -27.4008  -12.4423   17.8211 H   0  0  0  0  0  0
  -27.5744  -14.2561   19.3929 H   0  0  0  0  0  0
  -28.7693  -12.3616   21.4702 H   0  0  0  0  0  0
  -28.3453  -14.0360   21.7433 H   0  0  0  0  0  0
  -25.2779   -9.5686   22.4763 H   0  0  0  0  0  0
  -24.0011   -7.4639   22.7468 H   0  0  0  0  0  0
  -21.0849   -8.8790   19.8954 H   0  0  0  0  0  0
  -22.3719  -10.9683   19.6170 H   0  0  0  0  0  0
  -21.2024   -7.6152   23.9727 H   0  0  0  0  0  0
  -21.1485   -6.0527   25.9084 H   0  0  0  0  0  0
  -22.0590   -2.7613   23.2843 H   0  0  0  0  0  0
  -22.4060  -11.9880   22.4852 H   0  0  0  0  0  0
  -21.1048  -13.1227   22.2629 H   0  0  0  0  0  0
  -24.6374  -15.8452   20.5286 H   0  0  0  0  0  0
  -26.2501  -15.6405   20.0711 H   0  0  0  0  0  0
  -26.7315  -32.5227   23.0963 H   0  0  0  0  0  0
  -25.0069  -33.9563   25.0267 H   0  0  0  0  0  0
  -22.7644  -31.2823   21.3692 H   0  0  0  0  0  0
  -23.3760  -35.9567   23.3285 H   0  0  0  0  0  0
  -24.3577  -36.8900   22.2062 H   0  0  0  0  0  0
  -23.7250  -37.6427   23.6705 H   0  0  0  0  0  0
  -26.1909  -31.4357   20.6225 H   0  0  0  0  0  0
  -26.8835  -30.7323   22.0466 H   0  0  0  0  0  0
  -28.1413  -28.7248   21.2492 H   0  0  0  0  0  0
  -25.9079  -25.8186   18.9779 H   0  0  0  0  0  0
  -23.9895  -27.2966   18.9588 H   0  0  0  0  0  0
  -23.8340  -30.5521   19.3948 H   0  0  0  0  0  0
  -22.8020  -29.2265   19.8369 H   0  0  0  0  0  0
  -25.1323  -36.1820   25.0798 H   0  0  0  0  0  0
  -21.0020  -28.3332   24.1341 H   0  0  0  0  0  0
  -20.5689  -26.2349   23.3632 H   0  0  0  0  0  0
  -21.6662  -26.7425   22.1206 H   0  0  0  0  0  0
  -19.6930  -25.6281   21.1268 H   0  0  0  0  0  0
  -19.6707  -27.3169   20.6728 H   0  0  0  0  0  0
  -17.4222  -26.6677   21.4029 H   0  0  0  0  0  0
  -18.0350  -26.0090   22.9028 H   0  0  0  0  0  0
  -19.7960  -30.7312   24.2210 H   0  0  0  0  0  0
  -17.5028  -31.6263   24.5170 H   0  0  0  0  0  0
  -15.5370  -30.2964   23.7683 H   0  0  0  0  0  0
  -15.8704  -28.0808   22.7081 H   0  0  0  0  0  0
  -24.5870  -30.7121   25.7709 H   0  0  0  0  0  0
  -24.8878  -32.2967   26.4739 H   0  0  0  0  0  0
  -25.7941  -30.8993   27.0227 H   0  0  0  0  0  0
  -26.3053  -29.6626   24.1368 H   0  0  0  0  0  0
  -27.3955  -29.7260   25.5000 H   0  0  0  0  0  0
  -27.8991  -30.4125   23.9760 H   0  0  0  0  0  0
  -27.2627  -33.3654   26.2015 H   0  0  0  0  0  0
  -28.3894  -32.6857   25.0364 H   0  0  0  0  0  0
  -28.0678  -31.8509   26.5486 H   0  0  0  0  0  0
  -28.2577  -38.0087   24.7506 H   0  0  0  0  0  0
  -28.1088  -36.2617   24.6285 H   0  0  0  0  0  0
  -27.2294  -37.1417   25.8862 H   0  0  0  0  0  0
  -20.9520  -29.8736   21.6726 H   0  0  0  0  0  0
  -26.0147  -38.2791   24.1397 H   0  0  0  0  0  0
  -30.0952  -21.3595   18.1880 H   0  0  0  0  0  0
  -28.7541  -18.9190   21.4803 H   0  0  0  0  0  0
  -30.6952  -16.9784   16.6827 H   0  0  0  0  0  0
  -30.0879  -15.9205   17.8815 H   0  0  0  0  0  0
  -31.7838  -16.4545   17.9585 H   0  0  0  0  0  0
  -31.6112  -18.9641   14.1787 H   0  0  0  0  0  0
  -32.3536  -20.5230   14.5718 H   0  0  0  0  0  0
  -30.8712  -20.4630   13.6123 H   0  0  0  0  0  0
  -27.7793  -24.4120   21.5586 H   0  0  0  0  0  0
  -26.9284  -24.2615   20.0701 H   0  0  0  0  0  0
  -27.9849  -21.6758   21.1237 H   0  0  0  0  0  0
  -31.8952  -18.8489   16.6111 H   0  0  0  0  0  0
  -28.8351  -16.0722   20.9309 H   0  0  0  0  0  0
  1 25  1  0  0  0
  1 30  2  0  0  0
  1 84  1  0  0  0
  2  3  1  0  0  0
  2 25  1  0  0  0
  2 87  1  0  0  0
  2 88  1  0  0  0
  3  4  1  0  0  0
  3 89  1  0  0  0
  3 90  1  0  0  0
  4  5  1  0  0  0
  4 91  1  0  0  0
  4 92  1  0  0  0
  5  6  1  0  0  0
  5 26  1  0  0  0
  5 93  1  0  0  0
  6 25  1  0  0  0
  6 94  1  0  0  0
  6 95  1  0  0  0
  7  8  2  0  0  0
  7 26  1  0  0  0
  7 29  1  0  0  0
  8  9  1  0  0  0
  8 22  1  0  0  0
  9 10  1  0  0  0
  9 27  2  0  0  0
 10 11  2  0  0  0
 10 15  1  0  0  0
 11 12  1  0  0  0
 11 96  1  0  0  0
 12 13  2  0  0  0
 12 97  1  0  0  0
 13 14  1  0  0  0
 13 31  1  0  0  0
 14 15  2  0  0  0
 14 98  1  0  0  0
 15 99  1  0  0  0
 16 17  2  0  0  0
 16 21  1  0  0  0
 16 31  1  0  0  0
 17 18  1  0  0  0
 17100  1  0  0  0
 18 19  2  0  0  0
 18101  1  0  0  0
 19 20  1  0  0  0
 19 24  1  0  0  0
 20 21  2  0  0  0
 20102  1  0  0  0
 21 23  1  0  0  0
 22 28  1  0  0  0
 22 32  2  0  0  0
 26 27  1  0  0  0
 28103  1  0  0  0
 28104  1  0  0  0
 29105  1  0  0  0
 29106  1  0  0  0
 33 34  1  0  0  0
 33 66  1  0  0  0
 33 70  2  0  0  0
 34 36  1  0  0  0
 34 59  1  0  0  0
 34107  1  0  0  0
 35 44  2  0  0  0
 35 45  1  0  0  0
 35 68  1  0  0  0
 36 56  1  0  0  0
 36108  1  0  0  0
 37 39  1  0  0  0
 37 47  1  0  0  0
 37 66  1  0  0  0
 37109  1  0  0  0
 38 43  2  0  0  0
 38 46  1  0  0  0
 38 47  1  0  0  0
 39 64  1  0  0  0
 39 67  2  0  0  0
 40 52  1  0  0  0
 40 53  2  0  0  0
 40 58  1  0  0  0
 41110  1  0  0  0
 41111  1  0  0  0
 41112  1  0  0  0
 41 48  1  0  0  0
 42 43  1  0  0  0
 42 66  1  0  0  0
 42113  1  0  0  0
 42114  1  0  0  0
 43 44  1  0  0  0
 44115  1  0  0  0
 45 46  2  0  0  0
 45116  1  0  0  0
 46117  1  0  0  0
 47118  1  0  0  0
 47119  1  0  0  0
 48 56  1  0  0  0
 48 65  1  0  0  0
 48120  1  0  0  0
 49 50  1  0  0  0
 49 53  1  0  0  0
 49 64  1  0  0  0
 49121  1  0  0  0
 50 51  1  0  0  0
 50122  1  0  0  0
 50123  1  0  0  0
 51 52  1  0  0  0
 51124  1  0  0  0
 51125  1  0  0  0
 52126  1  0  0  0
 52127  1  0  0  0
 53 54  1  0  0  0
 54 55  2  0  0  0
 54128  1  0  0  0
 55 57  1  0  0  0
 55129  1  0  0  0
 56 69  2  0  0  0
 57 58  2  0  0  0
 57130  1  0  0  0
 58131  1  0  0  0
 59 60  1  0  0  0
 59 61  1  0  0  0
 59 62  1  0  0  0
 60132  1  0  0  0
 60133  1  0  0  0
 60134  1  0  0  0
 61135  1  0  0  0
 61136  1  0  0  0
 61137  1  0  0  0
 62138  1  0  0  0
 62139  1  0  0  0
 62140  1  0  0  0
 63 65  1  0  0  0
 63141  1  0  0  0
 63142  1  0  0  0
 63143  1  0  0  0
 64144  1  0  0  0
 65145  1  0  0  0
 68 81  1  0  0  0
 71 74  2  0  0  0
 71 75  1  0  0  0
 71146  1  0  0  0
 72 74  1  0  0  0
 72 76  2  0  0  0
 72147  1  0  0  0
 73 75  2  0  0  0
 73 76  1  0  0  0
 73 79  1  0  0  0
 74 82  1  0  0  0
 75 83  1  0  0  0
 76 84  1  0  0  0
 77 80  1  0  0  0
 77 83  1  0  0  0
 77 85  2  0  0  0
 78 81  1  0  0  0
 78 82  1  0  0  0
 78 86  2  0  0  0
 79148  1  0  0  0
 79149  1  0  0  0
 79150  1  0  0  0
 80151  1  0  0  0
 80152  1  0  0  0
 80153  1  0  0  0
 81154  1  0  0  0
 81155  1  0  0  0
 82156  1  0  0  0
 83157  1  0  0  0
 84158  1  0  0  0
M  ISO  4   1 100  68 101  81 101  84 100
M  END
> <chiral flag>
0

> <version>
0

> <s_m_source_file>
/data/baiqing/PycharmProjects/Reinvent-master-3.2/result/LINK_invent/BTK/process_docking_weight1_custom_sum_contain_oxygen_bond_distance_aromatic_linkinvent_7_9_3/rearranged_h_0012.sdf

> <i_m_source_file_index>
10

> <r_mmod_Potential_Energy-OPLS-2005>
652.033813476562

> <r_mmod_Stretch_Energy-OPLS-2005>
358.990661621094

> <r_mmod_Bend_Energy-OPLS-2005>
281.623199462891

> <r_mmod_Torsional_Energy-OPLS-2005>
281.055847167969

> <r_mmod_Improper_Torsional_Energy-OPLS-2005>
4.87295579910278

> <r_mmod_Van_der_Waal_Energy-OPLS-2005>
146.010330200195

> <r_mmod_Electrostatic_Energy-OPLS-2005>
-410.760223388672

> <r_mmod_Solvation_Energy-OPLS-2005>
-275.441009521484

> <b_mmod_Minimization_Converged-OPLS-2005>
0

> <r_mmod_RMS_Derivative-OPLS-2005>
1.24929440021515

$$$$
10
                    3D
 Structure written by MMmdl.
160168  0  0  1  0            999 V2000
  -30.6512  -14.7036   20.4113 C   0  0  0  0  0  0
  -30.4468  -12.4272   19.4299 C   0  0  0  0  0  0
  -29.4994  -12.4245   18.2106 C   0  0  0  0  0  0
  -28.0290  -12.2764   18.6462 C   0  0  0  0  0  0
  -27.6387  -13.2135   19.8217 C   0  0  2  0  0  0
  -28.6966  -13.1836   20.9438 C   0  0  0  0  0  0
  -25.2555  -13.8188   20.5652 C   0  0  0  0  0  0
  -24.1833  -13.0457   20.9183 C   0  0  0  0  0  0
  -24.6385  -11.6934   20.8720 C   0  0  0  0  0  0
  -23.9057  -10.4324   21.0399 C   0  0  0  0  0  0
  -24.3620   -9.4249   21.9179 C   0  0  0  0  0  0
  -23.6311   -8.2275   22.0753 C   0  0  0  0  0  0
  -22.4295   -8.0290   21.3538 C   0  0  0  0  0  0
  -21.9916   -9.0270   20.4649 C   0  0  0  0  0  0
  -22.7222  -10.2167   20.3060 C   0  0  0  0  0  0
  -21.6877   -6.0723   22.5276 C   0  0  0  0  0  0
  -21.4006   -6.5631   23.8208 C   0  0  0  0  0  0
  -21.3654   -5.6777   24.9170 C   0  0  0  0  0  0
  -21.6063   -4.3043   24.7215 C   0  0  0  0  0  0
  -21.8823   -3.8127   23.4335 C   0  0  0  0  0  0
  -21.9198   -4.6948   22.3392 C   0  0  0  0  0  0
  -22.7848  -13.5278   21.1845 C   0  0  0  0  0  0
  -22.1673   -4.2124   21.0967 F   0  0  0  0  0  0
  -21.5646   -3.4520   25.7732 F   0  0  0  0  0  0
  -29.9927  -13.5023   20.3312 N   0  0  0  0  0  0
  -26.2946  -12.9354   20.3186 N   0  0  0  0  0  0
  -25.9302  -11.6531   20.5704 N   0  0  0  0  0  0
  -22.0452  -12.8278   22.0373 N   0  0  0  0  0  0
  -25.4277  -15.1909   20.4080 N   0  0  0  0  0  0
  -31.8725  -14.7447   20.2844 O   0  0  0  0  0  0
  -21.6676   -6.8874   21.4239 O   0  0  0  0  0  0
  -22.3542  -14.5573   20.6681 O   0  0  0  0  0  0
  -24.6266  -31.8602   23.1993 C   0  0  0  0  0  0
  -25.9120  -32.4771   23.8325 C   0  0  1  0  0  0
  -27.2182  -27.3095   20.1430 C   0  0  0  0  0  0
  -25.5940  -33.8577   24.2263 N   0  0  0  0  0  0
  -23.4199  -30.4805   21.5432 C   0  0  2  0  0  0
  -24.8662  -28.9248   20.1161 C   0  0  0  0  0  0
  -22.7461  -29.4639   22.4942 C   0  0  0  0  0  0
  -18.0284  -28.1391   22.8483 C   0  0  0  0  0  0
  -24.1490  -36.7281   23.2634 C   0  0  0  0  0  0
  -25.9589  -30.7890   21.3668 C   0  0  0  0  0  0
  -26.0344  -29.4115   20.7187 C   0  0  0  0  0  0
  -27.2183  -28.6175   20.7183 C   0  0  0  0  0  0
  -26.0341  -26.8659   19.5254 C   0  0  0  0  0  0
  -24.8672  -27.6582   19.5082 C   0  0  0  0  0  0
  -23.6343  -29.8071   20.1607 C   0  0  0  0  0  0
  -25.4115  -36.3083   24.0326 C   0  0  1  0  0  0
  -20.5875  -28.3707   23.1287 C   0  0  2  0  0  0
  -20.6788  -26.9434   22.5414 C   0  0  0  0  0  0
  -19.5779  -26.6384   21.5211 C   0  0  0  0  0  0
  -18.1950  -26.7937   22.1605 C   0  0  0  0  0  0
  -19.1529  -28.8857   23.2878 C   0  0  0  0  0  0
  -18.9459  -30.1449   23.8917 C   0  0  0  0  0  0
  -17.6461  -30.6596   24.0557 C   0  0  0  0  0  0
  -25.9059  -34.9454   23.5082 C   0  0  0  0  0  0
  -16.5350  -29.9098   23.6325 C   0  0  0  0  0  0
  -16.7270  -28.6503   23.0365 C   0  0  0  0  0  0
  -26.4492  -31.6580   25.0702 C   0  0  0  0  0  0
  -25.3701  -31.3716   26.1405 C   0  0  0  0  0  0
  -27.0321  -30.3010   24.6130 C   0  0  0  0  0  0
  -27.6064  -32.4294   25.7481 C   0  0  0  0  0  0
  -27.5578  -37.1802   24.8458 C   0  0  0  0  0  0
  -21.4174  -29.3054   22.3671 N   0  0  0  0  0  0
  -26.4286  -37.3787   23.9407 N   0  0  0  0  0  0
  -24.6877  -31.0599   22.0937 N   0  0  0  0  0  0
  -23.4181  -28.8194   23.3044 O   0  0  0  0  0  0
  -28.3259  -26.4573   20.1457 O   0  0  0  0  0  0
  -26.5626  -34.8937   22.4658 O   0  0  0  0  0  0
  -23.5439  -32.1399   23.7313 O   0  0  0  0  0  0
  -30.4906  -19.1882   21.0805 C   0  0  0  0  0  0
  -28.0393  -20.4903   20.6932 C   0  0  0  0  0  0
  -29.3419  -18.3659   20.9431 C   0  0  0  0  0  0
  -29.1765  -21.3090   20.9163 C   0  0  0  0  0  0
  -30.4067  -20.6129   21.0829 C   0  0  0  0  0  0
  -28.1172  -19.0616   20.7186 C   0  0  0  0  0  0
  -29.7272  -16.2283   18.8477 C   0  0  0  0  0  0
  -29.3000  -23.8751   18.9210 C   0  0  0  0  0  0
  -29.3903  -16.7963   21.1805 C   0  0  0  0  0  0
  -28.2214  -25.1822   20.8934 C   0  0  0  0  0  0
  -28.4763  -23.7477   20.2069 C   0  0  2  0  0  0
  -30.9387  -16.2195   17.8662 C   0  0  0  0  0  0
  -29.1424  -22.7397   21.0900 N   0  0  0  0  0  0
  -29.9017  -15.8359   20.1362 N   0  0  0  0  0  0
  -28.6383  -16.6994   18.4774 O   0  0  0  0  0  0
  -31.5372  -21.3329   21.2856 F   0  0  0  0  0  0
  -26.9764  -18.3468   20.5712 F   0  0  0  0  0  0
  -30.6281  -16.8923   16.7525 F   0  0  0  0  0  0
  -31.2753  -14.9785   17.5135 F   0  0  0  0  0  0
  -31.9857  -16.8315   18.4271 F   0  0  0  0  0  0
  -31.4778  -12.5744   19.0957 H   0  0  0  0  0  0
  -30.4241  -11.4649   19.9429 H   0  0  0  0  0  0
  -29.7726  -11.6044   17.5442 H   0  0  0  0  0  0
  -29.6003  -13.3296   17.6182 H   0  0  0  0  0  0
  -27.8895  -11.2375   18.9410 H   0  0  0  0  0  0
  -27.3642  -12.4351   17.7962 H   0  0  0  0  0  0
  -27.6200  -14.2179   19.4039 H   0  0  0  0  0  0
  -28.7323  -12.2049   21.4272 H   0  0  0  0  0  0
  -28.4464  -13.9100   21.7184 H   0  0  0  0  0  0
  -25.2768   -9.5741   22.4735 H   0  0  0  0  0  0
  -24.0018   -7.4691   22.7494 H   0  0  0  0  0  0
  -21.0822   -8.8786   19.8991 H   0  0  0  0  0  0
  -22.3657  -10.9696   19.6169 H   0  0  0  0  0  0
  -21.1999   -7.6139   23.9689 H   0  0  0  0  0  0
  -21.1471   -6.0513   25.9070 H   0  0  0  0  0  0
  -22.0610   -2.7582   23.2847 H   0  0  0  0  0  0
  -22.4029  -11.9951   22.4798 H   0  0  0  0  0  0
  -21.1057  -13.1321   22.2516 H   0  0  0  0  0  0
  -24.6561  -15.8351   20.5375 H   0  0  0  0  0  0
  -26.2747  -15.6484   20.0935 H   0  0  0  0  0  0
  -26.7196  -32.5462   23.1084 H   0  0  0  0  0  0
  -25.0102  -33.9710   25.0411 H   0  0  0  0  0  0
  -22.7168  -31.3020   21.3951 H   0  0  0  0  0  0
  -23.3765  -35.9598   23.3284 H   0  0  0  0  0  0
  -24.3573  -36.8913   22.2050 H   0  0  0  0  0  0
  -23.7221  -37.6474   23.6659 H   0  0  0  0  0  0
  -26.0810  -31.5434   20.5894 H   0  0  0  0  0  0
  -26.8460  -30.8494   21.9873 H   0  0  0  0  0  0
  -28.1173  -28.9866   21.1922 H   0  0  0  0  0  0
  -26.0064  -25.8872   19.0670 H   0  0  0  0  0  0
  -23.9722  -27.2753   19.0371 H   0  0  0  0  0  0
  -23.7538  -30.5792   19.4004 H   0  0  0  0  0  0
  -22.7541  -29.2332   19.8635 H   0  0  0  0  0  0
  -25.1295  -36.1928   25.0821 H   0  0  0  0  0  0
  -20.9958  -28.3296   24.1410 H   0  0  0  0  0  0
  -20.5708  -26.2322   23.3605 H   0  0  0  0  0  0
  -21.6664  -26.7501   22.1201 H   0  0  0  0  0  0
  -19.6961  -25.6286   21.1269 H   0  0  0  0  0  0
  -19.6728  -27.3170   20.6726 H   0  0  0  0  0  0
  -17.4223  -26.6668   21.4005 H   0  0  0  0  0  0
  -18.0360  -26.0072   22.9001 H   0  0  0  0  0  0
  -19.7928  -30.7245   24.2325 H   0  0  0  0  0  0
  -17.5023  -31.6288   24.5127 H   0  0  0  0  0  0
  -15.5359  -30.3019   23.7634 H   0  0  0  0  0  0
  -15.8657  -28.0817   22.7116 H   0  0  0  0  0  0
  -24.5909  -30.7031   25.7724 H   0  0  0  0  0  0
  -24.8831  -32.2868   26.4792 H   0  0  0  0  0  0
  -25.8000  -30.8927   27.0206 H   0  0  0  0  0  0
  -26.2892  -29.6784   24.1129 H   0  0  0  0  0  0
  -27.4007  -29.7250   25.4627 H   0  0  0  0  0  0
  -27.8768  -30.4306   23.9355 H   0  0  0  0  0  0
  -27.2706  -33.3608   26.2053 H   0  0  0  0  0  0
  -28.3896  -32.6816   25.0319 H   0  0  0  0  0  0
  -28.0705  -31.8396   26.5396 H   0  0  0  0  0  0
  -28.2595  -38.0108   24.7536 H   0  0  0  0  0  0
  -28.1079  -36.2639   24.6250 H   0  0  0  0  0  0
  -27.2294  -37.1422   25.8863 H   0  0  0  0  0  0
  -20.9361  -29.8724   21.6818 H   0  0  0  0  0  0
  -26.0160  -38.2857   24.1431 H   0  0  0  0  0  0
  -31.4537  -18.7293   21.2492 H   0  0  0  0  0  0
  -27.0709  -20.9491   20.5678 H   0  0  0  0  0  0
  -28.7848  -24.4855   18.1803 H   0  0  0  0  0  0
  -29.4785  -22.8973   18.4729 H   0  0  0  0  0  0
  -30.2709  -24.3333   19.1166 H   0  0  0  0  0  0
  -28.3822  -16.4733   21.4405 H   0  0  0  0  0  0
  -29.9712  -16.6405   22.0908 H   0  0  0  0  0  0
  -28.9451  -25.2971   21.6997 H   0  0  0  0  0  0
  -27.2606  -25.1385   21.4103 H   0  0  0  0  0  0
  -27.5024  -23.3381   19.9349 H   0  0  0  0  0  0
  -30.0223  -23.0820   21.4709 H   0  0  0  0  0  0
  1 25  1  0  0  0
  1 30  2  0  0  0
  1 84  1  0  0  0
  2  3  1  0  0  0
  2 25  1  0  0  0
  2 91  1  0  0  0
  2 92  1  0  0  0
  3  4  1  0  0  0
  3 93  1  0  0  0
  3 94  1  0  0  0
  4  5  1  0  0  0
  4 95  1  0  0  0
  4 96  1  0  0  0
  5  6  1  0  0  0
  5 26  1  0  0  0
  5 97  1  0  0  0
  6 25  1  0  0  0
  6 98  1  0  0  0
  6 99  1  0  0  0
  7  8  2  0  0  0
  7 26  1  0  0  0
  7 29  1  0  0  0
  8  9  1  0  0  0
  8 22  1  0  0  0
  9 10  1  0  0  0
  9 27  2  0  0  0
 10 11  2  0  0  0
 10 15  1  0  0  0
 11 12  1  0  0  0
 11100  1  0  0  0
 12 13  2  0  0  0
 12101  1  0  0  0
 13 14  1  0  0  0
 13 31  1  0  0  0
 14 15  2  0  0  0
 14102  1  0  0  0
 15103  1  0  0  0
 16 17  2  0  0  0
 16 21  1  0  0  0
 16 31  1  0  0  0
 17 18  1  0  0  0
 17104  1  0  0  0
 18 19  2  0  0  0
 18105  1  0  0  0
 19 20  1  0  0  0
 19 24  1  0  0  0
 20 21  2  0  0  0
 20106  1  0  0  0
 21 23  1  0  0  0
 22 28  1  0  0  0
 22 32  2  0  0  0
 26 27  1  0  0  0
 28107  1  0  0  0
 28108  1  0  0  0
 29109  1  0  0  0
 29110  1  0  0  0
 33 34  1  0  0  0
 33 66  1  0  0  0
 33 70  2  0  0  0
 34 36  1  0  0  0
 34 59  1  0  0  0
 34111  1  0  0  0
 35 44  2  0  0  0
 35 45  1  0  0  0
 35 68  1  0  0  0
 36 56  1  0  0  0
 36112  1  0  0  0
 37 39  1  0  0  0
 37 47  1  0  0  0
 37 66  1  0  0  0
 37113  1  0  0  0
 38 43  2  0  0  0
 38 46  1  0  0  0
 38 47  1  0  0  0
 39 64  1  0  0  0
 39 67  2  0  0  0
 40 52  1  0  0  0
 40 53  2  0  0  0
 40 58  1  0  0  0
 41114  1  0  0  0
 41115  1  0  0  0
 41116  1  0  0  0
 41 48  1  0  0  0
 42 43  1  0  0  0
 42 66  1  0  0  0
 42117  1  0  0  0
 42118  1  0  0  0
 43 44  1  0  0  0
 44119  1  0  0  0
 45 46  2  0  0  0
 45120  1  0  0  0
 46121  1  0  0  0
 47122  1  0  0  0
 47123  1  0  0  0
 48 56  1  0  0  0
 48 65  1  0  0  0
 48124  1  0  0  0
 49 50  1  0  0  0
 49 53  1  0  0  0
 49 64  1  0  0  0
 49125  1  0  0  0
 50 51  1  0  0  0
 50126  1  0  0  0
 50127  1  0  0  0
 51 52  1  0  0  0
 51128  1  0  0  0
 51129  1  0  0  0
 52130  1  0  0  0
 52131  1  0  0  0
 53 54  1  0  0  0
 54 55  2  0  0  0
 54132  1  0  0  0
 55 57  1  0  0  0
 55133  1  0  0  0
 56 69  2  0  0  0
 57 58  2  0  0  0
 57134  1  0  0  0
 58135  1  0  0  0
 59 60  1  0  0  0
 59 61  1  0  0  0
 59 62  1  0  0  0
 60136  1  0  0  0
 60137  1  0  0  0
 60138  1  0  0  0
 61139  1  0  0  0
 61140  1  0  0  0
 61141  1  0  0  0
 62142  1  0  0  0
 62143  1  0  0  0
 62144  1  0  0  0
 63 65  1  0  0  0
 63145  1  0  0  0
 63146  1  0  0  0
 63147  1  0  0  0
 64148  1  0  0  0
 65149  1  0  0  0
 68 80  1  0  0  0
 71 73  2  0  0  0
 71 75  1  0  0  0
 71150  1  0  0  0
 72 74  1  0  0  0
 72 76  2  0  0  0
 72151  1  0  0  0
 73 76  1  0  0  0
 73 79  1  0  0  0
 74 75  2  0  0  0
 74 83  1  0  0  0
 75 86  1  0  0  0
 76 87  1  0  0  0
 77 82  1  0  0  0
 77 84  1  0  0  0
 77 85  2  0  0  0
 78152  1  0  0  0
 78153  1  0  0  0
 78154  1  0  0  0
 78 81  1  0  0  0
 79 84  1  0  0  0
 79155  1  0  0  0
 79156  1  0  0  0
 80 81  1  0  0  0
 80157  1  0  0  0
 80158  1  0  0  0
 81 83  1  0  0  0
 81159  1  0  0  0
 82 88  1  0  0  0
 82 89  1  0  0  0
 82 90  1  0  0  0
 83160  1  0  0  0
M  ISO  4   1 100  68 101  80 101  84 100
M  END
> <chiral flag>
0

> <version>
0

> <s_m_source_file>
/data/baiqing/PycharmProjects/Reinvent-master-3.2/result/LINK_invent/BTK/process_docking_weight1_custom_sum_contain_oxygen_bond_distance_aromatic_linkinvent_7_9_3/rearranged_h_0012.sdf

> <i_m_source_file_index>
11

> <r_mmod_Potential_Energy-OPLS-2005>
329.404998779297

> <r_mmod_Stretch_Energy-OPLS-2005>
88.1709671020508

> <r_mmod_Bend_Energy-OPLS-2005>
152.102600097656

> <r_mmod_Torsional_Energy-OPLS-2005>
376.595947265625

> <r_mmod_Improper_Torsional_Energy-OPLS-2005>
20.0619621276855

> <r_mmod_Van_der_Waal_Energy-OPLS-2005>
135.392837524414

> <r_mmod_Electrostatic_Energy-OPLS-2005>
-341.560516357422

> <r_mmod_Solvation_Energy-OPLS-2005>
-176.930313110352

> <b_mmod_Minimization_Converged-OPLS-2005>
0

> <r_mmod_RMS_Derivative-OPLS-2005>
3.70024466514587

$$$$
11
                    3D
 Structure written by MMmdl.
154162  0  0  1  0            999 V2000
  -30.6476  -14.7129   20.4612 C   0  0  0  0  0  0
  -30.4208  -12.4329   19.4803 C   0  0  0  0  0  0
  -29.5077  -12.5001   18.2382 C   0  0  0  0  0  0
  -28.0335  -12.3280   18.6504 C   0  0  0  0  0  0
  -27.6401  -13.2330   19.8499 C   0  0  2  0  0  0
  -28.6817  -13.1772   20.9884 C   0  0  0  0  0  0
  -25.2506  -13.8212   20.5674 C   0  0  0  0  0  0
  -24.1792  -13.0456   20.9174 C   0  0  0  0  0  0
  -24.6384  -11.6926   20.8744 C   0  0  0  0  0  0
  -23.9066  -10.4303   21.0413 C   0  0  0  0  0  0
  -24.3619   -9.4222   21.9192 C   0  0  0  0  0  0
  -23.6287   -8.2268   22.0769 C   0  0  0  0  0  0
  -22.4277   -8.0311   21.3553 C   0  0  0  0  0  0
  -21.9914   -9.0275   20.4654 C   0  0  0  0  0  0
  -22.7248  -10.2148   20.3056 C   0  0  0  0  0  0
  -21.6862   -6.0754   22.5285 C   0  0  0  0  0  0
  -21.4016   -6.5648   23.8217 C   0  0  0  0  0  0
  -21.3644   -5.6801   24.9175 C   0  0  0  0  0  0
  -21.6045   -4.3066   24.7230 C   0  0  0  0  0  0
  -21.8817   -3.8151   23.4345 C   0  0  0  0  0  0
  -21.9196   -4.6978   22.3403 C   0  0  0  0  0  0
  -22.7821  -13.5248   21.1846 C   0  0  0  0  0  0
  -22.1662   -4.2163   21.0988 F   0  0  0  0  0  0
  -21.5622   -3.4550   25.7729 F   0  0  0  0  0  0
  -29.9884  -13.5056   20.4068 N   0  0  0  0  0  0
  -26.2922  -12.9410   20.3283 N   0  0  0  0  0  0
  -25.9322  -11.6547   20.5763 N   0  0  0  0  0  0
  -22.0465  -12.8239   22.0395 N   0  0  0  0  0  0
  -25.4187  -15.1933   20.4090 N   0  0  0  0  0  0
  -31.8384  -14.7460   20.1493 O   0  0  0  0  0  0
  -21.6651   -6.8901   21.4245 O   0  0  0  0  0  0
  -22.3527  -14.5572   20.6720 O   0  0  0  0  0  0
  -24.6279  -31.8501   23.1982 C   0  0  0  0  0  0
  -25.9101  -32.4737   23.8318 C   0  0  1  0  0  0
  -27.2297  -27.2707   20.1287 C   0  0  0  0  0  0
  -25.5901  -33.8540   24.2231 N   0  0  0  0  0  0
  -23.4289  -30.4717   21.5342 C   0  0  2  0  0  0
  -24.8808  -28.9194   20.1077 C   0  0  0  0  0  0
  -22.7487  -29.4571   22.4872 C   0  0  0  0  0  0
  -18.0285  -28.1411   22.8432 C   0  0  0  0  0  0
  -24.1484  -36.7225   23.2653 C   0  0  0  0  0  0
  -25.9732  -30.7673   21.3805 C   0  0  0  0  0  0
  -26.0476  -29.3921   20.7175 C   0  0  0  0  0  0
  -27.2225  -28.5775   20.7214 C   0  0  0  0  0  0
  -26.0411  -26.8663   19.4826 C   0  0  0  0  0  0
  -24.8786  -27.6631   19.4827 C   0  0  0  0  0  0
  -23.6496  -29.8005   20.1517 C   0  0  0  0  0  0
  -25.4104  -36.3023   24.0332 C   0  0  1  0  0  0
  -20.5896  -28.3669   23.1239 C   0  0  2  0  0  0
  -20.6778  -26.9376   22.5379 C   0  0  0  0  0  0
  -19.5756  -26.6361   21.5188 C   0  0  0  0  0  0
  -18.1943  -26.7953   22.1590 C   0  0  0  0  0  0
  -19.1550  -28.8862   23.2845 C   0  0  0  0  0  0
  -18.9490  -30.1477   23.8843 C   0  0  0  0  0  0
  -17.6488  -30.6603   24.0556 C   0  0  0  0  0  0
  -25.9037  -34.9410   23.5086 C   0  0  0  0  0  0
  -16.5367  -29.9089   23.6372 C   0  0  0  0  0  0
  -16.7266  -28.6532   23.0330 C   0  0  0  0  0  0
  -26.4482  -31.6608   25.0730 C   0  0  0  0  0  0
  -25.3704  -31.3762   26.1444 C   0  0  0  0  0  0
  -27.0400  -30.3052   24.6252 C   0  0  0  0  0  0
  -27.6038  -32.4364   25.7467 C   0  0  0  0  0  0
  -27.5575  -37.1729   24.8451 C   0  0  0  0  0  0
  -21.4206  -29.3037   22.3630 N   0  0  0  0  0  0
  -26.4252  -37.3740   23.9454 N   0  0  0  0  0  0
  -24.6964  -31.0476   22.0957 N   0  0  0  0  0  0
  -23.4211  -28.8117   23.2967 O   0  0  0  0  0  0
  -28.3315  -26.3886   20.2269 O   0  0  0  0  0  0
  -26.5611  -34.8905   22.4659 O   0  0  0  0  0  0
  -23.5434  -32.1287   23.7273 O   0  0  0  0  0  0
  -30.9492  -20.0936   20.0190 C   0  0  0  0  0  0
  -31.5389  -17.7084   20.0161 C   0  0  0  0  0  0
  -31.8822  -19.0594   19.7957 C   0  0  0  0  0  0
  -29.6555  -19.8168   20.5051 C   0  0  0  0  0  0
  -30.2569  -17.3156   20.4764 C   0  0  0  0  0  0
  -29.3282  -18.4079   20.7286 C   0  0  0  0  0  0
  -28.7239  -23.6832   20.6821 C   0  0  0  0  0  0
  -33.2892  -19.3870   19.3289 C   0  0  0  0  0  0
  -28.7264  -21.0549   20.8841 C   0  0  0  0  0  0
  -28.2346  -24.9462   19.8047 C   0  0  0  0  0  0
  -29.9155  -15.8741   20.6758 N   0  0  0  0  0  0
  -28.7585  -22.4010   20.1549 N   0  0  0  0  0  0
  -29.0305  -23.8569   21.8672 O   0  0  0  0  0  0
  -27.7675  -17.9920   21.3475 Cl  0  0  0  0  0  0
  -31.4666  -12.5254   19.1827 H   0  0  0  0  0  0
  -30.3391  -11.4591   19.9663 H   0  0  0  0  0  0
  -29.7877  -11.7261   17.5225 H   0  0  0  0  0  0
  -29.6396  -13.4575   17.7311 H   0  0  0  0  0  0
  -27.8859  -11.2781   18.9074 H   0  0  0  0  0  0
  -27.3778  -12.5239   17.8005 H   0  0  0  0  0  0
  -27.6346  -14.2539   19.4654 H   0  0  0  0  0  0
  -28.7060  -12.1895   21.4521 H   0  0  0  0  0  0
  -28.4195  -13.8793   21.7804 H   0  0  0  0  0  0
  -25.2776   -9.5725   22.4750 H   0  0  0  0  0  0
  -24.0011   -7.4681   22.7495 H   0  0  0  0  0  0
  -21.0859   -8.8792   19.8952 H   0  0  0  0  0  0
  -22.3722  -10.9685   19.6155 H   0  0  0  0  0  0
  -21.2002   -7.6151   23.9727 H   0  0  0  0  0  0
  -21.1456   -6.0524   25.9080 H   0  0  0  0  0  0
  -22.0602   -2.7613   23.2844 H   0  0  0  0  0  0
  -22.4078  -11.9879   22.4738 H   0  0  0  0  0  0
  -21.1093  -13.1273   22.2619 H   0  0  0  0  0  0
  -24.6471  -15.8414   20.5227 H   0  0  0  0  0  0
  -26.2721  -15.6453   20.1069 H   0  0  0  0  0  0
  -26.7138  -32.5358   23.1026 H   0  0  0  0  0  0
  -25.0089  -33.9654   25.0412 H   0  0  0  0  0  0
  -22.7276  -31.2949   21.3762 H   0  0  0  0  0  0
  -23.3785  -35.9523   23.3254 H   0  0  0  0  0  0
  -24.3583  -36.8899   22.2079 H   0  0  0  0  0  0
  -23.7182  -37.6386   23.6713 H   0  0  0  0  0  0
  -26.1218  -31.5339   20.6202 H   0  0  0  0  0  0
  -26.8467  -30.8006   22.0204 H   0  0  0  0  0  0
  -28.1132  -28.9270   21.2213 H   0  0  0  0  0  0
  -25.9813  -25.9045   18.9958 H   0  0  0  0  0  0
  -23.9813  -27.2875   19.0128 H   0  0  0  0  0  0
  -23.7783  -30.5689   19.3891 H   0  0  0  0  0  0
  -22.7735  -29.2238   19.8483 H   0  0  0  0  0  0
  -25.1286  -36.1830   25.0816 H   0  0  0  0  0  0
  -20.9962  -28.3229   24.1363 H   0  0  0  0  0  0
  -20.5662  -26.2266   23.3578 H   0  0  0  0  0  0
  -21.6642  -26.7385   22.1176 H   0  0  0  0  0  0
  -19.6935  -25.6269   21.1226 H   0  0  0  0  0  0
  -19.6764  -27.3165   20.6738 H   0  0  0  0  0  0
  -17.4204  -26.6661   21.4002 H   0  0  0  0  0  0
  -18.0340  -26.0116   22.9007 H   0  0  0  0  0  0
  -19.7989  -30.7305   24.2151 H   0  0  0  0  0  0
  -17.5067  -31.6285   24.5157 H   0  0  0  0  0  0
  -15.5380  -30.2988   23.7791 H   0  0  0  0  0  0
  -15.8649  -28.0884   22.7035 H   0  0  0  0  0  0
  -24.5841  -30.7163   25.7728 H   0  0  0  0  0  0
  -24.8950  -32.2953   26.4884 H   0  0  0  0  0  0
  -25.7975  -30.8870   27.0214 H   0  0  0  0  0  0
  -26.3041  -29.6721   24.1276 H   0  0  0  0  0  0
  -27.4133  -29.7353   25.4781 H   0  0  0  0  0  0
  -27.8866  -30.4381   23.9516 H   0  0  0  0  0  0
  -27.2673  -33.3693   26.2002 H   0  0  0  0  0  0
  -28.3855  -32.6874   25.0282 H   0  0  0  0  0  0
  -28.0724  -31.8533   26.5398 H   0  0  0  0  0  0
  -28.2481  -38.0139   24.7620 H   0  0  0  0  0  0
  -28.1177  -36.2652   24.6106 H   0  0  0  0  0  0
  -27.2304  -37.1157   25.8856 H   0  0  0  0  0  0
  -20.9386  -29.8738   21.6815 H   0  0  0  0  0  0
  -26.0101  -38.2780   24.1603 H   0  0  0  0  0  0
  -31.2422  -21.1201   19.8552 H   0  0  0  0  0  0
  -32.3159  -16.9887   19.8150 H   0  0  0  0  0  0
  -33.5407  -20.4329   19.5116 H   0  0  0  0  0  0
  -33.3998  -19.1842   18.2628 H   0  0  0  0  0  0
  -34.0220  -18.7767   19.8602 H   0  0  0  0  0  0
  -28.9169  -21.2565   21.9381 H   0  0  0  0  0  0
  -27.6879  -20.7237   20.8505 H   0  0  0  0  0  0
  -27.4498  -24.8834   20.5602 H   0  0  0  0  0  0
  -29.3178  -25.0775   19.7944 H   0  0  0  0  0  0
  -28.9557  -15.7105   20.9384 H   0  0  0  0  0  0
  -28.5536  -22.3450   19.1661 H   0  0  0  0  0  0
  1 25  1  0  0  0
  1 30  2  0  0  0
  1 81  1  0  0  0
  2  3  1  0  0  0
  2 25  1  0  0  0
  2 85  1  0  0  0
  2 86  1  0  0  0
  3  4  1  0  0  0
  3 87  1  0  0  0
  3 88  1  0  0  0
  4  5  1  0  0  0
  4 89  1  0  0  0
  4 90  1  0  0  0
  5  6  1  0  0  0
  5 26  1  0  0  0
  5 91  1  0  0  0
  6 25  1  0  0  0
  6 92  1  0  0  0
  6 93  1  0  0  0
  7  8  2  0  0  0
  7 26  1  0  0  0
  7 29  1  0  0  0
  8  9  1  0  0  0
  8 22  1  0  0  0
  9 10  1  0  0  0
  9 27  2  0  0  0
 10 11  2  0  0  0
 10 15  1  0  0  0
 11 12  1  0  0  0
 11 94  1  0  0  0
 12 13  2  0  0  0
 12 95  1  0  0  0
 13 14  1  0  0  0
 13 31  1  0  0  0
 14 15  2  0  0  0
 14 96  1  0  0  0
 15 97  1  0  0  0
 16 17  2  0  0  0
 16 21  1  0  0  0
 16 31  1  0  0  0
 17 18  1  0  0  0
 17 98  1  0  0  0
 18 19  2  0  0  0
 18 99  1  0  0  0
 19 20  1  0  0  0
 19 24  1  0  0  0
 20 21  2  0  0  0
 20100  1  0  0  0
 21 23  1  0  0  0
 22 28  1  0  0  0
 22 32  2  0  0  0
 26 27  1  0  0  0
 28101  1  0  0  0
 28102  1  0  0  0
 29103  1  0  0  0
 29104  1  0  0  0
 33 34  1  0  0  0
 33 66  1  0  0  0
 33 70  2  0  0  0
 34 36  1  0  0  0
 34 59  1  0  0  0
 34105  1  0  0  0
 35 44  2  0  0  0
 35 45  1  0  0  0
 35 68  1  0  0  0
 36 56  1  0  0  0
 36106  1  0  0  0
 37 39  1  0  0  0
 37 47  1  0  0  0
 37 66  1  0  0  0
 37107  1  0  0  0
 38 43  2  0  0  0
 38 46  1  0  0  0
 38 47  1  0  0  0
 39 64  1  0  0  0
 39 67  2  0  0  0
 40 52  1  0  0  0
 40 53  2  0  0  0
 40 58  1  0  0  0
 41108  1  0  0  0
 41109  1  0  0  0
 41110  1  0  0  0
 41 48  1  0  0  0
 42 43  1  0  0  0
 42 66  1  0  0  0
 42111  1  0  0  0
 42112  1  0  0  0
 43 44  1  0  0  0
 44113  1  0  0  0
 45 46  2  0  0  0
 45114  1  0  0  0
 46115  1  0  0  0
 47116  1  0  0  0
 47117  1  0  0  0
 48 56  1  0  0  0
 48 65  1  0  0  0
 48118  1  0  0  0
 49 50  1  0  0  0
 49 53  1  0  0  0
 49 64  1  0  0  0
 49119  1  0  0  0
 50 51  1  0  0  0
 50120  1  0  0  0
 50121  1  0  0  0
 51 52  1  0  0  0
 51122  1  0  0  0
 51123  1  0  0  0
 52124  1  0  0  0
 52125  1  0  0  0
 53 54  1  0  0  0
 54 55  2  0  0  0
 54126  1  0  0  0
 55 57  1  0  0  0
 55127  1  0  0  0
 56 69  2  0  0  0
 57 58  2  0  0  0
 57128  1  0  0  0
 58129  1  0  0  0
 59 60  1  0  0  0
 59 61  1  0  0  0
 59 62  1  0  0  0
 60130  1  0  0  0
 60131  1  0  0  0
 60132  1  0  0  0
 61133  1  0  0  0
 61134  1  0  0  0
 61135  1  0  0  0
 62136  1  0  0  0
 62137  1  0  0  0
 62138  1  0  0  0
 63 65  1  0  0  0
 63139  1  0  0  0
 63140  1  0  0  0
 63141  1  0  0  0
 64142  1  0  0  0
 65143  1  0  0  0
 68 80  1  0  0  0
 71 73  2  0  0  0
 71 74  1  0  0  0
 71144  1  0  0  0
 72 73  1  0  0  0
 72 75  2  0  0  0
 72145  1  0  0  0
 73 78  1  0  0  0
 74 76  2  0  0  0
 74 79  1  0  0  0
 75 76  1  0  0  0
 75 81  1  0  0  0
 76 84  1  0  0  0
 77 80  1  0  0  0
 77 82  1  0  0  0
 77 83  2  0  0  0
 78146  1  0  0  0
 78147  1  0  0  0
 78148  1  0  0  0
 79 82  1  0  0  0
 79149  1  0  0  0
 79150  1  0  0  0
 80151  1  0  0  0
 80152  1  0  0  0
 81153  1  0  0  0
 82154  1  0  0  0
M  ISO  4   1 100  68 101  80 101  81 100
M  END
> <chiral flag>
0

> <version>
0

> <s_m_source_file>
/data/baiqing/PycharmProjects/Reinvent-master-3.2/result/LINK_invent/BTK/process_docking_weight1_custom_sum_contain_oxygen_bond_distance_aromatic_linkinvent_7_9_3/rearranged_h_0012.sdf

> <i_m_source_file_index>
12

> <r_mmod_Potential_Energy-OPLS-2005>
269.389251708984

> <r_mmod_Stretch_Energy-OPLS-2005>
123.952949523926

> <r_mmod_Bend_Energy-OPLS-2005>
366.957061767578

> <r_mmod_Torsional_Energy-OPLS-2005>
209.532150268555

> <r_mmod_Improper_Torsional_Energy-OPLS-2005>
5.37855768203735

> <r_mmod_Van_der_Waal_Energy-OPLS-2005>
149.191925048828

> <r_mmod_Electrostatic_Energy-OPLS-2005>
-429.201843261719

> <r_mmod_Solvation_Energy-OPLS-2005>
-234.897262573242

> <b_mmod_Minimization_Converged-OPLS-2005>
0

> <r_mmod_RMS_Derivative-OPLS-2005>
4.02419424057007

$$$$
12
                    3D
 Structure written by MMmdl.
152160  0  0  1  0            999 V2000
  -30.5277  -14.8991   20.4354 C   0  0  0  0  0  0
  -30.4472  -12.5525   19.4966 C   0  0  0  0  0  0
  -29.5244  -12.5363   18.2547 C   0  0  0  0  0  0
  -28.0536  -12.3299   18.6659 C   0  0  0  0  0  0
  -27.6391  -13.2417   19.8502 C   0  0  2  0  0  0
  -28.6807  -13.2168   20.9901 C   0  0  0  0  0  0
  -25.2498  -13.8206   20.5701 C   0  0  0  0  0  0
  -24.1797  -13.0442   20.9209 C   0  0  0  0  0  0
  -24.6401  -11.6921   20.8739 C   0  0  0  0  0  0
  -23.9078  -10.4295   21.0402 C   0  0  0  0  0  0
  -24.3625   -9.4210   21.9182 C   0  0  0  0  0  0
  -23.6296   -8.2248   22.0753 C   0  0  0  0  0  0
  -22.4277   -8.0284   21.3545 C   0  0  0  0  0  0
  -21.9916   -9.0259   20.4649 C   0  0  0  0  0  0
  -22.7247  -10.2137   20.3055 C   0  0  0  0  0  0
  -21.6856   -6.0737   22.5278 C   0  0  0  0  0  0
  -21.4018   -6.5640   23.8211 C   0  0  0  0  0  0
  -21.3660   -5.6793   24.9172 C   0  0  0  0  0  0
  -21.6041   -4.3055   24.7223 C   0  0  0  0  0  0
  -21.8819   -3.8148   23.4344 C   0  0  0  0  0  0
  -21.9195   -4.6965   22.3402 C   0  0  0  0  0  0
  -22.7818  -13.5218   21.1867 C   0  0  0  0  0  0
  -22.1661   -4.2152   21.0979 F   0  0  0  0  0  0
  -21.5629   -3.4537   25.7735 F   0  0  0  0  0  0
  -29.9688  -13.6256   20.4116 N   0  0  0  0  0  0
  -26.2927  -12.9427   20.3269 N   0  0  0  0  0  0
  -25.9335  -11.6561   20.5735 N   0  0  0  0  0  0
  -22.0466  -12.8211   22.0425 N   0  0  0  0  0  0
  -25.4181  -15.1932   20.4131 N   0  0  0  0  0  0
  -31.7040  -15.0229   20.0759 O   0  0  0  0  0  0
  -21.6641   -6.8880   21.4240 O   0  0  0  0  0  0
  -22.3500  -14.5522   20.6711 O   0  0  0  0  0  0
  -24.6415  -31.8453   23.1898 C   0  0  0  0  0  0
  -25.9194  -32.4702   23.8279 C   0  0  1  0  0  0
  -27.2193  -27.1524   20.1442 C   0  0  0  0  0  0
  -25.5949  -33.8507   24.2199 N   0  0  0  0  0  0
  -23.4444  -30.4648   21.5348 C   0  0  2  0  0  0
  -24.8944  -28.8954   20.1079 C   0  0  0  0  0  0
  -22.7559  -29.4548   22.4865 C   0  0  0  0  0  0
  -18.0304  -28.1389   22.8482 C   0  0  0  0  0  0
  -24.1491  -36.7258   23.2643 C   0  0  0  0  0  0
  -25.9991  -30.7221   21.3887 C   0  0  0  0  0  0
  -26.0697  -29.3355   20.7293 C   0  0  0  0  0  0
  -27.2309  -28.4777   20.7352 C   0  0  0  0  0  0
  -26.0223  -26.8171   19.4715 C   0  0  0  0  0  0
  -24.8826  -27.6491   19.4647 C   0  0  0  0  0  0
  -23.6699  -29.7949   20.1533 C   0  0  0  0  0  0
  -25.4123  -36.3037   24.0319 C   0  0  1  0  0  0
  -20.5915  -28.3713   23.1241 C   0  0  2  0  0  0
  -20.6786  -26.9417   22.5405 C   0  0  0  0  0  0
  -19.5759  -26.6377   21.5213 C   0  0  0  0  0  0
  -18.1941  -26.7929   22.1625 C   0  0  0  0  0  0
  -19.1560  -28.8870   23.2854 C   0  0  0  0  0  0
  -18.9476  -30.1467   23.8876 C   0  0  0  0  0  0
  -17.6473  -30.6588   24.0556 C   0  0  0  0  0  0
  -25.9070  -34.9411   23.5067 C   0  0  0  0  0  0
  -16.5364  -29.9079   23.6334 C   0  0  0  0  0  0
  -16.7288  -28.6496   23.0358 C   0  0  0  0  0  0
  -26.4522  -31.6567   25.0717 C   0  0  0  0  0  0
  -25.3707  -31.3759   26.1414 C   0  0  0  0  0  0
  -27.0388  -30.2963   24.6299 C   0  0  0  0  0  0
  -27.6050  -32.4337   25.7501 C   0  0  0  0  0  0
  -27.5577  -37.1786   24.8466 C   0  0  0  0  0  0
  -21.4253  -29.3043   22.3615 N   0  0  0  0  0  0
  -26.4289  -37.3747   23.9407 N   0  0  0  0  0  0
  -24.7144  -31.0319   22.0927 N   0  0  0  0  0  0
  -23.4209  -28.8095   23.3009 O   0  0  0  0  0  0
  -28.2753  -26.1768   20.2371 O   0  0  0  0  0  0
  -26.5653  -34.8907   22.4644 O   0  0  0  0  0  0
  -23.5537  -32.1326   23.7126 O   0  0  0  0  0  0
  -29.4922  -18.4636   21.6024 C   0  0  0  0  0  0
  -29.3950  -19.5833   19.1001 C   0  0  0  0  0  0
  -29.2507  -19.8944   21.4363 C   0  0  0  0  0  0
  -29.7051  -17.5133   20.5410 C   0  0  0  0  0  0
  -29.1632  -20.5379   20.1529 C   0  0  0  0  0  0
  -29.6508  -18.1624   19.2654 C   0  0  0  0  0  0
  -29.0181  -20.7228   22.6854 C   0  0  0  0  0  0
  -28.9146  -23.3431   20.5016 C   0  0  0  0  0  0
  -28.0602  -24.6720   19.9220 C   0  0  0  0  0  0
  -29.7140  -16.0021   20.7731 N   0  0  0  0  0  0
  -28.7936  -21.9446   19.8285 N   0  0  0  0  0  0
  -29.8054  -17.1995   17.8383 Cl  0  0  0  0  0  0
  -31.4818  -12.7118   19.1887 H   0  0  0  0  0  0
  -30.4336  -11.5852   20.0014 H   0  0  0  0  0  0
  -29.8337  -11.7523   17.5622 H   0  0  0  0  0  0
  -29.6234  -13.4792   17.7143 H   0  0  0  0  0  0
  -27.9339  -11.2832   18.9478 H   0  0  0  0  0  0
  -27.3949  -12.4925   17.8119 H   0  0  0  0  0  0
  -27.6194  -14.2557   19.4496 H   0  0  0  0  0  0
  -28.7509  -12.2222   21.4331 H   0  0  0  0  0  0
  -28.3841  -13.8881   21.7975 H   0  0  0  0  0  0
  -25.2770   -9.5686   22.4757 H   0  0  0  0  0  0
  -24.0005   -7.4638   22.7474 H   0  0  0  0  0  0
  -21.0846   -8.8779   19.8955 H   0  0  0  0  0  0
  -22.3703  -10.9676   19.6164 H   0  0  0  0  0  0
  -21.2011   -7.6148   23.9714 H   0  0  0  0  0  0
  -21.1482   -6.0522   25.9075 H   0  0  0  0  0  0
  -22.0598   -2.7610   23.2842 H   0  0  0  0  0  0
  -22.4087  -11.9879   22.4823 H   0  0  0  0  0  0
  -21.1082  -13.1235   22.2628 H   0  0  0  0  0  0
  -24.6478  -15.8441   20.5198 H   0  0  0  0  0  0
  -26.2600  -15.6329   20.0645 H   0  0  0  0  0  0
  -26.7257  -32.5312   23.1006 H   0  0  0  0  0  0
  -25.0075  -33.9625   25.0332 H   0  0  0  0  0  0
  -22.7462  -31.2903   21.3815 H   0  0  0  0  0  0
  -23.3760  -35.9583   23.3296 H   0  0  0  0  0  0
  -24.3575  -36.8897   22.2058 H   0  0  0  0  0  0
  -23.7244  -37.6452   23.6683 H   0  0  0  0  0  0
  -26.1556  -31.4782   20.6181 H   0  0  0  0  0  0
  -26.8693  -30.7702   22.0316 H   0  0  0  0  0  0
  -28.1228  -28.8055   21.2505 H   0  0  0  0  0  0
  -25.9314  -25.8718   18.9583 H   0  0  0  0  0  0
  -23.9870  -27.3104   18.9621 H   0  0  0  0  0  0
  -23.8036  -30.5696   19.3975 H   0  0  0  0  0  0
  -22.7856  -29.2349   19.8440 H   0  0  0  0  0  0
  -25.1312  -36.1867   25.0813 H   0  0  0  0  0  0
  -21.0009  -28.3299   24.1362 H   0  0  0  0  0  0
  -20.5676  -26.2325   23.3622 H   0  0  0  0  0  0
  -21.6651  -26.7419   22.1204 H   0  0  0  0  0  0
  -19.6915  -25.6281   21.1256 H   0  0  0  0  0  0
  -19.6694  -27.3175   20.6733 H   0  0  0  0  0  0
  -17.4208  -26.6676   21.4030 H   0  0  0  0  0  0
  -18.0337  -26.0076   22.9026 H   0  0  0  0  0  0
  -19.7952  -30.7289   24.2236 H   0  0  0  0  0  0
  -17.5024  -31.6268   24.5157 H   0  0  0  0  0  0
  -15.5362  -30.2970   23.7671 H   0  0  0  0  0  0
  -15.8690  -28.0804   22.7087 H   0  0  0  0  0  0
  -24.5888  -30.7107   25.7736 H   0  0  0  0  0  0
  -24.8893  -32.2942   26.4785 H   0  0  0  0  0  0
  -25.7988  -30.8968   27.0226 H   0  0  0  0  0  0
  -26.3006  -29.6685   24.1296 H   0  0  0  0  0  0
  -27.3990  -29.7268   25.4877 H   0  0  0  0  0  0
  -27.8920  -30.4202   23.9625 H   0  0  0  0  0  0
  -27.2638  -33.3652   26.2030 H   0  0  0  0  0  0
  -28.3883  -32.6875   25.0346 H   0  0  0  0  0  0
  -28.0693  -31.8496   26.5458 H   0  0  0  0  0  0
  -28.2590  -38.0086   24.7506 H   0  0  0  0  0  0
  -28.1078  -36.2615   24.6300 H   0  0  0  0  0  0
  -27.2292  -37.1442   25.8868 H   0  0  0  0  0  0
  -20.9457  -29.8762   21.6804 H   0  0  0  0  0  0
  -26.0159  -38.2819   24.1402 H   0  0  0  0  0  0
  -29.4784  -18.0698   22.6086 H   0  0  0  0  0  0
  -29.3438  -19.9407   18.0825 H   0  0  0  0  0  0
  -29.0562  -20.1151   23.5894 H   0  0  0  0  0  0
  -28.0391  -21.2007   22.6453 H   0  0  0  0  0  0
  -29.7793  -21.4979   22.7712 H   0  0  0  0  0  0
  -28.6894  -23.2403   21.5627 H   0  0  0  0  0  0
  -29.9731  -23.6017   20.4585 H   0  0  0  0  0  0
  -27.0252  -24.4439   20.1745 H   0  0  0  0  0  0
  -28.1062  -24.6150   18.8340 H   0  0  0  0  0  0
  -28.8649  -15.6831   21.2139 H   0  0  0  0  0  0
  -28.5921  -22.0579   18.8377 H   0  0  0  0  0  0
  1 25  1  0  0  0
  1 30  2  0  0  0
  1 80  1  0  0  0
  2  3  1  0  0  0
  2 25  1  0  0  0
  2 83  1  0  0  0
  2 84  1  0  0  0
  3  4  1  0  0  0
  3 85  1  0  0  0
  3 86  1  0  0  0
  4  5  1  0  0  0
  4 87  1  0  0  0
  4 88  1  0  0  0
  5  6  1  0  0  0
  5 26  1  0  0  0
  5 89  1  0  0  0
  6 25  1  0  0  0
  6 90  1  0  0  0
  6 91  1  0  0  0
  7  8  2  0  0  0
  7 26  1  0  0  0
  7 29  1  0  0  0
  8  9  1  0  0  0
  8 22  1  0  0  0
  9 10  1  0  0  0
  9 27  2  0  0  0
 10 11  2  0  0  0
 10 15  1  0  0  0
 11 12  1  0  0  0
 11 92  1  0  0  0
 12 13  2  0  0  0
 12 93  1  0  0  0
 13 14  1  0  0  0
 13 31  1  0  0  0
 14 15  2  0  0  0
 14 94  1  0  0  0
 15 95  1  0  0  0
 16 17  2  0  0  0
 16 21  1  0  0  0
 16 31  1  0  0  0
 17 18  1  0  0  0
 17 96  1  0  0  0
 18 19  2  0  0  0
 18 97  1  0  0  0
 19 20  1  0  0  0
 19 24  1  0  0  0
 20 21  2  0  0  0
 20 98  1  0  0  0
 21 23  1  0  0  0
 22 28  1  0  0  0
 22 32  2  0  0  0
 26 27  1  0  0  0
 28 99  1  0  0  0
 28100  1  0  0  0
 29101  1  0  0  0
 29102  1  0  0  0
 33 34  1  0  0  0
 33 66  1  0  0  0
 33 70  2  0  0  0
 34 36  1  0  0  0
 34 59  1  0  0  0
 34103  1  0  0  0
 35 44  2  0  0  0
 35 45  1  0  0  0
 35 68  1  0  0  0
 36 56  1  0  0  0
 36104  1  0  0  0
 37 39  1  0  0  0
 37 47  1  0  0  0
 37 66  1  0  0  0
 37105  1  0  0  0
 38 43  2  0  0  0
 38 46  1  0  0  0
 38 47  1  0  0  0
 39 64  1  0  0  0
 39 67  2  0  0  0
 40 52  1  0  0  0
 40 53  2  0  0  0
 40 58  1  0  0  0
 41106  1  0  0  0
 41107  1  0  0  0
 41108  1  0  0  0
 41 48  1  0  0  0
 42 43  1  0  0  0
 42 66  1  0  0  0
 42109  1  0  0  0
 42110  1  0  0  0
 43 44  1  0  0  0
 44111  1  0  0  0
 45 46  2  0  0  0
 45112  1  0  0  0
 46113  1  0  0  0
 47114  1  0  0  0
 47115  1  0  0  0
 48 56  1  0  0  0
 48 65  1  0  0  0
 48116  1  0  0  0
 49 50  1  0  0  0
 49 53  1  0  0  0
 49 64  1  0  0  0
 49117  1  0  0  0
 50 51  1  0  0  0
 50118  1  0  0  0
 50119  1  0  0  0
 51 52  1  0  0  0
 51120  1  0  0  0
 51121  1  0  0  0
 52122  1  0  0  0
 52123  1  0  0  0
 53 54  1  0  0  0
 54 55  2  0  0  0
 54124  1  0  0  0
 55 57  1  0  0  0
 55125  1  0  0  0
 56 69  2  0  0  0
 57 58  2  0  0  0
 57126  1  0  0  0
 58127  1  0  0  0
 59 60  1  0  0  0
 59 61  1  0  0  0
 59 62  1  0  0  0
 60128  1  0  0  0
 60129  1  0  0  0
 60130  1  0  0  0
 61131  1  0  0  0
 61132  1  0  0  0
 61133  1  0  0  0
 62134  1  0  0  0
 62135  1  0  0  0
 62136  1  0  0  0
 63 65  1  0  0  0
 63137  1  0  0  0
 63138  1  0  0  0
 63139  1  0  0  0
 64140  1  0  0  0
 65141  1  0  0  0
 68 79  1  0  0  0
 71 73  2  0  0  0
 71 74  1  0  0  0
 71142  1  0  0  0
 72 75  2  0  0  0
 72 76  1  0  0  0
 72143  1  0  0  0
 73 75  1  0  0  0
 73 77  1  0  0  0
 74 76  2  0  0  0
 74 80  1  0  0  0
 75 81  1  0  0  0
 76 82  1  0  0  0
 77144  1  0  0  0
 77145  1  0  0  0
 77146  1  0  0  0
 78 79  1  0  0  0
 78 81  1  0  0  0
 78147  1  0  0  0
 78148  1  0  0  0
 79149  1  0  0  0
 79150  1  0  0  0
 80151  1  0  0  0
 81152  1  0  0  0
M  ISO  4   1 100  68 101  79 101  80 100
M  END
> <chiral flag>
0

> <version>
0

> <s_m_source_file>
/data/baiqing/PycharmProjects/Reinvent-master-3.2/result/LINK_invent/BTK/process_docking_weight1_custom_sum_contain_oxygen_bond_distance_aromatic_linkinvent_7_9_3/rearranged_h_0012.sdf

> <i_m_source_file_index>
13

> <r_mmod_Potential_Energy-OPLS-2005>
377.905944824219

> <r_mmod_Stretch_Energy-OPLS-2005>
210.223861694336

> <r_mmod_Bend_Energy-OPLS-2005>
262.179626464844

> <r_mmod_Torsional_Energy-OPLS-2005>
232.819290161133

> <r_mmod_Improper_Torsional_Energy-OPLS-2005>
5.38775730133057

> <r_mmod_Van_der_Waal_Energy-OPLS-2005>
130.421096801758

> <r_mmod_Electrostatic_Energy-OPLS-2005>
-406.198516845703

> <r_mmod_Solvation_Energy-OPLS-2005>
-225.826232910156

> <b_mmod_Minimization_Converged-OPLS-2005>
0

> <r_mmod_RMS_Derivative-OPLS-2005>
0.517875671386719

$$$$
13
                    3D
 Structure written by MMmdl.
146154  0  0  1  0            999 V2000
  -30.2181  -15.8381   20.3146 C   0  0  0  0  0  0
  -30.4097  -13.2344   19.5423 C   0  0  0  0  0  0
  -29.5576  -12.7071   18.3458 C   0  0  0  0  0  0
  -28.1489  -12.3034   18.8001 C   0  0  0  0  0  0
  -27.5887  -13.3267   19.8098 C   0  0  2  0  0  0
  -28.5902  -13.7443   20.9170 C   0  0  0  0  0  0
  -25.2289  -13.8307   20.5821 C   0  0  0  0  0  0
  -24.1698  -13.0431   20.9297 C   0  0  0  0  0  0
  -24.6427  -11.6951   20.8761 C   0  0  0  0  0  0
  -23.9137  -10.4292   21.0391 C   0  0  0  0  0  0
  -24.3667   -9.4205   21.9176 C   0  0  0  0  0  0
  -23.6319   -8.2250   22.0753 C   0  0  0  0  0  0
  -22.4300   -8.0291   21.3543 C   0  0  0  0  0  0
  -21.9951   -9.0269   20.4643 C   0  0  0  0  0  0
  -22.7301  -10.2136   20.3045 C   0  0  0  0  0  0
  -21.6860   -6.0746   22.5279 C   0  0  0  0  0  0
  -21.4021   -6.5647   23.8215 C   0  0  0  0  0  0
  -21.3661   -5.6796   24.9173 C   0  0  0  0  0  0
  -21.6044   -4.3060   24.7222 C   0  0  0  0  0  0
  -21.8818   -3.8153   23.4343 C   0  0  0  0  0  0
  -21.9194   -4.6971   22.3400 C   0  0  0  0  0  0
  -22.7706  -13.5148   21.1927 C   0  0  0  0  0  0
  -22.1660   -4.2157   21.0976 F   0  0  0  0  0  0
  -21.5626   -3.4540   25.7734 F   0  0  0  0  0  0
  -29.7302  -14.4325   20.2496 N   0  0  0  0  0  0
  -26.2756  -12.9672   20.3253 N   0  0  0  0  0  0
  -25.9381  -11.6724   20.5687 N   0  0  0  0  0  0
  -22.0378  -12.8120   22.0478 N   0  0  0  0  0  0
  -25.3858  -15.2052   20.4277 N   0  0  0  0  0  0
  -31.4589  -15.7496   20.1790 O   0  0  0  0  0  0
  -21.6650   -6.8895   21.4245 O   0  0  0  0  0  0
  -22.3377  -14.5444   20.6762 O   0  0  0  0  0  0
  -24.6966  -31.7830   23.1395 C   0  0  0  0  0  0
  -25.9479  -32.4381   23.7993 C   0  0  1  0  0  0
  -27.2296  -26.5494   20.2380 C   0  0  0  0  0  0
  -25.5996  -33.8216   24.1865 N   0  0  0  0  0  0
  -23.5295  -30.3771   21.4974 C   0  0  2  0  0  0
  -24.9876  -28.6824   20.1266 C   0  0  0  0  0  0
  -22.7822  -29.4218   22.4684 C   0  0  0  0  0  0
  -18.0347  -28.1428   22.8452 C   0  0  0  0  0  0
  -24.1505  -36.7126   23.2659 C   0  0  0  0  0  0
  -26.1145  -30.4631   21.4289 C   0  0  0  0  0  0
  -26.1756  -29.0084   20.7901 C   0  0  0  0  0  0
  -27.2709  -27.9722   20.8132 C   0  0  0  0  0  0
  -26.0127  -26.4749   19.5039 C   0  0  0  0  0  0
  -24.9532  -27.4433   19.4602 C   0  0  0  0  0  0
  -23.7921  -29.6578   20.1401 C   0  0  0  0  0  0
  -25.4161  -36.2853   24.0272 C   0  0  1  0  0  0
  -20.5986  -28.3790   23.1122 C   0  0  2  0  0  0
  -20.6804  -26.9437   22.5409 C   0  0  0  0  0  0
  -19.5782  -26.6368   21.5220 C   0  0  0  0  0  0
  -18.1967  -26.7952   22.1622 C   0  0  0  0  0  0
  -19.1616  -28.8939   23.2764 C   0  0  0  0  0  0
  -18.9516  -30.1520   23.8815 C   0  0  0  0  0  0
  -17.6501  -30.6605   24.0549 C   0  0  0  0  0  0
  -25.9140  -34.9241   23.4920 C   0  0  0  0  0  0
  -16.5393  -29.9085   23.6348 C   0  0  0  0  0  0
  -16.7325  -28.6509   23.0364 C   0  0  0  0  0  0
  -26.4615  -31.6474   25.0673 C   0  0  0  0  0  0
  -25.3641  -31.3828   26.1259 C   0  0  0  0  0  0
  -27.0565  -30.2796   24.6669 C   0  0  0  0  0  0
  -27.6043  -32.4361   25.7494 C   0  0  0  0  0  0
  -27.5554  -37.1742   24.8481 C   0  0  0  0  0  0
  -21.4458  -29.3009   22.3427 N   0  0  0  0  0  0
  -26.4290  -37.3613   23.9376 N   0  0  0  0  0  0
  -24.8055  -30.9120   22.0739 N   0  0  0  0  0  0
  -23.4198  -28.7846   23.3099 O   0  0  0  0  0  0
  -28.2183  -25.2968   20.2531 O   0  0  0  0  0  0
  -26.5803  -34.8844   22.4554 O   0  0  0  0  0  0
  -23.5953  -32.0983   23.6249 O   0  0  0  0  0  0
  -30.8397  -19.5674   20.2560 C   0  0  0  0  0  0
  -31.1813  -20.9684   20.2239 C   0  0  0  0  0  0
  -29.5340  -19.0269   20.3103 C   0  0  0  0  0  0
  -28.8546  -22.0126   20.2819 C   0  0  0  0  0  0
  -30.2775  -22.1027   20.2376 C   0  0  0  0  0  0
  -28.5874  -20.3792   20.3187 C   0  0  0  0  0  0
  -32.6740  -21.2670   20.1720 C   0  0  0  0  0  0
  -29.4357  -17.2430   20.3462 N   0  0  0  0  0  0
  -27.9670  -23.4399   20.2833 N   0  0  0  0  0  0
  -30.9752  -23.6911   20.1998 Cl  0  0  0  0  0  0
  -26.9071  -19.9883   20.3814 Cl  0  0  0  0  0  0
  -31.3839  -13.5310   19.1526 H   0  0  0  0  0  0
  -30.6265  -12.4294   20.2470 H   0  0  0  0  0  0
  -30.0541  -11.8657   17.8609 H   0  0  0  0  0  0
  -29.4804  -13.4927   17.5929 H   0  0  0  0  0  0
  -28.2162  -11.3245   19.2765 H   0  0  0  0  0  0
  -27.4822  -12.1883   17.9447 H   0  0  0  0  0  0
  -27.4238  -14.2190   19.2040 H   0  0  0  0  0  0
  -28.8973  -12.8954   21.5299 H   0  0  0  0  0  0
  -28.1159  -14.4534   21.5970 H   0  0  0  0  0  0
  -25.2807   -9.5673   22.4762 H   0  0  0  0  0  0
  -24.0016   -7.4644   22.7482 H   0  0  0  0  0  0
  -21.0880   -8.8805   19.8950 H   0  0  0  0  0  0
  -22.3766  -10.9680   19.6157 H   0  0  0  0  0  0
  -21.2018   -7.6155   23.9720 H   0  0  0  0  0  0
  -21.1481   -6.0524   25.9077 H   0  0  0  0  0  0
  -22.0594   -2.7614   23.2840 H   0  0  0  0  0  0
  -22.4029  -11.9802   22.4880 H   0  0  0  0  0  0
  -21.0982  -13.1106   22.2677 H   0  0  0  0  0  0
  -24.6137  -15.8521   20.5458 H   0  0  0  0  0  0
  -26.2259  -15.6510   20.0851 H   0  0  0  0  0  0
  -26.7571  -32.4821   23.0708 H   0  0  0  0  0  0
  -25.0018  -33.9228   24.9934 H   0  0  0  0  0  0
  -22.8635  -31.2180   21.2937 H   0  0  0  0  0  0
  -23.3757  -35.9471   23.3339 H   0  0  0  0  0  0
  -24.3543  -36.8772   22.2067 H   0  0  0  0  0  0
  -23.7298  -37.6326   23.6731 H   0  0  0  0  0  0
  -26.3299  -31.1720   20.6283 H   0  0  0  0  0  0
  -26.9618  -30.5416   22.0970 H   0  0  0  0  0  0
  -28.1667  -28.2363   21.3570 H   0  0  0  0  0  0
  -25.8361  -25.5515   18.9708 H   0  0  0  0  0  0
  -24.0639  -27.1855   18.9016 H   0  0  0  0  0  0
  -23.9803  -30.4095   19.3728 H   0  0  0  0  0  0
  -22.8939  -29.1315   19.8133 H   0  0  0  0  0  0
  -25.1388  -36.1616   25.0767 H   0  0  0  0  0  0
  -21.0066  -28.3427   24.1249 H   0  0  0  0  0  0
  -20.5652  -26.2418   23.3683 H   0  0  0  0  0  0
  -21.6663  -26.7358   22.1237 H   0  0  0  0  0  0
  -19.6935  -25.6259   21.1300 H   0  0  0  0  0  0
  -19.6727  -27.3137   20.6718 H   0  0  0  0  0  0
  -17.4235  -26.6695   21.4028 H   0  0  0  0  0  0
  -18.0354  -26.0115   22.9039 H   0  0  0  0  0  0
  -19.7990  -30.7361   24.2148 H   0  0  0  0  0  0
  -17.5047  -31.6274   24.5171 H   0  0  0  0  0  0
  -15.5389  -30.2956   23.7716 H   0  0  0  0  0  0
  -15.8730  -28.0799   22.7118 H   0  0  0  0  0  0
  -24.5881  -30.7118   25.7554 H   0  0  0  0  0  0
  -24.8770  -32.3057   26.4419 H   0  0  0  0  0  0
  -25.7788  -30.9175   27.0210 H   0  0  0  0  0  0
  -26.3308  -29.6374   24.1668 H   0  0  0  0  0  0
  -27.3944  -29.7290   25.5458 H   0  0  0  0  0  0
  -27.9308  -30.3891   24.0249 H   0  0  0  0  0  0
  -27.2574  -33.3747   26.1828 H   0  0  0  0  0  0
  -28.3974  -32.6780   25.0406 H   0  0  0  0  0  0
  -28.0577  -31.8653   26.5609 H   0  0  0  0  0  0
  -28.2608  -37.9993   24.7409 H   0  0  0  0  0  0
  -28.1012  -36.2510   24.6477 H   0  0  0  0  0  0
  -27.2242  -37.1579   25.8879 H   0  0  0  0  0  0
  -20.9798  -29.8639   21.6447 H   0  0  0  0  0  0
  -26.0120  -38.2680   24.1298 H   0  0  0  0  0  0
  -31.6485  -18.8506   20.2399 H   0  0  0  0  0  0
  -33.2790  -20.3609   20.1308 H   0  0  0  0  0  0
  -32.9835  -21.8248   21.0565 H   0  0  0  0  0  0
  -32.9168  -21.8582   19.2885 H   0  0  0  0  0  0
  -28.4601  -16.9883   20.4024 H   0  0  0  0  0  0
  -26.9646  -23.2779   20.3119 H   0  0  0  0  0  0
  1 25  1  0  0  0
  1 30  2  0  0  0
  1 78  1  0  0  0
  2  3  1  0  0  0
  2 25  1  0  0  0
  2 82  1  0  0  0
  2 83  1  0  0  0
  3  4  1  0  0  0
  3 84  1  0  0  0
  3 85  1  0  0  0
  4  5  1  0  0  0
  4 86  1  0  0  0
  4 87  1  0  0  0
  5  6  1  0  0  0
  5 26  1  0  0  0
  5 88  1  0  0  0
  6 25  1  0  0  0
  6 89  1  0  0  0
  6 90  1  0  0  0
  7  8  2  0  0  0
  7 26  1  0  0  0
  7 29  1  0  0  0
  8  9  1  0  0  0
  8 22  1  0  0  0
  9 10  1  0  0  0
  9 27  2  0  0  0
 10 11  2  0  0  0
 10 15  1  0  0  0
 11 12  1  0  0  0
 11 91  1  0  0  0
 12 13  2  0  0  0
 12 92  1  0  0  0
 13 14  1  0  0  0
 13 31  1  0  0  0
 14 15  2  0  0  0
 14 93  1  0  0  0
 15 94  1  0  0  0
 16 17  2  0  0  0
 16 21  1  0  0  0
 16 31  1  0  0  0
 17 18  1  0  0  0
 17 95  1  0  0  0
 18 19  2  0  0  0
 18 96  1  0  0  0
 19 20  1  0  0  0
 19 24  1  0  0  0
 20 21  2  0  0  0
 20 97  1  0  0  0
 21 23  1  0  0  0
 22 28  1  0  0  0
 22 32  2  0  0  0
 26 27  1  0  0  0
 28 98  1  0  0  0
 28 99  1  0  0  0
 29100  1  0  0  0
 29101  1  0  0  0
 33 34  1  0  0  0
 33 66  1  0  0  0
 33 70  2  0  0  0
 34 36  1  0  0  0
 34 59  1  0  0  0
 34102  1  0  0  0
 35 44  2  0  0  0
 35 45  1  0  0  0
 35 68  1  0  0  0
 36 56  1  0  0  0
 36103  1  0  0  0
 37 39  1  0  0  0
 37 47  1  0  0  0
 37 66  1  0  0  0
 37104  1  0  0  0
 38 43  2  0  0  0
 38 46  1  0  0  0
 38 47  1  0  0  0
 39 64  1  0  0  0
 39 67  2  0  0  0
 40 52  1  0  0  0
 40 53  2  0  0  0
 40 58  1  0  0  0
 41105  1  0  0  0
 41106  1  0  0  0
 41107  1  0  0  0
 41 48  1  0  0  0
 42 43  1  0  0  0
 42 66  1  0  0  0
 42108  1  0  0  0
 42109  1  0  0  0
 43 44  1  0  0  0
 44110  1  0  0  0
 45 46  2  0  0  0
 45111  1  0  0  0
 46112  1  0  0  0
 47113  1  0  0  0
 47114  1  0  0  0
 48 56  1  0  0  0
 48 65  1  0  0  0
 48115  1  0  0  0
 49 50  1  0  0  0
 49 53  1  0  0  0
 49 64  1  0  0  0
 49116  1  0  0  0
 50 51  1  0  0  0
 50117  1  0  0  0
 50118  1  0  0  0
 51 52  1  0  0  0
 51119  1  0  0  0
 51120  1  0  0  0
 52121  1  0  0  0
 52122  1  0  0  0
 53 54  1  0  0  0
 54 55  2  0  0  0
 54123  1  0  0  0
 55 57  1  0  0  0
 55124  1  0  0  0
 56 69  2  0  0  0
 57 58  2  0  0  0
 57125  1  0  0  0
 58126  1  0  0  0
 59 60  1  0  0  0
 59 61  1  0  0  0
 59 62  1  0  0  0
 60127  1  0  0  0
 60128  1  0  0  0
 60129  1  0  0  0
 61130  1  0  0  0
 61131  1  0  0  0
 61132  1  0  0  0
 62133  1  0  0  0
 62134  1  0  0  0
 62135  1  0  0  0
 63 65  1  0  0  0
 63136  1  0  0  0
 63137  1  0  0  0
 63138  1  0  0  0
 64139  1  0  0  0
 65140  1  0  0  0
 68 79  1  0  0  0
 71 72  2  0  0  0
 71 73  1  0  0  0
 71141  1  0  0  0
 72 75  1  0  0  0
 72 77  1  0  0  0
 73 76  2  0  0  0
 73 78  1  0  0  0
 74 75  2  0  0  0
 74 76  1  0  0  0
 74 79  1  0  0  0
 75 80  1  0  0  0
 76 81  1  0  0  0
 77142  1  0  0  0
 77143  1  0  0  0
 77144  1  0  0  0
 78145  1  0  0  0
 79146  1  0  0  0
M  ISO  4   1 100  68 101  78 100  79 101
M  END
> <chiral flag>
0

> <version>
0

> <s_m_source_file>
/data/baiqing/PycharmProjects/Reinvent-master-3.2/result/LINK_invent/BTK/process_docking_weight1_custom_sum_contain_oxygen_bond_distance_aromatic_linkinvent_7_9_3/rearranged_h_0012.sdf

> <i_m_source_file_index>
14

> <r_mmod_Potential_Energy-OPLS-2005>
3029.37353515625

> <r_mmod_Stretch_Energy-OPLS-2005>
1339.92797851562

> <r_mmod_Bend_Energy-OPLS-2005>
687.981140136719

> <r_mmod_Torsional_Energy-OPLS-2005>
199.799850463867

> <r_mmod_Improper_Torsional_Energy-OPLS-2005>
3.79763078689575

> <r_mmod_Van_der_Waal_Energy-OPLS-2005>
130.635726928711

> <r_mmod_Electrostatic_Energy-OPLS-2005>
-332.102935791016

> <r_mmod_Solvation_Energy-OPLS-2005>
-228.506729125977

> <b_mmod_Minimization_Converged-OPLS-2005>
0

> <r_mmod_RMS_Derivative-OPLS-2005>
0.585520684719086

$$$$
14
                    3D
 Structure written by MMmdl.
151159  0  0  1  0            999 V2000
  -30.5132  -14.9424   20.4349 C   0  0  0  0  0  0
  -30.4531  -12.5821   19.5012 C   0  0  0  0  0  0
  -29.5300  -12.5367   18.2598 C   0  0  0  0  0  0
  -28.0607  -12.3220   18.6735 C   0  0  0  0  0  0
  -27.6366  -13.2425   19.8469 C   0  0  2  0  0  0
  -28.6793  -13.2387   20.9863 C   0  0  0  0  0  0
  -25.2416  -13.8132   20.5584 C   0  0  0  0  0  0
  -24.1757  -13.0378   20.9185 C   0  0  0  0  0  0
  -24.6397  -11.6878   20.8749 C   0  0  0  0  0  0
  -23.9078  -10.4261   21.0415 C   0  0  0  0  0  0
  -24.3621   -9.4181   21.9197 C   0  0  0  0  0  0
  -23.6291   -8.2223   22.0756 C   0  0  0  0  0  0
  -22.4272   -8.0264   21.3544 C   0  0  0  0  0  0
  -21.9911   -9.0241   20.4650 C   0  0  0  0  0  0
  -22.7246  -10.2115   20.3062 C   0  0  0  0  0  0
  -21.6842   -6.0723   22.5280 C   0  0  0  0  0  0
  -21.4011   -6.5629   23.8214 C   0  0  0  0  0  0
  -21.3665   -5.6786   24.9181 C   0  0  0  0  0  0
  -21.6050   -4.3047   24.7230 C   0  0  0  0  0  0
  -21.8818   -3.8136   23.4351 C   0  0  0  0  0  0
  -21.9189   -4.6950   22.3404 C   0  0  0  0  0  0
  -22.7788  -13.5172   21.1858 C   0  0  0  0  0  0
  -22.1658   -4.2133   21.0981 F   0  0  0  0  0  0
  -21.5628   -3.4538   25.7746 F   0  0  0  0  0  0
  -29.9618  -13.6618   20.4028 N   0  0  0  0  0  0
  -26.2908  -12.9399   20.3258 N   0  0  0  0  0  0
  -25.9344  -11.6535   20.5775 N   0  0  0  0  0  0
  -22.0442  -12.8185   22.0437 N   0  0  0  0  0  0
  -25.3923  -15.1827   20.3818 N   0  0  0  0  0  0
  -31.6989  -15.0673   20.1074 O   0  0  0  0  0  0
  -21.6626   -6.8867   21.4243 O   0  0  0  0  0  0
  -22.3471  -14.5479   20.6706 O   0  0  0  0  0  0
  -24.6428  -31.8455   23.1875 C   0  0  0  0  0  0
  -25.9196  -32.4707   23.8275 C   0  0  1  0  0  0
  -27.2241  -27.1463   20.1589 C   0  0  0  0  0  0
  -25.5946  -33.8514   24.2197 N   0  0  0  0  0  0
  -23.4467  -30.4631   21.5341 C   0  0  2  0  0  0
  -24.8976  -28.8860   20.1166 C   0  0  0  0  0  0
  -22.7570  -29.4551   22.4873 C   0  0  0  0  0  0
  -18.0310  -28.1393   22.8484 C   0  0  0  0  0  0
  -24.1490  -36.7261   23.2642 C   0  0  0  0  0  0
  -26.0020  -30.7223   21.3847 C   0  0  0  0  0  0
  -26.0752  -29.3319   20.7314 C   0  0  0  0  0  0
  -27.2421  -28.4793   20.7321 C   0  0  0  0  0  0
  -26.0217  -26.7950   19.5108 C   0  0  0  0  0  0
  -24.8831  -27.6298   19.4898 C   0  0  0  0  0  0
  -23.6736  -29.7884   20.1554 C   0  0  0  0  0  0
  -25.4122  -36.3040   24.0319 C   0  0  1  0  0  0
  -20.5922  -28.3719   23.1246 C   0  0  2  0  0  0
  -20.6793  -26.9426   22.5408 C   0  0  0  0  0  0
  -19.5766  -26.6383   21.5219 C   0  0  0  0  0  0
  -18.1947  -26.7932   22.1632 C   0  0  0  0  0  0
  -19.1563  -28.8874   23.2855 C   0  0  0  0  0  0
  -18.9478  -30.1470   23.8879 C   0  0  0  0  0  0
  -17.6474  -30.6589   24.0563 C   0  0  0  0  0  0
  -25.9073  -34.9415   23.5068 C   0  0  0  0  0  0
  -16.5368  -29.9083   23.6335 C   0  0  0  0  0  0
  -16.7294  -28.6501   23.0357 C   0  0  0  0  0  0
  -26.4515  -31.6567   25.0709 C   0  0  0  0  0  0
  -25.3697  -31.3758   26.1403 C   0  0  0  0  0  0
  -27.0383  -30.2967   24.6273 C   0  0  0  0  0  0
  -27.6050  -32.4326   25.7494 C   0  0  0  0  0  0
  -27.5577  -37.1783   24.8462 C   0  0  0  0  0  0
  -21.4258  -29.3045   22.3612 N   0  0  0  0  0  0
  -26.4283  -37.3755   23.9412 N   0  0  0  0  0  0
  -24.7170  -31.0316   22.0907 N   0  0  0  0  0  0
  -23.4212  -28.8104   23.3024 O   0  0  0  0  0  0
  -28.2821  -26.1700   20.1601 O   0  0  0  0  0  0
  -26.5665  -34.8909   22.4651 O   0  0  0  0  0  0
  -23.5544  -32.1330   23.7092 O   0  0  0  0  0  0
  -30.5125  -18.5463   20.0715 C   0  0  0  0  0  0
  -30.2953  -19.9969   20.0838 C   0  0  0  0  0  0
  -29.5957  -17.5810   20.6243 C   0  0  0  0  0  0
  -29.1320  -20.6611   20.6270 C   0  0  0  0  0  0
  -28.4395  -18.2500   21.1580 C   0  0  0  0  0  0
  -28.2088  -19.6882   21.1466 C   0  0  0  0  0  0
  -28.6607  -23.3227   20.1393 C   0  0  0  0  0  0
  -29.0871  -22.4460   22.3657 C   0  0  0  0  0  0
  -28.0503  -24.7528   20.7537 C   0  0  0  0  0  0
  -29.6556  -16.0414   20.6931 N   0  0  0  0  0  0
  -28.9641  -22.1679   20.9312 N   0  0  0  0  0  0
  -28.8096  -23.2675   18.9145 O   0  0  0  0  0  0
  -27.2547  -17.2466   21.9214 Cl  0  0  0  0  0  0
  -26.7292  -20.2759   21.8366 Cl  0  0  0  0  0  0
  -31.4859  -12.7512   19.1933 H   0  0  0  0  0  0
  -30.4519  -11.6229   20.0207 H   0  0  0  0  0  0
  -29.8484  -11.7443   17.5810 H   0  0  0  0  0  0
  -29.6213  -13.4708   17.7031 H   0  0  0  0  0  0
  -27.9516  -11.2785   18.9719 H   0  0  0  0  0  0
  -27.4002  -12.4650   17.8174 H   0  0  0  0  0  0
  -27.6088  -14.2518   19.4351 H   0  0  0  0  0  0
  -28.7607  -12.2490   21.4384 H   0  0  0  0  0  0
  -28.3757  -13.9135   21.7882 H   0  0  0  0  0  0
  -25.2764   -9.5658   22.4781 H   0  0  0  0  0  0
  -23.9989   -7.4614   22.7480 H   0  0  0  0  0  0
  -21.0834   -8.8779   19.8960 H   0  0  0  0  0  0
  -22.3711  -10.9665   19.6176 H   0  0  0  0  0  0
  -21.2004   -7.6137   23.9718 H   0  0  0  0  0  0
  -21.1490   -6.0512   25.9085 H   0  0  0  0  0  0
  -22.0589   -2.7593   23.2855 H   0  0  0  0  0  0
  -22.4043  -11.9862   22.4866 H   0  0  0  0  0  0
  -21.1071  -13.1235   22.2639 H   0  0  0  0  0  0
  -24.6246  -15.8271   20.5326 H   0  0  0  0  0  0
  -26.2493  -15.6497   20.1212 H   0  0  0  0  0  0
  -26.7267  -32.5313   23.1013 H   0  0  0  0  0  0
  -25.0055  -33.9638   25.0316 H   0  0  0  0  0  0
  -22.7485  -31.2883   21.3783 H   0  0  0  0  0  0
  -23.3756  -35.9587   23.3292 H   0  0  0  0  0  0
  -24.3578  -36.8906   22.2059 H   0  0  0  0  0  0
  -23.7234  -37.6450   23.6688 H   0  0  0  0  0  0
  -26.1543  -31.4743   20.6094 H   0  0  0  0  0  0
  -26.8736  -30.7764   22.0252 H   0  0  0  0  0  0
  -28.1436  -28.8200   21.2214 H   0  0  0  0  0  0
  -25.9519  -25.8321   19.0246 H   0  0  0  0  0  0
  -23.9851  -27.2853   18.9952 H   0  0  0  0  0  0
  -23.8101  -30.5614   19.3981 H   0  0  0  0  0  0
  -22.7876  -29.2312   19.8451 H   0  0  0  0  0  0
  -25.1305  -36.1872   25.0810 H   0  0  0  0  0  0
  -21.0023  -28.3304   24.1365 H   0  0  0  0  0  0
  -20.5702  -26.2332   23.3623 H   0  0  0  0  0  0
  -21.6657  -26.7443   22.1199 H   0  0  0  0  0  0
  -19.6931  -25.6288   21.1260 H   0  0  0  0  0  0
  -19.6690  -27.3182   20.6737 H   0  0  0  0  0  0
  -17.4217  -26.6682   21.4031 H   0  0  0  0  0  0
  -18.0341  -26.0074   22.9029 H   0  0  0  0  0  0
  -19.7950  -30.7294   24.2238 H   0  0  0  0  0  0
  -17.5025  -31.6268   24.5167 H   0  0  0  0  0  0
  -15.5365  -30.2982   23.7661 H   0  0  0  0  0  0
  -15.8696  -28.0814   22.7084 H   0  0  0  0  0  0
  -24.5865  -30.7128   25.7709 H   0  0  0  0  0  0
  -24.8897  -32.2946   26.4786 H   0  0  0  0  0  0
  -25.7971  -30.8943   27.0209 H   0  0  0  0  0  0
  -26.3003  -29.6687   24.1272 H   0  0  0  0  0  0
  -27.4004  -29.7265   25.4839 H   0  0  0  0  0  0
  -27.8905  -30.4217   23.9589 H   0  0  0  0  0  0
  -27.2652  -33.3642   26.2033 H   0  0  0  0  0  0
  -28.3883  -32.6866   25.0338 H   0  0  0  0  0  0
  -28.0699  -31.8474   26.5439 H   0  0  0  0  0  0
  -28.2582  -38.0092   24.7528 H   0  0  0  0  0  0
  -28.1087  -36.2624   24.6267 H   0  0  0  0  0  0
  -27.2301  -37.1406   25.8866 H   0  0  0  0  0  0
  -20.9470  -29.8744   21.6780 H   0  0  0  0  0  0
  -26.0150  -38.2824   24.1415 H   0  0  0  0  0  0
  -31.4318  -18.1775   19.6389 H   0  0  0  0  0  0
  -31.0876  -20.6200   19.6935 H   0  0  0  0  0  0
  -29.4820  -21.5854   22.9073 H   0  0  0  0  0  0
  -28.1195  -22.6913   22.8051 H   0  0  0  0  0  0
  -29.7796  -23.2667   22.5584 H   0  0  0  0  0  0
  -28.3632  -24.8473   21.7907 H   0  0  0  0  0  0
  -26.9751  -24.5890   20.8155 H   0  0  0  0  0  0
  -28.7677  -15.6806   21.0104 H   0  0  0  0  0  0
  1 25  1  0  0  0
  1 30  2  0  0  0
  1 80  1  0  0  0
  2  3  1  0  0  0
  2 25  1  0  0  0
  2 85  1  0  0  0
  2 86  1  0  0  0
  3  4  1  0  0  0
  3 87  1  0  0  0
  3 88  1  0  0  0
  4  5  1  0  0  0
  4 89  1  0  0  0
  4 90  1  0  0  0
  5  6  1  0  0  0
  5 26  1  0  0  0
  5 91  1  0  0  0
  6 25  1  0  0  0
  6 92  1  0  0  0
  6 93  1  0  0  0
  7  8  2  0  0  0
  7 26  1  0  0  0
  7 29  1  0  0  0
  8  9  1  0  0  0
  8 22  1  0  0  0
  9 10  1  0  0  0
  9 27  2  0  0  0
 10 11  2  0  0  0
 10 15  1  0  0  0
 11 12  1  0  0  0
 11 94  1  0  0  0
 12 13  2  0  0  0
 12 95  1  0  0  0
 13 14  1  0  0  0
 13 31  1  0  0  0
 14 15  2  0  0  0
 14 96  1  0  0  0
 15 97  1  0  0  0
 16 17  2  0  0  0
 16 21  1  0  0  0
 16 31  1  0  0  0
 17 18  1  0  0  0
 17 98  1  0  0  0
 18 19  2  0  0  0
 18 99  1  0  0  0
 19 20  1  0  0  0
 19 24  1  0  0  0
 20 21  2  0  0  0
 20100  1  0  0  0
 21 23  1  0  0  0
 22 28  1  0  0  0
 22 32  2  0  0  0
 26 27  1  0  0  0
 28101  1  0  0  0
 28102  1  0  0  0
 29103  1  0  0  0
 29104  1  0  0  0
 33 34  1  0  0  0
 33 66  1  0  0  0
 33 70  2  0  0  0
 34 36  1  0  0  0
 34 59  1  0  0  0
 34105  1  0  0  0
 35 44  2  0  0  0
 35 45  1  0  0  0
 35 68  1  0  0  0
 36 56  1  0  0  0
 36106  1  0  0  0
 37 39  1  0  0  0
 37 47  1  0  0  0
 37 66  1  0  0  0
 37107  1  0  0  0
 38 43  2  0  0  0
 38 46  1  0  0  0
 38 47  1  0  0  0
 39 64  1  0  0  0
 39 67  2  0  0  0
 40 52  1  0  0  0
 40 53  2  0  0  0
 40 58  1  0  0  0
 41108  1  0  0  0
 41109  1  0  0  0
 41110  1  0  0  0
 41 48  1  0  0  0
 42 43  1  0  0  0
 42 66  1  0  0  0
 42111  1  0  0  0
 42112  1  0  0  0
 43 44  1  0  0  0
 44113  1  0  0  0
 45 46  2  0  0  0
 45114  1  0  0  0
 46115  1  0  0  0
 47116  1  0  0  0
 47117  1  0  0  0
 48 56  1  0  0  0
 48 65  1  0  0  0
 48118  1  0  0  0
 49 50  1  0  0  0
 49 53  1  0  0  0
 49 64  1  0  0  0
 49119  1  0  0  0
 50 51  1  0  0  0
 50120  1  0  0  0
 50121  1  0  0  0
 51 52  1  0  0  0
 51122  1  0  0  0
 51123  1  0  0  0
 52124  1  0  0  0
 52125  1  0  0  0
 53 54  1  0  0  0
 54 55  2  0  0  0
 54126  1  0  0  0
 55 57  1  0  0  0
 55127  1  0  0  0
 56 69  2  0  0  0
 57 58  2  0  0  0
 57128  1  0  0  0
 58129  1  0  0  0
 59 60  1  0  0  0
 59 61  1  0  0  0
 59 62  1  0  0  0
 60130  1  0  0  0
 60131  1  0  0  0
 60132  1  0  0  0
 61133  1  0  0  0
 61134  1  0  0  0
 61135  1  0  0  0
 62136  1  0  0  0
 62137  1  0  0  0
 62138  1  0  0  0
 63 65  1  0  0  0
 63139  1  0  0  0
 63140  1  0  0  0
 63141  1  0  0  0
 64142  1  0  0  0
 65143  1  0  0  0
 68 79  1  0  0  0
 71 72  2  0  0  0
 71 73  1  0  0  0
 71144  1  0  0  0
 72 74  1  0  0  0
 72145  1  0  0  0
 73 75  2  0  0  0
 73 80  1  0  0  0
 74 76  2  0  0  0
 74 81  1  0  0  0
 75 76  1  0  0  0
 75 83  1  0  0  0
 76 84  1  0  0  0
 77 79  1  0  0  0
 77 81  1  0  0  0
 77 82  2  0  0  0
 78 81  1  0  0  0
 78146  1  0  0  0
 78147  1  0  0  0
 78148  1  0  0  0
 79149  1  0  0  0
 79150  1  0  0  0
 80151  1  0  0  0
M  ISO  4   1 100  68 101  79 101  80 100
M  END
> <chiral flag>
0

> <version>
0

> <s_m_source_file>
/data/baiqing/PycharmProjects/Reinvent-master-3.2/result/LINK_invent/BTK/process_docking_weight1_custom_sum_contain_oxygen_bond_distance_aromatic_linkinvent_7_9_3/rearranged_h_0012.sdf

> <i_m_source_file_index>
15

> <r_mmod_Potential_Energy-OPLS-2005>
577.556213378906

> <r_mmod_Stretch_Energy-OPLS-2005>
239.496429443359

> <r_mmod_Bend_Energy-OPLS-2005>
269.765960693359

> <r_mmod_Torsional_Energy-OPLS-2005>
302.868133544922

> <r_mmod_Improper_Torsional_Energy-OPLS-2005>
5.48304224014282

> <r_mmod_Van_der_Waal_Energy-OPLS-2005>
135.36735534668

> <r_mmod_Electrostatic_Energy-OPLS-2005>
-336.092071533203

> <r_mmod_Solvation_Energy-OPLS-2005>
-224.082534790039

> <b_mmod_Minimization_Converged-OPLS-2005>
0

> <r_mmod_RMS_Derivative-OPLS-2005>
1.2543877363205

$$$$
15
                    3D
 Structure written by MMmdl.
143150  0  0  1  0            999 V2000
  -30.0078  -16.4076   20.2939 C   0  0  0  0  0  0
  -30.3440  -13.6908   19.5049 C   0  0  0  0  0  0
  -29.5728  -12.8926   18.3842 C   0  0  0  0  0  0
  -28.2309  -12.3498   18.8854 C   0  0  0  0  0  0
  -27.5786  -13.3962   19.8036 C   0  0  2  0  0  0
  -28.5376  -14.0583   20.8498 C   0  0  0  0  0  0
  -25.2237  -13.8418   20.5913 C   0  0  0  0  0  0
  -24.1709  -13.0448   20.9330 C   0  0  0  0  0  0
  -24.6528  -11.6996   20.8735 C   0  0  0  0  0  0
  -23.9234  -10.4310   21.0352 C   0  0  0  0  0  0
  -24.3731   -9.4212   21.9149 C   0  0  0  0  0  0
  -23.6357   -8.2266   22.0743 C   0  0  0  0  0  0
  -22.4328   -8.0318   21.3546 C   0  0  0  0  0  0
  -22.0007   -9.0293   20.4629 C   0  0  0  0  0  0
  -22.7386  -10.2148   20.3012 C   0  0  0  0  0  0
  -21.6870   -6.0762   22.5280 C   0  0  0  0  0  0
  -21.4027   -6.5657   23.8219 C   0  0  0  0  0  0
  -21.3659   -5.6805   24.9176 C   0  0  0  0  0  0
  -21.6037   -4.3065   24.7222 C   0  0  0  0  0  0
  -21.8820   -3.8164   23.4344 C   0  0  0  0  0  0
  -21.9201   -4.6984   22.3405 C   0  0  0  0  0  0
  -22.7688  -13.5094   21.1943 C   0  0  0  0  0  0
  -22.1666   -4.2175   21.0977 F   0  0  0  0  0  0
  -21.5625   -3.4539   25.7728 F   0  0  0  0  0  0
  -29.5588  -14.9223   20.1248 N   0  0  0  0  0  0
  -26.2823  -12.9935   20.3389 N   0  0  0  0  0  0
  -25.9514  -11.6897   20.5634 N   0  0  0  0  0  0
  -22.0380  -12.8040   22.0498 N   0  0  0  0  0  0
  -25.3659  -15.2175   20.4347 N   0  0  0  0  0  0
  -31.2502  -16.1848   20.3851 O   0  0  0  0  0  0
  -21.6663   -6.8922   21.4251 O   0  0  0  0  0  0
  -22.3336  -14.5376   20.6772 O   0  0  0  0  0  0
  -24.7330  -31.7419   23.1130 C   0  0  0  0  0  0
  -25.9658  -32.4197   23.7868 C   0  0  1  0  0  0
  -27.2518  -26.1827   20.2806 C   0  0  0  0  0  0
  -25.6039  -33.8055   24.1694 N   0  0  0  0  0  0
  -23.5813  -30.3199   21.4829 C   0  0  2  0  0  0
  -25.0437  -28.5476   20.1529 C   0  0  0  0  0  0
  -22.7981  -29.4008   22.4628 C   0  0  0  0  0  0
  -18.0367  -28.1459   22.8435 C   0  0  0  0  0  0
  -24.1495  -36.7028   23.2640 C   0  0  0  0  0  0
  -26.1801  -30.3042   21.4573 C   0  0  0  0  0  0
  -26.2432  -28.8047   20.8295 C   0  0  0  0  0  0
  -27.3084  -27.6735   20.8413 C   0  0  0  0  0  0
  -26.0175  -26.2764   19.5381 C   0  0  0  0  0  0
  -25.0016  -27.3104   19.4812 C   0  0  0  0  0  0
  -23.8658  -29.5668   20.1446 C   0  0  0  0  0  0
  -25.4155  -36.2741   24.0240 C   0  0  1  0  0  0
  -20.6024  -28.3837   23.1063 C   0  0  2  0  0  0
  -20.6812  -26.9448   22.5430 C   0  0  0  0  0  0
  -19.5794  -26.6367   21.5233 C   0  0  0  0  0  0
  -18.1972  -26.7979   22.1612 C   0  0  0  0  0  0
  -19.1639  -28.8978   23.2715 C   0  0  0  0  0  0
  -18.9541  -30.1558   23.8779 C   0  0  0  0  0  0
  -17.6523  -30.6629   24.0541 C   0  0  0  0  0  0
  -25.9189  -34.9149   23.4843 C   0  0  0  0  0  0
  -16.5408  -29.9096   23.6365 C   0  0  0  0  0  0
  -16.7336  -28.6525   23.0377 C   0  0  0  0  0  0
  -26.4695  -31.6428   25.0684 C   0  0  0  0  0  0
  -25.3638  -31.3843   26.1201 C   0  0  0  0  0  0
  -27.0743  -30.2740   24.6897 C   0  0  0  0  0  0
  -27.6021  -32.4410   25.7575 C   0  0  0  0  0  0
  -27.5595  -37.1612   24.8411 C   0  0  0  0  0  0
  -21.4587  -29.2975   22.3332 N   0  0  0  0  0  0
  -26.4218  -37.3589   23.9468 N   0  0  0  0  0  0
  -24.8620  -30.8332   22.0700 N   0  0  0  0  0  0
  -23.4179  -28.7712   23.3223 O   0  0  0  0  0  0
  -28.1695  -24.7474   20.1534 O   0  0  0  0  0  0
  -26.5908  -34.8824   22.4524 O   0  0  0  0  0  0
  -23.6242  -32.0738   23.5748 O   0  0  0  0  0  0
  -28.7956  -21.4465   20.0522 C   0  0  0  0  0  0
  -28.3178  -22.9903   20.5646 C   0  0  0  0  0  0
  -29.2660  -19.6590   20.5978 C   0  0  0  0  0  0
  -29.1352  -21.5046   18.5742 C   0  0  0  0  0  0
  -28.3202  -17.8858   19.0366 C   0  0  0  0  0  0
  -29.2934  -17.9923   20.1253 N   0  0  0  0  0  0
  -29.8057  -19.7095   21.7061 O   0  0  0  0  0  0
  -27.9603  -22.8807   21.8551 F   0  0  0  0  0  0
  -31.2525  -14.0783   19.0427 H   0  0  0  0  0  0
  -30.7075  -13.0159   20.2827 H   0  0  0  0  0  0
  -30.1911  -12.0841   17.9926 H   0  0  0  0  0  0
  -29.3897  -13.5680   17.5472 H   0  0  0  0  0  0
  -28.4194  -11.4402   19.4567 H   0  0  0  0  0  0
  -27.5791  -12.0770   18.0550 H   0  0  0  0  0  0
  -27.3357  -14.2009   19.1070 H   0  0  0  0  0  0
  -28.9743  -13.3283   21.5335 H   0  0  0  0  0  0
  -27.9589  -14.7302   21.4834 H   0  0  0  0  0  0
  -25.2870   -9.5667   22.4741 H   0  0  0  0  0  0
  -24.0051   -7.4654   22.7464 H   0  0  0  0  0  0
  -21.0944   -8.8833   19.8917 H   0  0  0  0  0  0
  -22.3862  -10.9688   19.6114 H   0  0  0  0  0  0
  -21.2023   -7.6163   23.9738 H   0  0  0  0  0  0
  -21.1475   -6.0524   25.9085 H   0  0  0  0  0  0
  -22.0596   -2.7626   23.2833 H   0  0  0  0  0  0
  -22.4093  -11.9768   22.4931 H   0  0  0  0  0  0
  -21.0953  -13.0958   22.2648 H   0  0  0  0  0  0
  -24.5854  -15.8562   20.5398 H   0  0  0  0  0  0
  -26.2123  -15.6726   20.1203 H   0  0  0  0  0  0
  -26.7806  -32.4580   23.0629 H   0  0  0  0  0  0
  -24.9997  -33.9027   24.9721 H   0  0  0  0  0  0
  -22.9352  -31.1685   21.2500 H   0  0  0  0  0  0
  -23.3846  -35.9259   23.3106 H   0  0  0  0  0  0
  -24.3574  -36.8923   22.2096 H   0  0  0  0  0  0
  -23.7141  -37.6077   23.6893 H   0  0  0  0  0  0
  -26.4201  -30.9854   20.6397 H   0  0  0  0  0  0
  -27.0197  -30.4084   22.1303 H   0  0  0  0  0  0
  -28.2140  -27.9161   21.3797 H   0  0  0  0  0  0
  -25.7772  -25.3903   18.9682 H   0  0  0  0  0  0
  -24.1190  -27.0920   18.8942 H   0  0  0  0  0  0
  -24.0818  -30.3043   19.3706 H   0  0  0  0  0  0
  -22.9613  -29.0582   19.8087 H   0  0  0  0  0  0
  -25.1360  -36.1420   25.0713 H   0  0  0  0  0  0
  -21.0066  -28.3511   24.1211 H   0  0  0  0  0  0
  -20.5629  -26.2465   23.3739 H   0  0  0  0  0  0
  -21.6664  -26.7332   22.1264 H   0  0  0  0  0  0
  -19.6934  -25.6248   21.1335 H   0  0  0  0  0  0
  -19.6750  -27.3119   20.6724 H   0  0  0  0  0  0
  -17.4240  -26.6724   21.4019 H   0  0  0  0  0  0
  -18.0352  -26.0159   22.9042 H   0  0  0  0  0  0
  -19.8004  -30.7418   24.2098 H   0  0  0  0  0  0
  -17.5056  -31.6289   24.5180 H   0  0  0  0  0  0
  -15.5398  -30.2959   23.7770 H   0  0  0  0  0  0
  -15.8738  -28.0810   22.7161 H   0  0  0  0  0  0
  -24.5967  -30.7030   25.7513 H   0  0  0  0  0  0
  -24.8664  -32.3069   26.4184 H   0  0  0  0  0  0
  -25.7716  -30.9347   27.0260 H   0  0  0  0  0  0
  -26.3577  -29.6206   24.1913 H   0  0  0  0  0  0
  -27.4062  -29.7352   25.5782 H   0  0  0  0  0  0
  -27.9571  -30.3829   24.0599 H   0  0  0  0  0  0
  -27.2458  -33.3797   26.1834 H   0  0  0  0  0  0
  -28.4010  -32.6830   25.0559 H   0  0  0  0  0  0
  -28.0516  -31.8777   26.5766 H   0  0  0  0  0  0
  -28.2330  -38.0176   24.7810 H   0  0  0  0  0  0
  -28.1377  -36.2734   24.5797 H   0  0  0  0  0  0
  -27.2383  -37.0671   25.8802 H   0  0  0  0  0  0
  -21.0027  -29.8513   21.6213 H   0  0  0  0  0  0
  -25.9998  -38.2561   24.1705 H   0  0  0  0  0  0
  -28.7054  -22.3925   18.1077 H   0  0  0  0  0  0
  -28.7494  -20.6315   18.0490 H   0  0  0  0  0  0
  -30.2167  -21.5376   18.4420 H   0  0  0  0  0  0
  -27.5284  -18.6347   19.1066 H   0  0  0  0  0  0
  -27.8182  -16.9172   19.0190 H   0  0  0  0  0  0
  -28.8222  -18.0217   18.0776 H   0  0  0  0  0  0
  1 25  1  0  0  0
  1 30  2  0  0  0
  1 76  1  0  0  0
  2  3  1  0  0  0
  2 25  1  0  0  0
  2 79  1  0  0  0
  2 80  1  0  0  0
  3  4  1  0  0  0
  3 81  1  0  0  0
  3 82  1  0  0  0
  4  5  1  0  0  0
  4 83  1  0  0  0
  4 84  1  0  0  0
  5  6  1  0  0  0
  5 26  1  0  0  0
  5 85  1  0  0  0
  6 25  1  0  0  0
  6 86  1  0  0  0
  6 87  1  0  0  0
  7  8  2  0  0  0
  7 26  1  0  0  0
  7 29  1  0  0  0
  8  9  1  0  0  0
  8 22  1  0  0  0
  9 10  1  0  0  0
  9 27  2  0  0  0
 10 11  2  0  0  0
 10 15  1  0  0  0
 11 12  1  0  0  0
 11 88  1  0  0  0
 12 13  2  0  0  0
 12 89  1  0  0  0
 13 14  1  0  0  0
 13 31  1  0  0  0
 14 15  2  0  0  0
 14 90  1  0  0  0
 15 91  1  0  0  0
 16 17  2  0  0  0
 16 21  1  0  0  0
 16 31  1  0  0  0
 17 18  1  0  0  0
 17 92  1  0  0  0
 18 19  2  0  0  0
 18 93  1  0  0  0
 19 20  1  0  0  0
 19 24  1  0  0  0
 20 21  2  0  0  0
 20 94  1  0  0  0
 21 23  1  0  0  0
 22 28  1  0  0  0
 22 32  2  0  0  0
 26 27  1  0  0  0
 28 95  1  0  0  0
 28 96  1  0  0  0
 29 97  1  0  0  0
 29 98  1  0  0  0
 33 34  1  0  0  0
 33 66  1  0  0  0
 33 70  2  0  0  0
 34 36  1  0  0  0
 34 59  1  0  0  0
 34 99  1  0  0  0
 35 44  2  0  0  0
 35 45  1  0  0  0
 35 68  1  0  0  0
 36 56  1  0  0  0
 36100  1  0  0  0
 37 39  1  0  0  0
 37 47  1  0  0  0
 37 66  1  0  0  0
 37101  1  0  0  0
 38 43  2  0  0  0
 38 46  1  0  0  0
 38 47  1  0  0  0
 39 64  1  0  0  0
 39 67  2  0  0  0
 40 52  1  0  0  0
 40 53  2  0  0  0
 40 58  1  0  0  0
 41102  1  0  0  0
 41103  1  0  0  0
 41104  1  0  0  0
 41 48  1  0  0  0
 42 43  1  0  0  0
 42 66  1  0  0  0
 42105  1  0  0  0
 42106  1  0  0  0
 43 44  1  0  0  0
 44107  1  0  0  0
 45 46  2  0  0  0
 45108  1  0  0  0
 46109  1  0  0  0
 47110  1  0  0  0
 47111  1  0  0  0
 48 56  1  0  0  0
 48 65  1  0  0  0
 48112  1  0  0  0
 49 50  1  0  0  0
 49 53  1  0  0  0
 49 64  1  0  0  0
 49113  1  0  0  0
 50 51  1  0  0  0
 50114  1  0  0  0
 50115  1  0  0  0
 51 52  1  0  0  0
 51116  1  0  0  0
 51117  1  0  0  0
 52118  1  0  0  0
 52119  1  0  0  0
 53 54  1  0  0  0
 54 55  2  0  0  0
 54120  1  0  0  0
 55 57  1  0  0  0
 55121  1  0  0  0
 56 69  2  0  0  0
 57 58  2  0  0  0
 57122  1  0  0  0
 58123  1  0  0  0
 59 60  1  0  0  0
 59 61  1  0  0  0
 59 62  1  0  0  0
 60124  1  0  0  0
 60125  1  0  0  0
 60126  1  0  0  0
 61127  1  0  0  0
 61128  1  0  0  0
 61129  1  0  0  0
 62130  1  0  0  0
 62131  1  0  0  0
 62132  1  0  0  0
 63 65  1  0  0  0
 63133  1  0  0  0
 63134  1  0  0  0
 63135  1  0  0  0
 64136  1  0  0  0
 65137  1  0  0  0
 68 72  1  0  0  0
 71 72  2  0  0  0
 71 73  1  0  0  0
 71 74  1  0  0  0
 72 78  1  0  0  0
 73 76  1  0  0  0
 73 77  2  0  0  0
 74138  1  0  0  0
 74139  1  0  0  0
 74140  1  0  0  0
 75 76  1  0  0  0
 75141  1  0  0  0
 75142  1  0  0  0
 75143  1  0  0  0
M  ISO  4   1 100  68 101  72 101  76 100
M  END
> <chiral flag>
0

> <version>
0

> <s_m_source_file>
/data/baiqing/PycharmProjects/Reinvent-master-3.2/result/LINK_invent/BTK/process_docking_weight1_custom_sum_contain_oxygen_bond_distance_aromatic_linkinvent_7_9_3/rearranged_h_0012.sdf

> <i_m_source_file_index>
16

> <r_mmod_Potential_Energy-OPLS-2005>
5719.5654296875

> <r_mmod_Stretch_Energy-OPLS-2005>
2301.07495117188

> <r_mmod_Bend_Energy-OPLS-2005>
1035.69970703125

> <r_mmod_Torsional_Energy-OPLS-2005>
344.274719238281

> <r_mmod_Improper_Torsional_Energy-OPLS-2005>
11.1990528106689

> <r_mmod_Van_der_Waal_Energy-OPLS-2005>
112.736167907715

> <r_mmod_Electrostatic_Energy-OPLS-2005>
-284.756774902344

> <r_mmod_Solvation_Energy-OPLS-2005>
-200.38166809082

> <b_mmod_Minimization_Converged-OPLS-2005>
0

> <r_mmod_RMS_Derivative-OPLS-2005>
2.63206052780151

$$$$
16
                    3D
 Structure written by MMmdl.
154162  0  0  1  0            999 V2000
  -30.2334  -15.8307   20.3353 C   0  0  0  0  0  0
  -30.4192  -13.2366   19.5356 C   0  0  0  0  0  0
  -29.5622  -12.7004   18.3470 C   0  0  0  0  0  0
  -28.1576  -12.2907   18.8138 C   0  0  0  0  0  0
  -27.5934  -13.3231   19.8128 C   0  0  2  0  0  0
  -28.5972  -13.7445   20.9143 C   0  0  0  0  0  0
  -25.2309  -13.8298   20.5814 C   0  0  0  0  0  0
  -24.1706  -13.0427   20.9284 C   0  0  0  0  0  0
  -24.6431  -11.6945   20.8740 C   0  0  0  0  0  0
  -23.9135  -10.4287   21.0382 C   0  0  0  0  0  0
  -24.3657   -9.4205   21.9173 C   0  0  0  0  0  0
  -23.6303   -8.2251   22.0761 C   0  0  0  0  0  0
  -22.4275   -8.0297   21.3571 C   0  0  0  0  0  0
  -21.9919   -9.0272   20.4669 C   0  0  0  0  0  0
  -22.7292  -10.2129   20.3064 C   0  0  0  0  0  0
  -21.6855   -6.0739   22.5276 C   0  0  0  0  0  0
  -21.4031   -6.5641   23.8215 C   0  0  0  0  0  0
  -21.3664   -5.6792   24.9173 C   0  0  0  0  0  0
  -21.6050   -4.3057   24.7217 C   0  0  0  0  0  0
  -21.8815   -3.8141   23.4339 C   0  0  0  0  0  0
  -21.9188   -4.6962   22.3391 C   0  0  0  0  0  0
  -22.7725  -13.5137   21.1934 C   0  0  0  0  0  0
  -22.1665   -4.2159   21.0967 F   0  0  0  0  0  0
  -21.5619   -3.4543   25.7724 F   0  0  0  0  0  0
  -29.7345  -14.4340   20.2376 N   0  0  0  0  0  0
  -26.2789  -12.9672   20.3270 N   0  0  0  0  0  0
  -25.9387  -11.6720   20.5685 N   0  0  0  0  0  0
  -22.0397  -12.8113   22.0487 N   0  0  0  0  0  0
  -25.3821  -15.2040   20.4294 N   0  0  0  0  0  0
  -31.4783  -15.7316   20.2450 O   0  0  0  0  0  0
  -21.6644   -6.8883   21.4243 O   0  0  0  0  0  0
  -22.3395  -14.5451   20.6777 O   0  0  0  0  0  0
  -24.6996  -31.7878   23.1428 C   0  0  0  0  0  0
  -25.9503  -32.4435   23.8037 C   0  0  1  0  0  0
  -27.2312  -26.5550   20.2240 C   0  0  0  0  0  0
  -25.6028  -33.8266   24.1909 N   0  0  0  0  0  0
  -23.5322  -30.3829   21.5036 C   0  0  2  0  0  0
  -24.9873  -28.6970   20.1273 C   0  0  0  0  0  0
  -22.7854  -29.4219   22.4695 C   0  0  0  0  0  0
  -18.0345  -28.1412   22.8428 C   0  0  0  0  0  0
  -24.1500  -36.7172   23.2643 C   0  0  0  0  0  0
  -26.1198  -30.4726   21.4273 C   0  0  0  0  0  0
  -26.1808  -29.0198   20.7824 C   0  0  0  0  0  0
  -27.2762  -27.9822   20.7930 C   0  0  0  0  0  0
  -25.9950  -26.4839   19.5164 C   0  0  0  0  0  0
  -24.9416  -27.4559   19.4720 C   0  0  0  0  0  0
  -23.7956  -29.6766   20.1423 C   0  0  0  0  0  0
  -25.4152  -36.2894   24.0268 C   0  0  1  0  0  0
  -20.5994  -28.3796   23.1125 C   0  0  2  0  0  0
  -20.6828  -26.9448   22.5403 C   0  0  0  0  0  0
  -19.5809  -26.6352   21.5216 C   0  0  0  0  0  0
  -18.1983  -26.7934   22.1602 C   0  0  0  0  0  0
  -19.1618  -28.8935   23.2749 C   0  0  0  0  0  0
  -18.9498  -30.1498   23.8815 C   0  0  0  0  0  0
  -17.6487  -30.6599   24.0537 C   0  0  0  0  0  0
  -25.9143  -34.9283   23.4933 C   0  0  0  0  0  0
  -16.5383  -29.9058   23.6341 C   0  0  0  0  0  0
  -16.7319  -28.6483   23.0360 C   0  0  0  0  0  0
  -26.4609  -31.6516   25.0724 C   0  0  0  0  0  0
  -25.3630  -31.3901   26.1320 C   0  0  0  0  0  0
  -27.0528  -30.2833   24.6711 C   0  0  0  0  0  0
  -27.6040  -32.4398   25.7553 C   0  0  0  0  0  0
  -27.5584  -37.1740   24.8428 C   0  0  0  0  0  0
  -21.4486  -29.3020   22.3440 N   0  0  0  0  0  0
  -26.4265  -37.3673   23.9417 N   0  0  0  0  0  0
  -24.8102  -30.9176   22.0771 N   0  0  0  0  0  0
  -23.4244  -28.7840   23.3084 O   0  0  0  0  0  0
  -28.2187  -25.2952   20.2958 O   0  0  0  0  0  0
  -26.5790  -34.8857   22.4557 O   0  0  0  0  0  0
  -23.5979  -32.0990   23.6312 O   0  0  0  0  0  0
  -30.6484  -19.5351   21.1835 C   0  0  0  0  0  0
  -29.5429  -19.0182   20.4612 C   0  0  0  0  0  0
  -30.8838  -20.9238   21.5119 C   0  0  0  0  0  0
  -28.8484  -21.9992   20.3899 C   0  0  0  0  0  0
  -28.6705  -20.3713   20.1263 C   0  0  0  0  0  0
  -30.0769  -22.0687   21.1183 C   0  0  0  0  0  0
  -33.3014  -20.9771   21.7258 C   0  0  0  0  0  0
  -31.8415  -20.6400   23.6972 C   0  0  0  0  0  0
  -26.9559  -23.1920   19.1197 C   0  0  0  0  0  0
  -29.4653  -17.2410   20.2993 N   0  0  0  0  0  0
  -31.9956  -21.1786   22.3481 N   0  0  0  0  0  0
  -28.0313  -23.4400   20.0640 N   0  0  0  0  0  0
  -27.1999  -19.9348   19.3286 Cl  0  0  0  0  0  0
  -30.6379  -23.6475   21.5815 Cl  0  0  0  0  0  0
  -31.3897  -13.5387   19.1358 H   0  0  0  0  0  0
  -30.6450  -12.4399   20.2483 H   0  0  0  0  0  0
  -30.0581  -11.8624   17.8551 H   0  0  0  0  0  0
  -29.4731  -13.4856   17.5944 H   0  0  0  0  0  0
  -28.2406  -11.3222   19.3081 H   0  0  0  0  0  0
  -27.4840  -12.1590   17.9655 H   0  0  0  0  0  0
  -27.4266  -14.2134   19.2037 H   0  0  0  0  0  0
  -28.9056  -12.8962   21.5293 H   0  0  0  0  0  0
  -28.1251  -14.4492   21.6007 H   0  0  0  0  0  0
  -25.2802   -9.5668   22.4749 H   0  0  0  0  0  0
  -24.0025   -7.4639   22.7463 H   0  0  0  0  0  0
  -21.0864   -8.8812   19.8952 H   0  0  0  0  0  0
  -22.3776  -10.9674   19.6170 H   0  0  0  0  0  0
  -21.2062   -7.6158   23.9718 H   0  0  0  0  0  0
  -21.1485   -6.0526   25.9079 H   0  0  0  0  0  0
  -22.0580   -2.7609   23.2824 H   0  0  0  0  0  0
  -22.4063  -11.9822   22.4918 H   0  0  0  0  0  0
  -21.1022  -13.1131   22.2700 H   0  0  0  0  0  0
  -24.5974  -15.8372   20.5420 H   0  0  0  0  0  0
  -26.2136  -15.6594   20.0784 H   0  0  0  0  0  0
  -26.7615  -32.4846   23.0766 H   0  0  0  0  0  0
  -25.0089  -33.9295   25.0010 H   0  0  0  0  0  0
  -22.8665  -31.2252   21.3098 H   0  0  0  0  0  0
  -23.3796  -35.9457   23.3171 H   0  0  0  0  0  0
  -24.3582  -36.8996   22.2082 H   0  0  0  0  0  0
  -23.7200  -37.6292   23.6809 H   0  0  0  0  0  0
  -26.3352  -31.1886   20.6320 H   0  0  0  0  0  0
  -26.9689  -30.5481   22.0929 H   0  0  0  0  0  0
  -28.1777  -28.2545   21.3224 H   0  0  0  0  0  0
  -25.7569  -25.5643   19.0137 H   0  0  0  0  0  0
  -24.0369  -27.1971   18.9371 H   0  0  0  0  0  0
  -23.9963  -30.4400   19.3897 H   0  0  0  0  0  0
  -22.8942  -29.1659   19.7993 H   0  0  0  0  0  0
  -25.1344  -36.1650   25.0752 H   0  0  0  0  0  0
  -21.0032  -28.3401   24.1269 H   0  0  0  0  0  0
  -20.5699  -26.2409   23.3669 H   0  0  0  0  0  0
  -21.6696  -26.7383   22.1226 H   0  0  0  0  0  0
  -19.6990  -25.6234   21.1327 H   0  0  0  0  0  0
  -19.6766  -27.3096   20.6691 H   0  0  0  0  0  0
  -17.4259  -26.6643   21.3998 H   0  0  0  0  0  0
  -18.0369  -26.0103   22.9020 H   0  0  0  0  0  0
  -19.7971  -30.7324   24.2187 H   0  0  0  0  0  0
  -17.5029  -31.6277   24.5149 H   0  0  0  0  0  0
  -15.5386  -30.2935   23.7714 H   0  0  0  0  0  0
  -15.8708  -28.0766   22.7139 H   0  0  0  0  0  0
  -24.5759  -30.7337   25.7586 H   0  0  0  0  0  0
  -24.8896  -32.3167   26.4580 H   0  0  0  0  0  0
  -25.7742  -30.9119   27.0217 H   0  0  0  0  0  0
  -26.3229  -29.6452   24.1723 H   0  0  0  0  0  0
  -27.3911  -29.7294   25.5473 H   0  0  0  0  0  0
  -27.9242  -30.3931   24.0264 H   0  0  0  0  0  0
  -27.2548  -33.3734   26.1971 H   0  0  0  0  0  0
  -28.3931  -32.6939   25.0464 H   0  0  0  0  0  0
  -28.0627  -31.8671   26.5623 H   0  0  0  0  0  0
  -28.2502  -38.0130   24.7589 H   0  0  0  0  0  0
  -28.1197  -36.2681   24.6102 H   0  0  0  0  0  0
  -27.2345  -37.1172   25.8834 H   0  0  0  0  0  0
  -20.9828  -29.8667   21.6477 H   0  0  0  0  0  0
  -26.0093  -38.2712   24.1479 H   0  0  0  0  0  0
  -31.3494  -18.8041   21.5593 H   0  0  0  0  0  0
  -33.5158  -19.9131   21.6077 H   0  0  0  0  0  0
  -34.0838  -21.4030   22.3575 H   0  0  0  0  0  0
  -33.3673  -21.4663   20.7521 H   0  0  0  0  0  0
  -30.8585  -20.8804   24.1086 H   0  0  0  0  0  0
  -32.5919  -21.0521   24.3733 H   0  0  0  0  0  0
  -31.9554  -19.5545   23.6989 H   0  0  0  0  0  0
  -26.0012  -23.0579   19.6297 H   0  0  0  0  0  0
  -27.1495  -22.3214   18.4991 H   0  0  0  0  0  0
  -26.8765  -24.0117   18.4106 H   0  0  0  0  0  0
  -28.5011  -16.9944   20.1327 H   0  0  0  0  0  0
  1 25  1  0  0  0
  1 30  2  0  0  0
  1 80  1  0  0  0
  2  3  1  0  0  0
  2 25  1  0  0  0
  2 85  1  0  0  0
  2 86  1  0  0  0
  3  4  1  0  0  0
  3 87  1  0  0  0
  3 88  1  0  0  0
  4  5  1  0  0  0
  4 89  1  0  0  0
  4 90  1  0  0  0
  5  6  1  0  0  0
  5 26  1  0  0  0
  5 91  1  0  0  0
  6 25  1  0  0  0
  6 92  1  0  0  0
  6 93  1  0  0  0
  7  8  2  0  0  0
  7 26  1  0  0  0
  7 29  1  0  0  0
  8  9  1  0  0  0
  8 22  1  0  0  0
  9 10  1  0  0  0
  9 27  2  0  0  0
 10 11  2  0  0  0
 10 15  1  0  0  0
 11 12  1  0  0  0
 11 94  1  0  0  0
 12 13  2  0  0  0
 12 95  1  0  0  0
 13 14  1  0  0  0
 13 31  1  0  0  0
 14 15  2  0  0  0
 14 96  1  0  0  0
 15 97  1  0  0  0
 16 17  2  0  0  0
 16 21  1  0  0  0
 16 31  1  0  0  0
 17 18  1  0  0  0
 17 98  1  0  0  0
 18 19  2  0  0  0
 18 99  1  0  0  0
 19 20  1  0  0  0
 19 24  1  0  0  0
 20 21  2  0  0  0
 20100  1  0  0  0
 21 23  1  0  0  0
 22 28  1  0  0  0
 22 32  2  0  0  0
 26 27  1  0  0  0
 28101  1  0  0  0
 28102  1  0  0  0
 29103  1  0  0  0
 29104  1  0  0  0
 33 34  1  0  0  0
 33 66  1  0  0  0
 33 70  2  0  0  0
 34 36  1  0  0  0
 34 59  1  0  0  0
 34105  1  0  0  0
 35 44  2  0  0  0
 35 45  1  0  0  0
 35 68  1  0  0  0
 36 56  1  0  0  0
 36106  1  0  0  0
 37 39  1  0  0  0
 37 47  1  0  0  0
 37 66  1  0  0  0
 37107  1  0  0  0
 38 43  2  0  0  0
 38 46  1  0  0  0
 38 47  1  0  0  0
 39 64  1  0  0  0
 39 67  2  0  0  0
 40 52  1  0  0  0
 40 53  2  0  0  0
 40 58  1  0  0  0
 41108  1  0  0  0
 41109  1  0  0  0
 41110  1  0  0  0
 41 48  1  0  0  0
 42 43  1  0  0  0
 42 66  1  0  0  0
 42111  1  0  0  0
 42112  1  0  0  0
 43 44  1  0  0  0
 44113  1  0  0  0
 45 46  2  0  0  0
 45114  1  0  0  0
 46115  1  0  0  0
 47116  1  0  0  0
 47117  1  0  0  0
 48 56  1  0  0  0
 48 65  1  0  0  0
 48118  1  0  0  0
 49 50  1  0  0  0
 49 53  1  0  0  0
 49 64  1  0  0  0
 49119  1  0  0  0
 50 51  1  0  0  0
 50120  1  0  0  0
 50121  1  0  0  0
 51 52  1  0  0  0
 51122  1  0  0  0
 51123  1  0  0  0
 52124  1  0  0  0
 52125  1  0  0  0
 53 54  1  0  0  0
 54 55  2  0  0  0
 54126  1  0  0  0
 55 57  1  0  0  0
 55127  1  0  0  0
 56 69  2  0  0  0
 57 58  2  0  0  0
 57128  1  0  0  0
 58129  1  0  0  0
 59 60  1  0  0  0
 59 61  1  0  0  0
 59 62  1  0  0  0
 60130  1  0  0  0
 60131  1  0  0  0
 60132  1  0  0  0
 61133  1  0  0  0
 61134  1  0  0  0
 61135  1  0  0  0
 62136  1  0  0  0
 62137  1  0  0  0
 62138  1  0  0  0
 63 65  1  0  0  0
 63139  1  0  0  0
 63140  1  0  0  0
 63141  1  0  0  0
 64142  1  0  0  0
 65143  1  0  0  0
 68 82  1  0  0  0
 71 72  2  0  0  0
 71 73  1  0  0  0
 71144  1  0  0  0
 72 75  1  0  0  0
 72 80  1  0  0  0
 73 76  2  0  0  0
 73 81  1  0  0  0
 74 75  2  0  0  0
 74 76  1  0  0  0
 74 82  1  0  0  0
 75 83  1  0  0  0
 76 84  1  0  0  0
 77 81  1  0  0  0
 77145  1  0  0  0
 77146  1  0  0  0
 77147  1  0  0  0
 78 81  1  0  0  0
 78148  1  0  0  0
 78149  1  0  0  0
 78150  1  0  0  0
 79 82  1  0  0  0
 79151  1  0  0  0
 79152  1  0  0  0
 79153  1  0  0  0
 80154  1  0  0  0
M  ISO  4   1 100  68 101  80 100  82 101
M  END
> <chiral flag>
0

> <version>
0

> <s_m_source_file>
/data/baiqing/PycharmProjects/Reinvent-master-3.2/result/LINK_invent/BTK/process_docking_weight1_custom_sum_contain_oxygen_bond_distance_aromatic_linkinvent_7_9_3/rearranged_h_0012.sdf

> <i_m_source_file_index>
17

> <r_mmod_Potential_Energy-OPLS-2005>
3152.0390625

> <r_mmod_Stretch_Energy-OPLS-2005>
1357.62341308594

> <r_mmod_Bend_Energy-OPLS-2005>
701.29736328125

> <r_mmod_Torsional_Energy-OPLS-2005>
221.931350708008

> <r_mmod_Improper_Torsional_Energy-OPLS-2005>
10.2962617874146

> <r_mmod_Van_der_Waal_Energy-OPLS-2005>
136.092178344727

> <r_mmod_Electrostatic_Energy-OPLS-2005>
-248.187850952148

> <r_mmod_Solvation_Energy-OPLS-2005>
-243.139892578125

> <b_mmod_Minimization_Converged-OPLS-2005>
0

> <r_mmod_RMS_Derivative-OPLS-2005>
4.20507335662842

$$$$
17
                    3D
 Structure written by MMmdl.
151159  0  0  1  0            999 V2000
  -30.5435  -15.0319   20.3788 C   0  0  0  0  0  0
  -30.4400  -12.6409   19.4984 C   0  0  0  0  0  0
  -29.5225  -12.5281   18.2570 C   0  0  0  0  0  0
  -28.0621  -12.3014   18.6831 C   0  0  0  0  0  0
  -27.6268  -13.2532   19.8270 C   0  0  2  0  0  0
  -28.6723  -13.3310   20.9612 C   0  0  0  0  0  0
  -25.2496  -13.8239   20.5744 C   0  0  0  0  0  0
  -24.1803  -13.0460   20.9271 C   0  0  0  0  0  0
  -24.6422  -11.6941   20.8772 C   0  0  0  0  0  0
  -23.9096  -10.4314   21.0407 C   0  0  0  0  0  0
  -24.3643   -9.4220   21.9175 C   0  0  0  0  0  0
  -23.6336   -8.2243   22.0738 C   0  0  0  0  0  0
  -22.4312   -8.0285   21.3537 C   0  0  0  0  0  0
  -21.9953   -9.0257   20.4624 C   0  0  0  0  0  0
  -22.7270  -10.2150   20.3050 C   0  0  0  0  0  0
  -21.6864   -6.0760   22.5300 C   0  0  0  0  0  0
  -21.3995   -6.5652   23.8227 C   0  0  0  0  0  0
  -21.3658   -5.6796   24.9186 C   0  0  0  0  0  0
  -21.6060   -4.3067   24.7230 C   0  0  0  0  0  0
  -21.8822   -3.8164   23.4351 C   0  0  0  0  0  0
  -21.9189   -4.6991   22.3406 C   0  0  0  0  0  0
  -22.7810  -13.5228   21.1912 C   0  0  0  0  0  0
  -22.1665   -4.2185   21.0975 F   0  0  0  0  0  0
  -21.5633   -3.4540   25.7733 F   0  0  0  0  0  0
  -29.9366  -13.7652   20.3508 N   0  0  0  0  0  0
  -26.2895  -12.9464   20.3222 N   0  0  0  0  0  0
  -25.9344  -11.6594   20.5729 N   0  0  0  0  0  0
  -22.0432  -12.8205   22.0442 N   0  0  0  0  0  0
  -25.4212  -15.1964   20.4195 N   0  0  0  0  0  0
  -31.7563  -15.0280   20.1518 O   0  0  0  0  0  0
  -21.6654   -6.8899   21.4257 O   0  0  0  0  0  0
  -22.3500  -14.5523   20.6740 O   0  0  0  0  0  0
  -24.6511  -31.8364   23.1836 C   0  0  0  0  0  0
  -25.9230  -32.4671   23.8263 C   0  0  1  0  0  0
  -27.2142  -27.0569   20.1792 C   0  0  0  0  0  0
  -25.5950  -33.8492   24.2169 N   0  0  0  0  0  0
  -23.4601  -30.4512   21.5310 C   0  0  2  0  0  0
  -24.9136  -28.8695   20.1118 C   0  0  0  0  0  0
  -22.7606  -29.4469   22.4838 C   0  0  0  0  0  0
  -18.0310  -28.1389   22.8480 C   0  0  0  0  0  0
  -24.1487  -36.7227   23.2644 C   0  0  0  0  0  0
  -26.0247  -30.6826   21.3990 C   0  0  0  0  0  0
  -26.0936  -29.2891   20.7398 C   0  0  0  0  0  0
  -27.2449  -28.4025   20.7494 C   0  0  0  0  0  0
  -26.0088  -26.7605   19.5055 C   0  0  0  0  0  0
  -24.8908  -27.6225   19.4737 C   0  0  0  0  0  0
  -23.6926  -29.7798   20.1518 C   0  0  0  0  0  0
  -25.4122  -36.3025   24.0323 C   0  0  1  0  0  0
  -20.5935  -28.3703   23.1214 C   0  0  2  0  0  0
  -20.6796  -26.9398   22.5396 C   0  0  0  0  0  0
  -19.5758  -26.6352   21.5222 C   0  0  0  0  0  0
  -18.1939  -26.7924   22.1634 C   0  0  0  0  0  0
  -19.1575  -28.8867   23.2839 C   0  0  0  0  0  0
  -18.9485  -30.1469   23.8852 C   0  0  0  0  0  0
  -17.6482  -30.6584   24.0559 C   0  0  0  0  0  0
  -25.9074  -34.9399   23.5056 C   0  0  0  0  0  0
  -16.5371  -29.9067   23.6356 C   0  0  0  0  0  0
  -16.7294  -28.6494   23.0366 C   0  0  0  0  0  0
  -26.4552  -31.6561   25.0721 C   0  0  0  0  0  0
  -25.3715  -31.3801   26.1383 C   0  0  0  0  0  0
  -27.0431  -30.2938   24.6364 C   0  0  0  0  0  0
  -27.6051  -32.4354   25.7515 C   0  0  0  0  0  0
  -27.5579  -37.1740   24.8463 C   0  0  0  0  0  0
  -21.4292  -29.3019   22.3577 N   0  0  0  0  0  0
  -26.4281  -37.3734   23.9421 N   0  0  0  0  0  0
  -24.7323  -31.0117   22.0927 N   0  0  0  0  0  0
  -23.4207  -28.8032   23.3029 O   0  0  0  0  0  0
  -28.2335  -26.0138   20.2593 O   0  0  0  0  0  0
  -26.5662  -34.8902   22.4642 O   0  0  0  0  0  0
  -23.5590  -32.1299   23.6959 O   0  0  0  0  0  0
  -30.5659  -20.5747   19.3808 C   0  0  0  0  0  0
  -29.4273  -20.4274   20.1990 C   0  0  0  0  0  0
  -30.0289  -17.7775   20.1832 C   0  0  0  0  0  0
  -31.3561  -19.4857   18.9565 C   0  0  0  0  0  0
  -31.0947  -18.1412   19.3163 C   0  0  0  0  0  0
  -29.2159  -18.9771   20.6069 C   0  0  0  0  0  0
  -28.9206  -23.1505   20.3562 C   0  0  0  0  0  0
  -27.1424  -21.4757   20.6300 C   0  0  0  0  0  0
  -27.8607  -24.4666   20.1973 C   0  0  0  0  0  0
  -29.7920  -16.2587   20.5097 N   0  0  0  0  0  0
  -28.5707  -21.7332   20.4135 N   0  0  0  0  0  0
  -30.1126  -23.4629   20.4408 O   0  0  0  0  0  0
  -32.4008  -19.7445   18.1319 F   0  0  0  0  0  0
  -31.8896  -17.1991   18.7599 F   0  0  0  0  0  0
  -27.9393  -18.6081   21.7104 Cl  0  0  0  0  0  0
  -31.4699  -12.7983   19.1766 H   0  0  0  0  0  0
  -30.4463  -11.7049   20.0591 H   0  0  0  0  0  0
  -29.8518  -11.7093   17.6168 H   0  0  0  0  0  0
  -29.5952  -13.4359   17.6560 H   0  0  0  0  0  0
  -27.9789  -11.2645   19.0111 H   0  0  0  0  0  0
  -27.3938  -12.3979   17.8263 H   0  0  0  0  0  0
  -27.5749  -14.2421   19.3722 H   0  0  0  0  0  0
  -28.7827  -12.3640   21.4556 H   0  0  0  0  0  0
  -28.3583  -14.0405   21.7269 H   0  0  0  0  0  0
  -25.2778   -9.5715   22.4766 H   0  0  0  0  0  0
  -24.0065   -7.4632   22.7442 H   0  0  0  0  0  0
  -21.0886   -8.8764   19.8915 H   0  0  0  0  0  0
  -22.3705  -10.9700   19.6173 H   0  0  0  0  0  0
  -21.1952   -7.6156   23.9753 H   0  0  0  0  0  0
  -21.1489   -6.0510   25.9094 H   0  0  0  0  0  0
  -22.0592   -2.7639   23.2831 H   0  0  0  0  0  0
  -22.4059  -11.9905   22.4905 H   0  0  0  0  0  0
  -21.1014  -13.1191   22.2544 H   0  0  0  0  0  0
  -24.6665  -15.8581   20.5585 H   0  0  0  0  0  0
  -26.2705  -15.6323   20.0887 H   0  0  0  0  0  0
  -26.7290  -32.5236   23.0980 H   0  0  0  0  0  0
  -25.0116  -33.9657   25.0323 H   0  0  0  0  0  0
  -22.7663  -31.2786   21.3707 H   0  0  0  0  0  0
  -23.3783  -35.9518   23.3282 H   0  0  0  0  0  0
  -24.3586  -36.8876   22.2062 H   0  0  0  0  0  0
  -23.7179  -37.6390   23.6699 H   0  0  0  0  0  0
  -26.1953  -31.4340   20.6290 H   0  0  0  0  0  0
  -26.8887  -30.7285   22.0498 H   0  0  0  0  0  0
  -28.1416  -28.7172   21.2649 H   0  0  0  0  0  0
  -25.8899  -25.8078   19.0170 H   0  0  0  0  0  0
  -23.9972  -27.2909   18.9619 H   0  0  0  0  0  0
  -23.8350  -30.5545   19.3978 H   0  0  0  0  0  0
  -22.8070  -29.2253   19.8370 H   0  0  0  0  0  0
  -25.1307  -36.1875   25.0816 H   0  0  0  0  0  0
  -21.0047  -28.3294   24.1329 H   0  0  0  0  0  0
  -20.5696  -26.2327   23.3634 H   0  0  0  0  0  0
  -21.6652  -26.7367   22.1181 H   0  0  0  0  0  0
  -19.6920  -25.6258   21.1257 H   0  0  0  0  0  0
  -19.6702  -27.3168   20.6766 H   0  0  0  0  0  0
  -17.4211  -26.6683   21.4041 H   0  0  0  0  0  0
  -18.0305  -26.0076   22.9038 H   0  0  0  0  0  0
  -19.7961  -30.7309   24.2184 H   0  0  0  0  0  0
  -17.5032  -31.6275   24.5148 H   0  0  0  0  0  0
  -15.5373  -30.2968   23.7696 H   0  0  0  0  0  0
  -15.8690  -28.0814   22.7094 H   0  0  0  0  0  0
  -24.5843  -30.7241   25.7654 H   0  0  0  0  0  0
  -24.9001  -32.3040   26.4746 H   0  0  0  0  0  0
  -25.7944  -30.8946   27.0190 H   0  0  0  0  0  0
  -26.3084  -29.6629   24.1343 H   0  0  0  0  0  0
  -27.3992  -29.7264   25.4973 H   0  0  0  0  0  0
  -27.9030  -30.4154   23.9773 H   0  0  0  0  0  0
  -27.2599  -33.3647   26.2066 H   0  0  0  0  0  0
  -28.3883  -32.6916   25.0371 H   0  0  0  0  0  0
  -28.0725  -31.8518   26.5459 H   0  0  0  0  0  0
  -28.2533  -38.0088   24.7551 H   0  0  0  0  0  0
  -28.1136  -36.2607   24.6252 H   0  0  0  0  0  0
  -27.2315  -37.1343   25.8868 H   0  0  0  0  0  0
  -20.9521  -29.8778   21.6781 H   0  0  0  0  0  0
  -26.0160  -38.2801   24.1456 H   0  0  0  0  0  0
  -30.8347  -21.5476   19.0019 H   0  0  0  0  0  0
  -26.9183  -21.3995   21.6953 H   0  0  0  0  0  0
  -26.8359  -20.5453   20.1505 H   0  0  0  0  0  0
  -26.4881  -22.2326   20.2023 H   0  0  0  0  0  0
  -27.0570  -24.3247   20.9197 H   0  0  0  0  0  0
  -27.4208  -24.3049   19.2144 H   0  0  0  0  0  0
  -28.8526  -16.0786   20.8279 H   0  0  0  0  0  0
  1 25  1  0  0  0
  1 30  2  0  0  0
  1 80  1  0  0  0
  2  3  1  0  0  0
  2 25  1  0  0  0
  2 86  1  0  0  0
  2 87  1  0  0  0
  3  4  1  0  0  0
  3 88  1  0  0  0
  3 89  1  0  0  0
  4  5  1  0  0  0
  4 90  1  0  0  0
  4 91  1  0  0  0
  5  6  1  0  0  0
  5 26  1  0  0  0
  5 92  1  0  0  0
  6 25  1  0  0  0
  6 93  1  0  0  0
  6 94  1  0  0  0
  7  8  2  0  0  0
  7 26  1  0  0  0
  7 29  1  0  0  0
  8  9  1  0  0  0
  8 22  1  0  0  0
  9 10  1  0  0  0
  9 27  2  0  0  0
 10 11  2  0  0  0
 10 15  1  0  0  0
 11 12  1  0  0  0
 11 95  1  0  0  0
 12 13  2  0  0  0
 12 96  1  0  0  0
 13 14  1  0  0  0
 13 31  1  0  0  0
 14 15  2  0  0  0
 14 97  1  0  0  0
 15 98  1  0  0  0
 16 17  2  0  0  0
 16 21  1  0  0  0
 16 31  1  0  0  0
 17 18  1  0  0  0
 17 99  1  0  0  0
 18 19  2  0  0  0
 18100  1  0  0  0
 19 20  1  0  0  0
 19 24  1  0  0  0
 20 21  2  0  0  0
 20101  1  0  0  0
 21 23  1  0  0  0
 22 28  1  0  0  0
 22 32  2  0  0  0
 26 27  1  0  0  0
 28102  1  0  0  0
 28103  1  0  0  0
 29104  1  0  0  0
 29105  1  0  0  0
 33 34  1  0  0  0
 33 66  1  0  0  0
 33 70  2  0  0  0
 34 36  1  0  0  0
 34 59  1  0  0  0
 34106  1  0  0  0
 35 44  2  0  0  0
 35 45  1  0  0  0
 35 68  1  0  0  0
 36 56  1  0  0  0
 36107  1  0  0  0
 37 39  1  0  0  0
 37 47  1  0  0  0
 37 66  1  0  0  0
 37108  1  0  0  0
 38 43  2  0  0  0
 38 46  1  0  0  0
 38 47  1  0  0  0
 39 64  1  0  0  0
 39 67  2  0  0  0
 40 52  1  0  0  0
 40 53  2  0  0  0
 40 58  1  0  0  0
 41109  1  0  0  0
 41110  1  0  0  0
 41111  1  0  0  0
 41 48  1  0  0  0
 42 43  1  0  0  0
 42 66  1  0  0  0
 42112  1  0  0  0
 42113  1  0  0  0
 43 44  1  0  0  0
 44114  1  0  0  0
 45 46  2  0  0  0
 45115  1  0  0  0
 46116  1  0  0  0
 47117  1  0  0  0
 47118  1  0  0  0
 48 56  1  0  0  0
 48 65  1  0  0  0
 48119  1  0  0  0
 49 50  1  0  0  0
 49 53  1  0  0  0
 49 64  1  0  0  0
 49120  1  0  0  0
 50 51  1  0  0  0
 50121  1  0  0  0
 50122  1  0  0  0
 51 52  1  0  0  0
 51123  1  0  0  0
 51124  1  0  0  0
 52125  1  0  0  0
 52126  1  0  0  0
 53 54  1  0  0  0
 54 55  2  0  0  0
 54127  1  0  0  0
 55 57  1  0  0  0
 55128  1  0  0  0
 56 69  2  0  0  0
 57 58  2  0  0  0
 57129  1  0  0  0
 58130  1  0  0  0
 59 60  1  0  0  0
 59 61  1  0  0  0
 59 62  1  0  0  0
 60131  1  0  0  0
 60132  1  0  0  0
 60133  1  0  0  0
 61134  1  0  0  0
 61135  1  0  0  0
 61136  1  0  0  0
 62137  1  0  0  0
 62138  1  0  0  0
 62139  1  0  0  0
 63 65  1  0  0  0
 63140  1  0  0  0
 63141  1  0  0  0
 63142  1  0  0  0
 64143  1  0  0  0
 65144  1  0  0  0
 68 79  1  0  0  0
 71 72  2  0  0  0
 71 74  1  0  0  0
 71145  1  0  0  0
 72 76  1  0  0  0
 72 81  1  0  0  0
 73 75  1  0  0  0
 73 76  2  0  0  0
 73 80  1  0  0  0
 74 75  2  0  0  0
 74 83  1  0  0  0
 75 84  1  0  0  0
 76 85  1  0  0  0
 77 79  1  0  0  0
 77 81  1  0  0  0
 77 82  2  0  0  0
 78 81  1  0  0  0
 78146  1  0  0  0
 78147  1  0  0  0
 78148  1  0  0  0
 79149  1  0  0  0
 79150  1  0  0  0
 80151  1  0  0  0
M  ISO  4   1 100  68 101  79 101  80 100
M  END
> <chiral flag>
0

> <version>
0

> <s_m_source_file>
/data/baiqing/PycharmProjects/Reinvent-master-3.2/result/LINK_invent/BTK/process_docking_weight1_custom_sum_contain_oxygen_bond_distance_aromatic_linkinvent_7_9_3/rearranged_h_0012.sdf

> <i_m_source_file_index>
18

> <r_mmod_Potential_Energy-OPLS-2005>
720.397888183594

> <r_mmod_Stretch_Energy-OPLS-2005>
360.740478515625

> <r_mmod_Bend_Energy-OPLS-2005>
279.750244140625

> <r_mmod_Torsional_Energy-OPLS-2005>
261.812042236328

> <r_mmod_Improper_Torsional_Energy-OPLS-2005>
3.6513946056366

> <r_mmod_Van_der_Waal_Energy-OPLS-2005>
140.801406860352

> <r_mmod_Electrostatic_Energy-OPLS-2005>
-357.291168212891

> <r_mmod_Solvation_Energy-OPLS-2005>
-232.464096069336

> <b_mmod_Minimization_Converged-OPLS-2005>
0

> <r_mmod_RMS_Derivative-OPLS-2005>
3.88667774200439

$$$$
18
                    3D
 Structure written by MMmdl.
148156  0  0  1  0            999 V2000
  -30.5122  -14.9218   20.4210 C   0  0  0  0  0  0
  -30.4531  -12.5665   19.4870 C   0  0  0  0  0  0
  -29.5248  -12.5329   18.2489 C   0  0  0  0  0  0
  -28.0554  -12.3215   18.6638 C   0  0  0  0  0  0
  -27.6372  -13.2379   19.8425 C   0  0  2  0  0  0
  -28.6832  -13.2237   20.9788 C   0  0  0  0  0  0
  -25.2494  -13.8187   20.5681 C   0  0  0  0  0  0
  -24.1803  -13.0433   20.9229 C   0  0  0  0  0  0
  -24.6403  -11.6915   20.8752 C   0  0  0  0  0  0
  -23.9077  -10.4290   21.0406 C   0  0  0  0  0  0
  -24.3623   -9.4205   21.9184 C   0  0  0  0  0  0
  -23.6292   -8.2244   22.0754 C   0  0  0  0  0  0
  -22.4273   -8.0285   21.3544 C   0  0  0  0  0  0
  -21.9912   -9.0261   20.4649 C   0  0  0  0  0  0
  -22.7246  -10.2135   20.3058 C   0  0  0  0  0  0
  -21.6854   -6.0731   22.5275 C   0  0  0  0  0  0
  -21.4015   -6.5633   23.8208 C   0  0  0  0  0  0
  -21.3662   -5.6786   24.9171 C   0  0  0  0  0  0
  -21.6044   -4.3049   24.7222 C   0  0  0  0  0  0
  -21.8820   -3.8140   23.4345 C   0  0  0  0  0  0
  -21.9192   -4.6957   22.3399 C   0  0  0  0  0  0
  -22.7822  -13.5216   21.1875 C   0  0  0  0  0  0
  -22.1662   -4.2142   21.0977 F   0  0  0  0  0  0
  -21.5629   -3.4536   25.7739 F   0  0  0  0  0  0
  -29.9663  -13.6413   20.3934 N   0  0  0  0  0  0
  -26.2920  -12.9402   20.3233 N   0  0  0  0  0  0
  -25.9333  -11.6544   20.5726 N   0  0  0  0  0  0
  -22.0461  -12.8217   22.0433 N   0  0  0  0  0  0
  -25.4154  -15.1905   20.4032 N   0  0  0  0  0  0
  -31.7048  -15.0554   20.1240 O   0  0  0  0  0  0
  -21.6639   -6.8880   21.4240 O   0  0  0  0  0  0
  -22.3514  -14.5518   20.6710 O   0  0  0  0  0  0
  -24.6443  -31.8448   23.1896 C   0  0  0  0  0  0
  -25.9216  -32.4698   23.8287 C   0  0  1  0  0  0
  -27.2194  -27.1412   20.1396 C   0  0  0  0  0  0
  -25.5963  -33.8505   24.2200 N   0  0  0  0  0  0
  -23.4478  -30.4658   21.5355 C   0  0  2  0  0  0
  -24.8972  -28.8971   20.1102 C   0  0  0  0  0  0
  -22.7577  -29.4550   22.4860 C   0  0  0  0  0  0
  -18.0311  -28.1393   22.8478 C   0  0  0  0  0  0
  -24.1495  -36.7256   23.2642 C   0  0  0  0  0  0
  -26.0052  -30.7192   21.3896 C   0  0  0  0  0  0
  -26.0767  -29.3319   20.7282 C   0  0  0  0  0  0
  -27.2386  -28.4703   20.7274 C   0  0  0  0  0  0
  -26.0107  -26.8123   19.4826 C   0  0  0  0  0  0
  -24.8768  -27.6494   19.4737 C   0  0  0  0  0  0
  -23.6743  -29.7989   20.1540 C   0  0  0  0  0  0
  -25.4127  -36.3034   24.0315 C   0  0  1  0  0  0
  -20.5925  -28.3720   23.1235 C   0  0  2  0  0  0
  -20.6794  -26.9423   22.5404 C   0  0  0  0  0  0
  -19.5763  -26.6377   21.5215 C   0  0  0  0  0  0
  -18.1947  -26.7930   22.1628 C   0  0  0  0  0  0
  -19.1569  -28.8877   23.2847 C   0  0  0  0  0  0
  -18.9480  -30.1472   23.8872 C   0  0  0  0  0  0
  -17.6474  -30.6587   24.0560 C   0  0  0  0  0  0
  -25.9076  -34.9406   23.5066 C   0  0  0  0  0  0
  -16.5368  -29.9079   23.6333 C   0  0  0  0  0  0
  -16.7296  -28.6499   23.0353 C   0  0  0  0  0  0
  -26.4529  -31.6564   25.0728 C   0  0  0  0  0  0
  -25.3706  -31.3765   26.1420 C   0  0  0  0  0  0
  -27.0385  -30.2951   24.6320 C   0  0  0  0  0  0
  -27.6061  -32.4328   25.7511 C   0  0  0  0  0  0
  -27.5573  -37.1796   24.8471 C   0  0  0  0  0  0
  -21.4268  -29.3048   22.3606 N   0  0  0  0  0  0
  -26.4295  -37.3739   23.9395 N   0  0  0  0  0  0
  -24.7189  -31.0306   22.0930 N   0  0  0  0  0  0
  -23.4222  -28.8090   23.3003 O   0  0  0  0  0  0
  -28.2628  -26.1435   20.2061 O   0  0  0  0  0  0
  -26.5660  -34.8903   22.4643 O   0  0  0  0  0  0
  -23.5560  -32.1329   23.7109 O   0  0  0  0  0  0
  -30.5556  -18.5556   20.3651 C   0  0  0  0  0  0
  -30.2820  -19.9982   20.2907 C   0  0  0  0  0  0
  -28.2396  -18.1427   20.4896 C   0  0  0  0  0  0
  -29.5376  -17.5370   20.4734 C   0  0  0  0  0  0
  -28.9593  -20.5786   20.3041 C   0  0  0  0  0  0
  -27.9644  -19.5572   20.3992 C   0  0  0  0  0  0
  -28.9304  -23.3609   20.2667 C   0  0  0  0  0  0
  -27.9099  -24.6404   20.0006 C   0  0  0  0  0  0
  -28.4680  -22.0258   20.1786 N   0  0  0  0  0  0
  -29.6243  -16.0086   20.6072 N   0  0  0  0  0  0
  -30.1122  -23.5927   20.5350 O   0  0  0  0  0  0
  -26.6671  -19.9507   20.4038 F   0  0  0  0  0  0
  -31.4844  -12.7383   19.1752 H   0  0  0  0  0  0
  -30.4520  -11.6030   19.9989 H   0  0  0  0  0  0
  -29.8366  -11.7451   17.5617 H   0  0  0  0  0  0
  -29.6166  -13.4710   17.6997 H   0  0  0  0  0  0
  -27.9406  -11.2757   18.9515 H   0  0  0  0  0  0
  -27.3953  -12.4769   17.8097 H   0  0  0  0  0  0
  -27.6101  -14.2476   19.4324 H   0  0  0  0  0  0
  -28.7617  -12.2309   21.4245 H   0  0  0  0  0  0
  -28.3859  -13.8962   21.7849 H   0  0  0  0  0  0
  -25.2767   -9.5674   22.4762 H   0  0  0  0  0  0
  -23.9995   -7.4633   22.7476 H   0  0  0  0  0  0
  -21.0839   -8.8784   19.8959 H   0  0  0  0  0  0
  -22.3705  -10.9676   19.6171 H   0  0  0  0  0  0
  -21.2010   -7.6141   23.9709 H   0  0  0  0  0  0
  -21.1483   -6.0517   25.9072 H   0  0  0  0  0  0
  -22.0596   -2.7603   23.2848 H   0  0  0  0  0  0
  -22.4073  -11.9888   22.4838 H   0  0  0  0  0  0
  -21.1080  -13.1251   22.2629 H   0  0  0  0  0  0
  -24.6299  -15.8279   20.4806 H   0  0  0  0  0  0
  -26.2201  -15.6099   19.9582 H   0  0  0  0  0  0
  -26.7284  -32.5304   23.1019 H   0  0  0  0  0  0
  -25.0087  -33.9620   25.0332 H   0  0  0  0  0  0
  -22.7507  -31.2922   21.3828 H   0  0  0  0  0  0
  -23.3749  -35.9597   23.3319 H   0  0  0  0  0  0
  -24.3573  -36.8871   22.2053 H   0  0  0  0  0  0
  -23.7267  -37.6465   23.6669 H   0  0  0  0  0  0
  -26.1638  -31.4760   20.6202 H   0  0  0  0  0  0
  -26.8746  -30.7664   22.0337 H   0  0  0  0  0  0
  -28.1353  -28.7977   21.2346 H   0  0  0  0  0  0
  -25.8960  -25.8642   18.9812 H   0  0  0  0  0  0
  -23.9771  -27.3112   18.9782 H   0  0  0  0  0  0
  -23.8123  -30.5751   19.4004 H   0  0  0  0  0  0
  -22.7889  -29.2427   19.8418 H   0  0  0  0  0  0
  -25.1316  -36.1868   25.0809 H   0  0  0  0  0  0
  -21.0023  -28.3313   24.1353 H   0  0  0  0  0  0
  -20.5685  -26.2336   23.3623 H   0  0  0  0  0  0
  -21.6660  -26.7422   22.1202 H   0  0  0  0  0  0
  -19.6920  -25.6282   21.1257 H   0  0  0  0  0  0
  -19.6691  -27.3176   20.6736 H   0  0  0  0  0  0
  -17.4212  -26.6677   21.4036 H   0  0  0  0  0  0
  -18.0343  -26.0079   22.9031 H   0  0  0  0  0  0
  -19.7955  -30.7300   24.2228 H   0  0  0  0  0  0
  -17.5024  -31.6263   24.5165 H   0  0  0  0  0  0
  -15.5366  -30.2968   23.7664 H   0  0  0  0  0  0
  -15.8700  -28.0805   22.7076 H   0  0  0  0  0  0
  -24.5890  -30.7107   25.7742 H   0  0  0  0  0  0
  -24.8890  -32.2951   26.4780 H   0  0  0  0  0  0
  -25.7980  -30.8981   27.0239 H   0  0  0  0  0  0
  -26.3004  -29.6679   24.1307 H   0  0  0  0  0  0
  -27.3959  -29.7249   25.4905 H   0  0  0  0  0  0
  -27.8931  -30.4168   23.9663 H   0  0  0  0  0  0
  -27.2655  -33.3642   26.2046 H   0  0  0  0  0  0
  -28.3893  -32.6869   25.0356 H   0  0  0  0  0  0
  -28.0707  -31.8484   26.5461 H   0  0  0  0  0  0
  -28.2614  -38.0066   24.7468 H   0  0  0  0  0  0
  -28.1045  -36.2596   24.6362 H   0  0  0  0  0  0
  -27.2283  -37.1523   25.8873 H   0  0  0  0  0  0
  -20.9479  -29.8766   21.6786 H   0  0  0  0  0  0
  -26.0164  -38.2816   24.1359 H   0  0  0  0  0  0
  -31.5893  -18.2394   20.3456 H   0  0  0  0  0  0
  -31.1257  -20.6684   20.2073 H   0  0  0  0  0  0
  -27.3790  -17.4966   20.5727 H   0  0  0  0  0  0
  -27.0217  -24.4352   20.5988 H   0  0  0  0  0  0
  -27.6067  -24.5279   18.9598 H   0  0  0  0  0  0
  -27.4699  -22.0293   20.0105 H   0  0  0  0  0  0
  -28.7206  -15.6158   20.8204 H   0  0  0  0  0  0
  1 25  1  0  0  0
  1 30  2  0  0  0
  1 80  1  0  0  0
  2  3  1  0  0  0
  2 25  1  0  0  0
  2 83  1  0  0  0
  2 84  1  0  0  0
  3  4  1  0  0  0
  3 85  1  0  0  0
  3 86  1  0  0  0
  4  5  1  0  0  0
  4 87  1  0  0  0
  4 88  1  0  0  0
  5  6  1  0  0  0
  5 26  1  0  0  0
  5 89  1  0  0  0
  6 25  1  0  0  0
  6 90  1  0  0  0
  6 91  1  0  0  0
  7  8  2  0  0  0
  7 26  1  0  0  0
  7 29  1  0  0  0
  8  9  1  0  0  0
  8 22  1  0  0  0
  9 10  1  0  0  0
  9 27  2  0  0  0
 10 11  2  0  0  0
 10 15  1  0  0  0
 11 12  1  0  0  0
 11 92  1  0  0  0
 12 13  2  0  0  0
 12 93  1  0  0  0
 13 14  1  0  0  0
 13 31  1  0  0  0
 14 15  2  0  0  0
 14 94  1  0  0  0
 15 95  1  0  0  0
 16 17  2  0  0  0
 16 21  1  0  0  0
 16 31  1  0  0  0
 17 18  1  0  0  0
 17 96  1  0  0  0
 18 19  2  0  0  0
 18 97  1  0  0  0
 19 20  1  0  0  0
 19 24  1  0  0  0
 20 21  2  0  0  0
 20 98  1  0  0  0
 21 23  1  0  0  0
 22 28  1  0  0  0
 22 32  2  0  0  0
 26 27  1  0  0  0
 28 99  1  0  0  0
 28100  1  0  0  0
 29101  1  0  0  0
 29102  1  0  0  0
 33 34  1  0  0  0
 33 66  1  0  0  0
 33 70  2  0  0  0
 34 36  1  0  0  0
 34 59  1  0  0  0
 34103  1  0  0  0
 35 44  2  0  0  0
 35 45  1  0  0  0
 35 68  1  0  0  0
 36 56  1  0  0  0
 36104  1  0  0  0
 37 39  1  0  0  0
 37 47  1  0  0  0
 37 66  1  0  0  0
 37105  1  0  0  0
 38 43  2  0  0  0
 38 46  1  0  0  0
 38 47  1  0  0  0
 39 64  1  0  0  0
 39 67  2  0  0  0
 40 52  1  0  0  0
 40 53  2  0  0  0
 40 58  1  0  0  0
 41106  1  0  0  0
 41107  1  0  0  0
 41108  1  0  0  0
 41 48  1  0  0  0
 42 43  1  0  0  0
 42 66  1  0  0  0
 42109  1  0  0  0
 42110  1  0  0  0
 43 44  1  0  0  0
 44111  1  0  0  0
 45 46  2  0  0  0
 45112  1  0  0  0
 46113  1  0  0  0
 47114  1  0  0  0
 47115  1  0  0  0
 48 56  1  0  0  0
 48 65  1  0  0  0
 48116  1  0  0  0
 49 50  1  0  0  0
 49 53  1  0  0  0
 49 64  1  0  0  0
 49117  1  0  0  0
 50 51  1  0  0  0
 50118  1  0  0  0
 50119  1  0  0  0
 51 52  1  0  0  0
 51120  1  0  0  0
 51121  1  0  0  0
 52122  1  0  0  0
 52123  1  0  0  0
 53 54  1  0  0  0
 54 55  2  0  0  0
 54124  1  0  0  0
 55 57  1  0  0  0
 55125  1  0  0  0
 56 69  2  0  0  0
 57 58  2  0  0  0
 57126  1  0  0  0
 58127  1  0  0  0
 59 60  1  0  0  0
 59 61  1  0  0  0
 59 62  1  0  0  0
 60128  1  0  0  0
 60129  1  0  0  0
 60130  1  0  0  0
 61131  1  0  0  0
 61132  1  0  0  0
 61133  1  0  0  0
 62134  1  0  0  0
 62135  1  0  0  0
 62136  1  0  0  0
 63 65  1  0  0  0
 63137  1  0  0  0
 63138  1  0  0  0
 63139  1  0  0  0
 64140  1  0  0  0
 65141  1  0  0  0
 68 78  1  0  0  0
 71 72  2  0  0  0
 71 74  1  0  0  0
 71142  1  0  0  0
 72 75  1  0  0  0
 72143  1  0  0  0
 73 74  2  0  0  0
 73 76  1  0  0  0
 73144  1  0  0  0
 74 80  1  0  0  0
 75 76  2  0  0  0
 75 79  1  0  0  0
 76 82  1  0  0  0
 77 78  1  0  0  0
 77 79  1  0  0  0
 77 81  2  0  0  0
 78145  1  0  0  0
 78146  1  0  0  0
 79147  1  0  0  0
 80148  1  0  0  0
M  ISO  4   1 100  68 101  78 101  80 100
M  END
> <chiral flag>
0

> <version>
0

> <s_m_source_file>
/data/baiqing/PycharmProjects/Reinvent-master-3.2/result/LINK_invent/BTK/process_docking_weight1_custom_sum_contain_oxygen_bond_distance_aromatic_linkinvent_7_9_3/rearranged_h_0012.sdf

> <i_m_source_file_index>
19

> <r_mmod_Potential_Energy-OPLS-2005>
408.086791992188

> <r_mmod_Stretch_Energy-OPLS-2005>
218.79460144043

> <r_mmod_Bend_Energy-OPLS-2005>
281.798767089844

> <r_mmod_Torsional_Energy-OPLS-2005>
220.497772216797

> <r_mmod_Improper_Torsional_Energy-OPLS-2005>
5.07187652587891

> <r_mmod_Van_der_Waal_Energy-OPLS-2005>
130.193206787109

> <r_mmod_Electrostatic_Energy-OPLS-2005>
-389.395721435547

> <r_mmod_Solvation_Energy-OPLS-2005>
-242.372695922852

> <b_mmod_Minimization_Converged-OPLS-2005>
0

> <r_mmod_RMS_Derivative-OPLS-2005>
0.813941478729248

$$$$
19
                    3D
 Structure written by MMmdl.
158166  0  0  1  0            999 V2000
  -30.4980  -14.9552   20.4371 C   0  0  0  0  0  0
  -30.4520  -12.5846   19.5174 C   0  0  0  0  0  0
  -29.5380  -12.5409   18.2694 C   0  0  0  0  0  0
  -28.0640  -12.3355   18.6720 C   0  0  0  0  0  0
  -27.6361  -13.2526   19.8467 C   0  0  2  0  0  0
  -28.6738  -13.2510   20.9901 C   0  0  0  0  0  0
  -25.2459  -13.8243   20.5710 C   0  0  0  0  0  0
  -24.1770  -13.0471   20.9231 C   0  0  0  0  0  0
  -24.6385  -11.6956   20.8760 C   0  0  0  0  0  0
  -23.9053  -10.4332   21.0401 C   0  0  0  0  0  0
  -24.3594   -9.4261   21.9187 C   0  0  0  0  0  0
  -23.6293   -8.2282   22.0756 C   0  0  0  0  0  0
  -22.4291   -8.0292   21.3535 C   0  0  0  0  0  0
  -21.9906   -9.0268   20.4655 C   0  0  0  0  0  0
  -22.7214  -10.2157   20.3069 C   0  0  0  0  0  0
  -21.6871   -6.0738   22.5282 C   0  0  0  0  0  0
  -21.4025   -6.5637   23.8217 C   0  0  0  0  0  0
  -21.3675   -5.6779   24.9177 C   0  0  0  0  0  0
  -21.6057   -4.3040   24.7223 C   0  0  0  0  0  0
  -21.8805   -3.8140   23.4339 C   0  0  0  0  0  0
  -21.9183   -4.6958   22.3403 C   0  0  0  0  0  0
  -22.7785  -13.5253   21.1859 C   0  0  0  0  0  0
  -22.1645   -4.2147   21.0974 F   0  0  0  0  0  0
  -21.5634   -3.4527   25.7733 F   0  0  0  0  0  0
  -29.9585  -13.6693   20.4113 N   0  0  0  0  0  0
  -26.2900  -12.9481   20.3257 N   0  0  0  0  0  0
  -25.9326  -11.6606   20.5739 N   0  0  0  0  0  0
  -22.0372  -12.8320   22.0435 N   0  0  0  0  0  0
  -25.4109  -15.1971   20.4128 N   0  0  0  0  0  0
  -31.6840  -15.0876   20.1114 O   0  0  0  0  0  0
  -21.6660   -6.8892   21.4248 O   0  0  0  0  0  0
  -22.3488  -14.5545   20.6656 O   0  0  0  0  0  0
  -24.6427  -31.8478   23.1850 C   0  0  0  0  0  0
  -25.9199  -32.4716   23.8268 C   0  0  1  0  0  0
  -27.2234  -27.1676   20.1627 C   0  0  0  0  0  0
  -25.5938  -33.8523   24.2184 N   0  0  0  0  0  0
  -23.4463  -30.4660   21.5310 C   0  0  2  0  0  0
  -24.8962  -28.8937   20.1131 C   0  0  0  0  0  0
  -22.7606  -29.4549   22.4857 C   0  0  0  0  0  0
  -18.0324  -28.1384   22.8489 C   0  0  0  0  0  0
  -24.1489  -36.7272   23.2641 C   0  0  0  0  0  0
  -26.0026  -30.7323   21.3805 C   0  0  0  0  0  0
  -26.0743  -29.3453   20.7265 C   0  0  0  0  0  0
  -27.2432  -28.5020   20.7259 C   0  0  0  0  0  0
  -26.0196  -26.8012   19.5270 C   0  0  0  0  0  0
  -24.8805  -27.6345   19.4956 C   0  0  0  0  0  0
  -23.6726  -29.7956   20.1508 C   0  0  0  0  0  0
  -25.4115  -36.3055   24.0324 C   0  0  1  0  0  0
  -20.5949  -28.3699   23.1250 C   0  0  2  0  0  0
  -20.6809  -26.9403   22.5419 C   0  0  0  0  0  0
  -19.5765  -26.6368   21.5243 C   0  0  0  0  0  0
  -18.1947  -26.7923   22.1645 C   0  0  0  0  0  0
  -19.1588  -28.8865   23.2859 C   0  0  0  0  0  0
  -18.9490  -30.1471   23.8863 C   0  0  0  0  0  0
  -17.6477  -30.6582   24.0561 C   0  0  0  0  0  0
  -25.9068  -34.9435   23.5071 C   0  0  0  0  0  0
  -16.5369  -29.9074   23.6331 C   0  0  0  0  0  0
  -16.7307  -28.6505   23.0339 C   0  0  0  0  0  0
  -26.4500  -31.6571   25.0707 C   0  0  0  0  0  0
  -25.3662  -31.3790   26.1384 C   0  0  0  0  0  0
  -27.0326  -30.2954   24.6274 C   0  0  0  0  0  0
  -27.6046  -32.4311   25.7499 C   0  0  0  0  0  0
  -27.5592  -37.1780   24.8460 C   0  0  0  0  0  0
  -21.4295  -29.3023   22.3622 N   0  0  0  0  0  0
  -26.4286  -37.3765   23.9421 N   0  0  0  0  0  0
  -24.7167  -31.0383   22.0863 N   0  0  0  0  0  0
  -23.4268  -28.8104   23.3001 O   0  0  0  0  0  0
  -28.2815  -26.1986   20.1717 O   0  0  0  0  0  0
  -26.5681  -34.8938   22.4663 O   0  0  0  0  0  0
  -23.5541  -32.1335   23.7077 O   0  0  0  0  0  0
  -30.2290  -18.5433   19.7914 C   0  0  0  0  0  0
  -28.4155  -19.6851   21.5193 C   0  0  0  0  0  0
  -30.0020  -19.9979   19.8089 C   0  0  0  0  0  0
  -29.5703  -17.5871   20.6477 C   0  0  0  0  0  0
  -29.0813  -20.6691   20.7057 C   0  0  0  0  0  0
  -28.6352  -18.2469   21.5067 C   0  0  0  0  0  0
  -28.6880  -23.3721   20.1957 C   0  0  0  0  0  0
  -30.8142  -20.8359   18.8399 C   0  0  0  0  0  0
  -28.7235  -22.4552   22.4317 C   0  0  0  0  0  0
  -27.2764  -17.9494   23.4719 C   0  0  0  0  0  0
  -28.0256  -24.7947   20.7669 C   0  0  0  0  0  0
  -29.6299  -16.0482   20.6910 N   0  0  0  0  0  0
  -28.8470  -22.1844   20.9894 N   0  0  0  0  0  0
  -29.0087  -23.3689   19.0030 O   0  0  0  0  0  0
  -27.9474  -17.3957   22.3480 O   0  0  0  0  0  0
  -31.4888  -12.7419   19.2190 H   0  0  0  0  0  0
  -30.4393  -11.6280   20.0416 H   0  0  0  0  0  0
  -29.8626  -11.7441   17.5999 H   0  0  0  0  0  0
  -29.6404  -13.4705   17.7084 H   0  0  0  0  0  0
  -27.9511  -11.2938   18.9670 H   0  0  0  0  0  0
  -27.4111  -12.4804   17.8109 H   0  0  0  0  0  0
  -27.6078  -14.2631   19.4342 H   0  0  0  0  0  0
  -28.7530  -12.2690   21.4594 H   0  0  0  0  0  0
  -28.3655  -13.9401   21.7783 H   0  0  0  0  0  0
  -25.2712   -9.5771   22.4785 H   0  0  0  0  0  0
  -24.0002   -7.4694   22.7492 H   0  0  0  0  0  0
  -21.0827   -8.8777   19.8990 H   0  0  0  0  0  0
  -22.3632  -10.9688   19.6195 H   0  0  0  0  0  0
  -21.2030   -7.6137   23.9727 H   0  0  0  0  0  0
  -21.1516   -6.0505   25.9079 H   0  0  0  0  0  0
  -22.0569   -2.7598   23.2829 H   0  0  0  0  0  0
  -22.3874  -11.9999   22.4936 H   0  0  0  0  0  0
  -21.0990  -13.1429   22.2554 H   0  0  0  0  0  0
  -24.6337  -15.8421   20.5113 H   0  0  0  0  0  0
  -26.2604  -15.6474   20.0970 H   0  0  0  0  0  0
  -26.7288  -32.5333   23.1022 H   0  0  0  0  0  0
  -24.9987  -33.9627   25.0260 H   0  0  0  0  0  0
  -22.7460  -31.2893   21.3771 H   0  0  0  0  0  0
  -23.3784  -35.9572   23.3240 H   0  0  0  0  0  0
  -24.3599  -36.8959   22.2075 H   0  0  0  0  0  0
  -23.7194  -37.6430   23.6706 H   0  0  0  0  0  0
  -26.1647  -31.4875   20.6101 H   0  0  0  0  0  0
  -26.8737  -30.7772   22.0226 H   0  0  0  0  0  0
  -28.1493  -28.8497   21.2029 H   0  0  0  0  0  0
  -25.9471  -25.8288   19.0635 H   0  0  0  0  0  0
  -23.9847  -27.2812   19.0026 H   0  0  0  0  0  0
  -23.8107  -30.5718   19.3970 H   0  0  0  0  0  0
  -22.7878  -29.2383   19.8374 H   0  0  0  0  0  0
  -25.1293  -36.1889   25.0817 H   0  0  0  0  0  0
  -21.0053  -28.3281   24.1362 H   0  0  0  0  0  0
  -20.5742  -26.2296   23.3627 H   0  0  0  0  0  0
  -21.6661  -26.7413   22.1177 H   0  0  0  0  0  0
  -19.6915  -25.6285   21.1256 H   0  0  0  0  0  0
  -19.6698  -27.3191   20.6787 H   0  0  0  0  0  0
  -17.4222  -26.6700   21.4038 H   0  0  0  0  0  0
  -18.0319  -26.0077   22.9052 H   0  0  0  0  0  0
  -19.7962  -30.7329   24.2187 H   0  0  0  0  0  0
  -17.5016  -31.6252   24.5178 H   0  0  0  0  0  0
  -15.5362  -30.2948   23.7668 H   0  0  0  0  0  0
  -15.8719  -28.0824   22.7008 H   0  0  0  0  0  0
  -24.5822  -30.7166   25.7687 H   0  0  0  0  0  0
  -24.8871  -32.2990   26.4759 H   0  0  0  0  0  0
  -25.7925  -30.8975   27.0191 H   0  0  0  0  0  0
  -26.2906  -29.6701   24.1289 H   0  0  0  0  0  0
  -27.3925  -29.7253   25.4850 H   0  0  0  0  0  0
  -27.8845  -30.4182   23.9578 H   0  0  0  0  0  0
  -27.2653  -33.3632   26.2047 H   0  0  0  0  0  0
  -28.3891  -32.6830   25.0345 H   0  0  0  0  0  0
  -28.0664  -31.8426   26.5441 H   0  0  0  0  0  0
  -28.2564  -38.0124   24.7560 H   0  0  0  0  0  0
  -28.1132  -36.2657   24.6198 H   0  0  0  0  0  0
  -27.2332  -37.1317   25.8867 H   0  0  0  0  0  0
  -20.9500  -29.8736   21.6806 H   0  0  0  0  0  0
  -26.0165  -38.2837   24.1431 H   0  0  0  0  0  0
  -30.9360  -18.1485   19.0753 H   0  0  0  0  0  0
  -27.6804  -20.0716   22.2081 H   0  0  0  0  0  0
  -31.6468  -20.2672   18.4254 H   0  0  0  0  0  0
  -31.2317  -21.7126   19.3324 H   0  0  0  0  0  0
  -30.1846  -21.1665   18.0134 H   0  0  0  0  0  0
  -27.6777  -22.5457   22.7284 H   0  0  0  0  0  0
  -29.2597  -23.3506   22.7425 H   0  0  0  0  0  0
  -29.1775  -21.6718   23.0398 H   0  0  0  0  0  0
  -27.0545  -17.1519   24.1815 H   0  0  0  0  0  0
  -26.3311  -18.4110   23.1831 H   0  0  0  0  0  0
  -27.8890  -18.6828   24.0004 H   0  0  0  0  0  0
  -28.2723  -24.9284   21.8172 H   0  0  0  0  0  0
  -26.9519  -24.6149   20.7808 H   0  0  0  0  0  0
  -28.7585  -15.6866   21.0527 H   0  0  0  0  0  0
  1 25  1  0  0  0
  1 30  2  0  0  0
  1 82  1  0  0  0
  2  3  1  0  0  0
  2 25  1  0  0  0
  2 86  1  0  0  0
  2 87  1  0  0  0
  3  4  1  0  0  0
  3 88  1  0  0  0
  3 89  1  0  0  0
  4  5  1  0  0  0
  4 90  1  0  0  0
  4 91  1  0  0  0
  5  6  1  0  0  0
  5 26  1  0  0  0
  5 92  1  0  0  0
  6 25  1  0  0  0
  6 93  1  0  0  0
  6 94  1  0  0  0
  7  8  2  0  0  0
  7 26  1  0  0  0
  7 29  1  0  0  0
  8  9  1  0  0  0
  8 22  1  0  0  0
  9 10  1  0  0  0
  9 27  2  0  0  0
 10 11  2  0  0  0
 10 15  1  0  0  0
 11 12  1  0  0  0
 11 95  1  0  0  0
 12 13  2  0  0  0
 12 96  1  0  0  0
 13 14  1  0  0  0
 13 31  1  0  0  0
 14 15  2  0  0  0
 14 97  1  0  0  0
 15 98  1  0  0  0
 16 17  2  0  0  0
 16 21  1  0  0  0
 16 31  1  0  0  0
 17 18  1  0  0  0
 17 99  1  0  0  0
 18 19  2  0  0  0
 18100  1  0  0  0
 19 20  1  0  0  0
 19 24  1  0  0  0
 20 21  2  0  0  0
 20101  1  0  0  0
 21 23  1  0  0  0
 22 28  1  0  0  0
 22 32  2  0  0  0
 26 27  1  0  0  0
 28102  1  0  0  0
 28103  1  0  0  0
 29104  1  0  0  0
 29105  1  0  0  0
 33 34  1  0  0  0
 33 66  1  0  0  0
 33 70  2  0  0  0
 34 36  1  0  0  0
 34 59  1  0  0  0
 34106  1  0  0  0
 35 44  2  0  0  0
 35 45  1  0  0  0
 35 68  1  0  0  0
 36 56  1  0  0  0
 36107  1  0  0  0
 37 39  1  0  0  0
 37 47  1  0  0  0
 37 66  1  0  0  0
 37108  1  0  0  0
 38 43  2  0  0  0
 38 46  1  0  0  0
 38 47  1  0  0  0
 39 64  1  0  0  0
 39 67  2  0  0  0
 40 52  1  0  0  0
 40 53  2  0  0  0
 40 58  1  0  0  0
 41109  1  0  0  0
 41110  1  0  0  0
 41111  1  0  0  0
 41 48  1  0  0  0
 42 43  1  0  0  0
 42 66  1  0  0  0
 42112  1  0  0  0
 42113  1  0  0  0
 43 44  1  0  0  0
 44114  1  0  0  0
 45 46  2  0  0  0
 45115  1  0  0  0
 46116  1  0  0  0
 47117  1  0  0  0
 47118  1  0  0  0
 48 56  1  0  0  0
 48 65  1  0  0  0
 48119  1  0  0  0
 49 50  1  0  0  0
 49 53  1  0  0  0
 49 64  1  0  0  0
 49120  1  0  0  0
 50 51  1  0  0  0
 50121  1  0  0  0
 50122  1  0  0  0
 51 52  1  0  0  0
 51123  1  0  0  0
 51124  1  0  0  0
 52125  1  0  0  0
 52126  1  0  0  0
 53 54  1  0  0  0
 54 55  2  0  0  0
 54127  1  0  0  0
 55 57  1  0  0  0
 55128  1  0  0  0
 56 69  2  0  0  0
 57 58  2  0  0  0
 57129  1  0  0  0
 58130  1  0  0  0
 59 60  1  0  0  0
 59 61  1  0  0  0
 59 62  1  0  0  0
 60131  1  0  0  0
 60132  1  0  0  0
 60133  1  0  0  0
 61134  1  0  0  0
 61135  1  0  0  0
 61136  1  0  0  0
 62137  1  0  0  0
 62138  1  0  0  0
 62139  1  0  0  0
 63 65  1  0  0  0
 63140  1  0  0  0
 63141  1  0  0  0
 63142  1  0  0  0
 64143  1  0  0  0
 65144  1  0  0  0
 68 81  1  0  0  0
 71 73  2  0  0  0
 71 74  1  0  0  0
 71145  1  0  0  0
 72 75  2  0  0  0
 72 76  1  0  0  0
 72146  1  0  0  0
 73 75  1  0  0  0
 73 78  1  0  0  0
 74 76  2  0  0  0
 74 82  1  0  0  0
 75 83  1  0  0  0
 76 85  1  0  0  0
 77 81  1  0  0  0
 77 83  1  0  0  0
 77 84  2  0  0  0
 78147  1  0  0  0
 78148  1  0  0  0
 78149  1  0  0  0
 79 83  1  0  0  0
 79150  1  0  0  0
 79151  1  0  0  0
 79152  1  0  0  0
 80 85  1  0  0  0
 80153  1  0  0  0
 80154  1  0  0  0
 80155  1  0  0  0
 81156  1  0  0  0
 81157  1  0  0  0
 82158  1  0  0  0
M  ISO  4   1 100  68 101  81 101  82 100
M  END
> <chiral flag>
0

> <version>
0

> <s_m_source_file>
/data/baiqing/PycharmProjects/Reinvent-master-3.2/result/LINK_invent/BTK/process_docking_weight1_custom_sum_contain_oxygen_bond_distance_aromatic_linkinvent_7_9_3/rearranged_h_0012.sdf

> <i_m_source_file_index>
20

> <r_mmod_Potential_Energy-OPLS-2005>
553.931274414062

> <r_mmod_Stretch_Energy-OPLS-2005>
243.200531005859

> <r_mmod_Bend_Energy-OPLS-2005>
287.546081542969

> <r_mmod_Torsional_Energy-OPLS-2005>
288.158569335938

> <r_mmod_Improper_Torsional_Energy-OPLS-2005>
4.35576868057251

> <r_mmod_Van_der_Waal_Energy-OPLS-2005>
146.327102661133

> <r_mmod_Electrostatic_Energy-OPLS-2005>
-373.897399902344

> <r_mmod_Solvation_Energy-OPLS-2005>
-226.2255859375

> <b_mmod_Minimization_Converged-OPLS-2005>
0

> <r_mmod_RMS_Derivative-OPLS-2005>
3.89258146286011

$$$$
20
                    3D
 Structure written by MMmdl.
151159  0  0  1  0            999 V2000
  -30.5154  -14.9345   20.4291 C   0  0  0  0  0  0
  -30.4493  -12.5749   19.5034 C   0  0  0  0  0  0
  -29.5281  -12.5371   18.2598 C   0  0  0  0  0  0
  -28.0578  -12.3267   18.6703 C   0  0  0  0  0  0
  -27.6372  -13.2438   19.8485 C   0  0  2  0  0  0
  -28.6784  -13.2364   20.9894 C   0  0  0  0  0  0
  -25.2496  -13.8209   20.5717 C   0  0  0  0  0  0
  -24.1791  -13.0445   20.9211 C   0  0  0  0  0  0
  -24.6393  -11.6926   20.8733 C   0  0  0  0  0  0
  -23.9071  -10.4301   21.0398 C   0  0  0  0  0  0
  -24.3623   -9.4218   21.9175 C   0  0  0  0  0  0
  -23.6300   -8.2249   22.0748 C   0  0  0  0  0  0
  -22.4280   -8.0282   21.3542 C   0  0  0  0  0  0
  -21.9914   -9.0258   20.4645 C   0  0  0  0  0  0
  -22.7240  -10.2141   20.3052 C   0  0  0  0  0  0
  -21.6855   -6.0735   22.5278 C   0  0  0  0  0  0
  -21.4014   -6.5635   23.8214 C   0  0  0  0  0  0
  -21.3663   -5.6785   24.9173 C   0  0  0  0  0  0
  -21.6045   -4.3050   24.7222 C   0  0  0  0  0  0
  -21.8819   -3.8145   23.4342 C   0  0  0  0  0  0
  -21.9195   -4.6962   22.3397 C   0  0  0  0  0  0
  -22.7815  -13.5230   21.1876 C   0  0  0  0  0  0
  -22.1664   -4.2149   21.0974 F   0  0  0  0  0  0
  -21.5632   -3.4532   25.7736 F   0  0  0  0  0  0
  -29.9616  -13.6550   20.4080 N   0  0  0  0  0  0
  -26.2919  -12.9432   20.3269 N   0  0  0  0  0  0
  -25.9329  -11.6566   20.5724 N   0  0  0  0  0  0
  -22.0453  -12.8230   22.0433 N   0  0  0  0  0  0
  -25.4202  -15.1939   20.4199 N   0  0  0  0  0  0
  -31.6951  -15.0525   20.0787 O   0  0  0  0  0  0
  -21.6641   -6.8881   21.4244 O   0  0  0  0  0  0
  -22.3503  -14.5529   20.6712 O   0  0  0  0  0  0
  -24.6440  -31.8435   23.1872 C   0  0  0  0  0  0
  -25.9205  -32.4691   23.8272 C   0  0  1  0  0  0
  -27.2202  -27.1273   20.1401 C   0  0  0  0  0  0
  -25.5944  -33.8497   24.2179 N   0  0  0  0  0  0
  -23.4485  -30.4625   21.5335 C   0  0  2  0  0  0
  -24.8985  -28.8915   20.1050 C   0  0  0  0  0  0
  -22.7575  -29.4540   22.4852 C   0  0  0  0  0  0
  -18.0304  -28.1401   22.8480 C   0  0  0  0  0  0
  -24.1491  -36.7256   23.2642 C   0  0  0  0  0  0
  -26.0057  -30.7113   21.3911 C   0  0  0  0  0  0
  -26.0741  -29.3231   20.7299 C   0  0  0  0  0  0
  -27.2298  -28.4543   20.7370 C   0  0  0  0  0  0
  -26.0152  -26.8028   19.4743 C   0  0  0  0  0  0
  -24.8829  -27.6452   19.4639 C   0  0  0  0  0  0
  -23.6752  -29.7932   20.1520 C   0  0  0  0  0  0
  -25.4121  -36.3029   24.0315 C   0  0  1  0  0  0
  -20.5919  -28.3725   23.1232 C   0  0  2  0  0  0
  -20.6785  -26.9428   22.5405 C   0  0  0  0  0  0
  -19.5758  -26.6380   21.5216 C   0  0  0  0  0  0
  -18.1940  -26.7937   22.1633 C   0  0  0  0  0  0
  -19.1564  -28.8883   23.2846 C   0  0  0  0  0  0
  -18.9476  -30.1478   23.8874 C   0  0  0  0  0  0
  -17.6474  -30.6595   24.0557 C   0  0  0  0  0  0
  -25.9073  -34.9405   23.5057 C   0  0  0  0  0  0
  -16.5364  -29.9088   23.6338 C   0  0  0  0  0  0
  -16.7288  -28.6510   23.0354 C   0  0  0  0  0  0
  -26.4505  -31.6571   25.0731 C   0  0  0  0  0  0
  -25.3681  -31.3809   26.1432 C   0  0  0  0  0  0
  -27.0344  -30.2944   24.6350 C   0  0  0  0  0  0
  -27.6056  -32.4321   25.7502 C   0  0  0  0  0  0
  -27.5578  -37.1778   24.8454 C   0  0  0  0  0  0
  -21.4266  -29.3042   22.3600 N   0  0  0  0  0  0
  -26.4281  -37.3746   23.9409 N   0  0  0  0  0  0
  -24.7194  -31.0273   22.0920 N   0  0  0  0  0  0
  -23.4215  -28.8096   23.3010 O   0  0  0  0  0  0
  -28.2774  -26.1477   20.2635 O   0  0  0  0  0  0
  -26.5672  -34.8908   22.4643 O   0  0  0  0  0  0
  -23.5554  -32.1317   23.7077 O   0  0  0  0  0  0
  -28.8354  -18.4602   21.2925 C   0  0  0  0  0  0
  -28.7261  -19.9074   21.1242 C   0  0  0  0  0  0
  -30.4033  -18.3370   19.5555 C   0  0  0  0  0  0
  -29.6919  -17.5778   20.5352 C   0  0  0  0  0  0
  -29.4514  -20.6789   20.1507 C   0  0  0  0  0  0
  -30.2769  -19.7746   19.3601 C   0  0  0  0  0  0
  -28.5319  -23.2719   20.3668 C   0  0  0  0  0  0
  -30.5821  -22.7704   19.2325 C   0  0  0  0  0  0
  -28.3320  -24.7413   19.5863 C   0  0  0  0  0  0
  -29.6878  -16.0500   20.7247 N   0  0  0  0  0  0
  -29.4121  -22.2259   19.9366 N   0  0  0  0  0  0
  -27.8064  -23.0774   21.3476 O   0  0  0  0  0  0
  -30.9806  -20.2658   18.3126 F   0  0  0  0  0  0
  -31.4828  -12.7401   19.1952 H   0  0  0  0  0  0
  -30.4441  -11.6124   20.0174 H   0  0  0  0  0  0
  -29.8447  -11.7466   17.5780 H   0  0  0  0  0  0
  -29.6220  -13.4737   17.7073 H   0  0  0  0  0  0
  -27.9433  -11.2811   18.9589 H   0  0  0  0  0  0
  -27.3983  -12.4801   17.8151 H   0  0  0  0  0  0
  -27.6112  -14.2539   19.4397 H   0  0  0  0  0  0
  -28.7574  -12.2456   21.4388 H   0  0  0  0  0  0
  -28.3756  -13.9106   21.7921 H   0  0  0  0  0  0
  -25.2768   -9.5694   22.4757 H   0  0  0  0  0  0
  -24.0010   -7.4636   22.7464 H   0  0  0  0  0  0
  -21.0841   -8.8778   19.8955 H   0  0  0  0  0  0
  -22.3688  -10.9682   19.6166 H   0  0  0  0  0  0
  -21.2002   -7.6143   23.9717 H   0  0  0  0  0  0
  -21.1488   -6.0513   25.9079 H   0  0  0  0  0  0
  -22.0596   -2.7609   23.2833 H   0  0  0  0  0  0
  -22.4068  -11.9902   22.4838 H   0  0  0  0  0  0
  -21.1073  -13.1270   22.2632 H   0  0  0  0  0  0
  -24.6537  -15.8472   20.5386 H   0  0  0  0  0  0
  -26.2702  -15.6374   20.0969 H   0  0  0  0  0  0
  -26.7283  -32.5286   23.1014 H   0  0  0  0  0  0
  -25.0039  -33.9609   25.0291 H   0  0  0  0  0  0
  -22.7516  -31.2891   21.3791 H   0  0  0  0  0  0
  -23.3760  -35.9581   23.3277 H   0  0  0  0  0  0
  -24.3583  -36.8911   22.2061 H   0  0  0  0  0  0
  -23.7240  -37.6442   23.6696 H   0  0  0  0  0  0
  -26.1665  -31.4668   20.6208 H   0  0  0  0  0  0
  -26.8745  -30.7578   22.0364 H   0  0  0  0  0  0
  -28.1199  -28.7771   21.2585 H   0  0  0  0  0  0
  -25.8812  -25.8533   18.9852 H   0  0  0  0  0  0
  -23.9840  -27.3084   18.9656 H   0  0  0  0  0  0
  -23.8112  -30.5681   19.3967 H   0  0  0  0  0  0
  -22.7903  -29.2345   19.8420 H   0  0  0  0  0  0
  -25.1308  -36.1854   25.0807 H   0  0  0  0  0  0
  -21.0008  -28.3316   24.1356 H   0  0  0  0  0  0
  -20.5672  -26.2343   23.3625 H   0  0  0  0  0  0
  -21.6650  -26.7427   22.1205 H   0  0  0  0  0  0
  -19.6913  -25.6282   21.1265 H   0  0  0  0  0  0
  -19.6691  -27.3175   20.6731 H   0  0  0  0  0  0
  -17.4202  -26.6671   21.4041 H   0  0  0  0  0  0
  -18.0345  -26.0094   22.9047 H   0  0  0  0  0  0
  -19.7950  -30.7297   24.2235 H   0  0  0  0  0  0
  -17.5026  -31.6273   24.5165 H   0  0  0  0  0  0
  -15.5360  -30.2978   23.7682 H   0  0  0  0  0  0
  -15.8689  -28.0821   22.7078 H   0  0  0  0  0  0
  -24.5805  -30.7226   25.7744 H   0  0  0  0  0  0
  -24.8943  -32.3023   26.4829 H   0  0  0  0  0  0
  -25.7931  -30.8965   27.0231 H   0  0  0  0  0  0
  -26.2957  -29.6679   24.1339 H   0  0  0  0  0  0
  -27.3886  -29.7245   25.4948 H   0  0  0  0  0  0
  -27.8906  -30.4129   23.9711 H   0  0  0  0  0  0
  -27.2668  -33.3634   26.2051 H   0  0  0  0  0  0
  -28.3882  -32.6856   25.0341 H   0  0  0  0  0  0
  -28.0714  -31.8468   26.5438 H   0  0  0  0  0  0
  -28.2576  -38.0095   24.7516 H   0  0  0  0  0  0
  -28.1094  -36.2624   24.6252 H   0  0  0  0  0  0
  -27.2306  -37.1389   25.8860 H   0  0  0  0  0  0
  -20.9484  -29.8749   21.6770 H   0  0  0  0  0  0
  -26.0144  -38.2811   24.1420 H   0  0  0  0  0  0
  -28.2138  -18.0145   22.0570 H   0  0  0  0  0  0
  -28.0519  -20.4357   21.7830 H   0  0  0  0  0  0
  -31.0554  -17.8024   18.8805 H   0  0  0  0  0  0
  -31.4803  -22.1991   19.4634 H   0  0  0  0  0  0
  -30.8496  -23.7820   19.5417 H   0  0  0  0  0  0
  -30.4265  -22.7647   18.1529 H   0  0  0  0  0  0
  -27.4391  -24.5780   18.9936 H   0  0  0  0  0  0
  -29.0943  -24.8404   18.8170 H   0  0  0  0  0  0
  -28.8284  -15.7240   21.1403 H   0  0  0  0  0  0
  1 25  1  0  0  0
  1 30  2  0  0  0
  1 80  1  0  0  0
  2  3  1  0  0  0
  2 25  1  0  0  0
  2 84  1  0  0  0
  2 85  1  0  0  0
  3  4  1  0  0  0
  3 86  1  0  0  0
  3 87  1  0  0  0
  4  5  1  0  0  0
  4 88  1  0  0  0
  4 89  1  0  0  0
  5  6  1  0  0  0
  5 26  1  0  0  0
  5 90  1  0  0  0
  6 25  1  0  0  0
  6 91  1  0  0  0
  6 92  1  0  0  0
  7  8  2  0  0  0
  7 26  1  0  0  0
  7 29  1  0  0  0
  8  9  1  0  0  0
  8 22  1  0  0  0
  9 10  1  0  0  0
  9 27  2  0  0  0
 10 11  2  0  0  0
 10 15  1  0  0  0
 11 12  1  0  0  0
 11 93  1  0  0  0
 12 13  2  0  0  0
 12 94  1  0  0  0
 13 14  1  0  0  0
 13 31  1  0  0  0
 14 15  2  0  0  0
 14 95  1  0  0  0
 15 96  1  0  0  0
 16 17  2  0  0  0
 16 21  1  0  0  0
 16 31  1  0  0  0
 17 18  1  0  0  0
 17 97  1  0  0  0
 18 19  2  0  0  0
 18 98  1  0  0  0
 19 20  1  0  0  0
 19 24  1  0  0  0
 20 21  2  0  0  0
 20 99  1  0  0  0
 21 23  1  0  0  0
 22 28  1  0  0  0
 22 32  2  0  0  0
 26 27  1  0  0  0
 28100  1  0  0  0
 28101  1  0  0  0
 29102  1  0  0  0
 29103  1  0  0  0
 33 34  1  0  0  0
 33 66  1  0  0  0
 33 70  2  0  0  0
 34 36  1  0  0  0
 34 59  1  0  0  0
 34104  1  0  0  0
 35 44  2  0  0  0
 35 45  1  0  0  0
 35 68  1  0  0  0
 36 56  1  0  0  0
 36105  1  0  0  0
 37 39  1  0  0  0
 37 47  1  0  0  0
 37 66  1  0  0  0
 37106  1  0  0  0
 38 43  2  0  0  0
 38 46  1  0  0  0
 38 47  1  0  0  0
 39 64  1  0  0  0
 39 67  2  0  0  0
 40 52  1  0  0  0
 40 53  2  0  0  0
 40 58  1  0  0  0
 41107  1  0  0  0
 41108  1  0  0  0
 41109  1  0  0  0
 41 48  1  0  0  0
 42 43  1  0  0  0
 42 66  1  0  0  0
 42110  1  0  0  0
 42111  1  0  0  0
 43 44  1  0  0  0
 44112  1  0  0  0
 45 46  2  0  0  0
 45113  1  0  0  0
 46114  1  0  0  0
 47115  1  0  0  0
 47116  1  0  0  0
 48 56  1  0  0  0
 48 65  1  0  0  0
 48117  1  0  0  0
 49 50  1  0  0  0
 49 53  1  0  0  0
 49 64  1  0  0  0
 49118  1  0  0  0
 50 51  1  0  0  0
 50119  1  0  0  0
 50120  1  0  0  0
 51 52  1  0  0  0
 51121  1  0  0  0
 51122  1  0  0  0
 52123  1  0  0  0
 52124  1  0  0  0
 53 54  1  0  0  0
 54 55  2  0  0  0
 54125  1  0  0  0
 55 57  1  0  0  0
 55126  1  0  0  0
 56 69  2  0  0  0
 57 58  2  0  0  0
 57127  1  0  0  0
 58128  1  0  0  0
 59 60  1  0  0  0
 59 61  1  0  0  0
 59 62  1  0  0  0
 60129  1  0  0  0
 60130  1  0  0  0
 60131  1  0  0  0
 61132  1  0  0  0
 61133  1  0  0  0
 61134  1  0  0  0
 62135  1  0  0  0
 62136  1  0  0  0
 62137  1  0  0  0
 63 65  1  0  0  0
 63138  1  0  0  0
 63139  1  0  0  0
 63140  1  0  0  0
 64141  1  0  0  0
 65142  1  0  0  0
 68 79  1  0  0  0
 71 72  2  0  0  0
 71 74  1  0  0  0
 71143  1  0  0  0
 72 75  1  0  0  0
 72144  1  0  0  0
 73 74  2  0  0  0
 73 76  1  0  0  0
 73145  1  0  0  0
 74 80  1  0  0  0
 75 76  2  0  0  0
 75 81  1  0  0  0
 76 83  1  0  0  0
 77 79  1  0  0  0
 77 81  1  0  0  0
 77 82  2  0  0  0
 78 81  1  0  0  0
 78146  1  0  0  0
 78147  1  0  0  0
 78148  1  0  0  0
 79149  1  0  0  0
 79150  1  0  0  0
 80151  1  0  0  0
M  ISO  4   1 100  68 101  79 101  80 100
M  END
> <chiral flag>
0

> <version>
0

> <s_m_source_file>
/data/baiqing/PycharmProjects/Reinvent-master-3.2/result/LINK_invent/BTK/process_docking_weight1_custom_sum_contain_oxygen_bond_distance_aromatic_linkinvent_7_9_3/rearranged_h_0012.sdf

> <i_m_source_file_index>
21

> <r_mmod_Potential_Energy-OPLS-2005>
584.214599609375

> <r_mmod_Stretch_Energy-OPLS-2005>
254.816650390625

> <r_mmod_Bend_Energy-OPLS-2005>
280.084167480469

> <r_mmod_Torsional_Energy-OPLS-2005>
258.447998046875

> <r_mmod_Improper_Torsional_Energy-OPLS-2005>
3.90082216262817

> <r_mmod_Van_der_Waal_Energy-OPLS-2005>
148.400924682617

> <r_mmod_Electrostatic_Energy-OPLS-2005>
-327.247192382812

> <r_mmod_Solvation_Energy-OPLS-2005>
-226.000396728516

> <b_mmod_Minimization_Converged-OPLS-2005>
0

> <r_mmod_RMS_Derivative-OPLS-2005>
0.948058903217316

$$$$
21
                    3D
 Structure written by MMmdl.
161169  0  0  1  0            999 V2000
  -30.6379  -14.4572   20.5815 C   0  0  0  0  0  0
  -30.4404  -12.3079   19.3791 C   0  0  0  0  0  0
  -29.4866  -12.4965   18.1787 C   0  0  0  0  0  0
  -28.0072  -12.3573   18.6000 C   0  0  0  0  0  0
  -27.6567  -13.1832   19.8656 C   0  0  2  0  0  0
  -28.7052  -12.9216   20.9706 C   0  0  0  0  0  0
  -25.2569  -13.8077   20.5636 C   0  0  0  0  0  0
  -24.1827  -13.0390   20.9159 C   0  0  0  0  0  0
  -24.6351  -11.6840   20.8718 C   0  0  0  0  0  0
  -23.9002  -10.4247   21.0401 C   0  0  0  0  0  0
  -24.3564   -9.4176   21.9196 C   0  0  0  0  0  0
  -23.6257   -8.2206   22.0766 C   0  0  0  0  0  0
  -22.4255   -8.0235   21.3536 C   0  0  0  0  0  0
  -21.9859   -9.0196   20.4646 C   0  0  0  0  0  0
  -22.7156  -10.2083   20.3062 C   0  0  0  0  0  0
  -21.6832   -6.0701   22.5286 C   0  0  0  0  0  0
  -21.3999   -6.5616   23.8212 C   0  0  0  0  0  0
  -21.3675   -5.6779   24.9185 C   0  0  0  0  0  0
  -21.6050   -4.3041   24.7242 C   0  0  0  0  0  0
  -21.8823   -3.8122   23.4362 C   0  0  0  0  0  0
  -21.9195   -4.6932   22.3414 C   0  0  0  0  0  0
  -22.7865  -13.5215   21.1842 C   0  0  0  0  0  0
  -22.1662   -4.2112   21.0988 F   0  0  0  0  0  0
  -21.5654   -3.4533   25.7756 F   0  0  0  0  0  0
  -30.0284  -13.2578   20.4160 N   0  0  0  0  0  0
  -26.2982  -12.9206   20.3290 N   0  0  0  0  0  0
  -25.9260  -11.6378   20.5702 N   0  0  0  0  0  0
  -22.0493  -12.8234   22.0396 N   0  0  0  0  0  0
  -25.4247  -15.1814   20.4123 N   0  0  0  0  0  0
  -31.8027  -14.6989   20.2458 O   0  0  0  0  0  0
  -21.6619   -6.8831   21.4241 O   0  0  0  0  0  0
  -22.3555  -14.5521   20.6678 O   0  0  0  0  0  0
  -24.6117  -31.8696   23.2106 C   0  0  0  0  0  0
  -25.9017  -32.4835   23.8382 C   0  0  1  0  0  0
  -27.2345  -27.4557   20.0827 C   0  0  0  0  0  0
  -25.5871  -33.8634   24.2313 N   0  0  0  0  0  0
  -23.3981  -30.4929   21.5511 C   0  0  2  0  0  0
  -24.8413  -28.9632   20.1080 C   0  0  0  0  0  0
  -22.7403  -29.4678   22.5017 C   0  0  0  0  0  0
  -18.0299  -28.1314   22.8498 C   0  0  0  0  0  0
  -24.1485  -36.7313   23.2642 C   0  0  0  0  0  0
  -25.9225  -30.8413   21.3577 C   0  0  0  0  0  0
  -25.9977  -29.4773   20.7043 C   0  0  0  0  0  0
  -27.1937  -28.7286   20.6910 C   0  0  0  0  0  0
  -26.0550  -26.9456   19.4910 C   0  0  0  0  0  0
  -24.8646  -27.6959   19.4991 C   0  0  0  0  0  0
  -23.5979  -29.8224   20.1649 C   0  0  0  0  0  0
  -25.4108  -36.3115   24.0343 C   0  0  1  0  0  0
  -20.5873  -28.3676   23.1331 C   0  0  2  0  0  0
  -20.6799  -26.9410   22.5454 C   0  0  0  0  0  0
  -19.5804  -26.6388   21.5234 C   0  0  0  0  0  0
  -18.1983  -26.7832   22.1628 C   0  0  0  0  0  0
  -19.1513  -28.8817   23.2882 C   0  0  0  0  0  0
  -18.9394  -30.1443   23.8846 C   0  0  0  0  0  0
  -17.6392  -30.6568   24.0520 C   0  0  0  0  0  0
  -25.9037  -34.9487   23.5129 C   0  0  0  0  0  0
  -16.5302  -29.9047   23.6268 C   0  0  0  0  0  0
  -16.7288  -28.6455   23.0302 C   0  0  0  0  0  0
  -26.4453  -31.6608   25.0698 C   0  0  0  0  0  0
  -25.3714  -31.3689   26.1439 C   0  0  0  0  0  0
  -27.0301  -30.3054   24.6071 C   0  0  0  0  0  0
  -27.6032  -32.4330   25.7457 C   0  0  0  0  0  0
  -27.5580  -37.1811   24.8469 C   0  0  0  0  0  0
  -21.4138  -29.3011   22.3707 N   0  0  0  0  0  0
  -26.4294  -37.3789   23.9412 N   0  0  0  0  0  0
  -24.6620  -31.0829   22.0973 N   0  0  0  0  0  0
  -23.4167  -28.8257   23.3073 O   0  0  0  0  0  0
  -28.4382  -26.7826   20.0985 O   0  0  0  0  0  0
  -26.5616  -34.8938   22.4694 O   0  0  0  0  0  0
  -23.5308  -32.1415   23.7523 O   0  0  0  0  0  0
  -30.7976  -16.8872   22.5627 C   0  0  0  0  0  0
  -29.8538  -19.1178   22.9100 C   0  0  0  0  0  0
  -30.7620  -18.1032   23.2808 C   0  0  0  0  0  0
  -29.8976  -16.6769   21.4953 C   0  0  0  0  0  0
  -28.9512  -18.9127   21.8402 C   0  0  0  0  0  0
  -28.9720  -17.6831   21.1462 C   0  0  0  0  0  0
  -28.3159  -21.0562   20.8826 C   0  0  0  0  0  0
  -28.1157  -24.3639   20.3937 C   0  0  0  0  0  0
  -31.6668  -18.2952   24.4829 C   0  0  0  0  0  0
  -26.5726  -19.5489   21.7498 C   0  0  0  0  0  0
  -27.1921  -22.0429   20.4872 C   0  0  0  0  0  0
  -28.5718  -25.5059   19.4660 C   0  0  0  0  0  0
  -29.7513  -15.4253   20.8569 N   0  0  0  0  0  0
  -27.6585  -23.2547   19.7977 N   0  0  0  0  0  0
  -27.9770  -19.8985   21.5083 N   0  0  0  0  0  0
  -29.4882  -21.3414   20.6025 O   0  0  0  0  0  0
  -28.1827  -24.4761   21.6212 O   0  0  0  0  0  0
  -28.0819  -17.4480   20.1493 F   0  0  0  0  0  0
  -31.4756  -12.4681   19.0732 H   0  0  0  0  0  0
  -30.3911  -11.2862   19.7555 H   0  0  0  0  0  0
  -29.7084  -11.7615   17.4047 H   0  0  0  0  0  0
  -29.6530  -13.4761   17.7265 H   0  0  0  0  0  0
  -27.8216  -11.2990   18.7887 H   0  0  0  0  0  0
  -27.3487  -12.6383   17.7766 H   0  0  0  0  0  0
  -27.7039  -14.2318   19.5753 H   0  0  0  0  0  0
  -28.6913  -11.8725   21.2737 H   0  0  0  0  0  0
  -28.4770  -13.4837   21.8783 H   0  0  0  0  0  0
  -25.2712   -9.5669   22.4764 H   0  0  0  0  0  0
  -23.9976   -7.4607   22.7489 H   0  0  0  0  0  0
  -21.0792   -8.8670   19.8955 H   0  0  0  0  0  0
  -22.3593  -10.9609   19.6173 H   0  0  0  0  0  0
  -21.1959   -7.6124   23.9686 H   0  0  0  0  0  0
  -21.1510   -6.0526   25.9074 H   0  0  0  0  0  0
  -22.0587   -2.7581   23.2876 H   0  0  0  0  0  0
  -22.4104  -11.9909   22.4809 H   0  0  0  0  0  0
  -21.1101  -13.1267   22.2555 H   0  0  0  0  0  0
  -24.6445  -15.8175   20.5315 H   0  0  0  0  0  0
  -26.2654  -15.6433   20.0936 H   0  0  0  0  0  0
  -26.7072  -32.5539   23.1128 H   0  0  0  0  0  0
  -25.0024  -33.9773   25.0467 H   0  0  0  0  0  0
  -22.6853  -31.3103   21.4145 H   0  0  0  0  0  0
  -23.3749  -35.9641   23.3324 H   0  0  0  0  0  0
  -24.3572  -36.8904   22.2049 H   0  0  0  0  0  0
  -23.7255  -37.6528   23.6645 H   0  0  0  0  0  0
  -26.0361  -31.6087   20.5907 H   0  0  0  0  0  0
  -26.8109  -30.8889   21.9774 H   0  0  0  0  0  0
  -28.0895  -29.1301   21.1441 H   0  0  0  0  0  0
  -26.0252  -25.9734   19.0236 H   0  0  0  0  0  0
  -23.9736  -27.2967   19.0316 H   0  0  0  0  0  0
  -23.6843  -30.5958   19.4003 H   0  0  0  0  0  0
  -22.7238  -29.2325   19.8845 H   0  0  0  0  0  0
  -25.1293  -36.1979   25.0838 H   0  0  0  0  0  0
  -20.9935  -28.3336   24.1476 H   0  0  0  0  0  0
  -20.5663  -26.2320   23.3656 H   0  0  0  0  0  0
  -21.6688  -26.7434   22.1295 H   0  0  0  0  0  0
  -19.7021  -25.6341   21.1201 H   0  0  0  0  0  0
  -19.6720  -27.3252   20.6805 H   0  0  0  0  0  0
  -17.4250  -26.6483   21.4054 H   0  0  0  0  0  0
  -18.0476  -25.9971   22.9046 H   0  0  0  0  0  0
  -19.7843  -30.7285   24.2236 H   0  0  0  0  0  0
  -17.4879  -31.6227   24.5142 H   0  0  0  0  0  0
  -15.5291  -30.2910   23.7546 H   0  0  0  0  0  0
  -15.8721  -28.0802   22.6893 H   0  0  0  0  0  0
  -24.5873  -30.7056   25.7756 H   0  0  0  0  0  0
  -24.8896  -32.2835   26.4902 H   0  0  0  0  0  0
  -25.8039  -30.8827   27.0197 H   0  0  0  0  0  0
  -26.2847  -29.6795   24.1145 H   0  0  0  0  0  0
  -27.4128  -29.7295   25.4519 H   0  0  0  0  0  0
  -27.8647  -30.4393   23.9182 H   0  0  0  0  0  0
  -27.2643  -33.3615   26.2073 H   0  0  0  0  0  0
  -28.3812  -32.6929   25.0261 H   0  0  0  0  0  0
  -28.0738  -31.8443   26.5343 H   0  0  0  0  0  0
  -28.2620  -38.0081   24.7506 H   0  0  0  0  0  0
  -28.1055  -36.2634   24.6311 H   0  0  0  0  0  0
  -27.2307  -37.1474   25.8866 H   0  0  0  0  0  0
  -20.9301  -29.8614   21.6839 H   0  0  0  0  0  0
  -26.0199  -38.2878   24.1363 H   0  0  0  0  0  0
  -31.4781  -16.1054   22.8660 H   0  0  0  0  0  0
  -29.8180  -20.0436   23.4670 H   0  0  0  0  0  0
  -32.6874  -17.9801   24.2609 H   0  0  0  0  0  0
  -31.3051  -17.7037   25.3275 H   0  0  0  0  0  0
  -31.6979  -19.3399   24.7953 H   0  0  0  0  0  0
  -26.0941  -20.2679   22.4151 H   0  0  0  0  0  0
  -26.4731  -18.5701   22.2196 H   0  0  0  0  0  0
  -26.0154  -19.5055   20.8146 H   0  0  0  0  0  0
  -26.6303  -22.3189   21.3801 H   0  0  0  0  0  0
  -26.4958  -21.5319   19.8214 H   0  0  0  0  0  0
  -28.0834  -25.4706   18.4909 H   0  0  0  0  0  0
  -29.6338  -25.3591   19.2700 H   0  0  0  0  0  0
  -28.7945  -15.1579   20.6895 H   0  0  0  0  0  0
  -27.6527  -23.2303   18.7866 H   0  0  0  0  0  0
  1 25  1  0  0  0
  1 30  2  0  0  0
  1 83  1  0  0  0
  2  3  1  0  0  0
  2 25  1  0  0  0
  2 89  1  0  0  0
  2 90  1  0  0  0
  3  4  1  0  0  0
  3 91  1  0  0  0
  3 92  1  0  0  0
  4  5  1  0  0  0
  4 93  1  0  0  0
  4 94  1  0  0  0
  5  6  1  0  0  0
  5 26  1  0  0  0
  5 95  1  0  0  0
  6 25  1  0  0  0
  6 96  1  0  0  0
  6 97  1  0  0  0
  7  8  2  0  0  0
  7 26  1  0  0  0
  7 29  1  0  0  0
  8  9  1  0  0  0
  8 22  1  0  0  0
  9 10  1  0  0  0
  9 27  2  0  0  0
 10 11  2  0  0  0
 10 15  1  0  0  0
 11 12  1  0  0  0
 11 98  1  0  0  0
 12 13  2  0  0  0
 12 99  1  0  0  0
 13 14  1  0  0  0
 13 31  1  0  0  0
 14 15  2  0  0  0
 14100  1  0  0  0
 15101  1  0  0  0
 16 17  2  0  0  0
 16 21  1  0  0  0
 16 31  1  0  0  0
 17 18  1  0  0  0
 17102  1  0  0  0
 18 19  2  0  0  0
 18103  1  0  0  0
 19 20  1  0  0  0
 19 24  1  0  0  0
 20 21  2  0  0  0
 20104  1  0  0  0
 21 23  1  0  0  0
 22 28  1  0  0  0
 22 32  2  0  0  0
 26 27  1  0  0  0
 28105  1  0  0  0
 28106  1  0  0  0
 29107  1  0  0  0
 29108  1  0  0  0
 33 34  1  0  0  0
 33 66  1  0  0  0
 33 70  2  0  0  0
 34 36  1  0  0  0
 34 59  1  0  0  0
 34109  1  0  0  0
 35 44  2  0  0  0
 35 45  1  0  0  0
 35 68  1  0  0  0
 36 56  1  0  0  0
 36110  1  0  0  0
 37 39  1  0  0  0
 37 47  1  0  0  0
 37 66  1  0  0  0
 37111  1  0  0  0
 38 43  2  0  0  0
 38 46  1  0  0  0
 38 47  1  0  0  0
 39 64  1  0  0  0
 39 67  2  0  0  0
 40 52  1  0  0  0
 40 53  2  0  0  0
 40 58  1  0  0  0
 41112  1  0  0  0
 41113  1  0  0  0
 41114  1  0  0  0
 41 48  1  0  0  0
 42 43  1  0  0  0
 42 66  1  0  0  0
 42115  1  0  0  0
 42116  1  0  0  0
 43 44  1  0  0  0
 44117  1  0  0  0
 45 46  2  0  0  0
 45118  1  0  0  0
 46119  1  0  0  0
 47120  1  0  0  0
 47121  1  0  0  0
 48 56  1  0  0  0
 48 65  1  0  0  0
 48122  1  0  0  0
 49 50  1  0  0  0
 49 53  1  0  0  0
 49 64  1  0  0  0
 49123  1  0  0  0
 50 51  1  0  0  0
 50124  1  0  0  0
 50125  1  0  0  0
 51 52  1  0  0  0
 51126  1  0  0  0
 51127  1  0  0  0
 52128  1  0  0  0
 52129  1  0  0  0
 53 54  1  0  0  0
 54 55  2  0  0  0
 54130  1  0  0  0
 55 57  1  0  0  0
 55131  1  0  0  0
 56 69  2  0  0  0
 57 58  2  0  0  0
 57132  1  0  0  0
 58133  1  0  0  0
 59 60  1  0  0  0
 59 61  1  0  0  0
 59 62  1  0  0  0
 60134  1  0  0  0
 60135  1  0  0  0
 60136  1  0  0  0
 61137  1  0  0  0
 61138  1  0  0  0
 61139  1  0  0  0
 62140  1  0  0  0
 62141  1  0  0  0
 62142  1  0  0  0
 63 65  1  0  0  0
 63143  1  0  0  0
 63144  1  0  0  0
 63145  1  0  0  0
 64146  1  0  0  0
 65147  1  0  0  0
 68 82  1  0  0  0
 71 73  2  0  0  0
 71 74  1  0  0  0
 71148  1  0  0  0
 72 73  1  0  0  0
 72 75  2  0  0  0
 72149  1  0  0  0
 73 79  1  0  0  0
 74 76  2  0  0  0
 74 83  1  0  0  0
 75 76  1  0  0  0
 75 85  1  0  0  0
 76 88  1  0  0  0
 77 81  1  0  0  0
 77 85  1  0  0  0
 77 86  2  0  0  0
 78 82  1  0  0  0
 78 84  1  0  0  0
 78 87  2  0  0  0
 79150  1  0  0  0
 79151  1  0  0  0
 79152  1  0  0  0
 80 85  1  0  0  0
 80153  1  0  0  0
 80154  1  0  0  0
 80155  1  0  0  0
 81 84  1  0  0  0
 81156  1  0  0  0
 81157  1  0  0  0
 82158  1  0  0  0
 82159  1  0  0  0
 83160  1  0  0  0
 84161  1  0  0  0
M  ISO  4   1 100  68 101  82 101  83 100
M  END
> <chiral flag>
0

> <version>
0

> <s_m_source_file>
/data/baiqing/PycharmProjects/Reinvent-master-3.2/result/LINK_invent/BTK/process_docking_weight1_custom_sum_contain_oxygen_bond_distance_aromatic_linkinvent_7_9_3/rearranged_h_0012.sdf

> <i_m_source_file_index>
22

> <r_mmod_Potential_Energy-OPLS-2005>
-97.6052780151367

> <r_mmod_Stretch_Energy-OPLS-2005>
35.6137962341309

> <r_mmod_Bend_Energy-OPLS-2005>
106.737487792969

> <r_mmod_Torsional_Energy-OPLS-2005>
267.113189697266

> <r_mmod_Improper_Torsional_Energy-OPLS-2005>
8.5069580078125

> <r_mmod_Van_der_Waal_Energy-OPLS-2005>
162.550216674805

> <r_mmod_Electrostatic_Energy-OPLS-2005>
-434.885986328125

> <r_mmod_Solvation_Energy-OPLS-2005>
-259.460876464844

> <b_mmod_Minimization_Converged-OPLS-2005>
0

> <r_mmod_RMS_Derivative-OPLS-2005>
4.23026084899902

$$$$
22
                    3D
 Structure written by MMmdl.
155163  0  0  1  0            999 V2000
  -30.4883  -15.0418   20.3962 C   0  0  0  0  0  0
  -30.4360  -12.6437   19.5315 C   0  0  0  0  0  0
  -29.5273  -12.5516   18.2806 C   0  0  0  0  0  0
  -28.0644  -12.3119   18.6921 C   0  0  0  0  0  0
  -27.6254  -13.2537   19.8426 C   0  0  2  0  0  0
  -28.6579  -13.3143   20.9901 C   0  0  0  0  0  0
  -25.2429  -13.8231   20.5709 C   0  0  0  0  0  0
  -24.1753  -13.0441   20.9217 C   0  0  0  0  0  0
  -24.6370  -11.6924   20.8741 C   0  0  0  0  0  0
  -23.9057  -10.4294   21.0401 C   0  0  0  0  0  0
  -24.3612   -9.4215   21.9185 C   0  0  0  0  0  0
  -23.6294   -8.2244   22.0750 C   0  0  0  0  0  0
  -22.4274   -8.0272   21.3543 C   0  0  0  0  0  0
  -21.9905   -9.0239   20.4641 C   0  0  0  0  0  0
  -22.7224  -10.2129   20.3052 C   0  0  0  0  0  0
  -21.6857   -6.0723   22.5277 C   0  0  0  0  0  0
  -21.4013   -6.5635   23.8207 C   0  0  0  0  0  0
  -21.3664   -5.6799   24.9179 C   0  0  0  0  0  0
  -21.6044   -4.3060   24.7237 C   0  0  0  0  0  0
  -21.8821   -3.8141   23.4363 C   0  0  0  0  0  0
  -21.9193   -4.6949   22.3413 C   0  0  0  0  0  0
  -22.7775  -13.5201   21.1892 C   0  0  0  0  0  0
  -22.1657   -4.2124   21.0993 F   0  0  0  0  0  0
  -21.5633   -3.4547   25.7758 F   0  0  0  0  0  0
  -29.9325  -13.7528   20.4048 N   0  0  0  0  0  0
  -26.2849  -12.9465   20.3252 N   0  0  0  0  0  0
  -25.9301  -11.6586   20.5735 N   0  0  0  0  0  0
  -22.0447  -12.8168   22.0458 N   0  0  0  0  0  0
  -25.4119  -15.1963   20.4149 N   0  0  0  0  0  0
  -31.6696  -15.1097   20.0339 O   0  0  0  0  0  0
  -21.6643   -6.8867   21.4236 O   0  0  0  0  0  0
  -22.3449  -14.5509   20.6748 O   0  0  0  0  0  0
  -24.6481  -31.8350   23.1806 C   0  0  0  0  0  0
  -25.9231  -32.4646   23.8217 C   0  0  1  0  0  0
  -27.2191  -27.0629   20.1663 C   0  0  0  0  0  0
  -25.5954  -33.8455   24.2122 N   0  0  0  0  0  0
  -23.4558  -30.4500   21.5255 C   0  0  2  0  0  0
  -24.9079  -28.8586   20.1030 C   0  0  0  0  0  0
  -22.7587  -29.4496   22.4820 C   0  0  0  0  0  0
  -18.0311  -28.1398   22.8485 C   0  0  0  0  0  0
  -24.1494  -36.7242   23.2646 C   0  0  0  0  0  0
  -26.0127  -30.6852   21.3887 C   0  0  0  0  0  0
  -26.0809  -29.2877   20.7327 C   0  0  0  0  0  0
  -27.2296  -28.4037   20.7492 C   0  0  0  0  0  0
  -26.0250  -26.7467   19.4849 C   0  0  0  0  0  0
  -24.8964  -27.6054   19.4621 C   0  0  0  0  0  0
  -23.6866  -29.7704   20.1467 C   0  0  0  0  0  0
  -25.4134  -36.3003   24.0303 C   0  0  1  0  0  0
  -20.5922  -28.3729   23.1230 C   0  0  2  0  0  0
  -20.6792  -26.9424   22.5413 C   0  0  0  0  0  0
  -19.5768  -26.6382   21.5220 C   0  0  0  0  0  0
  -18.1953  -26.7936   22.1631 C   0  0  0  0  0  0
  -19.1567  -28.8884   23.2853 C   0  0  0  0  0  0
  -18.9483  -30.1482   23.8877 C   0  0  0  0  0  0
  -17.6477  -30.6597   24.0561 C   0  0  0  0  0  0
  -25.9085  -34.9381   23.5029 C   0  0  0  0  0  0
  -16.5368  -29.9088   23.6336 C   0  0  0  0  0  0
  -16.7294  -28.6506   23.0359 C   0  0  0  0  0  0
  -26.4525  -31.6548   25.0695 C   0  0  0  0  0  0
  -25.3679  -31.3773   26.1367 C   0  0  0  0  0  0
  -27.0409  -30.2936   24.6331 C   0  0  0  0  0  0
  -27.6047  -32.4312   25.7490 C   0  0  0  0  0  0
  -27.5563  -37.1788   24.8466 C   0  0  0  0  0  0
  -21.4271  -29.3037   22.3576 N   0  0  0  0  0  0
  -26.4286  -37.3729   23.9395 N   0  0  0  0  0  0
  -24.7256  -31.0137   22.0868 N   0  0  0  0  0  0
  -23.4198  -28.8067   23.3015 O   0  0  0  0  0  0
  -28.2681  -26.0650   20.3191 O   0  0  0  0  0  0
  -26.5692  -34.8895   22.4621 O   0  0  0  0  0  0
  -23.5588  -32.1240   23.7006 O   0  0  0  0  0  0
  -28.8024  -20.1249   18.6859 C   0  0  0  0  0  0
  -29.0671  -20.3142   20.0574 C   0  0  0  0  0  0
  -29.5576  -17.6492   20.1054 C   0  0  0  0  0  0
  -28.9257  -18.8707   18.0414 C   0  0  0  0  0  0
  -29.4309  -19.0105   20.7464 C   0  0  0  0  0  0
  -29.2961  -17.6806   18.7166 C   0  0  0  0  0  0
  -27.0231  -23.0533   21.4223 C   0  0  0  0  0  0
  -29.9476  -21.9573   21.6623 C   0  0  0  0  0  0
  -28.4221  -24.5869   19.7565 C   0  0  0  0  0  0
  -28.0450  -22.9774   20.2799 C   0  0  2  0  0  0
  -29.7374  -16.2246   20.7264 N   0  0  0  0  0  0
  -29.0382  -21.7554   20.5405 N   0  0  0  0  0  0
  -28.6685  -18.8066   16.7123 F   0  0  0  0  0  0
  -29.6615  -19.0582   22.0813 F   0  0  0  0  0  0
  -29.3404  -16.5277   18.0059 F   0  0  0  0  0  0
  -31.4699  -12.8023   19.2224 H   0  0  0  0  0  0
  -30.4363  -11.6995   20.0789 H   0  0  0  0  0  0
  -29.8698  -11.7524   17.6223 H   0  0  0  0  0  0
  -29.5973  -13.4775   17.7077 H   0  0  0  0  0  0
  -27.9799  -11.2742   19.0151 H   0  0  0  0  0  0
  -27.4012  -12.4173   17.8328 H   0  0  0  0  0  0
  -27.5800  -14.2484   19.3989 H   0  0  0  0  0  0
  -28.7617  -12.3461   21.4814 H   0  0  0  0  0  0
  -28.3304  -14.0152   21.7589 H   0  0  0  0  0  0
  -25.2760   -9.5702   22.4751 H   0  0  0  0  0  0
  -24.0007   -7.4645   22.7478 H   0  0  0  0  0  0
  -21.0832   -8.8758   19.8953 H   0  0  0  0  0  0
  -22.3679  -10.9660   19.6157 H   0  0  0  0  0  0
  -21.1998   -7.6143   23.9704 H   0  0  0  0  0  0
  -21.1484   -6.0532   25.9082 H   0  0  0  0  0  0
  -22.0594   -2.7590   23.2879 H   0  0  0  0  0  0
  -22.4085  -11.9820   22.4810 H   0  0  0  0  0  0
  -21.1060  -13.1158   22.2707 H   0  0  0  0  0  0
  -24.6425  -15.8494   20.5190 H   0  0  0  0  0  0
  -26.2606  -15.6348   20.0824 H   0  0  0  0  0  0
  -26.7291  -32.5221   23.0934 H   0  0  0  0  0  0
  -25.0047  -33.9559   25.0230 H   0  0  0  0  0  0
  -22.7620  -31.2787   21.3659 H   0  0  0  0  0  0
  -23.3752  -35.9575   23.3299 H   0  0  0  0  0  0
  -24.3567  -36.8891   22.2060 H   0  0  0  0  0  0
  -23.7258  -37.6439   23.6695 H   0  0  0  0  0  0
  -26.1724  -31.4353   20.6125 H   0  0  0  0  0  0
  -26.8811  -30.7413   22.0337 H   0  0  0  0  0  0
  -28.1174  -28.7229   21.2778 H   0  0  0  0  0  0
  -25.9315  -25.7814   19.0101 H   0  0  0  0  0  0
  -23.9996  -27.2728   18.9581 H   0  0  0  0  0  0
  -23.8246  -30.5412   19.3878 H   0  0  0  0  0  0
  -22.8004  -29.2136   19.8374 H   0  0  0  0  0  0
  -25.1331  -36.1818   25.0795 H   0  0  0  0  0  0
  -21.0021  -28.3328   24.1347 H   0  0  0  0  0  0
  -20.5689  -26.2339   23.3638 H   0  0  0  0  0  0
  -21.6663  -26.7424   22.1212 H   0  0  0  0  0  0
  -19.6927  -25.6285   21.1278 H   0  0  0  0  0  0
  -19.6712  -27.3171   20.6734 H   0  0  0  0  0  0
  -17.4220  -26.6682   21.4036 H   0  0  0  0  0  0
  -18.0352  -26.0082   22.9031 H   0  0  0  0  0  0
  -19.7960  -30.7312   24.2228 H   0  0  0  0  0  0
  -17.5029  -31.6278   24.5166 H   0  0  0  0  0  0
  -15.5365  -30.2984   23.7678 H   0  0  0  0  0  0
  -15.8697  -28.0825   22.7072 H   0  0  0  0  0  0
  -24.5886  -30.7093   25.7674 H   0  0  0  0  0  0
  -24.8839  -32.2972   26.4659 H   0  0  0  0  0  0
  -25.7927  -30.9032   27.0225 H   0  0  0  0  0  0
  -26.3051  -29.6644   24.1317 H   0  0  0  0  0  0
  -27.3978  -29.7258   25.4933 H   0  0  0  0  0  0
  -27.8966  -30.4161   23.9692 H   0  0  0  0  0  0
  -27.2647  -33.3646   26.1989 H   0  0  0  0  0  0
  -28.3911  -32.6814   25.0355 H   0  0  0  0  0  0
  -28.0654  -31.8485   26.5475 H   0  0  0  0  0  0
  -28.2593  -38.0071   24.7478 H   0  0  0  0  0  0
  -28.1052  -36.2599   24.6341 H   0  0  0  0  0  0
  -27.2279  -37.1486   25.8872 H   0  0  0  0  0  0
  -20.9480  -29.8713   21.6721 H   0  0  0  0  0  0
  -26.0143  -38.2799   24.1378 H   0  0  0  0  0  0
  -28.5377  -20.9764   18.0782 H   0  0  0  0  0  0
  -26.1849  -23.6986   21.1565 H   0  0  0  0  0  0
  -27.4747  -23.4547   22.3298 H   0  0  0  0  0  0
  -26.6125  -22.0709   21.6595 H   0  0  0  0  0  0
  -30.9202  -21.5025   21.4660 H   0  0  0  0  0  0
  -29.5452  -21.5217   22.5790 H   0  0  0  0  0  0
  -30.1109  -23.0205   21.8430 H   0  0  0  0  0  0
  -27.9830  -24.6554   18.7609 H   0  0  0  0  0  0
  -29.4889  -24.5380   19.5372 H   0  0  0  0  0  0
  -27.4685  -22.5928   19.4385 H   0  0  0  0  0  0
  -28.9587  -15.9884   21.3219 H   0  0  0  0  0  0
  1 25  1  0  0  0
  1 30  2  0  0  0
  1 81  1  0  0  0
  2  3  1  0  0  0
  2 25  1  0  0  0
  2 86  1  0  0  0
  2 87  1  0  0  0
  3  4  1  0  0  0
  3 88  1  0  0  0
  3 89  1  0  0  0
  4  5  1  0  0  0
  4 90  1  0  0  0
  4 91  1  0  0  0
  5  6  1  0  0  0
  5 26  1  0  0  0
  5 92  1  0  0  0
  6 25  1  0  0  0
  6 93  1  0  0  0
  6 94  1  0  0  0
  7  8  2  0  0  0
  7 26  1  0  0  0
  7 29  1  0  0  0
  8  9  1  0  0  0
  8 22  1  0  0  0
  9 10  1  0  0  0
  9 27  2  0  0  0
 10 11  2  0  0  0
 10 15  1  0  0  0
 11 12  1  0  0  0
 11 95  1  0  0  0
 12 13  2  0  0  0
 12 96  1  0  0  0
 13 14  1  0  0  0
 13 31  1  0  0  0
 14 15  2  0  0  0
 14 97  1  0  0  0
 15 98  1  0  0  0
 16 17  2  0  0  0
 16 21  1  0  0  0
 16 31  1  0  0  0
 17 18  1  0  0  0
 17 99  1  0  0  0
 18 19  2  0  0  0
 18100  1  0  0  0
 19 20  1  0  0  0
 19 24  1  0  0  0
 20 21  2  0  0  0
 20101  1  0  0  0
 21 23  1  0  0  0
 22 28  1  0  0  0
 22 32  2  0  0  0
 26 27  1  0  0  0
 28102  1  0  0  0
 28103  1  0  0  0
 29104  1  0  0  0
 29105  1  0  0  0
 33 34  1  0  0  0
 33 66  1  0  0  0
 33 70  2  0  0  0
 34 36  1  0  0  0
 34 59  1  0  0  0
 34106  1  0  0  0
 35 44  2  0  0  0
 35 45  1  0  0  0
 35 68  1  0  0  0
 36 56  1  0  0  0
 36107  1  0  0  0
 37 39  1  0  0  0
 37 47  1  0  0  0
 37 66  1  0  0  0
 37108  1  0  0  0
 38 43  2  0  0  0
 38 46  1  0  0  0
 38 47  1  0  0  0
 39 64  1  0  0  0
 39 67  2  0  0  0
 40 52  1  0  0  0
 40 53  2  0  0  0
 40 58  1  0  0  0
 41109  1  0  0  0
 41110  1  0  0  0
 41111  1  0  0  0
 41 48  1  0  0  0
 42 43  1  0  0  0
 42 66  1  0  0  0
 42112  1  0  0  0
 42113  1  0  0  0
 43 44  1  0  0  0
 44114  1  0  0  0
 45 46  2  0  0  0
 45115  1  0  0  0
 46116  1  0  0  0
 47117  1  0  0  0
 47118  1  0  0  0
 48 56  1  0  0  0
 48 65  1  0  0  0
 48119  1  0  0  0
 49 50  1  0  0  0
 49 53  1  0  0  0
 49 64  1  0  0  0
 49120  1  0  0  0
 50 51  1  0  0  0
 50121  1  0  0  0
 50122  1  0  0  0
 51 52  1  0  0  0
 51123  1  0  0  0
 51124  1  0  0  0
 52125  1  0  0  0
 52126  1  0  0  0
 53 54  1  0  0  0
 54 55  2  0  0  0
 54127  1  0  0  0
 55 57  1  0  0  0
 55128  1  0  0  0
 56 69  2  0  0  0
 57 58  2  0  0  0
 57129  1  0  0  0
 58130  1  0  0  0
 59 60  1  0  0  0
 59 61  1  0  0  0
 59 62  1  0  0  0
 60131  1  0  0  0
 60132  1  0  0  0
 60133  1  0  0  0
 61134  1  0  0  0
 61135  1  0  0  0
 61136  1  0  0  0
 62137  1  0  0  0
 62138  1  0  0  0
 62139  1  0  0  0
 63 65  1  0  0  0
 63140  1  0  0  0
 63141  1  0  0  0
 63142  1  0  0  0
 64143  1  0  0  0
 65144  1  0  0  0
 68 79  1  0  0  0
 71 72  2  0  0  0
 71 74  1  0  0  0
 71145  1  0  0  0
 72 75  1  0  0  0
 72 82  1  0  0  0
 73 75  2  0  0  0
 73 76  1  0  0  0
 73 81  1  0  0  0
 74 76  2  0  0  0
 74 83  1  0  0  0
 75 84  1  0  0  0
 76 85  1  0  0  0
 77146  1  0  0  0
 77147  1  0  0  0
 77148  1  0  0  0
 77 80  1  0  0  0
 78 82  1  0  0  0
 78149  1  0  0  0
 78150  1  0  0  0
 78151  1  0  0  0
 79 80  1  0  0  0
 79152  1  0  0  0
 79153  1  0  0  0
 80 82  1  0  0  0
 80154  1  0  0  0
 81155  1  0  0  0
M  ISO  4   1 100  68 101  79 101  81 100
M  END
> <chiral flag>
0

> <version>
0

> <s_m_source_file>
/data/baiqing/PycharmProjects/Reinvent-master-3.2/result/LINK_invent/BTK/process_docking_weight1_custom_sum_contain_oxygen_bond_distance_aromatic_linkinvent_7_9_3/rearranged_h_0012.sdf

> <i_m_source_file_index>
23

> <r_mmod_Potential_Energy-OPLS-2005>
790.330444335938

> <r_mmod_Stretch_Energy-OPLS-2005>
346.214569091797

> <r_mmod_Bend_Energy-OPLS-2005>
362.225463867188

> <r_mmod_Torsional_Energy-OPLS-2005>
263.001861572266

> <r_mmod_Improper_Torsional_Energy-OPLS-2005>
5.1579122543335

> <r_mmod_Van_der_Waal_Energy-OPLS-2005>
120.378852844238

> <r_mmod_Electrostatic_Energy-OPLS-2005>
-355.941528320312

> <r_mmod_Solvation_Energy-OPLS-2005>
-216.309356689453

> <b_mmod_Minimization_Converged-OPLS-2005>
0

> <r_mmod_RMS_Derivative-OPLS-2005>
1.89677762985229

$$$$
23
                    3D
 Structure written by MMmdl.
163171  0  0  1  0            999 V2000
  -30.5300  -15.0826   20.3693 C   0  0  0  0  0  0
  -30.4575  -12.6877   19.4775 C   0  0  0  0  0  0
  -29.5332  -12.5478   18.2451 C   0  0  0  0  0  0
  -28.0778  -12.2970   18.6856 C   0  0  0  0  0  0
  -27.6270  -13.2627   19.8108 C   0  0  2  0  0  0
  -28.6729  -13.3773   20.9382 C   0  0  0  0  0  0
  -25.2515  -13.8219   20.5782 C   0  0  0  0  0  0
  -24.1831  -13.0414   20.9254 C   0  0  0  0  0  0
  -24.6462  -11.6926   20.8738 C   0  0  0  0  0  0
  -23.9162  -10.4275   21.0386 C   0  0  0  0  0  0
  -24.3703   -9.4178   21.9174 C   0  0  0  0  0  0
  -23.6342   -8.2224   22.0755 C   0  0  0  0  0  0
  -22.4297   -8.0279   21.3567 C   0  0  0  0  0  0
  -21.9976   -9.0257   20.4669 C   0  0  0  0  0  0
  -22.7329  -10.2113   20.3033 C   0  0  0  0  0  0
  -21.6848   -6.0751   22.5312 C   0  0  0  0  0  0
  -21.3983   -6.5653   23.8247 C   0  0  0  0  0  0
  -21.3676   -5.6798   24.9205 C   0  0  0  0  0  0
  -21.6042   -4.3063   24.7258 C   0  0  0  0  0  0
  -21.8811   -3.8161   23.4365 C   0  0  0  0  0  0
  -21.9196   -4.6978   22.3418 C   0  0  0  0  0  0
  -22.7830  -13.5175   21.1866 C   0  0  0  0  0  0
  -22.1656   -4.2163   21.0997 F   0  0  0  0  0  0
  -21.5674   -3.4542   25.7764 F   0  0  0  0  0  0
  -29.9342  -13.8125   20.3165 N   0  0  0  0  0  0
  -26.2926  -12.9485   20.3181 N   0  0  0  0  0  0
  -25.9412  -11.6612   20.5672 N   0  0  0  0  0  0
  -22.0427  -12.8212   22.0421 N   0  0  0  0  0  0
  -25.4200  -15.1948   20.4300 N   0  0  0  0  0  0
  -31.7538  -15.1054   20.1880 O   0  0  0  0  0  0
  -21.6639   -6.8884   21.4261 O   0  0  0  0  0  0
  -22.3535  -14.5466   20.6663 O   0  0  0  0  0  0
  -24.6545  -31.8358   23.1756 C   0  0  0  0  0  0
  -25.9287  -32.4619   23.8189 C   0  0  1  0  0  0
  -27.2329  -27.0722   20.1199 C   0  0  0  0  0  0
  -25.6011  -33.8440   24.2102 N   0  0  0  0  0  0
  -23.4598  -30.4498   21.5265 C   0  0  2  0  0  0
  -24.9127  -28.8728   20.1005 C   0  0  0  0  0  0
  -22.7615  -29.4486   22.4846 C   0  0  0  0  0  0
  -18.0298  -28.1414   22.8447 C   0  0  0  0  0  0
  -24.1521  -36.7231   23.2636 C   0  0  0  0  0  0
  -26.0213  -30.6905   21.3847 C   0  0  0  0  0  0
  -26.0921  -29.2971   20.7215 C   0  0  0  0  0  0
  -27.2498  -28.4138   20.7116 C   0  0  0  0  0  0
  -26.0175  -26.7716   19.4643 C   0  0  0  0  0  0
  -24.8952  -27.6321   19.4502 C   0  0  0  0  0  0
  -23.6865  -29.7742   20.1476 C   0  0  0  0  0  0
  -25.4157  -36.2990   24.0282 C   0  0  1  0  0  0
  -20.5919  -28.3762   23.1204 C   0  0  2  0  0  0
  -20.6799  -26.9456   22.5411 C   0  0  0  0  0  0
  -19.5770  -26.6396   21.5217 C   0  0  0  0  0  0
  -18.1940  -26.7946   22.1609 C   0  0  0  0  0  0
  -19.1560  -28.8907   23.2799 C   0  0  0  0  0  0
  -18.9461  -30.1498   23.8840 C   0  0  0  0  0  0
  -17.6456  -30.6599   24.0568 C   0  0  0  0  0  0
  -25.9125  -34.9374   23.5015 C   0  0  0  0  0  0
  -16.5354  -29.9105   23.6342 C   0  0  0  0  0  0
  -16.7271  -28.6536   23.0330 C   0  0  0  0  0  0
  -26.4585  -31.6499   25.0654 C   0  0  0  0  0  0
  -25.3731  -31.3734   26.1306 C   0  0  0  0  0  0
  -27.0440  -30.2855   24.6324 C   0  0  0  0  0  0
  -27.6099  -32.4268   25.7445 C   0  0  0  0  0  0
  -27.5582  -37.1748   24.8442 C   0  0  0  0  0  0
  -21.4304  -29.3054   22.3565 N   0  0  0  0  0  0
  -26.4291  -37.3713   23.9394 N   0  0  0  0  0  0
  -24.7313  -31.0174   22.0830 N   0  0  0  0  0  0
  -23.4231  -28.8081   23.3033 O   0  0  0  0  0  0
  -28.2774  -26.0475   20.2117 O   0  0  0  0  0  0
  -26.5728  -34.8898   22.4602 O   0  0  0  0  0  0
  -23.5642  -32.1252   23.6960 O   0  0  0  0  0  0
  -30.4274  -20.6110   21.4552 C   0  0  0  0  0  0
  -31.0450  -19.4867   22.0559 C   0  0  0  0  0  0
  -29.3769  -19.0586   19.9218 C   0  0  0  0  0  0
  -29.5616  -20.5053   20.3438 C   0  0  0  0  0  0
  -29.9883  -17.8250   20.5522 C   0  0  0  0  0  0
  -30.8286  -18.1506   21.6409 C   0  0  0  0  0  0
  -28.6511  -23.1108   20.2883 C   0  0  0  0  0  0
  -30.4301  -22.3733   16.0220 C   0  0  0  0  0  0
  -29.2305  -20.3311   16.8074 C   0  0  0  0  0  0
  -28.0498  -22.5301   16.7914 C   0  0  0  0  0  0
  -28.2991  -24.6008   19.5387 C   0  0  0  0  0  0
  -29.9895  -22.1303   18.4686 C   0  0  0  0  0  0
  -29.4035  -21.8424   17.0503 C   0  0  0  0  0  0
  -29.7478  -16.2962   20.3024 N   0  0  0  0  0  0
  -29.1759  -21.8832   19.6842 N   0  0  0  0  0  0
  -28.3444  -23.0684   21.4847 O   0  0  0  0  0  0
  -31.4029  -17.1615   22.3647 F   0  0  0  0  0  0
  -31.4773  -12.8835   19.1380 H   0  0  0  0  0  0
  -30.5035  -11.7568   20.0491 H   0  0  0  0  0  0
  -29.8816  -11.7343   17.6095 H   0  0  0  0  0  0
  -29.5929  -13.4504   17.6344 H   0  0  0  0  0  0
  -28.0333  -11.2727   19.0587 H   0  0  0  0  0  0
  -27.3981  -12.3373   17.8329 H   0  0  0  0  0  0
  -27.5600  -14.2408   19.3355 H   0  0  0  0  0  0
  -28.7899  -12.4329   21.4727 H   0  0  0  0  0  0
  -28.3469  -14.1232   21.6682 H   0  0  0  0  0  0
  -25.2823   -9.5645   22.4785 H   0  0  0  0  0  0
  -24.0048   -7.4599   22.7473 H   0  0  0  0  0  0
  -21.0910   -8.8772   19.8975 H   0  0  0  0  0  0
  -22.3799  -10.9651   19.6126 H   0  0  0  0  0  0
  -21.1919   -7.6129   23.9756 H   0  0  0  0  0  0
  -21.1523   -6.0520   25.9123 H   0  0  0  0  0  0
  -22.0577   -2.7615   23.2870 H   0  0  0  0  0  0
  -22.3944  -11.9897   22.4958 H   0  0  0  0  0  0
  -21.0989  -13.1254   22.2410 H   0  0  0  0  0  0
  -24.6751  -15.8606   20.5929 H   0  0  0  0  0  0
  -26.2933  -15.6392   20.1807 H   0  0  0  0  0  0
  -26.7356  -32.5205   23.0909 H   0  0  0  0  0  0
  -25.0051  -33.9530   25.0178 H   0  0  0  0  0  0
  -22.7635  -31.2750   21.3667 H   0  0  0  0  0  0
  -23.3774  -35.9556   23.3268 H   0  0  0  0  0  0
  -24.3601  -36.8914   22.2047 H   0  0  0  0  0  0
  -23.7282  -37.6418   23.6715 H   0  0  0  0  0  0
  -26.1927  -31.4454   20.6163 H   0  0  0  0  0  0
  -26.8858  -30.7367   22.0334 H   0  0  0  0  0  0
  -28.1476  -28.7547   21.2085 H   0  0  0  0  0  0
  -25.8767  -25.8228   18.9770 H   0  0  0  0  0  0
  -24.0010  -27.3130   18.9331 H   0  0  0  0  0  0
  -23.8087  -30.5439   19.3851 H   0  0  0  0  0  0
  -22.8066  -29.2042   19.8456 H   0  0  0  0  0  0
  -25.1340  -36.1781   25.0767 H   0  0  0  0  0  0
  -20.9968  -28.3391   24.1340 H   0  0  0  0  0  0
  -20.5737  -26.2362   23.3645 H   0  0  0  0  0  0
  -21.6650  -26.7478   22.1175 H   0  0  0  0  0  0
  -19.6957  -25.6313   21.1238 H   0  0  0  0  0  0
  -19.6726  -27.3216   20.6754 H   0  0  0  0  0  0
  -17.4222  -26.6668   21.4006 H   0  0  0  0  0  0
  -18.0345  -26.0095   22.9019 H   0  0  0  0  0  0
  -19.7953  -30.7321   24.2180 H   0  0  0  0  0  0
  -17.5024  -31.6256   24.5199 H   0  0  0  0  0  0
  -15.5361  -30.2994   23.7698 H   0  0  0  0  0  0
  -15.8657  -28.0856   22.7054 H   0  0  0  0  0  0
  -24.5937  -30.7063   25.7587 H   0  0  0  0  0  0
  -24.8910  -32.2948   26.4588 H   0  0  0  0  0  0
  -25.7980  -30.8970   27.0151 H   0  0  0  0  0  0
  -26.3063  -29.6525   24.1374 H   0  0  0  0  0  0
  -27.4019  -29.7198   25.4940 H   0  0  0  0  0  0
  -27.8999  -30.3969   23.9659 H   0  0  0  0  0  0
  -27.2683  -33.3596   26.1925 H   0  0  0  0  0  0
  -28.3974  -32.6771   25.0324 H   0  0  0  0  0  0
  -28.0705  -31.8452   26.5436 H   0  0  0  0  0  0
  -28.2530  -38.0101   24.7543 H   0  0  0  0  0  0
  -28.1151  -36.2641   24.6217 H   0  0  0  0  0  0
  -27.2305  -37.1299   25.8837 H   0  0  0  0  0  0
  -20.9585  -29.8699   21.6664 H   0  0  0  0  0  0
  -26.0155  -38.2754   24.1440 H   0  0  0  0  0  0
  -30.6699  -21.5916   21.8402 H   0  0  0  0  0  0
  -31.7207  -19.6530   22.8819 H   0  0  0  0  0  0
  -28.7419  -18.8707   19.0689 H   0  0  0  0  0  0
  -30.1456  -22.1311   14.9959 H   0  0  0  0  0  0
  -31.4208  -21.9469   16.1942 H   0  0  0  0  0  0
  -30.5372  -23.4599   16.0796 H   0  0  0  0  0  0
  -29.2559  -20.0975   15.7425 H   0  0  0  0  0  0
  -28.2719  -19.9732   17.1842 H   0  0  0  0  0  0
  -30.0192  -19.7425   17.2771 H   0  0  0  0  0  0
  -27.6960  -22.3375   15.7773 H   0  0  0  0  0  0
  -28.1172  -23.6102   16.9000 H   0  0  0  0  0  0
  -27.2757  -22.1688   17.4690 H   0  0  0  0  0  0
  -27.3583  -24.4157   19.0305 H   0  0  0  0  0  0
  -29.0069  -24.7310   18.7242 H   0  0  0  0  0  0
  -30.4066  -23.1370   18.4950 H   0  0  0  0  0  0
  -30.8993  -21.5347   18.5640 H   0  0  0  0  0  0
  -28.7700  -16.0716   20.2024 H   0  0  0  0  0  0
  1 25  1  0  0  0
  1 30  2  0  0  0
  1 84  1  0  0  0
  2  3  1  0  0  0
  2 25  1  0  0  0
  2 88  1  0  0  0
  2 89  1  0  0  0
  3  4  1  0  0  0
  3 90  1  0  0  0
  3 91  1  0  0  0
  4  5  1  0  0  0
  4 92  1  0  0  0
  4 93  1  0  0  0
  5  6  1  0  0  0
  5 26  1  0  0  0
  5 94  1  0  0  0
  6 25  1  0  0  0
  6 95  1  0  0  0
  6 96  1  0  0  0
  7  8  2  0  0  0
  7 26  1  0  0  0
  7 29  1  0  0  0
  8  9  1  0  0  0
  8 22  1  0  0  0
  9 10  1  0  0  0
  9 27  2  0  0  0
 10 11  2  0  0  0
 10 15  1  0  0  0
 11 12  1  0  0  0
 11 97  1  0  0  0
 12 13  2  0  0  0
 12 98  1  0  0  0
 13 14  1  0  0  0
 13 31  1  0  0  0
 14 15  2  0  0  0
 14 99  1  0  0  0
 15100  1  0  0  0
 16 17  2  0  0  0
 16 21  1  0  0  0
 16 31  1  0  0  0
 17 18  1  0  0  0
 17101  1  0  0  0
 18 19  2  0  0  0
 18102  1  0  0  0
 19 20  1  0  0  0
 19 24  1  0  0  0
 20 21  2  0  0  0
 20103  1  0  0  0
 21 23  1  0  0  0
 22 28  1  0  0  0
 22 32  2  0  0  0
 26 27  1  0  0  0
 28104  1  0  0  0
 28105  1  0  0  0
 29106  1  0  0  0
 29107  1  0  0  0
 33 34  1  0  0  0
 33 66  1  0  0  0
 33 70  2  0  0  0
 34 36  1  0  0  0
 34 59  1  0  0  0
 34108  1  0  0  0
 35 44  2  0  0  0
 35 45  1  0  0  0
 35 68  1  0  0  0
 36 56  1  0  0  0
 36109  1  0  0  0
 37 39  1  0  0  0
 37 47  1  0  0  0
 37 66  1  0  0  0
 37110  1  0  0  0
 38 43  2  0  0  0
 38 46  1  0  0  0
 38 47  1  0  0  0
 39 64  1  0  0  0
 39 67  2  0  0  0
 40 52  1  0  0  0
 40 53  2  0  0  0
 40 58  1  0  0  0
 41111  1  0  0  0
 41112  1  0  0  0
 41113  1  0  0  0
 41 48  1  0  0  0
 42 43  1  0  0  0
 42 66  1  0  0  0
 42114  1  0  0  0
 42115  1  0  0  0
 43 44  1  0  0  0
 44116  1  0  0  0
 45 46  2  0  0  0
 45117  1  0  0  0
 46118  1  0  0  0
 47119  1  0  0  0
 47120  1  0  0  0
 48 56  1  0  0  0
 48 65  1  0  0  0
 48121  1  0  0  0
 49 50  1  0  0  0
 49 53  1  0  0  0
 49 64  1  0  0  0
 49122  1  0  0  0
 50 51  1  0  0  0
 50123  1  0  0  0
 50124  1  0  0  0
 51 52  1  0  0  0
 51125  1  0  0  0
 51126  1  0  0  0
 52127  1  0  0  0
 52128  1  0  0  0
 53 54  1  0  0  0
 54 55  2  0  0  0
 54129  1  0  0  0
 55 57  1  0  0  0
 55130  1  0  0  0
 56 69  2  0  0  0
 57 58  2  0  0  0
 57131  1  0  0  0
 58132  1  0  0  0
 59 60  1  0  0  0
 59 61  1  0  0  0
 59 62  1  0  0  0
 60133  1  0  0  0
 60134  1  0  0  0
 60135  1  0  0  0
 61136  1  0  0  0
 61137  1  0  0  0
 61138  1  0  0  0
 62139  1  0  0  0
 62140  1  0  0  0
 62141  1  0  0  0
 63 65  1  0  0  0
 63142  1  0  0  0
 63143  1  0  0  0
 63144  1  0  0  0
 64145  1  0  0  0
 65146  1  0  0  0
 68 81  1  0  0  0
 71 72  2  0  0  0
 71 74  1  0  0  0
 71147  1  0  0  0
 72 76  1  0  0  0
 72148  1  0  0  0
 73 74  2  0  0  0
 73 75  1  0  0  0
 73149  1  0  0  0
 74 85  1  0  0  0
 75 76  2  0  0  0
 75 84  1  0  0  0
 76 87  1  0  0  0
 77 81  1  0  0  0
 77 85  1  0  0  0
 77 86  2  0  0  0
 78150  1  0  0  0
 78151  1  0  0  0
 78152  1  0  0  0
 78 83  1  0  0  0
 79 83  1  0  0  0
 79153  1  0  0  0
 79154  1  0  0  0
 79155  1  0  0  0
 80 83  1  0  0  0
 80156  1  0  0  0
 80157  1  0  0  0
 80158  1  0  0  0
 81159  1  0  0  0
 81160  1  0  0  0
 82 83  1  0  0  0
 82 85  1  0  0  0
 82161  1  0  0  0
 82162  1  0  0  0
 84163  1  0  0  0
M  ISO  4   1 100  68 101  81 101  84 100
M  END
> <chiral flag>
0

> <version>
0

> <s_m_source_file>
/data/baiqing/PycharmProjects/Reinvent-master-3.2/result/LINK_invent/BTK/process_docking_weight1_custom_sum_contain_oxygen_bond_distance_aromatic_linkinvent_7_9_3/rearranged_h_0012.sdf

> <i_m_source_file_index>
24

> <r_mmod_Potential_Energy-OPLS-2005>
867.513488769531

> <r_mmod_Stretch_Energy-OPLS-2005>
373.808380126953

> <r_mmod_Bend_Energy-OPLS-2005>
329.044891357422

> <r_mmod_Torsional_Energy-OPLS-2005>
311.581024169922

> <r_mmod_Improper_Torsional_Energy-OPLS-2005>
12.5675230026245

> <r_mmod_Van_der_Waal_Energy-OPLS-2005>
133.059158325195

> <r_mmod_Electrostatic_Energy-OPLS-2005>
-346.137298583984

> <r_mmod_Solvation_Energy-OPLS-2005>
-227.900817871094

> <b_mmod_Minimization_Converged-OPLS-2005>
0

> <r_mmod_RMS_Derivative-OPLS-2005>
6.22287654876709

$$$$
24
                    3D
 Structure written by MMmdl.
157165  0  0  1  0            999 V2000
  -30.5736  -14.6720   20.4570 C   0  0  0  0  0  0
  -30.4453  -12.4008   19.4659 C   0  0  0  0  0  0
  -29.5187  -12.4911   18.2309 C   0  0  0  0  0  0
  -28.0362  -12.3421   18.6328 C   0  0  0  0  0  0
  -27.6514  -13.2135   19.8581 C   0  0  2  0  0  0
  -28.6933  -13.0751   20.9935 C   0  0  0  0  0  0
  -25.2575  -13.8180   20.5667 C   0  0  0  0  0  0
  -24.1847  -13.0442   20.9173 C   0  0  0  0  0  0
  -24.6402  -11.6914   20.8706 C   0  0  0  0  0  0
  -23.9065  -10.4301   21.0418 C   0  0  0  0  0  0
  -24.3612   -9.4208   21.9179 C   0  0  0  0  0  0
  -23.6285   -8.2253   22.0757 C   0  0  0  0  0  0
  -22.4259   -8.0301   21.3567 C   0  0  0  0  0  0
  -21.9894   -9.0271   20.4665 C   0  0  0  0  0  0
  -22.7247  -10.2142   20.3058 C   0  0  0  0  0  0
  -21.6862   -6.0738   22.5276 C   0  0  0  0  0  0
  -21.4041   -6.5630   23.8215 C   0  0  0  0  0  0
  -21.3653   -5.6763   24.9172 C   0  0  0  0  0  0
  -21.6023   -4.3028   24.7216 C   0  0  0  0  0  0
  -21.8823   -3.8147   23.4335 C   0  0  0  0  0  0
  -21.9205   -4.6968   22.3392 C   0  0  0  0  0  0
  -22.7860  -13.5246   21.1819 C   0  0  0  0  0  0
  -22.1657   -4.2167   21.0978 F   0  0  0  0  0  0
  -21.5612   -3.4510   25.7727 F   0  0  0  0  0  0
  -30.0056  -13.4264   20.4296 N   0  0  0  0  0  0
  -26.2985  -12.9335   20.3295 N   0  0  0  0  0  0
  -25.9328  -11.6489   20.5732 N   0  0  0  0  0  0
  -22.0485  -12.8287   22.0399 N   0  0  0  0  0  0
  -25.4289  -15.1902   20.4107 N   0  0  0  0  0  0
  -31.7404  -14.8520   20.0878 O   0  0  0  0  0  0
  -21.6638   -6.8893   21.4246 O   0  0  0  0  0  0
  -22.3551  -14.5576   20.6695 O   0  0  0  0  0  0
  -24.6240  -31.8617   23.2057 C   0  0  0  0  0  0
  -25.9105  -32.4798   23.8369 C   0  0  1  0  0  0
  -27.2040  -27.3259   20.1136 C   0  0  0  0  0  0
  -25.5932  -33.8585   24.2302 N   0  0  0  0  0  0
  -23.4154  -30.4855   21.5492 C   0  0  2  0  0  0
  -24.8573  -28.9423   20.1105 C   0  0  0  0  0  0
  -22.7461  -29.4628   22.4962 C   0  0  0  0  0  0
  -18.0275  -28.1409   22.8474 C   0  0  0  0  0  0
  -24.1485  -36.7280   23.2628 C   0  0  0  0  0  0
  -25.9552  -30.7968   21.3704 C   0  0  0  0  0  0
  -26.0282  -29.4234   20.7131 C   0  0  0  0  0  0
  -27.2091  -28.6252   20.7042 C   0  0  0  0  0  0
  -26.0159  -26.8913   19.4913 C   0  0  0  0  0  0
  -24.8519  -27.6825   19.4907 C   0  0  0  0  0  0
  -23.6268  -29.8248   20.1623 C   0  0  0  0  0  0
  -25.4112  -36.3086   24.0327 C   0  0  1  0  0  0
  -20.5887  -28.3703   23.1297 C   0  0  2  0  0  0
  -20.6789  -26.9428   22.5428 C   0  0  0  0  0  0
  -19.5756  -26.6391   21.5225 C   0  0  0  0  0  0
  -18.1924  -26.7955   22.1606 C   0  0  0  0  0  0
  -19.1536  -28.8872   23.2886 C   0  0  0  0  0  0
  -18.9450  -30.1471   23.8908 C   0  0  0  0  0  0
  -17.6449  -30.6603   24.0561 C   0  0  0  0  0  0
  -25.9055  -34.9450   23.5108 C   0  0  0  0  0  0
  -16.5339  -29.9096   23.6345 C   0  0  0  0  0  0
  -16.7262  -28.6525   23.0354 C   0  0  0  0  0  0
  -26.4487  -31.6594   25.0729 C   0  0  0  0  0  0
  -25.3717  -31.3734   26.1456 C   0  0  0  0  0  0
  -27.0294  -30.3015   24.6141 C   0  0  0  0  0  0
  -27.6068  -32.4307   25.7474 C   0  0  0  0  0  0
  -27.5587  -37.1784   24.8449 C   0  0  0  0  0  0
  -21.4188  -29.3045   22.3696 N   0  0  0  0  0  0
  -26.4294  -37.3776   23.9407 N   0  0  0  0  0  0
  -24.6845  -31.0624   22.1003 N   0  0  0  0  0  0
  -23.4206  -28.8176   23.3044 O   0  0  0  0  0  0
  -28.3135  -26.4791   20.1178 O   0  0  0  0  0  0
  -26.5611  -34.8920   22.4678 O   0  0  0  0  0  0
  -23.5409  -32.1408   23.7391 O   0  0  0  0  0  0
  -29.2184  -18.9887   18.8360 C   0  0  0  0  0  0
  -29.5756  -19.5096   21.1522 C   0  0  0  0  0  0
  -29.3906  -17.5975   19.1086 C   0  0  0  0  0  0
  -29.7738  -18.1218   21.4346 C   0  0  0  0  0  0
  -29.2806  -19.9822   19.8475 C   0  0  0  0  0  0
  -29.7156  -17.1268   20.4154 C   0  0  0  0  0  0
  -28.5498  -22.4267   20.2156 C   0  0  0  0  0  0
  -29.1010  -16.6253   17.9807 C   0  0  0  0  0  0
  -29.9888  -17.7051   22.8763 C   0  0  0  0  0  0
  -28.5409  -23.8853   19.6022 C   0  0  0  0  0  0
  -28.1072  -25.0796   20.5568 C   0  0  0  0  0  0
  -29.0826  -21.3883   19.4951 N   0  0  0  0  0  0
  -29.7196  -15.7035   20.7620 N   0  0  0  0  0  0
  -28.0483  -22.2418   21.3245 O   0  0  0  0  0  0
  -31.4888  -12.5314   19.1755 H   0  0  0  0  0  0
  -30.3828  -11.4155   19.9283 H   0  0  0  0  0  0
  -29.7900  -11.7222   17.5071 H   0  0  0  0  0  0
  -29.6730  -13.4447   17.7263 H   0  0  0  0  0  0
  -27.8624  -11.2894   18.8606 H   0  0  0  0  0  0
  -27.3951  -12.5848   17.7827 H   0  0  0  0  0  0
  -27.6658  -14.2482   19.5137 H   0  0  0  0  0  0
  -28.7134  -12.0544   21.3792 H   0  0  0  0  0  0
  -28.4360  -13.7084   21.8433 H   0  0  0  0  0  0
  -25.2756   -9.5687   22.4742 H   0  0  0  0  0  0
  -24.0013   -7.4633   22.7453 H   0  0  0  0  0  0
  -21.0832   -8.8811   19.8950 H   0  0  0  0  0  0
  -22.3726  -10.9677   19.6162 H   0  0  0  0  0  0
  -21.2051   -7.6123   23.9729 H   0  0  0  0  0  0
  -21.1445   -6.0488   25.9074 H   0  0  0  0  0  0
  -22.0607   -2.7608   23.2831 H   0  0  0  0  0  0
  -22.4053  -11.9938   22.4817 H   0  0  0  0  0  0
  -21.1102  -13.1368   22.2563 H   0  0  0  0  0  0
  -24.6641  -15.8451   20.5280 H   0  0  0  0  0  0
  -26.2811  -15.6348   20.1011 H   0  0  0  0  0  0
  -26.7167  -32.5464   23.1112 H   0  0  0  0  0  0
  -25.0140  -33.9746   25.0485 H   0  0  0  0  0  0
  -22.7083  -31.3062   21.4118 H   0  0  0  0  0  0
  -23.3772  -35.9584   23.3271 H   0  0  0  0  0  0
  -24.3585  -36.8921   22.2045 H   0  0  0  0  0  0
  -23.7214  -37.6465   23.6665 H   0  0  0  0  0  0
  -26.0800  -31.5623   20.6013 H   0  0  0  0  0  0
  -26.8394  -30.8492   21.9961 H   0  0  0  0  0  0
  -28.1117  -28.9888   21.1760 H   0  0  0  0  0  0
  -25.9817  -25.9261   19.0075 H   0  0  0  0  0  0
  -23.9537  -27.3119   19.0160 H   0  0  0  0  0  0
  -23.7431  -30.6021   19.4055 H   0  0  0  0  0  0
  -22.7459  -29.2529   19.8669 H   0  0  0  0  0  0
  -25.1287  -36.1938   25.0820 H   0  0  0  0  0  0
  -20.9953  -28.3284   24.1421 H   0  0  0  0  0  0
  -20.5729  -26.2289   23.3618 H   0  0  0  0  0  0
  -21.6655  -26.7501   22.1190 H   0  0  0  0  0  0
  -19.6920  -25.6300   21.1255 H   0  0  0  0  0  0
  -19.6711  -27.3210   20.6762 H   0  0  0  0  0  0
  -17.4215  -26.6732   21.3988 H   0  0  0  0  0  0
  -18.0279  -26.0115   22.9002 H   0  0  0  0  0  0
  -19.7924  -30.7292   24.2294 H   0  0  0  0  0  0
  -17.5001  -31.6295   24.5135 H   0  0  0  0  0  0
  -15.5346  -30.2990   23.7680 H   0  0  0  0  0  0
  -15.8656  -28.0837   22.7074 H   0  0  0  0  0  0
  -24.5899  -30.7070   25.7800 H   0  0  0  0  0  0
  -24.8905  -32.2899   26.4867 H   0  0  0  0  0  0
  -25.8046  -30.8932   27.0239 H   0  0  0  0  0  0
  -26.2843  -29.6798   24.1166 H   0  0  0  0  0  0
  -27.3999  -29.7237   25.4620 H   0  0  0  0  0  0
  -27.8716  -30.4305   23.9340 H   0  0  0  0  0  0
  -27.2715  -33.3608   26.2059 H   0  0  0  0  0  0
  -28.3855  -32.6850   25.0280 H   0  0  0  0  0  0
  -28.0749  -31.8426   26.5367 H   0  0  0  0  0  0
  -28.2580  -38.0107   24.7559 H   0  0  0  0  0  0
  -28.1111  -36.2648   24.6189 H   0  0  0  0  0  0
  -27.2317  -37.1346   25.8854 H   0  0  0  0  0  0
  -20.9367  -29.8733   21.6880 H   0  0  0  0  0  0
  -26.0172  -38.2841   24.1464 H   0  0  0  0  0  0
  -28.9691  -19.2908   17.8282 H   0  0  0  0  0  0
  -29.6316  -20.2266   21.9578 H   0  0  0  0  0  0
  -29.1992  -17.1093   17.0090 H   0  0  0  0  0  0
  -28.0782  -16.2609   18.0769 H   0  0  0  0  0  0
  -29.7740  -15.7708   17.9846 H   0  0  0  0  0  0
  -30.2234  -18.5607   23.5097 H   0  0  0  0  0  0
  -30.8078  -16.9918   22.9620 H   0  0  0  0  0  0
  -29.0820  -17.2357   23.2588 H   0  0  0  0  0  0
  -27.8992  -23.8882   18.7207 H   0  0  0  0  0  0
  -29.5451  -24.0894   19.2344 H   0  0  0  0  0  0
  -28.6786  -24.9794   21.4793 H   0  0  0  0  0  0
  -27.0724  -24.9123   20.8647 H   0  0  0  0  0  0
  -29.3183  -21.6287   18.5400 H   0  0  0  0  0  0
  -28.8482  -15.3778   21.1465 H   0  0  0  0  0  0
  1 25  1  0  0  0
  1 30  2  0  0  0
  1 83  1  0  0  0
  2  3  1  0  0  0
  2 25  1  0  0  0
  2 85  1  0  0  0
  2 86  1  0  0  0
  3  4  1  0  0  0
  3 87  1  0  0  0
  3 88  1  0  0  0
  4  5  1  0  0  0
  4 89  1  0  0  0
  4 90  1  0  0  0
  5  6  1  0  0  0
  5 26  1  0  0  0
  5 91  1  0  0  0
  6 25  1  0  0  0
  6 92  1  0  0  0
  6 93  1  0  0  0
  7  8  2  0  0  0
  7 26  1  0  0  0
  7 29  1  0  0  0
  8  9  1  0  0  0
  8 22  1  0  0  0
  9 10  1  0  0  0
  9 27  2  0  0  0
 10 11  2  0  0  0
 10 15  1  0  0  0
 11 12  1  0  0  0
 11 94  1  0  0  0
 12 13  2  0  0  0
 12 95  1  0  0  0
 13 14  1  0  0  0
 13 31  1  0  0  0
 14 15  2  0  0  0
 14 96  1  0  0  0
 15 97  1  0  0  0
 16 17  2  0  0  0
 16 21  1  0  0  0
 16 31  1  0  0  0
 17 18  1  0  0  0
 17 98  1  0  0  0
 18 19  2  0  0  0
 18 99  1  0  0  0
 19 20  1  0  0  0
 19 24  1  0  0  0
 20 21  2  0  0  0
 20100  1  0  0  0
 21 23  1  0  0  0
 22 28  1  0  0  0
 22 32  2  0  0  0
 26 27  1  0  0  0
 28101  1  0  0  0
 28102  1  0  0  0
 29103  1  0  0  0
 29104  1  0  0  0
 33 34  1  0  0  0
 33 66  1  0  0  0
 33 70  2  0  0  0
 34 36  1  0  0  0
 34 59  1  0  0  0
 34105  1  0  0  0
 35 44  2  0  0  0
 35 45  1  0  0  0
 35 68  1  0  0  0
 36 56  1  0  0  0
 36106  1  0  0  0
 37 39  1  0  0  0
 37 47  1  0  0  0
 37 66  1  0  0  0
 37107  1  0  0  0
 38 43  2  0  0  0
 38 46  1  0  0  0
 38 47  1  0  0  0
 39 64  1  0  0  0
 39 67  2  0  0  0
 40 52  1  0  0  0
 40 53  2  0  0  0
 40 58  1  0  0  0
 41108  1  0  0  0
 41109  1  0  0  0
 41110  1  0  0  0
 41 48  1  0  0  0
 42 43  1  0  0  0
 42 66  1  0  0  0
 42111  1  0  0  0
 42112  1  0  0  0
 43 44  1  0  0  0
 44113  1  0  0  0
 45 46  2  0  0  0
 45114  1  0  0  0
 46115  1  0  0  0
 47116  1  0  0  0
 47117  1  0  0  0
 48 56  1  0  0  0
 48 65  1  0  0  0
 48118  1  0  0  0
 49 50  1  0  0  0
 49 53  1  0  0  0
 49 64  1  0  0  0
 49119  1  0  0  0
 50 51  1  0  0  0
 50120  1  0  0  0
 50121  1  0  0  0
 51 52  1  0  0  0
 51122  1  0  0  0
 51123  1  0  0  0
 52124  1  0  0  0
 52125  1  0  0  0
 53 54  1  0  0  0
 54 55  2  0  0  0
 54126  1  0  0  0
 55 57  1  0  0  0
 55127  1  0  0  0
 56 69  2  0  0  0
 57 58  2  0  0  0
 57128  1  0  0  0
 58129  1  0  0  0
 59 60  1  0  0  0
 59 61  1  0  0  0
 59 62  1  0  0  0
 60130  1  0  0  0
 60131  1  0  0  0
 60132  1  0  0  0
 61133  1  0  0  0
 61134  1  0  0  0
 61135  1  0  0  0
 62136  1  0  0  0
 62137  1  0  0  0
 62138  1  0  0  0
 63 65  1  0  0  0
 63139  1  0  0  0
 63140  1  0  0  0
 63141  1  0  0  0
 64142  1  0  0  0
 65143  1  0  0  0
 68 81  1  0  0  0
 71 73  2  0  0  0
 71 75  1  0  0  0
 71144  1  0  0  0
 72 74  1  0  0  0
 72 75  2  0  0  0
 72145  1  0  0  0
 73 76  1  0  0  0
 73 78  1  0  0  0
 74 76  2  0  0  0
 74 79  1  0  0  0
 75 82  1  0  0  0
 76 83  1  0  0  0
 77 80  1  0  0  0
 77 82  1  0  0  0
 77 84  2  0  0  0
 78146  1  0  0  0
 78147  1  0  0  0
 78148  1  0  0  0
 79149  1  0  0  0
 79150  1  0  0  0
 79151  1  0  0  0
 80 81  1  0  0  0
 80152  1  0  0  0
 80153  1  0  0  0
 81154  1  0  0  0
 81155  1  0  0  0
 82156  1  0  0  0
 83157  1  0  0  0
M  ISO  4   1 100  68 101  81 101  83 100
M  END
> <chiral flag>
0

> <version>
0

> <s_m_source_file>
/data/baiqing/PycharmProjects/Reinvent-master-3.2/result/LINK_invent/BTK/process_docking_weight1_custom_sum_contain_oxygen_bond_distance_aromatic_linkinvent_7_9_3/rearranged_h_0012.sdf

> <i_m_source_file_index>
25

> <r_mmod_Potential_Energy-OPLS-2005>
-0.691497206687927

> <r_mmod_Stretch_Energy-OPLS-2005>
75.2995376586914

> <r_mmod_Bend_Energy-OPLS-2005>
129.294631958008

> <r_mmod_Torsional_Energy-OPLS-2005>
272.643585205078

> <r_mmod_Improper_Torsional_Energy-OPLS-2005>
6.36526870727539

> <r_mmod_Van_der_Waal_Energy-OPLS-2005>
137.878723144531

> <r_mmod_Electrostatic_Energy-OPLS-2005>
-445.075225830078

> <r_mmod_Solvation_Energy-OPLS-2005>
-232.114700317383

> <b_mmod_Minimization_Converged-OPLS-2005>
0

> <r_mmod_RMS_Derivative-OPLS-2005>
5.30618858337402

$$$$
26
                    3D
 Structure written by MMmdl.
155163  0  0  1  0            999 V2000
  -30.1986  -14.6596   20.5823 C   0  0  0  0  0  0
  -30.4634  -12.4616   19.3707 C   0  0  0  0  0  0
  -29.4845  -12.4757   18.1558 C   0  0  0  0  0  0
  -27.9793  -12.2953   18.5471 C   0  0  0  0  0  0
  -27.6805  -13.2234   19.7412 C   0  0  2  0  0  0
  -28.6785  -12.7742   20.8318 C   0  0  0  0  0  0
  -25.5094  -14.4933   20.8352 C   0  0  0  0  0  0
  -24.3620  -13.4401   20.8176 C   0  0  0  0  0  0
  -24.7190  -12.0112   20.8148 C   0  0  0  0  0  0
  -23.9816  -10.6433   20.9961 C   0  0  0  0  0  0
  -24.4154   -9.6007   21.8805 C   0  0  0  0  0  0
  -23.6978   -8.3748   22.0579 C   0  0  0  0  0  0
  -22.4943   -8.1275   21.3526 C   0  0  0  0  0  0
  -22.0677   -9.1243   20.4519 C   0  0  0  0  0  0
  -22.7922  -10.3349   20.2763 C   0  0  0  0  0  0
  -21.7334   -6.1248   22.5196 C   0  0  0  0  0  0
  -21.4381   -6.5983   23.8180 C   0  0  0  0  0  0
  -21.3782   -5.7021   24.9064 C   0  0  0  0  0  0
  -21.6026   -4.3258   24.7051 C   0  0  0  0  0  0
  -21.8775   -3.8465   23.4136 C   0  0  0  0  0  0
  -21.9331   -4.7379   22.3266 C   0  0  0  0  0  0
  -22.8369  -13.5731   20.9761 C   0  0  0  0  0  0
  -22.1709   -4.2523   21.0834 F   0  0  0  0  0  0
  -21.5536   -3.4667   25.7513 F   0  0  0  0  0  0
  -29.9083  -13.3412   20.4110 N   0  0  0  0  0  0
  -26.3305  -13.3324   20.2811 N   0  0  0  0  0  0
  -25.9512  -12.0135   20.4904 N   0  0  0  0  0  0
  -22.1900  -12.8741   21.9220 N   0  0  0  0  0  0
  -26.0199  -16.5747   22.2756 N   0  0  0  0  0  0
  -31.3612  -15.0154   20.2909 O   0  0  0  0  0  0
  -21.7425   -6.9631   21.4226 O   0  0  0  0  0  0
  -22.2290  -14.4231   20.3373 O   0  0  0  0  0  0
  -24.6887  -31.7993   23.1531 C   0  0  0  0  0  0
  -25.9488  -32.4418   23.8035 C   0  0  1  0  0  0
  -26.9127  -26.5753   20.1755 C   0  0  0  0  0  0
  -25.6062  -33.8254   24.1899 N   0  0  0  0  0  0
  -23.4958  -30.4284   21.5177 C   0  0  2  0  0  0
  -24.8839  -28.7850   20.0791 C   0  0  0  0  0  0
  -22.7728  -29.4372   22.4709 C   0  0  0  0  0  0
  -18.0356  -28.1417   22.8472 C   0  0  0  0  0  0
  -24.1517  -36.7157   23.2641 C   0  0  0  0  0  0
  -26.0796  -30.4748   21.4327 C   0  0  0  0  0  0
  -26.0775  -29.0446   20.7606 C   0  0  0  0  0  0
  -27.1043  -27.9568   20.7808 C   0  0  0  0  0  0
  -25.7499  -26.5737   19.3982 C   0  0  0  0  0  0
  -24.7726  -27.5895   19.3646 C   0  0  0  0  0  0
  -23.7219  -29.7767   20.1296 C   0  0  0  0  0  0
  -25.4165  -36.2858   24.0259 C   0  0  1  0  0  0
  -20.5978  -28.3779   23.1141 C   0  0  2  0  0  0
  -20.6811  -26.9448   22.5391 C   0  0  0  0  0  0
  -19.5760  -26.6375   21.5221 C   0  0  0  0  0  0
  -18.1962  -26.7950   22.1639 C   0  0  0  0  0  0
  -19.1617  -28.8929   23.2788 C   0  0  0  0  0  0
  -18.9502  -30.1516   23.8830 C   0  0  0  0  0  0
  -17.6485  -30.6594   24.0564 C   0  0  0  0  0  0
  -25.9165  -34.9260   23.4917 C   0  0  0  0  0  0
  -16.5386  -29.9075   23.6344 C   0  0  0  0  0  0
  -16.7335  -28.6500   23.0367 C   0  0  0  0  0  0
  -26.4624  -31.6482   25.0697 C   0  0  0  0  0  0
  -25.3651  -31.3841   26.1280 C   0  0  0  0  0  0
  -27.0539  -30.2800   24.6674 C   0  0  0  0  0  0
  -27.6064  -32.4364   25.7494 C   0  0  0  0  0  0
  -27.5586  -37.1711   24.8433 C   0  0  0  0  0  0
  -21.4384  -29.3048   22.3465 N   0  0  0  0  0  0
  -26.4268  -37.3635   23.9410 N   0  0  0  0  0  0
  -24.7832  -30.9396   22.0818 N   0  0  0  0  0  0
  -23.4208  -28.7931   23.2995 O   0  0  0  0  0  0
  -27.6093  -25.1912   20.2199 O   0  0  0  0  0  0
  -26.5796  -34.8847   22.4533 O   0  0  0  0  0  0
  -23.5922  -32.1161   23.6492 O   0  0  0  0  0  0
  -24.6033  -16.6432   20.5141 C   0  0  0  0  0  0
  -25.1411  -14.6718   23.1054 C   0  0  0  0  0  0
  -26.4360  -16.7416   20.0854 C   0  0  0  0  0  0
  -27.6338  -15.5580   21.0821 C   0  0  0  0  0  0
  -26.9769  -14.5784   22.6259 C   0  0  0  0  0  0
  -23.9581  -15.7500   22.0634 C   0  0  0  0  0  0
  -26.5435  -19.8998   19.9788 C   0  0  0  0  0  0
  -28.7276  -14.9542   24.1721 C   0  0  0  0  0  0
  -27.3722  -21.5995   20.0534 C   0  0  0  0  0  0
  -26.9408  -23.5269   20.1221 C   0  0  0  0  0  0
  -26.9743  -18.3917   19.9358 N   0  0  0  0  0  0
  -29.1529  -15.5813   20.8891 N   0  0  0  0  0  0
  -25.3199  -20.0333   19.9172 O   0  0  0  0  0  0
  -27.7863  -14.0508   23.6069 O   0  0  0  0  0  0
  -22.7012  -16.0010   22.5200 F   0  0  0  0  0  0
  -31.4580  -12.7883   19.0643 H   0  0  0  0  0  0
  -30.5854  -11.4548   19.7685 H   0  0  0  0  0  0
  -29.7737  -11.7225   17.4246 H   0  0  0  0  0  0
  -29.6068  -13.4322   17.6421 H   0  0  0  0  0  0
  -27.7833  -11.2500   18.7988 H   0  0  0  0  0  0
  -27.3366  -12.5251   17.6965 H   0  0  0  0  0  0
  -27.8754  -14.1669   19.2381 H   0  0  0  0  0  0
  -28.7185  -11.6865   20.8855 H   0  0  0  0  0  0
  -28.5380  -13.0039   21.8524 H   0  0  0  0  0  0
  -25.3239   -9.7532   22.4489 H   0  0  0  0  0  0
  -24.0893   -7.6305   22.7384 H   0  0  0  0  0  0
  -21.1700   -8.9669   19.8710 H   0  0  0  0  0  0
  -22.4125  -11.0630   19.5746 H   0  0  0  0  0  0
  -21.2548   -7.6512   23.9776 H   0  0  0  0  0  0
  -21.1585   -6.0736   25.8973 H   0  0  0  0  0  0
  -22.0384   -2.7913   23.2510 H   0  0  0  0  0  0
  -22.6616  -12.2166   22.5271 H   0  0  0  0  0  0
  -21.1995  -13.0167   22.0493 H   0  0  0  0  0  0
  -25.2902  -17.2237   22.5486 H   0  0  0  0  0  0
  -26.9252  -17.0304   22.2674 H   0  0  0  0  0  0
  -26.7537  -32.4756   23.0684 H   0  0  0  0  0  0
  -25.0083  -33.9252   24.9972 H   0  0  0  0  0  0
  -22.8294  -31.2785   21.3638 H   0  0  0  0  0  0
  -23.3788  -35.9463   23.3147 H   0  0  0  0  0  0
  -24.3622  -36.8987   22.2089 H   0  0  0  0  0  0
  -23.7248  -37.6287   23.6824 H   0  0  0  0  0  0
  -26.3190  -31.1933   20.6479 H   0  0  0  0  0  0
  -26.9282  -30.5020   22.1029 H   0  0  0  0  0  0
  -28.0001  -28.1147   21.3657 H   0  0  0  0  0  0
  -25.5091  -25.6799   18.8429 H   0  0  0  0  0  0
  -23.8759  -27.4137   18.7830 H   0  0  0  0  0  0
  -23.9150  -30.5599   19.3936 H   0  0  0  0  0  0
  -22.8049  -29.2859   19.7989 H   0  0  0  0  0  0
  -25.1360  -36.1607   25.0741 H   0  0  0  0  0  0
  -21.0069  -28.3383   24.1253 H   0  0  0  0  0  0
  -20.5690  -26.2412   23.3652 H   0  0  0  0  0  0
  -21.6679  -26.7405   22.1200 H   0  0  0  0  0  0
  -19.6914  -25.6266   21.1295 H   0  0  0  0  0  0
  -19.6679  -27.3153   20.6718 H   0  0  0  0  0  0
  -17.4237  -26.6720   21.4044 H   0  0  0  0  0  0
  -18.0336  -26.0108   22.9040 H   0  0  0  0  0  0
  -19.7978  -30.7362   24.2155 H   0  0  0  0  0  0
  -17.5035  -31.6259   24.5183 H   0  0  0  0  0  0
  -15.5381  -30.2942   23.7696 H   0  0  0  0  0  0
  -15.8747  -28.0784   22.7094 H   0  0  0  0  0  0
  -24.5856  -30.7189   25.7549 H   0  0  0  0  0  0
  -24.8825  -32.3079   26.4471 H   0  0  0  0  0  0
  -25.7758  -30.9131   27.0215 H   0  0  0  0  0  0
  -26.3244  -29.6385   24.1719 H   0  0  0  0  0  0
  -27.3962  -29.7299   25.5448 H   0  0  0  0  0  0
  -27.9241  -30.3894   24.0200 H   0  0  0  0  0  0
  -27.2613  -33.3759   26.1817 H   0  0  0  0  0  0
  -28.3970  -32.6773   25.0377 H   0  0  0  0  0  0
  -28.0626  -31.8685   26.5608 H   0  0  0  0  0  0
  -28.2455  -38.0144   24.7602 H   0  0  0  0  0  0
  -28.1225  -36.2668   24.6094 H   0  0  0  0  0  0
  -27.2316  -37.1140   25.8829 H   0  0  0  0  0  0
  -20.9661  -29.8753   21.6591 H   0  0  0  0  0  0
  -26.0074  -38.2657   24.1485 H   0  0  0  0  0  0
  -23.9389  -17.3835   20.0923 H   0  0  0  0  0  0
  -24.7969  -14.2158   24.0207 H   0  0  0  0  0  0
  -28.5169  -16.0019   23.9540 H   0  0  0  0  0  0
  -29.7290  -14.7169   23.8075 H   0  0  0  0  0  0
  -28.7343  -14.8540   25.2604 H   0  0  0  0  0  0
  -28.0684  -21.5283   19.2161 H   0  0  0  0  0  0
  -28.0202  -21.4621   20.9210 H   0  0  0  0  0  0
  -26.3176  -23.5504   21.0165 H   0  0  0  0  0  0
  -26.2120  -23.6237   19.3175 H   0  0  0  0  0  0
  -27.9846  -18.3905   19.9050 H   0  0  0  0  0  0
  -29.5265  -16.5166   20.8956 H   0  0  0  0  0  0
  1 25  1  0  0  0
  1 30  2  0  0  0
  1 82  1  0  0  0
  2  3  1  0  0  0
  2 25  1  0  0  0
  2 86  1  0  0  0
  2 87  1  0  0  0
  3  4  1  0  0  0
  3 88  1  0  0  0
  3 89  1  0  0  0
  4  5  1  0  0  0
  4 90  1  0  0  0
  4 91  1  0  0  0
  5  6  1  0  0  0
  5 26  1  0  0  0
  5 92  1  0  0  0
  6 25  1  0  0  0
  6 93  1  0  0  0
  6 94  1  0  0  0
  7  8  2  0  0  0
  7 26  1  0  0  0
  7 29  1  0  0  0
  8  9  1  0  0  0
  8 22  1  0  0  0
  9 10  1  0  0  0
  9 27  2  0  0  0
 10 11  2  0  0  0
 10 15  1  0  0  0
 11 12  1  0  0  0
 11 95  1  0  0  0
 12 13  2  0  0  0
 12 96  1  0  0  0
 13 14  1  0  0  0
 13 31  1  0  0  0
 14 15  2  0  0  0
 14 97  1  0  0  0
 15 98  1  0  0  0
 16 17  2  0  0  0
 16 21  1  0  0  0
 16 31  1  0  0  0
 17 18  1  0  0  0
 17 99  1  0  0  0
 18 19  2  0  0  0
 18100  1  0  0  0
 19 20  1  0  0  0
 19 24  1  0  0  0
 20 21  2  0  0  0
 20101  1  0  0  0
 21 23  1  0  0  0
 22 28  1  0  0  0
 22 32  2  0  0  0
 26 27  1  0  0  0
 28102  1  0  0  0
 28103  1  0  0  0
 29104  1  0  0  0
 29105  1  0  0  0
 33 34  1  0  0  0
 33 66  1  0  0  0
 33 70  2  0  0  0
 34 36  1  0  0  0
 34 59  1  0  0  0
 34106  1  0  0  0
 35 44  2  0  0  0
 35 45  1  0  0  0
 35 68  1  0  0  0
 36 56  1  0  0  0
 36107  1  0  0  0
 37 39  1  0  0  0
 37 47  1  0  0  0
 37 66  1  0  0  0
 37108  1  0  0  0
 38 43  2  0  0  0
 38 46  1  0  0  0
 38 47  1  0  0  0
 39 64  1  0  0  0
 39 67  2  0  0  0
 40 52  1  0  0  0
 40 53  2  0  0  0
 40 58  1  0  0  0
 41109  1  0  0  0
 41110  1  0  0  0
 41111  1  0  0  0
 41 48  1  0  0  0
 42 43  1  0  0  0
 42 66  1  0  0  0
 42112  1  0  0  0
 42113  1  0  0  0
 43 44  1  0  0  0
 44114  1  0  0  0
 45 46  2  0  0  0
 45115  1  0  0  0
 46116  1  0  0  0
 47117  1  0  0  0
 47118  1  0  0  0
 48 56  1  0  0  0
 48 65  1  0  0  0
 48119  1  0  0  0
 49 50  1  0  0  0
 49 53  1  0  0  0
 49 64  1  0  0  0
 49120  1  0  0  0
 50 51  1  0  0  0
 50121  1  0  0  0
 50122  1  0  0  0
 51 52  1  0  0  0
 51123  1  0  0  0
 51124  1  0  0  0
 52125  1  0  0  0
 52126  1  0  0  0
 53 54  1  0  0  0
 54 55  2  0  0  0
 54127  1  0  0  0
 55 57  1  0  0  0
 55128  1  0  0  0
 56 69  2  0  0  0
 57 58  2  0  0  0
 57129  1  0  0  0
 58130  1  0  0  0
 59 60  1  0  0  0
 59 61  1  0  0  0
 59 62  1  0  0  0
 60131  1  0  0  0
 60132  1  0  0  0
 60133  1  0  0  0
 61134  1  0  0  0
 61135  1  0  0  0
 61136  1  0  0  0
 62137  1  0  0  0
 62138  1  0  0  0
 62139  1  0  0  0
 63 65  1  0  0  0
 63140  1  0  0  0
 63141  1  0  0  0
 63142  1  0  0  0
 64143  1  0  0  0
 65144  1  0  0  0
 68 80  1  0  0  0
 71 73  2  0  0  0
 71 76  1  0  0  0
 71145  1  0  0  0
 72 75  1  0  0  0
 72 76  2  0  0  0
 72146  1  0  0  0
 73 74  1  0  0  0
 73 81  1  0  0  0
 74 75  2  0  0  0
 74 82  1  0  0  0
 75 84  1  0  0  0
 76 85  1  0  0  0
 77 79  1  0  0  0
 77 81  1  0  0  0
 77 83  2  0  0  0
 78 84  1  0  0  0
 78147  1  0  0  0
 78148  1  0  0  0
 78149  1  0  0  0
 79 80  1  0  0  0
 79150  1  0  0  0
 79151  1  0  0  0
 80152  1  0  0  0
 80153  1  0  0  0
 81154  1  0  0  0
 82155  1  0  0  0
M  ISO  4   1 100  68 101  80 101  82 100
M  END
> <chiral flag>
0

> <version>
0

> <s_m_source_file>
/data/baiqing/PycharmProjects/Reinvent-master-3.2/result/LINK_invent/BTK/process_docking_weight1_custom_sum_contain_oxygen_bond_distance_aromatic_linkinvent_7_9_3/rearranged_h_0012.sdf

> <i_m_source_file_index>
26

> <r_mmod_Potential_Energy-OPLS-2005>
11603.119140625

> <r_mmod_Stretch_Energy-OPLS-2005>
6878.7529296875

> <r_mmod_Bend_Energy-OPLS-2005>
768.029724121094

> <r_mmod_Torsional_Energy-OPLS-2005>
467.007446289062

> <r_mmod_Improper_Torsional_Energy-OPLS-2005>
48.0124092102051

> <r_mmod_Van_der_Waal_Energy-OPLS-2005>
2772.32348632812

> <r_mmod_Electrostatic_Energy-OPLS-2005>
-498.654113769531

> <r_mmod_Solvation_Energy-OPLS-2005>
-236.648239135742

> <b_mmod_Minimization_Converged-OPLS-2005>
0

> <r_mmod_RMS_Derivative-OPLS-2005>
8.05969619750977

$$$$
27
                    3D
 Structure written by MMmdl.
155163  0  0  1  0            999 V2000
  -30.5217  -14.9324   20.4247 C   0  0  0  0  0  0
  -30.4475  -12.5744   19.4978 C   0  0  0  0  0  0
  -29.5249  -12.5454   18.2555 C   0  0  0  0  0  0
  -28.0527  -12.3361   18.6632 C   0  0  0  0  0  0
  -27.6348  -13.2476   19.8466 C   0  0  2  0  0  0
  -28.6787  -13.2372   20.9852 C   0  0  0  0  0  0
  -25.2468  -13.8213   20.5708 C   0  0  0  0  0  0
  -24.1775  -13.0440   20.9232 C   0  0  0  0  0  0
  -24.6382  -11.6925   20.8746 C   0  0  0  0  0  0
  -23.9057  -10.4296   21.0402 C   0  0  0  0  0  0
  -24.3610   -9.4208   21.9176 C   0  0  0  0  0  0
  -23.6293   -8.2232   22.0740 C   0  0  0  0  0  0
  -22.4276   -8.0265   21.3531 C   0  0  0  0  0  0
  -21.9906   -9.0233   20.4627 C   0  0  0  0  0  0
  -22.7231  -10.2122   20.3044 C   0  0  0  0  0  0
  -21.6851   -6.0722   22.5278 C   0  0  0  0  0  0
  -21.4011   -6.5623   23.8215 C   0  0  0  0  0  0
  -21.3678   -5.6776   24.9180 C   0  0  0  0  0  0
  -21.6060   -4.3040   24.7228 C   0  0  0  0  0  0
  -21.8811   -3.8127   23.4349 C   0  0  0  0  0  0
  -21.9185   -4.6946   22.3407 C   0  0  0  0  0  0
  -22.7791  -13.5196   21.1898 C   0  0  0  0  0  0
  -22.1657   -4.2121   21.0990 F   0  0  0  0  0  0
  -21.5644   -3.4535   25.7750 F   0  0  0  0  0  0
  -29.9634  -13.6543   20.4037 N   0  0  0  0  0  0
  -26.2901  -12.9447   20.3262 N   0  0  0  0  0  0
  -25.9324  -11.6583   20.5734 N   0  0  0  0  0  0
  -22.0436  -12.8181   22.0457 N   0  0  0  0  0  0
  -25.4131  -15.1936   20.4120 N   0  0  0  0  0  0
  -31.7052  -15.0464   20.0886 O   0  0  0  0  0  0
  -21.6646   -6.8863   21.4235 O   0  0  0  0  0  0
  -22.3478  -14.5505   20.6758 O   0  0  0  0  0  0
  -24.6442  -31.8453   23.1911 C   0  0  0  0  0  0
  -25.9211  -32.4700   23.8299 C   0  0  1  0  0  0
  -27.2223  -27.1347   20.1626 C   0  0  0  0  0  0
  -25.5971  -33.8509   24.2225 N   0  0  0  0  0  0
  -23.4489  -30.4657   21.5358 C   0  0  2  0  0  0
  -24.9025  -28.8964   20.1117 C   0  0  0  0  0  0
  -22.7571  -29.4552   22.4857 C   0  0  0  0  0  0
  -18.0304  -28.1395   22.8474 C   0  0  0  0  0  0
  -24.1498  -36.7231   23.2644 C   0  0  0  0  0  0
  -26.0057  -30.7196   21.3936 C   0  0  0  0  0  0
  -26.0787  -29.3306   20.7362 C   0  0  0  0  0  0
  -27.2360  -28.4640   20.7514 C   0  0  0  0  0  0
  -26.0255  -26.8176   19.4768 C   0  0  0  0  0  0
  -24.8892  -27.6522   19.4674 C   0  0  0  0  0  0
  -23.6779  -29.7965   20.1551 C   0  0  0  0  0  0
  -25.4133  -36.3036   24.0331 C   0  0  1  0  0  0
  -20.5919  -28.3716   23.1231 C   0  0  2  0  0  0
  -20.6784  -26.9413   22.5414 C   0  0  0  0  0  0
  -19.5763  -26.6373   21.5220 C   0  0  0  0  0  0
  -18.1943  -26.7929   22.1629 C   0  0  0  0  0  0
  -19.1561  -28.8875   23.2848 C   0  0  0  0  0  0
  -18.9476  -30.1471   23.8869 C   0  0  0  0  0  0
  -17.6471  -30.6589   24.0554 C   0  0  0  0  0  0
  -25.9082  -34.9405   23.5084 C   0  0  0  0  0  0
  -16.5361  -29.9083   23.6331 C   0  0  0  0  0  0
  -16.7285  -28.6505   23.0349 C   0  0  0  0  0  0
  -26.4544  -31.6542   25.0717 C   0  0  0  0  0  0
  -25.3736  -31.3706   26.1411 C   0  0  0  0  0  0
  -27.0394  -30.2932   24.6283 C   0  0  0  0  0  0
  -27.6116  -32.4269   25.7473 C   0  0  0  0  0  0
  -27.5581  -37.1781   24.8466 C   0  0  0  0  0  0
  -21.4263  -29.3041   22.3592 N   0  0  0  0  0  0
  -26.4294  -37.3750   23.9410 N   0  0  0  0  0  0
  -24.7190  -31.0310   22.0948 N   0  0  0  0  0  0
  -23.4205  -28.8098   23.3016 O   0  0  0  0  0  0
  -28.2570  -26.1283   20.2763 O   0  0  0  0  0  0
  -26.5652  -34.8894   22.4656 O   0  0  0  0  0  0
  -23.5560  -32.1321   23.7135 O   0  0  0  0  0  0
  -30.4080  -19.8232   19.5600 C   0  0  0  0  0  0
  -30.5611  -18.3864   19.7267 C   0  0  0  0  0  0
  -28.5583  -19.8420   21.0081 C   0  0  0  0  0  0
  -29.3977  -20.6586   20.1750 C   0  0  0  0  0  0
  -29.6957  -17.5765   20.5279 C   0  0  0  0  0  0
  -28.6790  -18.3846   21.1593 C   0  0  0  0  0  0
  -28.6900  -23.2807   20.5559 C   0  0  0  0  0  0
  -29.8629  -22.5410   18.5663 C   0  0  0  0  0  0
  -26.6148  -18.2812   22.3924 C   0  0  0  0  0  0
  -27.9827  -24.6408   19.8906 C   0  0  0  0  0  0
  -29.6904  -16.0492   20.6908 N   0  0  0  0  0  0
  -29.2123  -22.1625   19.8294 N   0  0  0  0  0  0
  -28.6847  -23.2227   21.7902 O   0  0  0  0  0  0
  -27.7925  -17.6468   21.9172 O   0  0  0  0  0  0
  -31.4800  -12.7391   19.1866 H   0  0  0  0  0  0
  -30.4435  -11.6102   20.0082 H   0  0  0  0  0  0
  -29.8407  -11.7611   17.5655 H   0  0  0  0  0  0
  -29.6193  -13.4866   17.7116 H   0  0  0  0  0  0
  -27.9310  -11.2891   18.9443 H   0  0  0  0  0  0
  -27.3937  -12.5007   17.8088 H   0  0  0  0  0  0
  -27.6076  -14.2605   19.4436 H   0  0  0  0  0  0
  -28.7548  -12.2442   21.4316 H   0  0  0  0  0  0
  -28.3785  -13.9113   21.7886 H   0  0  0  0  0  0
  -25.2752   -9.5689   22.4756 H   0  0  0  0  0  0
  -24.0001   -7.4618   22.7460 H   0  0  0  0  0  0
  -21.0837   -8.8735   19.8935 H   0  0  0  0  0  0
  -22.3673  -10.9647   19.6148 H   0  0  0  0  0  0
  -21.1994   -7.6132   23.9712 H   0  0  0  0  0  0
  -21.1533   -6.0515   25.9088 H   0  0  0  0  0  0
  -22.0580   -2.7586   23.2862 H   0  0  0  0  0  0
  -22.4041  -11.9825   22.4821 H   0  0  0  0  0  0
  -21.1036  -13.1178   22.2648 H   0  0  0  0  0  0
  -24.6429  -15.8444   20.5186 H   0  0  0  0  0  0
  -26.2554  -15.6301   20.0603 H   0  0  0  0  0  0
  -26.7273  -32.5319   23.1031 H   0  0  0  0  0  0
  -25.0104  -33.9621   25.0361 H   0  0  0  0  0  0
  -22.7534  -31.2935   21.3823 H   0  0  0  0  0  0
  -23.3780  -35.9541   23.3305 H   0  0  0  0  0  0
  -24.3580  -36.8849   22.2055 H   0  0  0  0  0  0
  -23.7221  -37.6425   23.6660 H   0  0  0  0  0  0
  -26.1645  -31.4755   20.6237 H   0  0  0  0  0  0
  -26.8755  -30.7706   22.0362 H   0  0  0  0  0  0
  -28.1242  -28.7875   21.2776 H   0  0  0  0  0  0
  -25.9180  -25.8755   18.9636 H   0  0  0  0  0  0
  -23.9936  -27.3140   18.9647 H   0  0  0  0  0  0
  -23.8165  -30.5730   19.4026 H   0  0  0  0  0  0
  -22.7933  -29.2406   19.8402 H   0  0  0  0  0  0
  -25.1327  -36.1880   25.0826 H   0  0  0  0  0  0
  -21.0028  -28.3311   24.1349 H   0  0  0  0  0  0
  -20.5677  -26.2326   23.3636 H   0  0  0  0  0  0
  -21.6647  -26.7416   22.1211 H   0  0  0  0  0  0
  -19.6920  -25.6284   21.1254 H   0  0  0  0  0  0
  -19.6704  -27.3179   20.6749 H   0  0  0  0  0  0
  -17.4218  -26.6675   21.4031 H   0  0  0  0  0  0
  -18.0336  -26.0077   22.9030 H   0  0  0  0  0  0
  -19.7953  -30.7297   24.2218 H   0  0  0  0  0  0
  -17.5022  -31.6266   24.5168 H   0  0  0  0  0  0
  -15.5357  -30.2980   23.7668 H   0  0  0  0  0  0
  -15.8682  -28.0817   22.7071 H   0  0  0  0  0  0
  -24.5967  -30.6998   25.7721 H   0  0  0  0  0  0
  -24.8861  -32.2863   26.4767 H   0  0  0  0  0  0
  -25.8039  -30.8934   27.0225 H   0  0  0  0  0  0
  -26.2998  -29.6650   24.1307 H   0  0  0  0  0  0
  -27.4018  -29.7238   25.4852 H   0  0  0  0  0  0
  -27.8911  -30.4150   23.9588 H   0  0  0  0  0  0
  -27.2784  -33.3628   26.1972 H   0  0  0  0  0  0
  -28.3969  -32.6717   25.0304 H   0  0  0  0  0  0
  -28.0730  -31.8412   26.5437 H   0  0  0  0  0  0
  -28.2605  -38.0074   24.7532 H   0  0  0  0  0  0
  -28.1082  -36.2613   24.6298 H   0  0  0  0  0  0
  -27.2286  -37.1417   25.8862 H   0  0  0  0  0  0
  -20.9469  -29.8726   21.6745 H   0  0  0  0  0  0
  -26.0169  -38.2822   24.1421 H   0  0  0  0  0  0
  -31.1177  -20.2876   18.8922 H   0  0  0  0  0  0
  -31.3537  -17.8967   19.1793 H   0  0  0  0  0  0
  -27.7607  -20.3651   21.5132 H   0  0  0  0  0  0
  -30.9447  -22.5658   18.7091 H   0  0  0  0  0  0
  -29.6046  -23.5142   18.1599 H   0  0  0  0  0  0
  -29.6409  -21.8155   17.7838 H   0  0  0  0  0  0
  -25.9537  -17.5286   22.8219 H   0  0  0  0  0  0
  -26.0680  -18.7715   21.5859 H   0  0  0  0  0  0
  -26.8461  -19.0081   23.1713 H   0  0  0  0  0  0
  -26.9513  -24.4618   20.1924 H   0  0  0  0  0  0
  -27.9480  -24.5776   18.8059 H   0  0  0  0  0  0
  -28.8095  -15.7354   21.0688 H   0  0  0  0  0  0
  1 25  1  0  0  0
  1 30  2  0  0  0
  1 81  1  0  0  0
  2  3  1  0  0  0
  2 25  1  0  0  0
  2 85  1  0  0  0
  2 86  1  0  0  0
  3  4  1  0  0  0
  3 87  1  0  0  0
  3 88  1  0  0  0
  4  5  1  0  0  0
  4 89  1  0  0  0
  4 90  1  0  0  0
  5  6  1  0  0  0
  5 26  1  0  0  0
  5 91  1  0  0  0
  6 25  1  0  0  0
  6 92  1  0  0  0
  6 93  1  0  0  0
  7  8  2  0  0  0
  7 26  1  0  0  0
  7 29  1  0  0  0
  8  9  1  0  0  0
  8 22  1  0  0  0
  9 10  1  0  0  0
  9 27  2  0  0  0
 10 11  2  0  0  0
 10 15  1  0  0  0
 11 12  1  0  0  0
 11 94  1  0  0  0
 12 13  2  0  0  0
 12 95  1  0  0  0
 13 14  1  0  0  0
 13 31  1  0  0  0
 14 15  2  0  0  0
 14 96  1  0  0  0
 15 97  1  0  0  0
 16 17  2  0  0  0
 16 21  1  0  0  0
 16 31  1  0  0  0
 17 18  1  0  0  0
 17 98  1  0  0  0
 18 19  2  0  0  0
 18 99  1  0  0  0
 19 20  1  0  0  0
 19 24  1  0  0  0
 20 21  2  0  0  0
 20100  1  0  0  0
 21 23  1  0  0  0
 22 28  1  0  0  0
 22 32  2  0  0  0
 26 27  1  0  0  0
 28101  1  0  0  0
 28102  1  0  0  0
 29103  1  0  0  0
 29104  1  0  0  0
 33 34  1  0  0  0
 33 66  1  0  0  0
 33 70  2  0  0  0
 34 36  1  0  0  0
 34 59  1  0  0  0
 34105  1  0  0  0
 35 44  2  0  0  0
 35 45  1  0  0  0
 35 68  1  0  0  0
 36 56  1  0  0  0
 36106  1  0  0  0
 37 39  1  0  0  0
 37 47  1  0  0  0
 37 66  1  0  0  0
 37107  1  0  0  0
 38 43  2  0  0  0
 38 46  1  0  0  0
 38 47  1  0  0  0
 39 64  1  0  0  0
 39 67  2  0  0  0
 40 52  1  0  0  0
 40 53  2  0  0  0
 40 58  1  0  0  0
 41108  1  0  0  0
 41109  1  0  0  0
 41110  1  0  0  0
 41 48  1  0  0  0
 42 43  1  0  0  0
 42 66  1  0  0  0
 42111  1  0  0  0
 42112  1  0  0  0
 43 44  1  0  0  0
 44113  1  0  0  0
 45 46  2  0  0  0
 45114  1  0  0  0
 46115  1  0  0  0
 47116  1  0  0  0
 47117  1  0  0  0
 48 56  1  0  0  0
 48 65  1  0  0  0
 48118  1  0  0  0
 49 50  1  0  0  0
 49 53  1  0  0  0
 49 64  1  0  0  0
 49119  1  0  0  0
 50 51  1  0  0  0
 50120  1  0  0  0
 50121  1  0  0  0
 51 52  1  0  0  0
 51122  1  0  0  0
 51123  1  0  0  0
 52124  1  0  0  0
 52125  1  0  0  0
 53 54  1  0  0  0
 54 55  2  0  0  0
 54126  1  0  0  0
 55 57  1  0  0  0
 55127  1  0  0  0
 56 69  2  0  0  0
 57 58  2  0  0  0
 57128  1  0  0  0
 58129  1  0  0  0
 59 60  1  0  0  0
 59 61  1  0  0  0
 59 62  1  0  0  0
 60130  1  0  0  0
 60131  1  0  0  0
 60132  1  0  0  0
 61133  1  0  0  0
 61134  1  0  0  0
 61135  1  0  0  0
 62136  1  0  0  0
 62137  1  0  0  0
 62138  1  0  0  0
 63 65  1  0  0  0
 63139  1  0  0  0
 63140  1  0  0  0
 63141  1  0  0  0
 64142  1  0  0  0
 65143  1  0  0  0
 68 80  1  0  0  0
 71 72  2  0  0  0
 71 74  1  0  0  0
 71144  1  0  0  0
 72 75  1  0  0  0
 72145  1  0  0  0
 73 74  2  0  0  0
 73 76  1  0  0  0
 73146  1  0  0  0
 74 82  1  0  0  0
 75 76  2  0  0  0
 75 81  1  0  0  0
 76 84  1  0  0  0
 77 80  1  0  0  0
 77 82  1  0  0  0
 77 83  2  0  0  0
 78 82  1  0  0  0
 78147  1  0  0  0
 78148  1  0  0  0
 78149  1  0  0  0
 79 84  1  0  0  0
 79150  1  0  0  0
 79151  1  0  0  0
 79152  1  0  0  0
 80153  1  0  0  0
 80154  1  0  0  0
 81155  1  0  0  0
M  ISO  4   1 100  68 101  80 101  81 100
M  END
> <chiral flag>
0

> <version>
0

> <s_m_source_file>
/data/baiqing/PycharmProjects/Reinvent-master-3.2/result/LINK_invent/BTK/process_docking_weight1_custom_sum_contain_oxygen_bond_distance_aromatic_linkinvent_7_9_3/rearranged_h_0012.sdf

> <i_m_source_file_index>
27

> <r_mmod_Potential_Energy-OPLS-2005>
540.132202148438

> <r_mmod_Stretch_Energy-OPLS-2005>
246.939544677734

> <r_mmod_Bend_Energy-OPLS-2005>
279.266815185547

> <r_mmod_Torsional_Energy-OPLS-2005>
266.499816894531

> <r_mmod_Improper_Torsional_Energy-OPLS-2005>
4.78109455108643

> <r_mmod_Van_der_Waal_Energy-OPLS-2005>
147.944229125977

> <r_mmod_Electrostatic_Energy-OPLS-2005>
-366.684020996094

> <r_mmod_Solvation_Energy-OPLS-2005>
-230.089721679688

> <b_mmod_Minimization_Converged-OPLS-2005>
0

> <r_mmod_RMS_Derivative-OPLS-2005>
2.11357736587524

$$$$
28
                    3D
 Structure written by MMmdl.
148156  0  0  1  0            999 V2000
  -30.5131  -14.9198   20.4189 C   0  0  0  0  0  0
  -30.4526  -12.5646   19.4858 C   0  0  0  0  0  0
  -29.5242  -12.5333   18.2476 C   0  0  0  0  0  0
  -28.0544  -12.3231   18.6621 C   0  0  0  0  0  0
  -27.6375  -13.2384   19.8422 C   0  0  2  0  0  0
  -28.6834  -13.2231   20.9785 C   0  0  0  0  0  0
  -25.2496  -13.8190   20.5681 C   0  0  0  0  0  0
  -24.1802  -13.0435   20.9227 C   0  0  0  0  0  0
  -24.6406  -11.6915   20.8749 C   0  0  0  0  0  0
  -23.9079  -10.4293   21.0403 C   0  0  0  0  0  0
  -24.3624   -9.4207   21.9183 C   0  0  0  0  0  0
  -23.6290   -8.2247   22.0754 C   0  0  0  0  0  0
  -22.4273   -8.0286   21.3546 C   0  0  0  0  0  0
  -21.9910   -9.0262   20.4650 C   0  0  0  0  0  0
  -22.7245  -10.2137   20.3057 C   0  0  0  0  0  0
  -21.6855   -6.0729   22.5274 C   0  0  0  0  0  0
  -21.4017   -6.5632   23.8207 C   0  0  0  0  0  0
  -21.3661   -5.6785   24.9169 C   0  0  0  0  0  0
  -21.6044   -4.3047   24.7222 C   0  0  0  0  0  0
  -21.8818   -3.8139   23.4344 C   0  0  0  0  0  0
  -21.9194   -4.6957   22.3396 C   0  0  0  0  0  0
  -22.7824  -13.5216   21.1872 C   0  0  0  0  0  0
  -22.1662   -4.2142   21.0977 F   0  0  0  0  0  0
  -21.5629   -3.4536   25.7736 F   0  0  0  0  0  0
  -29.9670  -13.6392   20.3927 N   0  0  0  0  0  0
  -26.2922  -12.9406   20.3231 N   0  0  0  0  0  0
  -25.9336  -11.6546   20.5722 N   0  0  0  0  0  0
  -22.0462  -12.8221   22.0433 N   0  0  0  0  0  0
  -25.4155  -15.1908   20.4036 N   0  0  0  0  0  0
  -31.7052  -15.0537   20.1196 O   0  0  0  0  0  0
  -21.6640   -6.8880   21.4239 O   0  0  0  0  0  0
  -22.3515  -14.5518   20.6704 O   0  0  0  0  0  0
  -24.6445  -31.8448   23.1892 C   0  0  0  0  0  0
  -25.9219  -32.4698   23.8288 C   0  0  1  0  0  0
  -27.2191  -27.1409   20.1382 C   0  0  0  0  0  0
  -25.5966  -33.8504   24.2202 N   0  0  0  0  0  0
  -23.4483  -30.4659   21.5353 C   0  0  2  0  0  0
  -24.8971  -28.8972   20.1104 C   0  0  0  0  0  0
  -22.7581  -29.4551   22.4858 C   0  0  0  0  0  0
  -18.0314  -28.1393   22.8478 C   0  0  0  0  0  0
  -24.1495  -36.7255   23.2643 C   0  0  0  0  0  0
  -26.0058  -30.7191   21.3894 C   0  0  0  0  0  0
  -26.0769  -29.3319   20.7277 C   0  0  0  0  0  0
  -27.2389  -28.4701   20.7260 C   0  0  0  0  0  0
  -26.0095  -26.8117   19.4829 C   0  0  0  0  0  0
  -24.8759  -27.6491   19.4748 C   0  0  0  0  0  0
  -23.6747  -29.7988   20.1538 C   0  0  0  0  0  0
  -25.4127  -36.3032   24.0315 C   0  0  1  0  0  0
  -20.5928  -28.3721   23.1232 C   0  0  2  0  0  0
  -20.6795  -26.9423   22.5403 C   0  0  0  0  0  0
  -19.5764  -26.6376   21.5215 C   0  0  0  0  0  0
  -18.1949  -26.7928   22.1628 C   0  0  0  0  0  0
  -19.1571  -28.8876   23.2846 C   0  0  0  0  0  0
  -18.9481  -30.1472   23.8872 C   0  0  0  0  0  0
  -17.6475  -30.6585   24.0558 C   0  0  0  0  0  0
  -25.9076  -34.9407   23.5065 C   0  0  0  0  0  0
  -16.5369  -29.9077   23.6333 C   0  0  0  0  0  0
  -16.7298  -28.6498   23.0352 C   0  0  0  0  0  0
  -26.4529  -31.6563   25.0731 C   0  0  0  0  0  0
  -25.3706  -31.3769   26.1423 C   0  0  0  0  0  0
  -27.0380  -30.2947   24.6326 C   0  0  0  0  0  0
  -27.6064  -32.4326   25.7512 C   0  0  0  0  0  0
  -27.5571  -37.1798   24.8472 C   0  0  0  0  0  0
  -21.4272  -29.3047   22.3604 N   0  0  0  0  0  0
  -26.4300  -37.3736   23.9392 N   0  0  0  0  0  0
  -24.7194  -31.0305   22.0928 N   0  0  0  0  0  0
  -23.4225  -28.8091   23.3003 O   0  0  0  0  0  0
  -28.2631  -26.1432   20.2027 O   0  0  0  0  0  0
  -26.5659  -34.8901   22.4644 O   0  0  0  0  0  0
  -23.5563  -32.1331   23.7104 O   0  0  0  0  0  0
  -30.5467  -18.5530   20.3175 C   0  0  0  0  0  0
  -30.2667  -19.9941   20.2436 C   0  0  0  0  0  0
  -28.2396  -18.1362   20.5412 C   0  0  0  0  0  0
  -29.5360  -17.5332   20.4758 C   0  0  0  0  0  0
  -28.9451  -20.5750   20.3073 C   0  0  0  0  0  0
  -27.9553  -19.5492   20.4527 C   0  0  0  0  0  0
  -28.9311  -23.3603   20.2549 C   0  0  0  0  0  0
  -27.9079  -24.6402   20.0032 C   0  0  0  0  0  0
  -28.4619  -22.0268   20.1822 N   0  0  0  0  0  0
  -29.6258  -16.0057   20.6082 N   0  0  0  0  0  0
  -30.1189  -23.5899   20.4961 O   0  0  0  0  0  0
  -26.2939  -20.0247   20.5275 Cl  0  0  0  0  0  0
  -31.4840  -12.7355   19.1739 H   0  0  0  0  0  0
  -30.4495  -11.6002   19.9963 H   0  0  0  0  0  0
  -29.8347  -11.7462   17.5589 H   0  0  0  0  0  0
  -29.6175  -13.4724   17.7003 H   0  0  0  0  0  0
  -27.9377  -11.2770   18.9477 H   0  0  0  0  0  0
  -27.3949  -12.4815   17.8081 H   0  0  0  0  0  0
  -27.6101  -14.2486   19.4331 H   0  0  0  0  0  0
  -28.7607  -12.2302   21.4242 H   0  0  0  0  0  0
  -28.3868  -13.8957   21.7843 H   0  0  0  0  0  0
  -25.2768   -9.5676   22.4761 H   0  0  0  0  0  0
  -23.9994   -7.4635   22.7479 H   0  0  0  0  0  0
  -21.0836   -8.8786   19.8962 H   0  0  0  0  0  0
  -22.3703  -10.9676   19.6171 H   0  0  0  0  0  0
  -21.2012   -7.6140   23.9706 H   0  0  0  0  0  0
  -21.1483   -6.0517   25.9070 H   0  0  0  0  0  0
  -22.0596   -2.7604   23.2846 H   0  0  0  0  0  0
  -22.4072  -11.9894   22.4840 H   0  0  0  0  0  0
  -21.1082  -13.1258   22.2625 H   0  0  0  0  0  0
  -24.6311  -15.8289   20.4834 H   0  0  0  0  0  0
  -26.2211  -15.6108   19.9609 H   0  0  0  0  0  0
  -26.7291  -32.5303   23.1022 H   0  0  0  0  0  0
  -25.0090  -33.9621   25.0334 H   0  0  0  0  0  0
  -22.7512  -31.2923   21.3822 H   0  0  0  0  0  0
  -23.3746  -35.9602   23.3329 H   0  0  0  0  0  0
  -24.3571  -36.8859   22.2051 H   0  0  0  0  0  0
  -23.7275  -37.6471   23.6661 H   0  0  0  0  0  0
  -26.1651  -31.4761   20.6202 H   0  0  0  0  0  0
  -26.8749  -30.7658   22.0340 H   0  0  0  0  0  0
  -28.1364  -28.7971   21.2320 H   0  0  0  0  0  0
  -25.8930  -25.8635   18.9823 H   0  0  0  0  0  0
  -23.9751  -27.3111   18.9805 H   0  0  0  0  0  0
  -23.8129  -30.5749   19.3999 H   0  0  0  0  0  0
  -22.7892  -29.2427   19.8417 H   0  0  0  0  0  0
  -25.1318  -36.1868   25.0809 H   0  0  0  0  0  0
  -21.0027  -28.3312   24.1348 H   0  0  0  0  0  0
  -20.5683  -26.2337   23.3624 H   0  0  0  0  0  0
  -21.6661  -26.7417   22.1203 H   0  0  0  0  0  0
  -19.6919  -25.6281   21.1257 H   0  0  0  0  0  0
  -19.6689  -27.3175   20.6735 H   0  0  0  0  0  0
  -17.4213  -26.6677   21.4037 H   0  0  0  0  0  0
  -18.0343  -26.0079   22.9032 H   0  0  0  0  0  0
  -19.7957  -30.7301   24.2227 H   0  0  0  0  0  0
  -17.5023  -31.6261   24.5165 H   0  0  0  0  0  0
  -15.5367  -30.2964   23.7660 H   0  0  0  0  0  0
  -15.8704  -28.0800   22.7073 H   0  0  0  0  0  0
  -24.5888  -30.7112   25.7747 H   0  0  0  0  0  0
  -24.8891  -32.2957   26.4781 H   0  0  0  0  0  0
  -25.7979  -30.8988   27.0244 H   0  0  0  0  0  0
  -26.2997  -29.6679   24.1310 H   0  0  0  0  0  0
  -27.3945  -29.7243   25.4912 H   0  0  0  0  0  0
  -27.8931  -30.4158   23.9673 H   0  0  0  0  0  0
  -27.2660  -33.3637   26.2050 H   0  0  0  0  0  0
  -28.3893  -32.6868   25.0355 H   0  0  0  0  0  0
  -28.0713  -31.8480   26.5459 H   0  0  0  0  0  0
  -28.2621  -38.0059   24.7453 H   0  0  0  0  0  0
  -28.1035  -36.2587   24.6385 H   0  0  0  0  0  0
  -27.2280  -37.1552   25.8876 H   0  0  0  0  0  0
  -20.9484  -29.8767   21.6784 H   0  0  0  0  0  0
  -26.0167  -38.2817   24.1343 H   0  0  0  0  0  0
  -31.5791  -18.2383   20.2537 H   0  0  0  0  0  0
  -31.1047  -20.6640   20.1160 H   0  0  0  0  0  0
  -27.3875  -17.4845   20.6636 H   0  0  0  0  0  0
  -27.0276  -24.4353   20.6135 H   0  0  0  0  0  0
  -27.5916  -24.5256   18.9666 H   0  0  0  0  0  0
  -27.4601  -22.0388   20.0368 H   0  0  0  0  0  0
  -28.7244  -15.6123   20.8296 H   0  0  0  0  0  0
  1 25  1  0  0  0
  1 30  2  0  0  0
  1 80  1  0  0  0
  2  3  1  0  0  0
  2 25  1  0  0  0
  2 83  1  0  0  0
  2 84  1  0  0  0
  3  4  1  0  0  0
  3 85  1  0  0  0
  3 86  1  0  0  0
  4  5  1  0  0  0
  4 87  1  0  0  0
  4 88  1  0  0  0
  5  6  1  0  0  0
  5 26  1  0  0  0
  5 89  1  0  0  0
  6 25  1  0  0  0
  6 90  1  0  0  0
  6 91  1  0  0  0
  7  8  2  0  0  0
  7 26  1  0  0  0
  7 29  1  0  0  0
  8  9  1  0  0  0
  8 22  1  0  0  0
  9 10  1  0  0  0
  9 27  2  0  0  0
 10 11  2  0  0  0
 10 15  1  0  0  0
 11 12  1  0  0  0
 11 92  1  0  0  0
 12 13  2  0  0  0
 12 93  1  0  0  0
 13 14  1  0  0  0
 13 31  1  0  0  0
 14 15  2  0  0  0
 14 94  1  0  0  0
 15 95  1  0  0  0
 16 17  2  0  0  0
 16 21  1  0  0  0
 16 31  1  0  0  0
 17 18  1  0  0  0
 17 96  1  0  0  0
 18 19  2  0  0  0
 18 97  1  0  0  0
 19 20  1  0  0  0
 19 24  1  0  0  0
 20 21  2  0  0  0
 20 98  1  0  0  0
 21 23  1  0  0  0
 22 28  1  0  0  0
 22 32  2  0  0  0
 26 27  1  0  0  0
 28 99  1  0  0  0
 28100  1  0  0  0
 29101  1  0  0  0
 29102  1  0  0  0
 33 34  1  0  0  0
 33 66  1  0  0  0
 33 70  2  0  0  0
 34 36  1  0  0  0
 34 59  1  0  0  0
 34103  1  0  0  0
 35 44  2  0  0  0
 35 45  1  0  0  0
 35 68  1  0  0  0
 36 56  1  0  0  0
 36104  1  0  0  0
 37 39  1  0  0  0
 37 47  1  0  0  0
 37 66  1  0  0  0
 37105  1  0  0  0
 38 43  2  0  0  0
 38 46  1  0  0  0
 38 47  1  0  0  0
 39 64  1  0  0  0
 39 67  2  0  0  0
 40 52  1  0  0  0
 40 53  2  0  0  0
 40 58  1  0  0  0
 41106  1  0  0  0
 41107  1  0  0  0
 41108  1  0  0  0
 41 48  1  0  0  0
 42 43  1  0  0  0
 42 66  1  0  0  0
 42109  1  0  0  0
 42110  1  0  0  0
 43 44  1  0  0  0
 44111  1  0  0  0
 45 46  2  0  0  0
 45112  1  0  0  0
 46113  1  0  0  0
 47114  1  0  0  0
 47115  1  0  0  0
 48 56  1  0  0  0
 48 65  1  0  0  0
 48116  1  0  0  0
 49 50  1  0  0  0
 49 53  1  0  0  0
 49 64  1  0  0  0
 49117  1  0  0  0
 50 51  1  0  0  0
 50118  1  0  0  0
 50119  1  0  0  0
 51 52  1  0  0  0
 51120  1  0  0  0
 51121  1  0  0  0
 52122  1  0  0  0
 52123  1  0  0  0
 53 54  1  0  0  0
 54 55  2  0  0  0
 54124  1  0  0  0
 55 57  1  0  0  0
 55125  1  0  0  0
 56 69  2  0  0  0
 57 58  2  0  0  0
 57126  1  0  0  0
 58127  1  0  0  0
 59 60  1  0  0  0
 59 61  1  0  0  0
 59 62  1  0  0  0
 60128  1  0  0  0
 60129  1  0  0  0
 60130  1  0  0  0
 61131  1  0  0  0
 61132  1  0  0  0
 61133  1  0  0  0
 62134  1  0  0  0
 62135  1  0  0  0
 62136  1  0  0  0
 63 65  1  0  0  0
 63137  1  0  0  0
 63138  1  0  0  0
 63139  1  0  0  0
 64140  1  0  0  0
 65141  1  0  0  0
 68 78  1  0  0  0
 71 72  2  0  0  0
 71 74  1  0  0  0
 71142  1  0  0  0
 72 75  1  0  0  0
 72143  1  0  0  0
 73 74  2  0  0  0
 73 76  1  0  0  0
 73144  1  0  0  0
 74 80  1  0  0  0
 75 76  2  0  0  0
 75 79  1  0  0  0
 76 82  1  0  0  0
 77 78  1  0  0  0
 77 79  1  0  0  0
 77 81  2  0  0  0
 78145  1  0  0  0
 78146  1  0  0  0
 79147  1  0  0  0
 80148  1  0  0  0
M  ISO  4   1 100  68 101  78 101  80 100
M  END
> <chiral flag>
0

> <version>
0

> <s_m_source_file>
/data/baiqing/PycharmProjects/Reinvent-master-3.2/result/LINK_invent/BTK/process_docking_weight1_custom_sum_contain_oxygen_bond_distance_aromatic_linkinvent_7_9_3/rearranged_h_0012.sdf

> <i_m_source_file_index>
28

> <r_mmod_Potential_Energy-OPLS-2005>
407.054107666016

> <r_mmod_Stretch_Energy-OPLS-2005>
219.328079223633

> <r_mmod_Bend_Energy-OPLS-2005>
282.177978515625

> <r_mmod_Torsional_Energy-OPLS-2005>
220.394485473633

> <r_mmod_Improper_Torsional_Energy-OPLS-2005>
5.02419376373291

> <r_mmod_Van_der_Waal_Energy-OPLS-2005>
130.257141113281

> <r_mmod_Electrostatic_Energy-OPLS-2005>
-386.735473632812

> <r_mmod_Solvation_Energy-OPLS-2005>
-246.111587524414

> <b_mmod_Minimization_Converged-OPLS-2005>
0

> <r_mmod_RMS_Derivative-OPLS-2005>
0.945383846759796

$$$$
29
                    3D
 Structure written by MMmdl.
162169  0  0  1  0            999 V2000
  -30.7284  -14.4246   20.5751 C   0  0  0  0  0  0
  -30.4137  -12.2843   19.4077 C   0  0  0  0  0  0
  -29.4867  -12.4962   18.1917 C   0  0  0  0  0  0
  -28.0056  -12.3686   18.6024 C   0  0  0  0  0  0
  -27.6573  -13.2008   19.8647 C   0  0  2  0  0  0
  -28.6995  -12.9655   20.9784 C   0  0  0  0  0  0
  -25.2573  -13.8134   20.5638 C   0  0  0  0  0  0
  -24.1831  -13.0431   20.9153 C   0  0  0  0  0  0
  -24.6376  -11.6894   20.8713 C   0  0  0  0  0  0
  -23.9038  -10.4293   21.0387 C   0  0  0  0  0  0
  -24.3587   -9.4215   21.9175 C   0  0  0  0  0  0
  -23.6267   -8.2246   22.0751 C   0  0  0  0  0  0
  -22.4249   -8.0286   21.3536 C   0  0  0  0  0  0
  -21.9875   -9.0263   20.4638 C   0  0  0  0  0  0
  -22.7209  -10.2138   20.3051 C   0  0  0  0  0  0
  -21.6846   -6.0733   22.5280 C   0  0  0  0  0  0
  -21.4015   -6.5631   23.8214 C   0  0  0  0  0  0
  -21.3659   -5.6780   24.9174 C   0  0  0  0  0  0
  -21.6053   -4.3041   24.7219 C   0  0  0  0  0  0
  -21.8824   -3.8137   23.4343 C   0  0  0  0  0  0
  -21.9183   -4.6953   22.3398 C   0  0  0  0  0  0
  -22.7864  -13.5246   21.1836 C   0  0  0  0  0  0
  -22.1644   -4.2144   21.0972 F   0  0  0  0  0  0
  -21.5640   -3.4527   25.7732 F   0  0  0  0  0  0
  -30.0299  -13.2673   20.4310 N   0  0  0  0  0  0
  -26.2996  -12.9293   20.3302 N   0  0  0  0  0  0
  -25.9293  -11.6460   20.5723 N   0  0  0  0  0  0
  -22.0501  -12.8258   22.0406 N   0  0  0  0  0  0
  -25.4300  -15.1856   20.4041 N   0  0  0  0  0  0
  -31.8765  -14.5819   20.1442 O   0  0  0  0  0  0
  -21.6624   -6.8876   21.4237 O   0  0  0  0  0  0
  -22.3559  -14.5550   20.6686 O   0  0  0  0  0  0
  -24.6151  -31.8688   23.2162 C   0  0  0  0  0  0
  -25.9062  -32.4831   23.8438 C   0  0  1  0  0  0
  -27.2322  -27.4569   20.0648 C   0  0  0  0  0  0
  -25.5941  -33.8634   24.2377 N   0  0  0  0  0  0
  -23.3995  -30.4974   21.5563 C   0  0  2  0  0  0
  -24.8383  -28.9614   20.1230 C   0  0  0  0  0  0
  -22.7403  -29.4672   22.5012 C   0  0  0  0  0  0
  -18.0277  -28.1361   22.8496 C   0  0  0  0  0  0
  -24.1475  -36.7303   23.2635 C   0  0  0  0  0  0
  -25.9294  -30.8361   21.3693 C   0  0  0  0  0  0
  -26.0007  -29.4749   20.7095 C   0  0  0  0  0  0
  -27.1990  -28.7301   20.6753 C   0  0  0  0  0  0
  -26.0384  -26.9424   19.5019 C   0  0  0  0  0  0
  -24.8477  -27.6907   19.5254 C   0  0  0  0  0  0
  -23.6045  -29.8310   20.1712 C   0  0  0  0  0  0
  -25.4104  -36.3125   24.0343 C   0  0  1  0  0  0
  -20.5862  -28.3652   23.1294 C   0  0  2  0  0  0
  -20.6766  -26.9395   22.5382 C   0  0  0  0  0  0
  -19.5741  -26.6383   21.5178 C   0  0  0  0  0  0
  -18.1921  -26.7918   22.1600 C   0  0  0  0  0  0
  -19.1527  -28.8827   23.2893 C   0  0  0  0  0  0
  -18.9451  -30.1429   23.8917 C   0  0  0  0  0  0
  -17.6450  -30.6571   24.0567 C   0  0  0  0  0  0
  -25.9034  -34.9478   23.5151 C   0  0  0  0  0  0
  -16.5344  -29.9067   23.6333 C   0  0  0  0  0  0
  -16.7265  -28.6478   23.0369 C   0  0  0  0  0  0
  -26.4512  -31.6614   25.0760 C   0  0  0  0  0  0
  -25.3796  -31.3691   26.1517 C   0  0  0  0  0  0
  -27.0350  -30.3057   24.6149 C   0  0  0  0  0  0
  -27.6095  -32.4342   25.7499 C   0  0  0  0  0  0
  -27.5583  -37.1810   24.8470 C   0  0  0  0  0  0
  -21.4132  -29.3036   22.3731 N   0  0  0  0  0  0
  -26.4297  -37.3806   23.9414 N   0  0  0  0  0  0
  -24.6662  -31.0805   22.1049 N   0  0  0  0  0  0
  -23.4190  -28.8206   23.3036 O   0  0  0  0  0  0
  -28.4430  -26.7944   20.0281 O   0  0  0  0  0  0
  -26.5558  -34.8916   22.4684 O   0  0  0  0  0  0
  -23.5346  -32.1428   23.7567 O   0  0  0  0  0  0
  -28.1140  -24.5606   20.9043 C   0  0  0  0  0  0
  -29.2085  -16.1395   21.6274 C   0  0  0  0  0  0
  -28.4923  -25.4069   19.6812 C   0  0  0  0  0  0
  -25.8622  -20.9041   20.3702 C   0  0  0  0  0  0
  -26.9611  -19.9362   20.8477 C   0  0  0  0  0  0
  -25.4472  -21.9501   21.4212 C   0  0  0  0  0  0
  -27.2049  -18.8005   19.8401 C   0  0  0  0  0  0
  -26.5624  -22.9082   21.8753 C   0  0  0  0  0  0
  -28.4915  -17.9976   20.0859 C   0  0  0  0  0  0
  -29.1622  -15.6611   22.8816 N   0  0  0  0  0  0
  -27.1065  -23.6905   20.7711 N   0  0  0  0  0  0
  -29.9403  -15.6142   20.6206 N   0  0  0  0  0  0
  -28.4896  -17.2528   21.3647 N   0  3  0  0  0  0
  -28.7136  -24.7166   21.9721 O   0  0  0  0  0  0
  -31.4590  -12.3729   19.1054 H   0  0  0  0  0  0
  -30.3050  -11.2713   19.7988 H   0  0  0  0  0  0
  -29.7189  -11.7698   17.4122 H   0  0  0  0  0  0
  -29.6642  -13.4795   17.7531 H   0  0  0  0  0  0
  -27.8038  -11.3129   18.7882 H   0  0  0  0  0  0
  -27.3576  -12.6555   17.7732 H   0  0  0  0  0  0
  -27.6997  -14.2503   19.5744 H   0  0  0  0  0  0
  -28.6671  -11.9248   21.3056 H   0  0  0  0  0  0
  -28.4500  -13.5438   21.8605 H   0  0  0  0  0  0
  -25.2736   -9.5705   22.4740 H   0  0  0  0  0  0
  -23.9998   -7.4636   22.7462 H   0  0  0  0  0  0
  -21.0818   -8.8782   19.8927 H   0  0  0  0  0  0
  -22.3678  -10.9675   19.6162 H   0  0  0  0  0  0
  -21.2014   -7.6139   23.9723 H   0  0  0  0  0  0
  -21.1475   -6.0503   25.9083 H   0  0  0  0  0  0
  -22.0601   -2.7598   23.2841 H   0  0  0  0  0  0
  -22.4084  -11.9888   22.4757 H   0  0  0  0  0  0
  -21.1135  -13.1325   22.2639 H   0  0  0  0  0  0
  -24.6546  -15.8331   20.4967 H   0  0  0  0  0  0
  -26.2827  -15.6227   20.0843 H   0  0  0  0  0  0
  -26.7134  -32.5522   23.1206 H   0  0  0  0  0  0
  -25.0224  -33.9803   25.0614 H   0  0  0  0  0  0
  -22.6879  -31.3138   21.4204 H   0  0  0  0  0  0
  -23.3747  -35.9623   23.3316 H   0  0  0  0  0  0
  -24.3582  -36.8892   22.2048 H   0  0  0  0  0  0
  -23.7197  -37.6507   23.6623 H   0  0  0  0  0  0
  -26.0533  -31.6092   20.6102 H   0  0  0  0  0  0
  -26.8133  -30.8735   21.9957 H   0  0  0  0  0  0
  -28.1025  -29.1311   21.1136 H   0  0  0  0  0  0
  -25.9916  -25.9748   19.0289 H   0  0  0  0  0  0
  -23.9465  -27.2874   19.0840 H   0  0  0  0  0  0
  -23.7224  -30.6038   19.4107 H   0  0  0  0  0  0
  -22.7269  -29.2552   19.8719 H   0  0  0  0  0  0
  -25.1276  -36.2014   25.0838 H   0  0  0  0  0  0
  -20.9952  -28.3221   24.1407 H   0  0  0  0  0  0
  -20.5630  -26.2262   23.3557 H   0  0  0  0  0  0
  -21.6639  -26.7412   22.1188 H   0  0  0  0  0  0
  -19.6900  -25.6291   21.1214 H   0  0  0  0  0  0
  -19.6683  -27.3186   20.6703 H   0  0  0  0  0  0
  -17.4195  -26.6681   21.4000 H   0  0  0  0  0  0
  -18.0321  -26.0028   22.8966 H   0  0  0  0  0  0
  -19.7924  -30.7238   24.2310 H   0  0  0  0  0  0
  -17.5009  -31.6251   24.5161 H   0  0  0  0  0  0
  -15.5345  -30.2973   23.7640 H   0  0  0  0  0  0
  -15.8667  -28.0778   22.7097 H   0  0  0  0  0  0
  -24.5955  -30.7070   25.7853 H   0  0  0  0  0  0
  -24.9014  -32.2830   26.5040 H   0  0  0  0  0  0
  -25.8169  -30.8804   27.0230 H   0  0  0  0  0  0
  -26.2885  -29.6792   24.1264 H   0  0  0  0  0  0
  -27.4182  -29.7340   25.4613 H   0  0  0  0  0  0
  -27.8700  -30.4382   23.9262 H   0  0  0  0  0  0
  -27.2733  -33.3625   26.2122 H   0  0  0  0  0  0
  -28.3867  -32.6944   25.0304 H   0  0  0  0  0  0
  -28.0817  -31.8457   26.5372 H   0  0  0  0  0  0
  -28.2624  -38.0088   24.7535 H   0  0  0  0  0  0
  -28.1062  -36.2635   24.6293 H   0  0  0  0  0  0
  -27.2301  -37.1455   25.8869 H   0  0  0  0  0  0
  -20.9296  -29.8818   21.7004 H   0  0  0  0  0  0
  -26.0194  -38.2883   24.1434 H   0  0  0  0  0  0
  -27.9047  -25.1557   18.7985 H   0  0  0  0  0  0
  -29.5209  -25.1651   19.4118 H   0  0  0  0  0  0
  -24.9759  -20.3258   20.1061 H   0  0  0  0  0  0
  -26.1776  -21.3986   19.4507 H   0  0  0  0  0  0
  -26.6807  -19.5096   21.8108 H   0  0  0  0  0  0
  -27.8893  -20.4851   21.0092 H   0  0  0  0  0  0
  -25.0571  -21.4348   22.2995 H   0  0  0  0  0  0
  -24.6106  -22.5317   21.0300 H   0  0  0  0  0  0
  -27.2784  -19.2291   18.8392 H   0  0  0  0  0  0
  -26.3438  -18.1325   19.8099 H   0  0  0  0  0  0
  -27.3644  -22.3560   22.3676 H   0  0  0  0  0  0
  -26.1595  -23.5961   22.6215 H   0  0  0  0  0  0
  -29.3582  -18.6600   20.0555 H   0  0  0  0  0  0
  -28.6040  -17.2985   19.2561 H   0  0  0  0  0  0
  -29.7238  -14.8803   23.1934 H   0  0  0  0  0  0
  -28.6014  -16.1037   23.5969 H   0  0  0  0  0  0
  -26.6620  -23.6074   19.8665 H   0  0  0  0  0  0
  -30.1833  -16.3461   19.9781 H   0  0  0  0  0  0
  -27.9789  -17.6936   22.1173 H   0  0  0  0  0  0
  1 25  1  0  0  0
  1 30  2  0  0  0
  1 82  1  0  0  0
  2  3  1  0  0  0
  2 25  1  0  0  0
  2 85  1  0  0  0
  2 86  1  0  0  0
  3  4  1  0  0  0
  3 87  1  0  0  0
  3 88  1  0  0  0
  4  5  1  0  0  0
  4 89  1  0  0  0
  4 90  1  0  0  0
  5  6  1  0  0  0
  5 26  1  0  0  0
  5 91  1  0  0  0
  6 25  1  0  0  0
  6 92  1  0  0  0
  6 93  1  0  0  0
  7  8  2  0  0  0
  7 26  1  0  0  0
  7 29  1  0  0  0
  8  9  1  0  0  0
  8 22  1  0  0  0
  9 10  1  0  0  0
  9 27  2  0  0  0
 10 11  2  0  0  0
 10 15  1  0  0  0
 11 12  1  0  0  0
 11 94  1  0  0  0
 12 13  2  0  0  0
 12 95  1  0  0  0
 13 14  1  0  0  0
 13 31  1  0  0  0
 14 15  2  0  0  0
 14 96  1  0  0  0
 15 97  1  0  0  0
 16 17  2  0  0  0
 16 21  1  0  0  0
 16 31  1  0  0  0
 17 18  1  0  0  0
 17 98  1  0  0  0
 18 19  2  0  0  0
 18 99  1  0  0  0
 19 20  1  0  0  0
 19 24  1  0  0  0
 20 21  2  0  0  0
 20100  1  0  0  0
 21 23  1  0  0  0
 22 28  1  0  0  0
 22 32  2  0  0  0
 26 27  1  0  0  0
 28101  1  0  0  0
 28102  1  0  0  0
 29103  1  0  0  0
 29104  1  0  0  0
 33 34  1  0  0  0
 33 66  1  0  0  0
 33 70  2  0  0  0
 34 36  1  0  0  0
 34 59  1  0  0  0
 34105  1  0  0  0
 35 44  2  0  0  0
 35 45  1  0  0  0
 35 68  1  0  0  0
 36 56  1  0  0  0
 36106  1  0  0  0
 37 39  1  0  0  0
 37 47  1  0  0  0
 37 66  1  0  0  0
 37107  1  0  0  0
 38 43  2  0  0  0
 38 46  1  0  0  0
 38 47  1  0  0  0
 39 64  1  0  0  0
 39 67  2  0  0  0
 40 52  1  0  0  0
 40 53  2  0  0  0
 40 58  1  0  0  0
 41108  1  0  0  0
 41109  1  0  0  0
 41110  1  0  0  0
 41 48  1  0  0  0
 42 43  1  0  0  0
 42 66  1  0  0  0
 42111  1  0  0  0
 42112  1  0  0  0
 43 44  1  0  0  0
 44113  1  0  0  0
 45 46  2  0  0  0
 45114  1  0  0  0
 46115  1  0  0  0
 47116  1  0  0  0
 47117  1  0  0  0
 48 56  1  0  0  0
 48 65  1  0  0  0
 48118  1  0  0  0
 49 50  1  0  0  0
 49 53  1  0  0  0
 49 64  1  0  0  0
 49119  1  0  0  0
 50 51  1  0  0  0
 50120  1  0  0  0
 50121  1  0  0  0
 51 52  1  0  0  0
 51122  1  0  0  0
 51123  1  0  0  0
 52124  1  0  0  0
 52125  1  0  0  0
 53 54  1  0  0  0
 54 55  2  0  0  0
 54126  1  0  0  0
 55 57  1  0  0  0
 55127  1  0  0  0
 56 69  2  0  0  0
 57 58  2  0  0  0
 57128  1  0  0  0
 58129  1  0  0  0
 59 60  1  0  0  0
 59 61  1  0  0  0
 59 62  1  0  0  0
 60130  1  0  0  0
 60131  1  0  0  0
 60132  1  0  0  0
 61133  1  0  0  0
 61134  1  0  0  0
 61135  1  0  0  0
 62136  1  0  0  0
 62137  1  0  0  0
 62138  1  0  0  0
 63 65  1  0  0  0
 63139  1  0  0  0
 63140  1  0  0  0
 63141  1  0  0  0
 64142  1  0  0  0
 65143  1  0  0  0
 68 73  1  0  0  0
 71 73  1  0  0  0
 71 81  1  0  0  0
 71 84  2  0  0  0
 72 80  1  0  0  0
 72 82  1  0  0  0
 72 83  2  0  0  0
 73144  1  0  0  0
 73145  1  0  0  0
 74 75  1  0  0  0
 74 76  1  0  0  0
 74146  1  0  0  0
 74147  1  0  0  0
 75 77  1  0  0  0
 75148  1  0  0  0
 75149  1  0  0  0
 76 78  1  0  0  0
 76150  1  0  0  0
 76151  1  0  0  0
 77 79  1  0  0  0
 77152  1  0  0  0
 77153  1  0  0  0
 78 81  1  0  0  0
 78154  1  0  0  0
 78155  1  0  0  0
 79 83  1  0  0  0
 79156  1  0  0  0
 79157  1  0  0  0
 80158  1  0  0  0
 80159  1  0  0  0
 81160  1  0  0  0
 82161  1  0  0  0
 83162  1  0  0  0
M  CHG  1  83   1
M  ISO  4   1 100  68 101  73 101  82 100
M  END
> <chiral flag>
0

> <version>
0

> <s_m_source_file>
/data/baiqing/PycharmProjects/Reinvent-master-3.2/result/LINK_invent/BTK/process_docking_weight1_custom_sum_contain_oxygen_bond_distance_aromatic_linkinvent_7_9_3/rearranged_h_0012.sdf

> <i_m_source_file_index>
29

> <r_mmod_Potential_Energy-OPLS-2005>
-114.602355957031

> <r_mmod_Stretch_Energy-OPLS-2005>
31.6979904174805

> <r_mmod_Bend_Energy-OPLS-2005>
121.389823913574

> <r_mmod_Torsional_Energy-OPLS-2005>
271.345886230469

> <r_mmod_Improper_Torsional_Energy-OPLS-2005>
22.362512588501

> <r_mmod_Van_der_Waal_Energy-OPLS-2005>
129.319946289062

> <r_mmod_Electrostatic_Energy-OPLS-2005>
-214.911834716797

> <r_mmod_Solvation_Energy-OPLS-2005>
-488.396484375

> <b_mmod_Minimization_Converged-OPLS-2005>
0

> <r_mmod_RMS_Derivative-OPLS-2005>
2.02285051345825

$$$$
30
                    3D
 Structure written by MMmdl.
147154  0  0  1  0            999 V2000
  -30.4235  -15.2881   20.3595 C   0  0  0  0  0  0
  -30.4377  -12.8185   19.5415 C   0  0  0  0  0  0
  -29.5402  -12.5834   18.2991 C   0  0  0  0  0  0
  -28.0883  -12.3038   18.7220 C   0  0  0  0  0  0
  -27.6123  -13.2784   19.8276 C   0  0  2  0  0  0
  -28.6416  -13.4588   20.9653 C   0  0  0  0  0  0
  -25.2380  -13.8253   20.5748 C   0  0  0  0  0  0
  -24.1736  -13.0436   20.9257 C   0  0  0  0  0  0
  -24.6397  -11.6935   20.8761 C   0  0  0  0  0  0
  -23.9094  -10.4293   21.0405 C   0  0  0  0  0  0
  -24.3637   -9.4205   21.9183 C   0  0  0  0  0  0
  -23.6304   -8.2244   22.0754 C   0  0  0  0  0  0
  -22.4285   -8.0284   21.3545 C   0  0  0  0  0  0
  -21.9926   -9.0259   20.4647 C   0  0  0  0  0  0
  -22.7263  -10.2135   20.3055 C   0  0  0  0  0  0
  -21.6856   -6.0738   22.5278 C   0  0  0  0  0  0
  -21.4017   -6.5641   23.8212 C   0  0  0  0  0  0
  -21.3660   -5.6793   24.9173 C   0  0  0  0  0  0
  -21.6044   -4.3056   24.7224 C   0  0  0  0  0  0
  -21.8818   -3.8148   23.4345 C   0  0  0  0  0  0
  -21.9193   -4.6965   22.3402 C   0  0  0  0  0  0
  -22.7754  -13.5185   21.1905 C   0  0  0  0  0  0
  -22.1662   -4.2150   21.0980 F   0  0  0  0  0  0
  -21.5628   -3.4539   25.7737 F   0  0  0  0  0  0
  -29.8763  -13.9693   20.3467 N   0  0  0  0  0  0
  -26.2815  -12.9535   20.3230 N   0  0  0  0  0  0
  -25.9336  -11.6635   20.5725 N   0  0  0  0  0  0
  -22.0416  -12.8166   22.0462 N   0  0  0  0  0  0
  -25.4002  -15.1989   20.4179 N   0  0  0  0  0  0
  -31.6342  -15.2968   20.0924 O   0  0  0  0  0  0
  -21.6644   -6.8883   21.4242 O   0  0  0  0  0  0
  -22.3432  -14.5487   20.6747 O   0  0  0  0  0  0
  -24.6637  -31.8213   23.1684 C   0  0  0  0  0  0
  -25.9313  -32.4574   23.8157 C   0  0  1  0  0  0
  -27.2217  -26.9110   20.1860 C   0  0  0  0  0  0
  -25.5974  -33.8391   24.2059 N   0  0  0  0  0  0
  -23.4796  -30.4310   21.5173 C   0  0  2  0  0  0
  -24.9347  -28.8142   20.1087 C   0  0  0  0  0  0
  -22.7671  -29.4425   22.4772 C   0  0  0  0  0  0
  -18.0322  -28.1410   22.8468 C   0  0  0  0  0  0
  -24.1494  -36.7202   23.2649 C   0  0  0  0  0  0
  -26.0488  -30.6212   21.4025 C   0  0  0  0  0  0
  -26.1161  -29.2093   20.7473 C   0  0  0  0  0  0
  -27.2504  -28.2775   20.7638 C   0  0  0  0  0  0
  -26.0152  -26.6754   19.4880 C   0  0  0  0  0  0
  -24.9107  -27.5688   19.4586 C   0  0  0  0  0  0
  -23.7205  -29.7436   20.1439 C   0  0  0  0  0  0
  -25.4137  -36.2960   24.0297 C   0  0  1  0  0  0
  -20.5948  -28.3755   23.1186 C   0  0  2  0  0  0
  -20.6798  -26.9434   22.5404 C   0  0  0  0  0  0
  -19.5771  -26.6377   21.5217 C   0  0  0  0  0  0
  -18.1954  -26.7942   22.1624 C   0  0  0  0  0  0
  -19.1584  -28.8903   23.2813 C   0  0  0  0  0  0
  -18.9495  -30.1492   23.8850 C   0  0  0  0  0  0
  -17.6488  -30.6599   24.0555 C   0  0  0  0  0  0
  -25.9102  -34.9344   23.5002 C   0  0  0  0  0  0
  -16.5378  -29.9087   23.6345 C   0  0  0  0  0  0
  -16.7305  -28.6507   23.0365 C   0  0  0  0  0  0
  -26.4562  -31.6531   25.0696 C   0  0  0  0  0  0
  -25.3683  -31.3790   26.1348 C   0  0  0  0  0  0
  -27.0466  -30.2896   24.6449 C   0  0  0  0  0  0
  -27.6045  -32.4351   25.7502 C   0  0  0  0  0  0
  -27.5567  -37.1762   24.8470 C   0  0  0  0  0  0
  -21.4338  -29.3038   22.3527 N   0  0  0  0  0  0
  -26.4282  -37.3696   23.9403 N   0  0  0  0  0  0
  -24.7519  -30.9858   22.0828 N   0  0  0  0  0  0
  -23.4210  -28.8005   23.3027 O   0  0  0  0  0  0
  -28.2235  -25.8038   20.3058 O   0  0  0  0  0  0
  -26.5719  -34.8884   22.4602 O   0  0  0  0  0  0
  -23.5704  -32.1195   23.6766 O   0  0  0  0  0  0
  -29.1753  -19.7119   20.6702 C   0  0  0  0  0  0
  -29.3930  -21.1128   18.6425 C   0  0  0  0  0  0
  -29.7892  -18.1801   20.0464 C   0  0  0  0  0  0
  -28.7737  -22.6359   20.6401 C   0  0  0  0  0  0
  -28.1171  -24.1842   19.9424 C   0  0  0  0  0  0
  -29.6484  -16.5550   20.4650 N   0  0  0  0  0  0
  -29.0540  -21.0745   20.0611 N   0  0  0  0  0  0
  -28.8258  -19.6300   21.8493 O   0  0  0  0  0  0
  -31.4590  -13.0173   19.2141 H   0  0  0  0  0  0
  -30.5010  -11.9142   20.1493 H   0  0  0  0  0  0
  -29.9239  -11.7552   17.7016 H   0  0  0  0  0  0
  -29.5708  -13.4655   17.6578 H   0  0  0  0  0  0
  -28.0454  -11.2798   19.0948 H   0  0  0  0  0  0
  -27.4223  -12.3444   17.8593 H   0  0  0  0  0  0
  -27.5265  -14.2441   19.3282 H   0  0  0  0  0  0
  -28.8093  -12.5264   21.5064 H   0  0  0  0  0  0
  -28.2750  -14.1806   21.6969 H   0  0  0  0  0  0
  -25.2779   -9.5678   22.4763 H   0  0  0  0  0  0
  -24.0008   -7.4634   22.7475 H   0  0  0  0  0  0
  -21.0857   -8.8783   19.8954 H   0  0  0  0  0  0
  -22.3720  -10.9675   19.6167 H   0  0  0  0  0  0
  -21.2011   -7.6149   23.9715 H   0  0  0  0  0  0
  -21.1483   -6.0524   25.9076 H   0  0  0  0  0  0
  -22.0597   -2.7609   23.2846 H   0  0  0  0  0  0
  -22.4053  -11.9835   22.4848 H   0  0  0  0  0  0
  -21.1029  -13.1172   22.2673 H   0  0  0  0  0  0
  -24.6261  -15.8456   20.5254 H   0  0  0  0  0  0
  -26.2362  -15.6406   20.0587 H   0  0  0  0  0  0
  -26.7381  -32.5107   23.0870 H   0  0  0  0  0  0
  -25.0061  -33.9467   25.0168 H   0  0  0  0  0  0
  -22.7937  -31.2630   21.3444 H   0  0  0  0  0  0
  -23.3764  -35.9525   23.3291 H   0  0  0  0  0  0
  -24.3564  -36.8870   22.2066 H   0  0  0  0  0  0
  -23.7247  -37.6382   23.6721 H   0  0  0  0  0  0
  -26.2317  -31.3610   20.6221 H   0  0  0  0  0  0
  -26.9077  -30.6787   22.0591 H   0  0  0  0  0  0
  -28.1405  -28.5749   21.3002 H   0  0  0  0  0  0
  -25.8867  -25.7264   18.9890 H   0  0  0  0  0  0
  -24.0144  -27.2616   18.9374 H   0  0  0  0  0  0
  -23.8761  -30.5112   19.3850 H   0  0  0  0  0  0
  -22.8301  -29.1978   19.8269 H   0  0  0  0  0  0
  -25.1338  -36.1756   25.0789 H   0  0  0  0  0  0
  -21.0036  -28.3368   24.1310 H   0  0  0  0  0  0
  -20.5677  -26.2376   23.3648 H   0  0  0  0  0  0
  -21.6662  -26.7408   22.1212 H   0  0  0  0  0  0
  -19.6930  -25.6274   21.1279 H   0  0  0  0  0  0
  -19.6711  -27.3160   20.6726 H   0  0  0  0  0  0
  -17.4223  -26.6686   21.4028 H   0  0  0  0  0  0
  -18.0346  -26.0096   22.9031 H   0  0  0  0  0  0
  -19.7970  -30.7320   24.2200 H   0  0  0  0  0  0
  -17.5040  -31.6275   24.5165 H   0  0  0  0  0  0
  -15.5376  -30.2974   23.7694 H   0  0  0  0  0  0
  -15.8706  -28.0807   22.7111 H   0  0  0  0  0  0
  -24.5879  -30.7124   25.7659 H   0  0  0  0  0  0
  -24.8859  -32.2994   26.4646 H   0  0  0  0  0  0
  -25.7910  -30.9041   27.0211 H   0  0  0  0  0  0
  -26.3140  -29.6560   24.1436 H   0  0  0  0  0  0
  -27.3968  -29.7273   25.5115 H   0  0  0  0  0  0
  -27.9092  -30.4072   23.9888 H   0  0  0  0  0  0
  -27.2602  -33.3696   26.1947 H   0  0  0  0  0  0
  -28.3925  -32.6843   25.0383 H   0  0  0  0  0  0
  -28.0637  -31.8569   26.5529 H   0  0  0  0  0  0
  -28.2579  -38.0061   24.7493 H   0  0  0  0  0  0
  -28.1067  -36.2585   24.6329 H   0  0  0  0  0  0
  -27.2277  -37.1441   25.8871 H   0  0  0  0  0  0
  -20.9597  -29.8718   21.6644 H   0  0  0  0  0  0
  -26.0129  -38.2757   24.1397 H   0  0  0  0  0  0
  -28.6945  -20.5061   18.0644 H   0  0  0  0  0  0
  -30.4000  -20.7280   18.4733 H   0  0  0  0  0  0
  -29.3616  -22.1237   18.2384 H   0  0  0  0  0  0
  -30.8663  -18.3435   20.0077 H   0  0  0  0  0  0
  -29.4884  -18.1962   18.9991 H   0  0  0  0  0  0
  -28.2142  -22.4791   21.5626 H   0  0  0  0  0  0
  -29.7660  -22.9176   20.9920 H   0  0  0  0  0  0
  -27.0469  -23.9974   19.8651 H   0  0  0  0  0  0
  -28.4525  -24.1728   18.9059 H   0  0  0  0  0  0
  -28.7023  -16.3537   20.7538 H   0  0  0  0  0  0
  1 25  1  0  0  0
  1 30  2  0  0  0
  1 76  1  0  0  0
  2  3  1  0  0  0
  2 25  1  0  0  0
  2 79  1  0  0  0
  2 80  1  0  0  0
  3  4  1  0  0  0
  3 81  1  0  0  0
  3 82  1  0  0  0
  4  5  1  0  0  0
  4 83  1  0  0  0
  4 84  1  0  0  0
  5  6  1  0  0  0
  5 26  1  0  0  0
  5 85  1  0  0  0
  6 25  1  0  0  0
  6 86  1  0  0  0
  6 87  1  0  0  0
  7  8  2  0  0  0
  7 26  1  0  0  0
  7 29  1  0  0  0
  8  9  1  0  0  0
  8 22  1  0  0  0
  9 10  1  0  0  0
  9 27  2  0  0  0
 10 11  2  0  0  0
 10 15  1  0  0  0
 11 12  1  0  0  0
 11 88  1  0  0  0
 12 13  2  0  0  0
 12 89  1  0  0  0
 13 14  1  0  0  0
 13 31  1  0  0  0
 14 15  2  0  0  0
 14 90  1  0  0  0
 15 91  1  0  0  0
 16 17  2  0  0  0
 16 21  1  0  0  0
 16 31  1  0  0  0
 17 18  1  0  0  0
 17 92  1  0  0  0
 18 19  2  0  0  0
 18 93  1  0  0  0
 19 20  1  0  0  0
 19 24  1  0  0  0
 20 21  2  0  0  0
 20 94  1  0  0  0
 21 23  1  0  0  0
 22 28  1  0  0  0
 22 32  2  0  0  0
 26 27  1  0  0  0
 28 95  1  0  0  0
 28 96  1  0  0  0
 29 97  1  0  0  0
 29 98  1  0  0  0
 33 34  1  0  0  0
 33 66  1  0  0  0
 33 70  2  0  0  0
 34 36  1  0  0  0
 34 59  1  0  0  0
 34 99  1  0  0  0
 35 44  2  0  0  0
 35 45  1  0  0  0
 35 68  1  0  0  0
 36 56  1  0  0  0
 36100  1  0  0  0
 37 39  1  0  0  0
 37 47  1  0  0  0
 37 66  1  0  0  0
 37101  1  0  0  0
 38 43  2  0  0  0
 38 46  1  0  0  0
 38 47  1  0  0  0
 39 64  1  0  0  0
 39 67  2  0  0  0
 40 52  1  0  0  0
 40 53  2  0  0  0
 40 58  1  0  0  0
 41102  1  0  0  0
 41103  1  0  0  0
 41104  1  0  0  0
 41 48  1  0  0  0
 42 43  1  0  0  0
 42 66  1  0  0  0
 42105  1  0  0  0
 42106  1  0  0  0
 43 44  1  0  0  0
 44107  1  0  0  0
 45 46  2  0  0  0
 45108  1  0  0  0
 46109  1  0  0  0
 47110  1  0  0  0
 47111  1  0  0  0
 48 56  1  0  0  0
 48 65  1  0  0  0
 48112  1  0  0  0
 49 50  1  0  0  0
 49 53  1  0  0  0
 49 64  1  0  0  0
 49113  1  0  0  0
 50 51  1  0  0  0
 50114  1  0  0  0
 50115  1  0  0  0
 51 52  1  0  0  0
 51116  1  0  0  0
 51117  1  0  0  0
 52118  1  0  0  0
 52119  1  0  0  0
 53 54  1  0  0  0
 54 55  2  0  0  0
 54120  1  0  0  0
 55 57  1  0  0  0
 55121  1  0  0  0
 56 69  2  0  0  0
 57 58  2  0  0  0
 57122  1  0  0  0
 58123  1  0  0  0
 59 60  1  0  0  0
 59 61  1  0  0  0
 59 62  1  0  0  0
 60124  1  0  0  0
 60125  1  0  0  0
 60126  1  0  0  0
 61127  1  0  0  0
 61128  1  0  0  0
 61129  1  0  0  0
 62130  1  0  0  0
 62131  1  0  0  0
 62132  1  0  0  0
 63 65  1  0  0  0
 63133  1  0  0  0
 63134  1  0  0  0
 63135  1  0  0  0
 64136  1  0  0  0
 65137  1  0  0  0
 68 75  1  0  0  0
 71 73  1  0  0  0
 71 77  1  0  0  0
 71 78  2  0  0  0
 72 77  1  0  0  0
 72138  1  0  0  0
 72139  1  0  0  0
 72140  1  0  0  0
 73 76  1  0  0  0
 73141  1  0  0  0
 73142  1  0  0  0
 74 75  1  0  0  0
 74 77  1  0  0  0
 74143  1  0  0  0
 74144  1  0  0  0
 75145  1  0  0  0
 75146  1  0  0  0
 76147  1  0  0  0
M  ISO  4   1 100  68 101  75 101  76 100
M  END
> <chiral flag>
0

> <version>
0

> <s_m_source_file>
/data/baiqing/PycharmProjects/Reinvent-master-3.2/result/LINK_invent/BTK/process_docking_weight1_custom_sum_contain_oxygen_bond_distance_aromatic_linkinvent_7_9_3/rearranged_h_0012.sdf

> <i_m_source_file_index>
30

> <r_mmod_Potential_Energy-OPLS-2005>
1240.76599121094

> <r_mmod_Stretch_Energy-OPLS-2005>
638.052062988281

> <r_mmod_Bend_Energy-OPLS-2005>
449.331359863281

> <r_mmod_Torsional_Energy-OPLS-2005>
235.568359375

> <r_mmod_Improper_Torsional_Energy-OPLS-2005>
4.90387010574341

> <r_mmod_Van_der_Waal_Energy-OPLS-2005>
109.25804901123

> <r_mmod_Electrostatic_Energy-OPLS-2005>
-426.660583496094

> <r_mmod_Solvation_Energy-OPLS-2005>
-253.599349975586

> <b_mmod_Minimization_Converged-OPLS-2005>
0

> <r_mmod_RMS_Derivative-OPLS-2005>
0.252951502799988

$$$$
31
                    3D
 Structure written by MMmdl.
154162  0  0  1  0            999 V2000
  -30.5131  -15.0638   20.4000 C   0  0  0  0  0  0
  -30.4504  -12.6837   19.4793 C   0  0  0  0  0  0
  -29.5231  -12.5361   18.2494 C   0  0  0  0  0  0
  -28.0671  -12.2825   18.6905 C   0  0  0  0  0  0
  -27.6151  -13.2500   19.8155 C   0  0  2  0  0  0
  -28.6646  -13.3612   20.9388 C   0  0  0  0  0  0
  -25.2405  -13.8185   20.5709 C   0  0  0  0  0  0
  -24.1728  -13.0396   20.9261 C   0  0  0  0  0  0
  -24.6365  -11.6913   20.8768 C   0  0  0  0  0  0
  -23.9060  -10.4274   21.0431 C   0  0  0  0  0  0
  -24.3614   -9.4193   21.9204 C   0  0  0  0  0  0
  -23.6291   -8.2229   22.0764 C   0  0  0  0  0  0
  -22.4282   -8.0267   21.3540 C   0  0  0  0  0  0
  -21.9920   -9.0238   20.4644 C   0  0  0  0  0  0
  -22.7242  -10.2118   20.3067 C   0  0  0  0  0  0
  -21.6829   -6.0701   22.5273 C   0  0  0  0  0  0
  -21.4018   -6.5615   23.8205 C   0  0  0  0  0  0
  -21.3669   -5.6773   24.9163 C   0  0  0  0  0  0
  -21.6056   -4.3047   24.7215 C   0  0  0  0  0  0
  -21.8824   -3.8123   23.4342 C   0  0  0  0  0  0
  -21.9206   -4.6934   22.3386 C   0  0  0  0  0  0
  -22.7748  -13.5182   21.1915 C   0  0  0  0  0  0
  -22.1668   -4.2110   21.0964 F   0  0  0  0  0  0
  -21.5632   -3.4543   25.7738 F   0  0  0  0  0  0
  -29.9129  -13.8029   20.3003 N   0  0  0  0  0  0
  -26.2828  -12.9415   20.3196 N   0  0  0  0  0  0
  -25.9302  -11.6558   20.5746 N   0  0  0  0  0  0
  -22.0406  -12.8134   22.0484 N   0  0  0  0  0  0
  -25.3949  -15.1896   20.3984 N   0  0  0  0  0  0
  -31.7447  -15.0830   20.3132 O   0  0  0  0  0  0
  -21.6644   -6.8857   21.4234 O   0  0  0  0  0  0
  -22.3442  -14.5466   20.6750 O   0  0  0  0  0  0
  -24.6503  -31.8328   23.1802 C   0  0  0  0  0  0
  -25.9262  -32.4627   23.8215 C   0  0  1  0  0  0
  -27.2383  -27.0636   20.1555 C   0  0  0  0  0  0
  -25.6024  -33.8438   24.2151 N   0  0  0  0  0  0
  -23.4618  -30.4447   21.5232 C   0  0  2  0  0  0
  -24.9194  -28.8650   20.1006 C   0  0  0  0  0  0
  -22.7628  -29.4396   22.4756 C   0  0  0  0  0  0
  -18.0301  -28.1321   22.8550 C   0  0  0  0  0  0
  -24.1508  -36.7255   23.2638 C   0  0  0  0  0  0
  -26.0225  -30.6862   21.3902 C   0  0  0  0  0  0
  -26.0986  -29.2910   20.7248 C   0  0  0  0  0  0
  -27.2561  -28.4100   20.7263 C   0  0  0  0  0  0
  -26.0306  -26.7616   19.4862 C   0  0  0  0  0  0
  -24.9057  -27.6189   19.4549 C   0  0  0  0  0  0
  -23.7027  -29.7835   20.1386 C   0  0  0  0  0  0
  -25.4129  -36.2975   24.0299 C   0  0  1  0  0  0
  -20.5955  -28.3559   23.1156 C   0  0  2  0  0  0
  -20.6709  -26.9202   22.5343 C   0  0  0  0  0  0
  -19.5492  -26.6039   21.5382 C   0  0  0  0  0  0
  -18.1815  -26.7741   22.1993 C   0  0  0  0  0  0
  -19.1620  -28.8760   23.2820 C   0  0  0  0  0  0
  -18.9580  -30.1366   23.8814 C   0  0  0  0  0  0
  -17.6565  -30.6470   24.0624 C   0  0  0  0  0  0
  -25.9066  -34.9365   23.5021 C   0  0  0  0  0  0
  -16.5413  -29.9001   23.6480 C   0  0  0  0  0  0
  -16.7311  -28.6459   23.0478 C   0  0  0  0  0  0
  -26.4567  -31.6510   25.0677 C   0  0  0  0  0  0
  -25.3751  -31.3764   26.1369 C   0  0  0  0  0  0
  -27.0485  -30.2898   24.6368 C   0  0  0  0  0  0
  -27.6040  -32.4305   25.7532 C   0  0  0  0  0  0
  -27.5573  -37.1794   24.8470 C   0  0  0  0  0  0
  -21.4302  -29.2920   22.3524 N   0  0  0  0  0  0
  -26.4289  -37.3701   23.9377 N   0  0  0  0  0  0
  -24.7300  -31.0108   22.0865 N   0  0  0  0  0  0
  -23.4242  -28.7928   23.2910 O   0  0  0  0  0  0
  -28.2711  -26.0291   20.2464 O   0  0  0  0  0  0
  -26.5641  -34.8899   22.4592 O   0  0  0  0  0  0
  -23.5613  -32.1225   23.7000 O   0  0  0  0  0  0
  -29.8841  -17.9424   22.0523 C   0  0  0  0  0  0
  -29.3988  -20.3748   21.9044 C   0  0  0  0  0  0
  -29.6826  -19.2083   22.6561 C   0  0  0  0  0  0
  -29.7633  -17.7425   20.6596 C   0  0  0  0  0  0
  -29.2725  -20.3974   20.4953 C   0  0  0  0  0  0
  -29.4665  -19.0070   19.9038 C   0  0  0  0  0  0
  -28.9288  -23.1563   20.3976 C   0  0  0  0  0  0
  -29.7023  -19.3179   24.1702 C   0  0  0  0  0  0
  -28.3111  -21.7528   18.5149 C   0  0  0  0  0  0
  -28.0026  -24.4972   19.9124 C   0  0  0  0  0  0
  -29.7591  -16.2659   20.1650 N   0  0  0  0  0  0
  -28.8591  -21.7925   19.8737 N   0  0  0  0  0  0
  -29.7446  -23.3972   21.2924 O   0  0  0  0  0  0
  -29.3946  -18.7590   18.1937 Cl  0  0  0  0  0  0
  -31.4698  -12.8895   19.1518 H   0  0  0  0  0  0
  -30.4980  -11.7634   20.0621 H   0  0  0  0  0  0
  -29.8782  -11.7251   17.6108 H   0  0  0  0  0  0
  -29.5692  -13.4450   17.6443 H   0  0  0  0  0  0
  -28.0121  -11.2548   19.0515 H   0  0  0  0  0  0
  -27.3953  -12.3485   17.8337 H   0  0  0  0  0  0
  -27.5505  -14.2268   19.3384 H   0  0  0  0  0  0
  -28.7923  -12.4163   21.4728 H   0  0  0  0  0  0
  -28.3446  -14.0941   21.6829 H   0  0  0  0  0  0
  -25.2762   -9.5645   22.4769 H   0  0  0  0  0  0
  -24.0000   -7.4590   22.7467 H   0  0  0  0  0  0
  -21.0854   -8.8728   19.8923 H   0  0  0  0  0  0
  -22.3714  -10.9635   19.6162 H   0  0  0  0  0  0
  -21.2011   -7.6129   23.9692 H   0  0  0  0  0  0
  -21.1493   -6.0506   25.9061 H   0  0  0  0  0  0
  -22.0610   -2.7588   23.2843 H   0  0  0  0  0  0
  -22.4097  -11.9819   22.4849 H   0  0  0  0  0  0
  -21.0995  -13.1098   22.2670 H   0  0  0  0  0  0
  -24.6047  -15.8204   20.4725 H   0  0  0  0  0  0
  -26.2074  -15.6276   19.9855 H   0  0  0  0  0  0
  -26.7314  -32.5211   23.0932 H   0  0  0  0  0  0
  -25.0226  -33.9538   25.0347 H   0  0  0  0  0  0
  -22.7675  -31.2727   21.3680 H   0  0  0  0  0  0
  -23.3735  -35.9626   23.3272 H   0  0  0  0  0  0
  -24.3623  -36.8911   22.2061 H   0  0  0  0  0  0
  -23.7329  -37.6473   23.6700 H   0  0  0  0  0  0
  -26.1824  -31.4454   20.6248 H   0  0  0  0  0  0
  -26.8919  -30.7422   22.0349 H   0  0  0  0  0  0
  -28.1604  -28.7361   21.2193 H   0  0  0  0  0  0
  -25.9252  -25.8107   18.9863 H   0  0  0  0  0  0
  -24.0171  -27.2905   18.9348 H   0  0  0  0  0  0
  -23.8667  -30.5708   19.3987 H   0  0  0  0  0  0
  -22.8162  -29.2463   19.7964 H   0  0  0  0  0  0
  -25.1318  -36.1762   25.0792 H   0  0  0  0  0  0
  -21.0023  -28.3078   24.1277 H   0  0  0  0  0  0
  -20.5740  -26.2124   23.3624 H   0  0  0  0  0  0
  -21.6479  -26.7139   22.0920 H   0  0  0  0  0  0
  -19.6390  -25.5788   21.1778 H   0  0  0  0  0  0
  -19.6257  -27.2550   20.6663 H   0  0  0  0  0  0
  -17.3879  -26.6172   21.4675 H   0  0  0  0  0  0
  -18.0487  -26.0185   22.9752 H   0  0  0  0  0  0
  -19.8102  -30.7175   24.2107 H   0  0  0  0  0  0
  -17.5177  -31.6123   24.5269 H   0  0  0  0  0  0
  -15.5407  -30.2801   23.7966 H   0  0  0  0  0  0
  -15.8672  -28.0769   22.7307 H   0  0  0  0  0  0
  -24.5922  -30.7105   25.7725 H   0  0  0  0  0  0
  -24.8975  -32.2978   26.4695 H   0  0  0  0  0  0
  -25.8043  -30.9020   27.0195 H   0  0  0  0  0  0
  -26.3155  -29.6556   24.1374 H   0  0  0  0  0  0
  -27.4029  -29.7274   25.5009 H   0  0  0  0  0  0
  -27.9066  -30.4085   23.9760 H   0  0  0  0  0  0
  -27.2564  -33.3600   26.2060 H   0  0  0  0  0  0
  -28.3945  -32.6862   25.0463 H   0  0  0  0  0  0
  -28.0606  -31.8458   26.5530 H   0  0  0  0  0  0
  -28.2555  -38.0103   24.7438 H   0  0  0  0  0  0
  -28.1090  -36.2625   24.6354 H   0  0  0  0  0  0
  -27.2304  -37.1513   25.8881 H   0  0  0  0  0  0
  -20.9449  -29.8654   21.6778 H   0  0  0  0  0  0
  -26.0122  -38.2758   24.1375 H   0  0  0  0  0  0
  -30.0745  -17.0902   22.6871 H   0  0  0  0  0  0
  -29.2272  -21.2809   22.4643 H   0  0  0  0  0  0
  -30.6653  -19.6912   24.5247 H   0  0  0  0  0  0
  -29.5210  -18.3502   24.6379 H   0  0  0  0  0  0
  -28.9235  -19.9908   24.5249 H   0  0  0  0  0  0
  -27.9196  -20.7817   18.2275 H   0  0  0  0  0  0
  -29.0767  -22.0404   17.7890 H   0  0  0  0  0  0
  -27.4463  -22.3977   18.4013 H   0  0  0  0  0  0
  -27.0291  -24.2629   20.3424 H   0  0  0  0  0  0
  -27.8678  -24.4601   18.8317 H   0  0  0  0  0  0
  -28.9728  -16.0789   19.5603 H   0  0  0  0  0  0
  1 25  1  0  0  0
  1 30  2  0  0  0
  1 81  1  0  0  0
  2  3  1  0  0  0
  2 25  1  0  0  0
  2 85  1  0  0  0
  2 86  1  0  0  0
  3  4  1  0  0  0
  3 87  1  0  0  0
  3 88  1  0  0  0
  4  5  1  0  0  0
  4 89  1  0  0  0
  4 90  1  0  0  0
  5  6  1  0  0  0
  5 26  1  0  0  0
  5 91  1  0  0  0
  6 25  1  0  0  0
  6 92  1  0  0  0
  6 93  1  0  0  0
  7  8  2  0  0  0
  7 26  1  0  0  0
  7 29  1  0  0  0
  8  9  1  0  0  0
  8 22  1  0  0  0
  9 10  1  0  0  0
  9 27  2  0  0  0
 10 11  2  0  0  0
 10 15  1  0  0  0
 11 12  1  0  0  0
 11 94  1  0  0  0
 12 13  2  0  0  0
 12 95  1  0  0  0
 13 14  1  0  0  0
 13 31  1  0  0  0
 14 15  2  0  0  0
 14 96  1  0  0  0
 15 97  1  0  0  0
 16 17  2  0  0  0
 16 21  1  0  0  0
 16 31  1  0  0  0
 17 18  1  0  0  0
 17 98  1  0  0  0
 18 19  2  0  0  0
 18 99  1  0  0  0
 19 20  1  0  0  0
 19 24  1  0  0  0
 20 21  2  0  0  0
 20100  1  0  0  0
 21 23  1  0  0  0
 22 28  1  0  0  0
 22 32  2  0  0  0
 26 27  1  0  0  0
 28101  1  0  0  0
 28102  1  0  0  0
 29103  1  0  0  0
 29104  1  0  0  0
 33 34  1  0  0  0
 33 66  1  0  0  0
 33 70  2  0  0  0
 34 36  1  0  0  0
 34 59  1  0  0  0
 34105  1  0  0  0
 35 44  2  0  0  0
 35 45  1  0  0  0
 35 68  1  0  0  0
 36 56  1  0  0  0
 36106  1  0  0  0
 37 39  1  0  0  0
 37 47  1  0  0  0
 37 66  1  0  0  0
 37107  1  0  0  0
 38 43  2  0  0  0
 38 46  1  0  0  0
 38 47  1  0  0  0
 39 64  1  0  0  0
 39 67  2  0  0  0
 40 52  1  0  0  0
 40 53  2  0  0  0
 40 58  1  0  0  0
 41108  1  0  0  0
 41109  1  0  0  0
 41110  1  0  0  0
 41 48  1  0  0  0
 42 43  1  0  0  0
 42 66  1  0  0  0
 42111  1  0  0  0
 42112  1  0  0  0
 43 44  1  0  0  0
 44113  1  0  0  0
 45 46  2  0  0  0
 45114  1  0  0  0
 46115  1  0  0  0
 47116  1  0  0  0
 47117  1  0  0  0
 48 56  1  0  0  0
 48 65  1  0  0  0
 48118  1  0  0  0
 49 50  1  0  0  0
 49 53  1  0  0  0
 49 64  1  0  0  0
 49119  1  0  0  0
 50 51  1  0  0  0
 50120  1  0  0  0
 50121  1  0  0  0
 51 52  1  0  0  0
 51122  1  0  0  0
 51123  1  0  0  0
 52124  1  0  0  0
 52125  1  0  0  0
 53 54  1  0  0  0
 54 55  2  0  0  0
 54126  1  0  0  0
 55 57  1  0  0  0
 55127  1  0  0  0
 56 69  2  0  0  0
 57 58  2  0  0  0
 57128  1  0  0  0
 58129  1  0  0  0
 59 60  1  0  0  0
 59 61  1  0  0  0
 59 62  1  0  0  0
 60130  1  0  0  0
 60131  1  0  0  0
 60132  1  0  0  0
 61133  1  0  0  0
 61134  1  0  0  0
 61135  1  0  0  0
 62136  1  0  0  0
 62137  1  0  0  0
 62138  1  0  0  0
 63 65  1  0  0  0
 63139  1  0  0  0
 63140  1  0  0  0
 63141  1  0  0  0
 64142  1  0  0  0
 65143  1  0  0  0
 68 80  1  0  0  0
 71 73  2  0  0  0
 71 74  1  0  0  0
 71144  1  0  0  0
 72 73  1  0  0  0
 72 75  2  0  0  0
 72145  1  0  0  0
 73 78  1  0  0  0
 74 76  2  0  0  0
 74 81  1  0  0  0
 75 76  1  0  0  0
 75 82  1  0  0  0
 76 84  1  0  0  0
 77 80  1  0  0  0
 77 82  1  0  0  0
 77 83  2  0  0  0
 78146  1  0  0  0
 78147  1  0  0  0
 78148  1  0  0  0
 79 82  1  0  0  0
 79149  1  0  0  0
 79150  1  0  0  0
 79151  1  0  0  0
 80152  1  0  0  0
 80153  1  0  0  0
 81154  1  0  0  0
M  ISO  4   1 100  68 101  80 101  81 100
M  END
> <chiral flag>
0

> <version>
0

> <s_m_source_file>
/data/baiqing/PycharmProjects/Reinvent-master-3.2/result/LINK_invent/BTK/process_docking_weight1_custom_sum_contain_oxygen_bond_distance_aromatic_linkinvent_7_9_3/rearranged_h_0012.sdf

> <i_m_source_file_index>
31

> <r_mmod_Potential_Energy-OPLS-2005>
801.359313964844

> <r_mmod_Stretch_Energy-OPLS-2005>
354.175048828125

> <r_mmod_Bend_Energy-OPLS-2005>
286.959106445312

> <r_mmod_Torsional_Energy-OPLS-2005>
293.155487060547

> <r_mmod_Improper_Torsional_Energy-OPLS-2005>
14.420129776001

> <r_mmod_Van_der_Waal_Energy-OPLS-2005>
136.895721435547

> <r_mmod_Electrostatic_Energy-OPLS-2005>
-341.111297607422

> <r_mmod_Solvation_Energy-OPLS-2005>
-229.855697631836

> <b_mmod_Minimization_Converged-OPLS-2005>
0

> <r_mmod_RMS_Derivative-OPLS-2005>
7.4590311050415

$$$$
32
                    3D
 Structure written by MMmdl.
157164  0  0  1  0            999 V2000
  -30.4414  -15.3272   20.4731 C   0  0  0  0  0  0
  -30.4463  -12.8321   19.5735 C   0  0  0  0  0  0
  -29.5536  -12.5872   18.3243 C   0  0  0  0  0  0
  -28.0962  -12.3255   18.7355 C   0  0  0  0  0  0
  -27.6276  -13.2848   19.8481 C   0  0  2  0  0  0
  -28.6566  -13.4518   20.9850 C   0  0  0  0  0  0
  -25.2516  -13.8276   20.5782 C   0  0  0  0  0  0
  -24.1806  -13.0540   20.9143 C   0  0  0  0  0  0
  -24.6449  -11.6997   20.8701 C   0  0  0  0  0  0
  -23.9142  -10.4377   21.0368 C   0  0  0  0  0  0
  -24.3668   -9.4312   21.9205 C   0  0  0  0  0  0
  -23.6338   -8.2345   22.0799 C   0  0  0  0  0  0
  -22.4339   -8.0365   21.3543 C   0  0  0  0  0  0
  -21.9946   -9.0351   20.4664 C   0  0  0  0  0  0
  -22.7268  -10.2226   20.3060 C   0  0  0  0  0  0
  -21.6904   -6.0767   22.5252 C   0  0  0  0  0  0
  -21.4048   -6.5669   23.8183 C   0  0  0  0  0  0
  -21.3663   -5.6812   24.9131 C   0  0  0  0  0  0
  -21.6023   -4.3073   24.7180 C   0  0  0  0  0  0
  -21.8835   -3.8170   23.4310 C   0  0  0  0  0  0
  -21.9209   -4.6992   22.3369 C   0  0  0  0  0  0
  -22.7812  -13.5279   21.1774 C   0  0  0  0  0  0
  -22.1714   -4.2163   21.0955 F   0  0  0  0  0  0
  -21.5604   -3.4591   25.7712 F   0  0  0  0  0  0
  -29.8955  -13.9922   20.4037 N   0  0  0  0  0  0
  -26.2970  -12.9570   20.3373 N   0  0  0  0  0  0
  -25.9404  -11.6676   20.5735 N   0  0  0  0  0  0
  -22.0451  -12.8242   22.0286 N   0  0  0  0  0  0
  -25.4413  -15.2002   20.4324 N   0  0  0  0  0  0
  -31.6046  -15.3363   20.0390 O   0  0  0  0  0  0
  -21.6712   -6.8932   21.4229 O   0  0  0  0  0  0
  -22.3524  -14.5579   20.6573 O   0  0  0  0  0  0
  -24.6620  -31.8154   23.1664 C   0  0  0  0  0  0
  -25.9286  -32.4536   23.8167 C   0  0  1  0  0  0
  -27.2612  -26.8531   20.2920 C   0  0  0  0  0  0
  -25.5980  -33.8364   24.2068 N   0  0  0  0  0  0
  -23.4934  -30.4096   21.5107 C   0  0  2  0  0  0
  -24.9684  -28.7754   20.1274 C   0  0  0  0  0  0
  -22.7724  -29.4356   22.4740 C   0  0  0  0  0  0
  -18.0324  -28.1360   22.8454 C   0  0  0  0  0  0
  -24.1480  -36.7222   23.2656 C   0  0  0  0  0  0
  -26.0598  -30.6034   21.4067 C   0  0  0  0  0  0
  -26.1432  -29.1779   20.7763 C   0  0  0  0  0  0
  -27.2764  -28.2399   20.8302 C   0  0  0  0  0  0
  -26.0589  -26.6103   19.5730 C   0  0  0  0  0  0
  -24.9570  -27.5153   19.4986 C   0  0  0  0  0  0
  -23.7531  -29.7098   20.1449 C   0  0  0  0  0  0
  -25.4149  -36.2951   24.0249 C   0  0  1  0  0  0
  -20.5971  -28.3721   23.1165 C   0  0  2  0  0  0
  -20.6789  -26.9385   22.5401 C   0  0  0  0  0  0
  -19.5779  -26.6361   21.5173 C   0  0  0  0  0  0
  -18.1952  -26.7916   22.1578 C   0  0  0  0  0  0
  -19.1611  -28.8852   23.2780 C   0  0  0  0  0  0
  -18.9490  -30.1453   23.8805 C   0  0  0  0  0  0
  -17.6482  -30.6557   24.0511 C   0  0  0  0  0  0
  -25.9094  -34.9312   23.4983 C   0  0  0  0  0  0
  -16.5382  -29.9058   23.6293 C   0  0  0  0  0  0
  -16.7305  -28.6477   23.0318 C   0  0  0  0  0  0
  -26.4556  -31.6501   25.0691 C   0  0  0  0  0  0
  -25.3638  -31.3779   26.1335 C   0  0  0  0  0  0
  -27.0457  -30.2843   24.6490 C   0  0  0  0  0  0
  -27.6056  -32.4343   25.7456 C   0  0  0  0  0  0
  -27.5569  -37.1775   24.8476 C   0  0  0  0  0  0
  -21.4382  -29.2997   22.3505 N   0  0  0  0  0  0
  -26.4307  -37.3682   23.9387 N   0  0  0  0  0  0
  -24.7595  -30.9780   22.0804 N   0  0  0  0  0  0
  -23.4203  -28.7958   23.3050 O   0  0  0  0  0  0
  -28.2776  -25.7453   20.4668 O   0  0  0  0  0  0
  -26.5712  -34.8799   22.4575 O   0  0  0  0  0  0
  -23.5646  -32.1204   23.6642 O   0  0  0  0  0  0
  -29.3245  -18.0595   20.3776 C   0  0  0  0  0  0
  -28.5700  -17.9975   19.2288 C   0  0  0  0  0  0
  -29.4987  -19.5760   21.0442 C   0  0  0  0  0  0
  -28.5005  -16.7897   18.2999 C   0  0  0  0  0  0
  -26.1551  -18.7927   19.3959 C   0  0  0  0  0  0
  -29.4206  -16.5114   22.3745 C   0  0  0  0  0  0
  -27.5360  -19.0364   18.7382 C   0  0  0  0  0  0
  -29.0220  -22.5644   20.9797 C   0  0  0  0  0  0
  -28.1518  -24.0695   20.3497 C   0  0  0  0  0  0
  -28.9384  -20.9078   20.6168 N   0  0  0  0  0  0
  -29.7566  -16.6009   20.9350 N   0  0  0  0  0  0
  -30.2197  -19.6678   22.0390 O   0  0  0  0  0  0
  -31.4709  -13.0136   19.2405 H   0  0  0  0  0  0
  -30.5208  -11.9106   20.1619 H   0  0  0  0  0  0
  -29.9195  -11.7386   17.7457 H   0  0  0  0  0  0
  -29.6205  -13.4510   17.6614 H   0  0  0  0  0  0
  -28.0230  -11.2991   19.1075 H   0  0  0  0  0  0
  -27.4395  -12.3940   17.8674 H   0  0  0  0  0  0
  -27.5554  -14.2584   19.3765 H   0  0  0  0  0  0
  -28.8274  -12.5051   21.5029 H   0  0  0  0  0  0
  -28.2585  -14.1438   21.7214 H   0  0  0  0  0  0
  -25.2830   -9.5840   22.4746 H   0  0  0  0  0  0
  -24.0044   -7.4771   22.7538 H   0  0  0  0  0  0
  -21.0883   -8.8887   19.8978 H   0  0  0  0  0  0
  -22.3756  -10.9770   19.6156 H   0  0  0  0  0  0
  -21.2111   -7.6190   23.9685 H   0  0  0  0  0  0
  -21.1447   -6.0551   25.9010 H   0  0  0  0  0  0
  -22.0606   -2.7644   23.2790 H   0  0  0  0  0  0
  -22.4162  -11.9892   22.4521 H   0  0  0  0  0  0
  -21.1112  -13.1213   22.2684 H   0  0  0  0  0  0
  -24.7005  -15.8831   20.5253 H   0  0  0  0  0  0
  -26.3332  -15.6178   20.2067 H   0  0  0  0  0  0
  -26.7345  -32.5080   23.0865 H   0  0  0  0  0  0
  -24.9972  -33.9446   25.0115 H   0  0  0  0  0  0
  -22.8078  -31.2349   21.3202 H   0  0  0  0  0  0
  -23.3693  -35.9599   23.3322 H   0  0  0  0  0  0
  -24.3569  -36.8898   22.2089 H   0  0  0  0  0  0
  -23.7291  -37.6436   23.6726 H   0  0  0  0  0  0
  -26.2319  -31.3215   20.6062 H   0  0  0  0  0  0
  -26.9245  -30.7021   22.0511 H   0  0  0  0  0  0
  -28.1592  -28.5430   21.3855 H   0  0  0  0  0  0
  -25.9521  -25.6408   19.1026 H   0  0  0  0  0  0
  -24.0703  -27.1967   18.9674 H   0  0  0  0  0  0
  -23.9185  -30.4752   19.3847 H   0  0  0  0  0  0
  -22.8716  -29.1591   19.8160 H   0  0  0  0  0  0
  -25.1313  -36.1786   25.0729 H   0  0  0  0  0  0
  -20.9957  -28.3329   24.1349 H   0  0  0  0  0  0
  -20.5609  -26.2320   23.3617 H   0  0  0  0  0  0
  -21.6629  -26.7295   22.1221 H   0  0  0  0  0  0
  -19.6875  -25.6242   21.1280 H   0  0  0  0  0  0
  -19.6733  -27.3082   20.6621 H   0  0  0  0  0  0
  -17.4195  -26.6588   21.4003 H   0  0  0  0  0  0
  -18.0361  -26.0063   22.8983 H   0  0  0  0  0  0
  -19.7982  -30.7291   24.2136 H   0  0  0  0  0  0
  -17.5050  -31.6227   24.5159 H   0  0  0  0  0  0
  -15.5389  -30.2900   23.7721 H   0  0  0  0  0  0
  -15.8695  -28.0784   22.7041 H   0  0  0  0  0  0
  -24.5795  -30.7134   25.7682 H   0  0  0  0  0  0
  -24.8791  -32.2943   26.4690 H   0  0  0  0  0  0
  -25.7788  -30.9032   27.0208 H   0  0  0  0  0  0
  -26.3085  -29.6518   24.1504 H   0  0  0  0  0  0
  -27.3933  -29.7263   25.5218 H   0  0  0  0  0  0
  -27.9061  -30.4011   23.9889 H   0  0  0  0  0  0
  -27.2660  -33.3712   26.1899 H   0  0  0  0  0  0
  -28.3923  -32.6841   25.0311 H   0  0  0  0  0  0
  -28.0641  -31.8584   26.5528 H   0  0  0  0  0  0
  -28.2578  -38.0070   24.7456 H   0  0  0  0  0  0
  -28.1046  -36.2576   24.6345 H   0  0  0  0  0  0
  -27.2270  -37.1509   25.8878 H   0  0  0  0  0  0
  -20.9637  -29.8819   21.6728 H   0  0  0  0  0  0
  -26.0131  -38.2725   24.1388 H   0  0  0  0  0  0
  -29.2837  -16.0485   18.3763 H   0  0  0  0  0  0
  -28.5587  -17.1163   17.2609 H   0  0  0  0  0  0
  -27.5449  -16.2942   18.4467 H   0  0  0  0  0  0
  -25.4957  -19.6544   19.2436 H   0  0  0  0  0  0
  -26.2260  -18.6810   20.4845 H   0  0  0  0  0  0
  -25.6677  -17.8994   18.9817 H   0  0  0  0  0  0
  -28.3804  -16.8198   22.5256 H   0  0  0  0  0  0
  -30.0381  -17.1828   22.9819 H   0  0  0  0  0  0
  -29.5167  -15.5091   22.8056 H   0  0  0  0  0  0
  -27.4434  -18.9768   17.6477 H   0  0  0  0  0  0
  -27.7678  -20.0863   18.8487 H   0  0  0  0  0  0
  -28.8517  -22.5684   22.0581 H   0  0  0  0  0  0
  -30.0890  -22.7883   20.9017 H   0  0  0  0  0  0
  -27.1118  -23.8909   20.6168 H   0  0  0  0  0  0
  -28.2025  -23.9243   19.2731 H   0  0  0  0  0  0
  -28.2749  -20.7649   19.8731 H   0  0  0  0  0  0
  1 25  1  0  0  0
  1 30  2  0  0  0
  1 81  1  0  0  0
  2  3  1  0  0  0
  2 25  1  0  0  0
  2 83  1  0  0  0
  2 84  1  0  0  0
  3  4  1  0  0  0
  3 85  1  0  0  0
  3 86  1  0  0  0
  4  5  1  0  0  0
  4 87  1  0  0  0
  4 88  1  0  0  0
  5  6  1  0  0  0
  5 26  1  0  0  0
  5 89  1  0  0  0
  6 25  1  0  0  0
  6 90  1  0  0  0
  6 91  1  0  0  0
  7  8  2  0  0  0
  7 26  1  0  0  0
  7 29  1  0  0  0
  8  9  1  0  0  0
  8 22  1  0  0  0
  9 10  1  0  0  0
  9 27  2  0  0  0
 10 11  2  0  0  0
 10 15  1  0  0  0
 11 12  1  0  0  0
 11 92  1  0  0  0
 12 13  2  0  0  0
 12 93  1  0  0  0
 13 14  1  0  0  0
 13 31  1  0  0  0
 14 15  2  0  0  0
 14 94  1  0  0  0
 15 95  1  0  0  0
 16 17  2  0  0  0
 16 21  1  0  0  0
 16 31  1  0  0  0
 17 18  1  0  0  0
 17 96  1  0  0  0
 18 19  2  0  0  0
 18 97  1  0  0  0
 19 20  1  0  0  0
 19 24  1  0  0  0
 20 21  2  0  0  0
 20 98  1  0  0  0
 21 23  1  0  0  0
 22 28  1  0  0  0
 22 32  2  0  0  0
 26 27  1  0  0  0
 28 99  1  0  0  0
 28100  1  0  0  0
 29101  1  0  0  0
 29102  1  0  0  0
 33 34  1  0  0  0
 33 66  1  0  0  0
 33 70  2  0  0  0
 34 36  1  0  0  0
 34 59  1  0  0  0
 34103  1  0  0  0
 35 44  2  0  0  0
 35 45  1  0  0  0
 35 68  1  0  0  0
 36 56  1  0  0  0
 36104  1  0  0  0
 37 39  1  0  0  0
 37 47  1  0  0  0
 37 66  1  0  0  0
 37105  1  0  0  0
 38 43  2  0  0  0
 38 46  1  0  0  0
 38 47  1  0  0  0
 39 64  1  0  0  0
 39 67  2  0  0  0
 40 52  1  0  0  0
 40 53  2  0  0  0
 40 58  1  0  0  0
 41106  1  0  0  0
 41107  1  0  0  0
 41108  1  0  0  0
 41 48  1  0  0  0
 42 43  1  0  0  0
 42 66  1  0  0  0
 42109  1  0  0  0
 42110  1  0  0  0
 43 44  1  0  0  0
 44111  1  0  0  0
 45 46  2  0  0  0
 45112  1  0  0  0
 46113  1  0  0  0
 47114  1  0  0  0
 47115  1  0  0  0
 48 56  1  0  0  0
 48 65  1  0  0  0
 48116  1  0  0  0
 49 50  1  0  0  0
 49 53  1  0  0  0
 49 64  1  0  0  0
 49117  1  0  0  0
 50 51  1  0  0  0
 50118  1  0  0  0
 50119  1  0  0  0
 51 52  1  0  0  0
 51120  1  0  0  0
 51121  1  0  0  0
 52122  1  0  0  0
 52123  1  0  0  0
 53 54  1  0  0  0
 54 55  2  0  0  0
 54124  1  0  0  0
 55 57  1  0  0  0
 55125  1  0  0  0
 56 69  2  0  0  0
 57 58  2  0  0  0
 57126  1  0  0  0
 58127  1  0  0  0
 59 60  1  0  0  0
 59 61  1  0  0  0
 59 62  1  0  0  0
 60128  1  0  0  0
 60129  1  0  0  0
 60130  1  0  0  0
 61131  1  0  0  0
 61132  1  0  0  0
 61133  1  0  0  0
 62134  1  0  0  0
 62135  1  0  0  0
 62136  1  0  0  0
 63 65  1  0  0  0
 63137  1  0  0  0
 63138  1  0  0  0
 63139  1  0  0  0
 64140  1  0  0  0
 65141  1  0  0  0
 68 79  1  0  0  0
 71 72  2  0  0  0
 71 73  1  0  0  0
 71 81  1  0  0  0
 72 74  1  0  0  0
 72 77  1  0  0  0
 73 80  1  0  0  0
 73 82  2  0  0  0
 74142  1  0  0  0
 74143  1  0  0  0
 74144  1  0  0  0
 75 77  1  0  0  0
 75145  1  0  0  0
 75146  1  0  0  0
 75147  1  0  0  0
 76 81  1  0  0  0
 76148  1  0  0  0
 76149  1  0  0  0
 76150  1  0  0  0
 77151  1  0  0  0
 77152  1  0  0  0
 78 79  1  0  0  0
 78 80  1  0  0  0
 78153  1  0  0  0
 78154  1  0  0  0
 79155  1  0  0  0
 79156  1  0  0  0
 80157  1  0  0  0
M  ISO  4   1 100  68 101  79 101  81 100
M  END
> <chiral flag>
0

> <version>
0

> <s_m_source_file>
/data/baiqing/PycharmProjects/Reinvent-master-3.2/result/LINK_invent/BTK/process_docking_weight1_custom_sum_contain_oxygen_bond_distance_aromatic_linkinvent_7_9_3/rearranged_h_0012.sdf

> <i_m_source_file_index>
32

> <r_mmod_Potential_Energy-OPLS-2005>
1713.48742675781

> <r_mmod_Stretch_Energy-OPLS-2005>
759.32861328125

> <r_mmod_Bend_Energy-OPLS-2005>
519.093200683594

> <r_mmod_Torsional_Energy-OPLS-2005>
342.209747314453

> <r_mmod_Improper_Torsional_Energy-OPLS-2005>
5.52238941192627

> <r_mmod_Van_der_Waal_Energy-OPLS-2005>
128.656387329102

> <r_mmod_Electrostatic_Energy-OPLS-2005>
-363.895690917969

> <r_mmod_Solvation_Energy-OPLS-2005>
-223.691711425781

> <b_mmod_Minimization_Converged-OPLS-2005>
0

> <r_mmod_RMS_Derivative-OPLS-2005>
10.9497957229614

$$$$
33
                    3D
 Structure written by MMmdl.
159167  0  0  1  0            999 V2000
  -30.7751  -14.3217   20.6808 C   0  0  0  0  0  0
  -30.4125  -12.2603   19.3876 C   0  0  0  0  0  0
  -29.4816  -12.5304   18.1906 C   0  0  0  0  0  0
  -28.0048  -12.3942   18.6060 C   0  0  0  0  0  0
  -27.6713  -13.2006   19.8888 C   0  0  2  0  0  0
  -28.7086  -12.9102   20.9972 C   0  0  0  0  0  0
  -25.2598  -13.8151   20.5634 C   0  0  0  0  0  0
  -24.1841  -13.0437   20.9141 C   0  0  0  0  0  0
  -24.6395  -11.6904   20.8725 C   0  0  0  0  0  0
  -23.9055  -10.4292   21.0404 C   0  0  0  0  0  0
  -24.3608   -9.4205   21.9178 C   0  0  0  0  0  0
  -23.6288   -8.2243   22.0753 C   0  0  0  0  0  0
  -22.4269   -8.0280   21.3545 C   0  0  0  0  0  0
  -21.9901   -9.0249   20.4646 C   0  0  0  0  0  0
  -22.7231  -10.2128   20.3051 C   0  0  0  0  0  0
  -21.6851   -6.0729   22.5277 C   0  0  0  0  0  0
  -21.4014   -6.5636   23.8211 C   0  0  0  0  0  0
  -21.3658   -5.6789   24.9173 C   0  0  0  0  0  0
  -21.6045   -4.3053   24.7225 C   0  0  0  0  0  0
  -21.8819   -3.8143   23.4350 C   0  0  0  0  0  0
  -21.9195   -4.6957   22.3403 C   0  0  0  0  0  0
  -22.7864  -13.5238   21.1816 C   0  0  0  0  0  0
  -22.1660   -4.2144   21.0981 F   0  0  0  0  0  0
  -21.5630   -3.4535   25.7738 F   0  0  0  0  0  0
  -30.0592  -13.1897   20.4692 N   0  0  0  0  0  0
  -26.3068  -12.9327   20.3429 N   0  0  0  0  0  0
  -25.9328  -11.6486   20.5789 N   0  0  0  0  0  0
  -22.0515  -12.8228   22.0385 N   0  0  0  0  0  0
  -25.4286  -15.1859   20.3958 N   0  0  0  0  0  0
  -31.7830  -14.6157   20.0302 O   0  0  0  0  0  0
  -21.6641   -6.8871   21.4239 O   0  0  0  0  0  0
  -22.3541  -14.5545   20.6681 O   0  0  0  0  0  0
  -24.6086  -31.8706   23.2132 C   0  0  0  0  0  0
  -25.9000  -32.4833   23.8410 C   0  0  1  0  0  0
  -27.2436  -27.4906   20.0835 C   0  0  0  0  0  0
  -25.5871  -33.8629   24.2347 N   0  0  0  0  0  0
  -23.3931  -30.4949   21.5511 C   0  0  2  0  0  0
  -24.8394  -28.9613   20.1172 C   0  0  0  0  0  0
  -22.7368  -29.4680   22.5003 C   0  0  0  0  0  0
  -18.0267  -28.1370   22.8502 C   0  0  0  0  0  0
  -24.1484  -36.7315   23.2640 C   0  0  0  0  0  0
  -25.9142  -30.8544   21.3548 C   0  0  0  0  0  0
  -25.9933  -29.4907   20.7067 C   0  0  0  0  0  0
  -27.1962  -28.7620   20.6849 C   0  0  0  0  0  0
  -26.0727  -26.9554   19.4986 C   0  0  0  0  0  0
  -24.8701  -27.6896   19.5145 C   0  0  0  0  0  0
  -23.5986  -29.8220   20.1664 C   0  0  0  0  0  0
  -25.4096  -36.3115   24.0356 C   0  0  1  0  0  0
  -20.5852  -28.3642   23.1337 C   0  0  2  0  0  0
  -20.6755  -26.9383   22.5422 C   0  0  0  0  0  0
  -19.5734  -26.6384   21.5211 C   0  0  0  0  0  0
  -18.1912  -26.7924   22.1621 C   0  0  0  0  0  0
  -19.1516  -28.8818   23.2929 C   0  0  0  0  0  0
  -18.9450  -30.1435   23.8921 C   0  0  0  0  0  0
  -17.6457  -30.6582   24.0573 C   0  0  0  0  0  0
  -25.9013  -34.9482   23.5145 C   0  0  0  0  0  0
  -16.5343  -29.9090   23.6326 C   0  0  0  0  0  0
  -16.7257  -28.6508   23.0346 C   0  0  0  0  0  0
  -26.4449  -31.6597   25.0711 C   0  0  0  0  0  0
  -25.3741  -31.3688   26.1475 C   0  0  0  0  0  0
  -27.0272  -30.3060   24.6025 C   0  0  0  0  0  0
  -27.6037  -32.4298   25.7468 C   0  0  0  0  0  0
  -27.5581  -37.1805   24.8469 C   0  0  0  0  0  0
  -21.4102  -29.3029   22.3751 N   0  0  0  0  0  0
  -26.4288  -37.3798   23.9423 N   0  0  0  0  0  0
  -24.6569  -31.0864   22.0993 N   0  0  0  0  0  0
  -23.4173  -28.8213   23.3014 O   0  0  0  0  0  0
  -28.4547  -26.8498   20.0640 O   0  0  0  0  0  0
  -26.5579  -34.8927   22.4706 O   0  0  0  0  0  0
  -23.5298  -32.1426   23.7572 O   0  0  0  0  0  0
  -28.9095  -18.4796   21.9983 C   0  0  0  0  0  0
  -31.3360  -17.2947   21.2028 C   0  0  0  0  0  0
  -29.9344  -19.2714   21.4432 C   0  0  0  0  0  0
  -30.2767  -16.4844   21.6776 C   0  0  0  0  0  0
  -31.1590  -18.6823   21.0741 C   0  0  0  0  0  0
  -29.0812  -17.0897   22.1218 C   0  0  0  0  0  0
  -30.4218  -22.9512   22.1090 C   0  0  0  0  0  0
  -31.1873  -23.7002   23.1609 C   0  0  0  0  0  0
  -29.7013  -20.7421   21.2001 C   0  0  0  0  0  0
  -29.7004  -25.0531   20.9325 C   0  0  0  0  0  0
  -28.4679  -25.4359   20.1087 C   0  0  0  0  0  0
  -30.3442  -15.0704   21.7017 N   0  0  0  0  0  0
  -29.7686  -23.6040   21.1245 N   0  0  0  0  0  0
  -30.3976  -21.6064   22.1588 N   0  3  0  0  0  0
  -32.1594  -19.4450   20.5714 F   0  0  0  0  0  0
  -27.7996  -16.1342   22.7771 Cl  0  0  0  0  0  0
  -31.4570  -12.3492   19.0834 H   0  0  0  0  0  0
  -30.2956  -11.2322   19.7342 H   0  0  0  0  0  0
  -29.7056  -11.8410   17.3754 H   0  0  0  0  0  0
  -29.6625  -13.5338   17.8010 H   0  0  0  0  0  0
  -27.7997  -11.3355   18.7689 H   0  0  0  0  0  0
  -27.3539  -12.7065   17.7883 H   0  0  0  0  0  0
  -27.7399  -14.2592   19.6377 H   0  0  0  0  0  0
  -28.6558  -11.8606   21.2910 H   0  0  0  0  0  0
  -28.4621  -13.4660   21.9007 H   0  0  0  0  0  0
  -25.2757   -9.5685   22.4746 H   0  0  0  0  0  0
  -23.9998   -7.4637   22.7472 H   0  0  0  0  0  0
  -21.0832   -8.8770   19.8952 H   0  0  0  0  0  0
  -22.3693  -10.9664   19.6155 H   0  0  0  0  0  0
  -21.2003   -7.6144   23.9713 H   0  0  0  0  0  0
  -21.1480   -6.0519   25.9077 H   0  0  0  0  0  0
  -22.0601   -2.7604   23.2853 H   0  0  0  0  0  0
  -22.4131  -11.9883   22.4755 H   0  0  0  0  0  0
  -21.1138  -13.1262   22.2608 H   0  0  0  0  0  0
  -24.6730  -15.8469   20.5329 H   0  0  0  0  0  0
  -26.3049  -15.6289   20.1537 H   0  0  0  0  0  0
  -26.7058  -32.5564   23.1170 H   0  0  0  0  0  0
  -25.0044  -33.9796   25.0506 H   0  0  0  0  0  0
  -22.6804  -31.3110   21.4121 H   0  0  0  0  0  0
  -23.3739  -35.9652   23.3306 H   0  0  0  0  0  0
  -24.3591  -36.8909   22.2053 H   0  0  0  0  0  0
  -23.7241  -37.6527   23.6636 H   0  0  0  0  0  0
  -26.0159  -31.6205   20.5847 H   0  0  0  0  0  0
  -26.8073  -30.9118   21.9661 H   0  0  0  0  0  0
  -28.0930  -29.1752   21.1252 H   0  0  0  0  0  0
  -26.0868  -25.9914   19.0105 H   0  0  0  0  0  0
  -23.9808  -27.2783   19.0558 H   0  0  0  0  0  0
  -23.7015  -30.5937   19.4025 H   0  0  0  0  0  0
  -22.7247  -29.2360   19.8760 H   0  0  0  0  0  0
  -25.1273  -36.1979   25.0851 H   0  0  0  0  0  0
  -20.9957  -28.3188   24.1451 H   0  0  0  0  0  0
  -20.5636  -26.2245   23.3601 H   0  0  0  0  0  0
  -21.6626  -26.7419   22.1215 H   0  0  0  0  0  0
  -19.6893  -25.6305   21.1212 H   0  0  0  0  0  0
  -19.6674  -27.3216   20.6758 H   0  0  0  0  0  0
  -17.4185  -26.6680   21.4020 H   0  0  0  0  0  0
  -18.0309  -26.0064   22.9014 H   0  0  0  0  0  0
  -19.7931  -30.7251   24.2285 H   0  0  0  0  0  0
  -17.5018  -31.6267   24.5164 H   0  0  0  0  0  0
  -15.5347  -30.3004   23.7652 H   0  0  0  0  0  0
  -15.8656  -28.0850   22.7028 H   0  0  0  0  0  0
  -24.5918  -30.7028   25.7818 H   0  0  0  0  0  0
  -24.8932  -32.2840   26.4934 H   0  0  0  0  0  0
  -25.8120  -30.8858   27.0217 H   0  0  0  0  0  0
  -26.2795  -29.6833   24.1097 H   0  0  0  0  0  0
  -27.4104  -29.7276   25.4440 H   0  0  0  0  0  0
  -27.8598  -30.4418   23.9116 H   0  0  0  0  0  0
  -27.2659  -33.3580   26.2095 H   0  0  0  0  0  0
  -28.3822  -32.6881   25.0273 H   0  0  0  0  0  0
  -28.0728  -31.8389   26.5346 H   0  0  0  0  0  0
  -28.2588  -38.0114   24.7526 H   0  0  0  0  0  0
  -28.1090  -36.2646   24.6267 H   0  0  0  0  0  0
  -27.2320  -37.1422   25.8880 H   0  0  0  0  0  0
  -20.9232  -29.8771   21.7011 H   0  0  0  0  0  0
  -26.0179  -38.2878   24.1424 H   0  0  0  0  0  0
  -27.9747  -18.9278   22.3018 H   0  0  0  0  0  0
  -32.2791  -16.8680   20.8972 H   0  0  0  0  0  0
  -32.0322  -24.2237   22.7135 H   0  0  0  0  0  0
  -31.5723  -23.0240   23.9243 H   0  0  0  0  0  0
  -30.5481  -24.4288   23.6600 H   0  0  0  0  0  0
  -28.6322  -20.9522   21.2321 H   0  0  0  0  0  0
  -30.0405  -20.9805   20.1915 H   0  0  0  0  0  0
  -29.6379  -25.5459   21.9022 H   0  0  0  0  0  0
  -30.6135  -25.4058   20.4524 H   0  0  0  0  0  0
  -27.5737  -25.0280   20.5835 H   0  0  0  0  0  0
  -28.5308  -25.0393   19.0948 H   0  0  0  0  0  0
  -29.6047  -14.6332   22.2318 H   0  0  0  0  0  0
  -29.3042  -23.0777   20.3977 H   0  0  0  0  0  0
  -30.8951  -21.1315   22.9004 H   0  0  0  0  0  0
  1 25  1  0  0  0
  1 30  2  0  0  0
  1 82  1  0  0  0
  2  3  1  0  0  0
  2 25  1  0  0  0
  2 87  1  0  0  0
  2 88  1  0  0  0
  3  4  1  0  0  0
  3 89  1  0  0  0
  3 90  1  0  0  0
  4  5  1  0  0  0
  4 91  1  0  0  0
  4 92  1  0  0  0
  5  6  1  0  0  0
  5 26  1  0  0  0
  5 93  1  0  0  0
  6 25  1  0  0  0
  6 94  1  0  0  0
  6 95  1  0  0  0
  7  8  2  0  0  0
  7 26  1  0  0  0
  7 29  1  0  0  0
  8  9  1  0  0  0
  8 22  1  0  0  0
  9 10  1  0  0  0
  9 27  2  0  0  0
 10 11  2  0  0  0
 10 15  1  0  0  0
 11 12  1  0  0  0
 11 96  1  0  0  0
 12 13  2  0  0  0
 12 97  1  0  0  0
 13 14  1  0  0  0
 13 31  1  0  0  0
 14 15  2  0  0  0
 14 98  1  0  0  0
 15 99  1  0  0  0
 16 17  2  0  0  0
 16 21  1  0  0  0
 16 31  1  0  0  0
 17 18  1  0  0  0
 17100  1  0  0  0
 18 19  2  0  0  0
 18101  1  0  0  0
 19 20  1  0  0  0
 19 24  1  0  0  0
 20 21  2  0  0  0
 20102  1  0  0  0
 21 23  1  0  0  0
 22 28  1  0  0  0
 22 32  2  0  0  0
 26 27  1  0  0  0
 28103  1  0  0  0
 28104  1  0  0  0
 29105  1  0  0  0
 29106  1  0  0  0
 33 34  1  0  0  0
 33 66  1  0  0  0
 33 70  2  0  0  0
 34 36  1  0  0  0
 34 59  1  0  0  0
 34107  1  0  0  0
 35 44  2  0  0  0
 35 45  1  0  0  0
 35 68  1  0  0  0
 36 56  1  0  0  0
 36108  1  0  0  0
 37 39  1  0  0  0
 37 47  1  0  0  0
 37 66  1  0  0  0
 37109  1  0  0  0
 38 43  2  0  0  0
 38 46  1  0  0  0
 38 47  1  0  0  0
 39 64  1  0  0  0
 39 67  2  0  0  0
 40 52  1  0  0  0
 40 53  2  0  0  0
 40 58  1  0  0  0
 41110  1  0  0  0
 41111  1  0  0  0
 41112  1  0  0  0
 41 48  1  0  0  0
 42 43  1  0  0  0
 42 66  1  0  0  0
 42113  1  0  0  0
 42114  1  0  0  0
 43 44  1  0  0  0
 44115  1  0  0  0
 45 46  2  0  0  0
 45116  1  0  0  0
 46117  1  0  0  0
 47118  1  0  0  0
 47119  1  0  0  0
 48 56  1  0  0  0
 48 65  1  0  0  0
 48120  1  0  0  0
 49 50  1  0  0  0
 49 53  1  0  0  0
 49 64  1  0  0  0
 49121  1  0  0  0
 50 51  1  0  0  0
 50122  1  0  0  0
 50123  1  0  0  0
 51 52  1  0  0  0
 51124  1  0  0  0
 51125  1  0  0  0
 52126  1  0  0  0
 52127  1  0  0  0
 53 54  1  0  0  0
 54 55  2  0  0  0
 54128  1  0  0  0
 55 57  1  0  0  0
 55129  1  0  0  0
 56 69  2  0  0  0
 57 58  2  0  0  0
 57130  1  0  0  0
 58131  1  0  0  0
 59 60  1  0  0  0
 59 61  1  0  0  0
 59 62  1  0  0  0
 60132  1  0  0  0
 60133  1  0  0  0
 60134  1  0  0  0
 61135  1  0  0  0
 61136  1  0  0  0
 61137  1  0  0  0
 62138  1  0  0  0
 62139  1  0  0  0
 62140  1  0  0  0
 63 65  1  0  0  0
 63141  1  0  0  0
 63142  1  0  0  0
 63143  1  0  0  0
 64144  1  0  0  0
 65145  1  0  0  0
 68 81  1  0  0  0
 71 73  2  0  0  0
 71 76  1  0  0  0
 71146  1  0  0  0
 72 74  1  0  0  0
 72 75  2  0  0  0
 72147  1  0  0  0
 73 75  1  0  0  0
 73 79  1  0  0  0
 74 76  2  0  0  0
 74 82  1  0  0  0
 75 85  1  0  0  0
 76 86  1  0  0  0
 77 78  1  0  0  0
 77 83  1  0  0  0
 77 84  2  0  0  0
 78148  1  0  0  0
 78149  1  0  0  0
 78150  1  0  0  0
 79 84  1  0  0  0
 79151  1  0  0  0
 79152  1  0  0  0
 80 81  1  0  0  0
 80 83  1  0  0  0
 80153  1  0  0  0
 80154  1  0  0  0
 81155  1  0  0  0
 81156  1  0  0  0
 82157  1  0  0  0
 83158  1  0  0  0
 84159  1  0  0  0
M  CHG  1  84   1
M  ISO  4   1 100  68 101  81 101  82 100
M  END
> <chiral flag>
0

> <version>
0

> <s_m_source_file>
/data/baiqing/PycharmProjects/Reinvent-master-3.2/result/LINK_invent/BTK/process_docking_weight1_custom_sum_contain_oxygen_bond_distance_aromatic_linkinvent_7_9_3/rearranged_h_0012.sdf

> <i_m_source_file_index>
33

> <r_mmod_Potential_Energy-OPLS-2005>
-142.42529296875

> <r_mmod_Stretch_Energy-OPLS-2005>
29.9070339202881

> <r_mmod_Bend_Energy-OPLS-2005>
91.7253036499023

> <r_mmod_Torsional_Energy-OPLS-2005>
225.071258544922

> <r_mmod_Improper_Torsional_Energy-OPLS-2005>
4.94864416122437

> <r_mmod_Van_der_Waal_Energy-OPLS-2005>
157.586059570312

> <r_mmod_Electrostatic_Energy-OPLS-2005>
-233.868438720703

> <r_mmod_Solvation_Energy-OPLS-2005>
-426.107849121094

> <b_mmod_Minimization_Converged-OPLS-2005>
0

> <r_mmod_RMS_Derivative-OPLS-2005>
1.30147302150726

$$$$
34
                    3D
 Structure written by MMmdl.
157165  0  0  1  0            999 V2000
  -30.6533  -14.5529   20.5300 C   0  0  0  0  0  0
  -30.4362  -12.3401   19.4441 C   0  0  0  0  0  0
  -29.5052  -12.4982   18.2218 C   0  0  0  0  0  0
  -28.0261  -12.3472   18.6304 C   0  0  0  0  0  0
  -27.6606  -13.1906   19.8799 C   0  0  2  0  0  0
  -28.7067  -13.0098   21.0045 C   0  0  0  0  0  0
  -25.2615  -13.8115   20.5706 C   0  0  0  0  0  0
  -24.1846  -13.0416   20.9187 C   0  0  0  0  0  0
  -24.6378  -11.6873   20.8752 C   0  0  0  0  0  0
  -23.9032  -10.4278   21.0418 C   0  0  0  0  0  0
  -24.3605   -9.4203   21.9191 C   0  0  0  0  0  0
  -23.6291   -8.2235   22.0748 C   0  0  0  0  0  0
  -22.4269   -8.0274   21.3541 C   0  0  0  0  0  0
  -21.9896   -9.0246   20.4643 C   0  0  0  0  0  0
  -22.7215  -10.2130   20.3058 C   0  0  0  0  0  0
  -21.6850   -6.0736   22.5281 C   0  0  0  0  0  0
  -21.4010   -6.5641   23.8216 C   0  0  0  0  0  0
  -21.3658   -5.6794   24.9179 C   0  0  0  0  0  0
  -21.6047   -4.3060   24.7224 C   0  0  0  0  0  0
  -21.8824   -3.8149   23.4346 C   0  0  0  0  0  0
  -21.9195   -4.6966   22.3404 C   0  0  0  0  0  0
  -22.7879  -13.5238   21.1854 C   0  0  0  0  0  0
  -22.1662   -4.2160   21.0976 F   0  0  0  0  0  0
  -21.5632   -3.4534   25.7733 F   0  0  0  0  0  0
  -30.0317  -13.3391   20.4498 N   0  0  0  0  0  0
  -26.3029  -12.9234   20.3409 N   0  0  0  0  0  0
  -25.9302  -11.6414   20.5805 N   0  0  0  0  0  0
  -22.0514  -12.8227   22.0406 N   0  0  0  0  0  0
  -25.4369  -15.1839   20.4130 N   0  0  0  0  0  0
  -31.7792  -14.7516   20.0653 O   0  0  0  0  0  0
  -21.6634   -6.8873   21.4239 O   0  0  0  0  0  0
  -22.3575  -14.5551   20.6711 O   0  0  0  0  0  0
  -24.6196  -31.8634   23.2059 C   0  0  0  0  0  0
  -25.9071  -32.4797   23.8364 C   0  0  1  0  0  0
  -27.2362  -27.3863   20.1065 C   0  0  0  0  0  0
  -25.5897  -33.8594   24.2292 N   0  0  0  0  0  0
  -23.4094  -30.4882   21.5454 C   0  0  2  0  0  0
  -24.8568  -28.9493   20.1105 C   0  0  0  0  0  0
  -22.7433  -29.4653   22.4949 C   0  0  0  0  0  0
  -18.0279  -28.1390   22.8491 C   0  0  0  0  0  0
  -24.1482  -36.7315   23.2636 C   0  0  0  0  0  0
  -25.9427  -30.8178   21.3643 C   0  0  0  0  0  0
  -26.0196  -29.4484   20.7104 C   0  0  0  0  0  0
  -27.2093  -28.6758   20.7018 C   0  0  0  0  0  0
  -26.0546  -26.9241   19.4810 C   0  0  0  0  0  0
  -24.8723  -27.6890   19.4910 C   0  0  0  0  0  0
  -23.6209  -29.8210   20.1603 C   0  0  0  0  0  0
  -25.4100  -36.3096   24.0334 C   0  0  1  0  0  0
  -20.5870  -28.3680   23.1299 C   0  0  2  0  0  0
  -20.6766  -26.9409   22.5413 C   0  0  0  0  0  0
  -19.5743  -26.6389   21.5214 C   0  0  0  0  0  0
  -18.1923  -26.7933   22.1632 C   0  0  0  0  0  0
  -19.1528  -28.8852   23.2897 C   0  0  0  0  0  0
  -18.9460  -30.1459   23.8908 C   0  0  0  0  0  0
  -17.6461  -30.6591   24.0572 C   0  0  0  0  0  0
  -25.9035  -34.9464   23.5116 C   0  0  0  0  0  0
  -16.5351  -29.9098   23.6324 C   0  0  0  0  0  0
  -16.7269  -28.6518   23.0338 C   0  0  0  0  0  0
  -26.4482  -31.6586   25.0708 C   0  0  0  0  0  0
  -25.3741  -31.3709   26.1453 C   0  0  0  0  0  0
  -27.0316  -30.3017   24.6119 C   0  0  0  0  0  0
  -27.6043  -32.4314   25.7479 C   0  0  0  0  0  0
  -27.5578  -37.1804   24.8462 C   0  0  0  0  0  0
  -21.4153  -29.3041   22.3693 N   0  0  0  0  0  0
  -26.4285  -37.3786   23.9416 N   0  0  0  0  0  0
  -24.6757  -31.0711   22.0969 N   0  0  0  0  0  0
  -23.4186  -28.8192   23.3005 O   0  0  0  0  0  0
  -28.3977  -26.6200   20.1633 O   0  0  0  0  0  0
  -26.5609  -34.8930   22.4686 O   0  0  0  0  0  0
  -23.5382  -32.1396   23.7437 O   0  0  0  0  0  0
  -28.9278  -19.4349   19.5523 C   0  0  0  0  0  0
  -28.7361  -17.0054   19.4854 C   0  0  0  0  0  0
  -28.3429  -18.2737   19.0174 C   0  0  0  0  0  0
  -29.9155  -19.3506   20.5536 C   0  0  0  0  0  0
  -29.7033  -16.8661   20.5066 C   0  0  0  0  0  0
  -30.3002  -18.0518   21.0357 C   0  0  0  0  0  0
  -29.7268  -22.9271   20.2375 C   0  0  0  0  0  0
  -27.2760  -18.3986   17.9474 C   0  0  0  0  0  0
  -30.5910  -20.6584   21.0300 C   0  0  0  0  0  0
  -29.3669  -24.3555   20.7489 C   0  0  0  0  0  0
  -28.3368  -25.1845   19.9108 C   0  0  0  0  0  0
  -29.9124  -15.5520   21.0645 N   0  0  0  0  0  0
  -29.7855  -21.9075   21.1274 N   0  0  0  0  0  0
  -30.0406  -22.7679   19.0569 O   0  0  0  0  0  0
  -31.4862  -17.8986   22.2877 Cl  0  0  0  0  0  0
  -31.4791  -12.4537   19.1436 H   0  0  0  0  0  0
  -30.3566  -11.3348   19.8609 H   0  0  0  0  0  0
  -29.7571  -11.7581   17.4612 H   0  0  0  0  0  0
  -29.6623  -13.4752   17.7629 H   0  0  0  0  0  0
  -27.8434  -11.2902   18.8310 H   0  0  0  0  0  0
  -27.3771  -12.6124   17.7952 H   0  0  0  0  0  0
  -27.6839  -14.2266   19.5668 H   0  0  0  0  0  0
  -28.7034  -11.9798   21.3649 H   0  0  0  0  0  0
  -28.4542  -13.6184   21.8731 H   0  0  0  0  0  0
  -25.2754   -9.5685   22.4758 H   0  0  0  0  0  0
  -24.0015   -7.4619   22.7455 H   0  0  0  0  0  0
  -21.0835   -8.8759   19.8943 H   0  0  0  0  0  0
  -22.3678  -10.9673   19.6169 H   0  0  0  0  0  0
  -21.1991   -7.6148   23.9720 H   0  0  0  0  0  0
  -21.1480   -6.0522   25.9083 H   0  0  0  0  0  0
  -22.0604   -2.7611   23.2838 H   0  0  0  0  0  0
  -22.4113  -11.9874   22.4782 H   0  0  0  0  0  0
  -21.1141  -13.1274   22.2625 H   0  0  0  0  0  0
  -24.6756  -15.8430   20.5320 H   0  0  0  0  0  0
  -26.2983  -15.6272   20.1235 H   0  0  0  0  0  0
  -26.7142  -32.5494   23.1124 H   0  0  0  0  0  0
  -25.0015  -33.9733   25.0417 H   0  0  0  0  0  0
  -22.7012  -31.3071   21.4028 H   0  0  0  0  0  0
  -23.3734  -35.9657   23.3292 H   0  0  0  0  0  0
  -24.3582  -36.8940   22.2053 H   0  0  0  0  0  0
  -23.7244  -37.6522   23.6658 H   0  0  0  0  0  0
  -26.0585  -31.5833   20.5956 H   0  0  0  0  0  0
  -26.8299  -30.8718   21.9839 H   0  0  0  0  0  0
  -28.1047  -29.0565   21.1730 H   0  0  0  0  0  0
  -26.0199  -25.9695   18.9779 H   0  0  0  0  0  0
  -23.9810  -27.3012   19.0171 H   0  0  0  0  0  0
  -23.7356  -30.5957   19.4009 H   0  0  0  0  0  0
  -22.7431  -29.2452   19.8609 H   0  0  0  0  0  0
  -25.1276  -36.1948   25.0826 H   0  0  0  0  0  0
  -20.9978  -28.3254   24.1412 H   0  0  0  0  0  0
  -20.5660  -26.2293   23.3607 H   0  0  0  0  0  0
  -21.6636  -26.7443   22.1205 H   0  0  0  0  0  0
  -19.6897  -25.6301   21.1239 H   0  0  0  0  0  0
  -19.6676  -27.3203   20.6747 H   0  0  0  0  0  0
  -17.4186  -26.6680   21.4040 H   0  0  0  0  0  0
  -18.0332  -26.0076   22.9033 H   0  0  0  0  0  0
  -19.7937  -30.7277   24.2273 H   0  0  0  0  0  0
  -17.5017  -31.6271   24.5175 H   0  0  0  0  0  0
  -15.5352  -30.3009   23.7643 H   0  0  0  0  0  0
  -15.8669  -28.0855   22.7025 H   0  0  0  0  0  0
  -24.5905  -30.7064   25.7798 H   0  0  0  0  0  0
  -24.8949  -32.2874   26.4901 H   0  0  0  0  0  0
  -25.8093  -30.8877   27.0208 H   0  0  0  0  0  0
  -26.2873  -29.6766   24.1171 H   0  0  0  0  0  0
  -27.4060  -29.7267   25.4598 H   0  0  0  0  0  0
  -27.8719  -30.4311   23.9294 H   0  0  0  0  0  0
  -27.2642  -33.3597   26.2080 H   0  0  0  0  0  0
  -28.3846  -32.6899   25.0309 H   0  0  0  0  0  0
  -28.0718  -31.8423   26.5377 H   0  0  0  0  0  0
  -28.2587  -38.0109   24.7519 H   0  0  0  0  0  0
  -28.1082  -36.2640   24.6266 H   0  0  0  0  0  0
  -27.2306  -37.1436   25.8868 H   0  0  0  0  0  0
  -20.9312  -29.8775   21.6926 H   0  0  0  0  0  0
  -26.0167  -38.2861   24.1425 H   0  0  0  0  0  0
  -28.6285  -20.4008   19.1715 H   0  0  0  0  0  0
  -28.2683  -16.1386   19.0532 H   0  0  0  0  0  0
  -27.5954  -19.0873   17.1646 H   0  0  0  0  0  0
  -26.3510  -18.7790   18.3824 H   0  0  0  0  0  0
  -27.0568  -17.4375   17.4808 H   0  0  0  0  0  0
  -31.4478  -20.8354   20.3775 H   0  0  0  0  0  0
  -31.0135  -20.5010   22.0213 H   0  0  0  0  0  0
  -30.3068  -24.9071   20.7655 H   0  0  0  0  0  0
  -29.0368  -24.3055   21.7869 H   0  0  0  0  0  0
  -27.3566  -24.7759   20.1548 H   0  0  0  0  0  0
  -28.4910  -25.0216   18.8432 H   0  0  0  0  0  0
  -29.1005  -15.1890   21.5393 H   0  0  0  0  0  0
  -29.4643  -22.1241   22.0623 H   0  0  0  0  0  0
  1 25  1  0  0  0
  1 30  2  0  0  0
  1 82  1  0  0  0
  2  3  1  0  0  0
  2 25  1  0  0  0
  2 86  1  0  0  0
  2 87  1  0  0  0
  3  4  1  0  0  0
  3 88  1  0  0  0
  3 89  1  0  0  0
  4  5  1  0  0  0
  4 90  1  0  0  0
  4 91  1  0  0  0
  5  6  1  0  0  0
  5 26  1  0  0  0
  5 92  1  0  0  0
  6 25  1  0  0  0
  6 93  1  0  0  0
  6 94  1  0  0  0
  7  8  2  0  0  0
  7 26  1  0  0  0
  7 29  1  0  0  0
  8  9  1  0  0  0
  8 22  1  0  0  0
  9 10  1  0  0  0
  9 27  2  0  0  0
 10 11  2  0  0  0
 10 15  1  0  0  0
 11 12  1  0  0  0
 11 95  1  0  0  0
 12 13  2  0  0  0
 12 96  1  0  0  0
 13 14  1  0  0  0
 13 31  1  0  0  0
 14 15  2  0  0  0
 14 97  1  0  0  0
 15 98  1  0  0  0
 16 17  2  0  0  0
 16 21  1  0  0  0
 16 31  1  0  0  0
 17 18  1  0  0  0
 17 99  1  0  0  0
 18 19  2  0  0  0
 18100  1  0  0  0
 19 20  1  0  0  0
 19 24  1  0  0  0
 20 21  2  0  0  0
 20101  1  0  0  0
 21 23  1  0  0  0
 22 28  1  0  0  0
 22 32  2  0  0  0
 26 27  1  0  0  0
 28102  1  0  0  0
 28103  1  0  0  0
 29104  1  0  0  0
 29105  1  0  0  0
 33 34  1  0  0  0
 33 66  1  0  0  0
 33 70  2  0  0  0
 34 36  1  0  0  0
 34 59  1  0  0  0
 34106  1  0  0  0
 35 44  2  0  0  0
 35 45  1  0  0  0
 35 68  1  0  0  0
 36 56  1  0  0  0
 36107  1  0  0  0
 37 39  1  0  0  0
 37 47  1  0  0  0
 37 66  1  0  0  0
 37108  1  0  0  0
 38 43  2  0  0  0
 38 46  1  0  0  0
 38 47  1  0  0  0
 39 64  1  0  0  0
 39 67  2  0  0  0
 40 52  1  0  0  0
 40 53  2  0  0  0
 40 58  1  0  0  0
 41109  1  0  0  0
 41110  1  0  0  0
 41111  1  0  0  0
 41 48  1  0  0  0
 42 43  1  0  0  0
 42 66  1  0  0  0
 42112  1  0  0  0
 42113  1  0  0  0
 43 44  1  0  0  0
 44114  1  0  0  0
 45 46  2  0  0  0
 45115  1  0  0  0
 46116  1  0  0  0
 47117  1  0  0  0
 47118  1  0  0  0
 48 56  1  0  0  0
 48 65  1  0  0  0
 48119  1  0  0  0
 49 50  1  0  0  0
 49 53  1  0  0  0
 49 64  1  0  0  0
 49120  1  0  0  0
 50 51  1  0  0  0
 50121  1  0  0  0
 50122  1  0  0  0
 51 52  1  0  0  0
 51123  1  0  0  0
 51124  1  0  0  0
 52125  1  0  0  0
 52126  1  0  0  0
 53 54  1  0  0  0
 54 55  2  0  0  0
 54127  1  0  0  0
 55 57  1  0  0  0
 55128  1  0  0  0
 56 69  2  0  0  0
 57 58  2  0  0  0
 57129  1  0  0  0
 58130  1  0  0  0
 59 60  1  0  0  0
 59 61  1  0  0  0
 59 62  1  0  0  0
 60131  1  0  0  0
 60132  1  0  0  0
 60133  1  0  0  0
 61134  1  0  0  0
 61135  1  0  0  0
 61136  1  0  0  0
 62137  1  0  0  0
 62138  1  0  0  0
 62139  1  0  0  0
 63 65  1  0  0  0
 63140  1  0  0  0
 63141  1  0  0  0
 63142  1  0  0  0
 64143  1  0  0  0
 65144  1  0  0  0
 68 81  1  0  0  0
 71 73  2  0  0  0
 71 74  1  0  0  0
 71145  1  0  0  0
 72 73  1  0  0  0
 72 75  2  0  0  0
 72146  1  0  0  0
 73 78  1  0  0  0
 74 76  2  0  0  0
 74 79  1  0  0  0
 75 76  1  0  0  0
 75 82  1  0  0  0
 76 85  1  0  0  0
 77 80  1  0  0  0
 77 83  1  0  0  0
 77 84  2  0  0  0
 78147  1  0  0  0
 78148  1  0  0  0
 78149  1  0  0  0
 79 83  1  0  0  0
 79150  1  0  0  0
 79151  1  0  0  0
 80 81  1  0  0  0
 80152  1  0  0  0
 80153  1  0  0  0
 81154  1  0  0  0
 81155  1  0  0  0
 82156  1  0  0  0
 83157  1  0  0  0
M  ISO  4   1 100  68 101  81 101  82 100
M  END
> <chiral flag>
0

> <version>
0

> <s_m_source_file>
/data/baiqing/PycharmProjects/Reinvent-master-3.2/result/LINK_invent/BTK/process_docking_weight1_custom_sum_contain_oxygen_bond_distance_aromatic_linkinvent_7_9_3/rearranged_h_0012.sdf

> <i_m_source_file_index>
34

> <r_mmod_Potential_Energy-OPLS-2005>
-99.2827072143555

> <r_mmod_Stretch_Energy-OPLS-2005>
52.5897178649902

> <r_mmod_Bend_Energy-OPLS-2005>
115.004768371582

> <r_mmod_Torsional_Energy-OPLS-2005>
247.16862487793

> <r_mmod_Improper_Torsional_Energy-OPLS-2005>
7.68802547454834

> <r_mmod_Van_der_Waal_Energy-OPLS-2005>
143.519271850586

> <r_mmod_Electrostatic_Energy-OPLS-2005>
-448.028259277344

> <r_mmod_Solvation_Energy-OPLS-2005>
-241.67692565918

> <b_mmod_Minimization_Converged-OPLS-2005>
0

> <r_mmod_RMS_Derivative-OPLS-2005>
1.36949253082275

$$$$
35
                    3D
 Structure written by MMmdl.
156164  0  0  1  0            999 V2000
  -30.5145  -14.9053   20.4324 C   0  0  0  0  0  0
  -30.4480  -12.5559   19.4968 C   0  0  0  0  0  0
  -29.5225  -12.5262   18.2565 C   0  0  0  0  0  0
  -28.0525  -12.3187   18.6708 C   0  0  0  0  0  0
  -27.6357  -13.2384   19.8480 C   0  0  2  0  0  0
  -28.6774  -13.2149   20.9872 C   0  0  0  0  0  0
  -25.2478  -13.8203   20.5714 C   0  0  0  0  0  0
  -24.1778  -13.0433   20.9213 C   0  0  0  0  0  0
  -24.6383  -11.6917   20.8750 C   0  0  0  0  0  0
  -23.9067  -10.4288   21.0405 C   0  0  0  0  0  0
  -24.3615   -9.4203   21.9183 C   0  0  0  0  0  0
  -23.6287   -8.2239   22.0750 C   0  0  0  0  0  0
  -22.4268   -8.0278   21.3540 C   0  0  0  0  0  0
  -21.9909   -9.0252   20.4644 C   0  0  0  0  0  0
  -22.7239  -10.2130   20.3053 C   0  0  0  0  0  0
  -21.6849   -6.0733   22.5276 C   0  0  0  0  0  0
  -21.4013   -6.5635   23.8213 C   0  0  0  0  0  0
  -21.3660   -5.6788   24.9175 C   0  0  0  0  0  0
  -21.6043   -4.3051   24.7227 C   0  0  0  0  0  0
  -21.8820   -3.8142   23.4345 C   0  0  0  0  0  0
  -21.9190   -4.6961   22.3401 C   0  0  0  0  0  0
  -22.7801  -13.5214   21.1878 C   0  0  0  0  0  0
  -22.1658   -4.2146   21.0979 F   0  0  0  0  0  0
  -21.5628   -3.4533   25.7741 F   0  0  0  0  0  0
  -29.9624  -13.6291   20.4068 N   0  0  0  0  0  0
  -26.2903  -12.9415   20.3273 N   0  0  0  0  0  0
  -25.9314  -11.6553   20.5746 N   0  0  0  0  0  0
  -22.0448  -12.8200   22.0436 N   0  0  0  0  0  0
  -25.4157  -15.1932   20.4175 N   0  0  0  0  0  0
  -31.6982  -15.0323   20.0975 O   0  0  0  0  0  0
  -21.6629   -6.8876   21.4239 O   0  0  0  0  0  0
  -22.3482  -14.5518   20.6730 O   0  0  0  0  0  0
  -24.6441  -31.8427   23.1870 C   0  0  0  0  0  0
  -25.9213  -32.4682   23.8258 C   0  0  1  0  0  0
  -27.2162  -27.1386   20.1368 C   0  0  0  0  0  0
  -25.5964  -33.8487   24.2177 N   0  0  0  0  0  0
  -23.4466  -30.4625   21.5321 C   0  0  2  0  0  0
  -24.8934  -28.8901   20.1055 C   0  0  0  0  0  0
  -22.7570  -29.4533   22.4841 C   0  0  0  0  0  0
  -18.0308  -28.1390   22.8463 C   0  0  0  0  0  0
  -24.1489  -36.7253   23.2640 C   0  0  0  0  0  0
  -26.0014  -30.7160   21.3849 C   0  0  0  0  0  0
  -26.0697  -29.3284   20.7245 C   0  0  0  0  0  0
  -27.2277  -28.4666   20.7255 C   0  0  0  0  0  0
  -26.0121  -26.8008   19.4782 C   0  0  0  0  0  0
  -24.8772  -27.6402   19.4691 C   0  0  0  0  0  0
  -23.6723  -29.7934   20.1501 C   0  0  0  0  0  0
  -25.4115  -36.3018   24.0315 C   0  0  1  0  0  0
  -20.5918  -28.3711   23.1228 C   0  0  2  0  0  0
  -20.6785  -26.9412   22.5402 C   0  0  0  0  0  0
  -19.5761  -26.6372   21.5202 C   0  0  0  0  0  0
  -18.1939  -26.7923   22.1611 C   0  0  0  0  0  0
  -19.1565  -28.8866   23.2836 C   0  0  0  0  0  0
  -18.9485  -30.1457   23.8869 C   0  0  0  0  0  0
  -17.6484  -30.6586   24.0553 C   0  0  0  0  0  0
  -25.9072  -34.9397   23.5050 C   0  0  0  0  0  0
  -16.5373  -29.9083   23.6331 C   0  0  0  0  0  0
  -16.7293  -28.6500   23.0354 C   0  0  0  0  0  0
  -26.4540  -31.6559   25.0706 C   0  0  0  0  0  0
  -25.3735  -31.3756   26.1412 C   0  0  0  0  0  0
  -27.0407  -30.2957   24.6281 C   0  0  0  0  0  0
  -27.6056  -32.4338   25.7503 C   0  0  0  0  0  0
  -27.5573  -37.1768   24.8460 C   0  0  0  0  0  0
  -21.4263  -29.3037   22.3601 N   0  0  0  0  0  0
  -26.4271  -37.3742   23.9423 N   0  0  0  0  0  0
  -24.7173  -31.0289   22.0898 N   0  0  0  0  0  0
  -23.4218  -28.8073   23.2981 O   0  0  0  0  0  0
  -28.2891  -26.1830   20.2480 O   0  0  0  0  0  0
  -26.5658  -34.8900   22.4632 O   0  0  0  0  0  0
  -23.5564  -32.1307   23.7099 O   0  0  0  0  0  0
  -30.4911  -19.7529   19.6377 C   0  0  0  0  0  0
  -30.6070  -18.3172   19.7976 C   0  0  0  0  0  0
  -28.5188  -19.7956   20.9110 C   0  0  0  0  0  0
  -29.4560  -20.6075   20.1846 C   0  0  0  0  0  0
  -29.6718  -17.5254   20.5240 C   0  0  0  0  0  0
  -28.6082  -18.3364   21.0674 C   0  0  0  0  0  0
  -30.7207  -22.5827   19.4845 C   0  0  0  0  0  0
  -26.4993  -18.2673   22.2398 C   0  0  0  0  0  0
  -28.5990  -23.2783   20.5718 C   0  0  0  0  0  0
  -28.3066  -24.7163   19.7278 C   0  0  0  0  0  0
  -29.6692  -16.0064   20.6966 N   0  0  0  0  0  0
  -29.4253  -22.0964   19.9700 N   0  0  0  0  0  0
  -27.6604  -17.6046   21.7559 O   0  0  0  0  0  0
  -31.4804  -12.7231   19.1865 H   0  0  0  0  0  0
  -30.4437  -11.5919   20.0079 H   0  0  0  0  0  0
  -29.8342  -11.7372   17.5710 H   0  0  0  0  0  0
  -29.6161  -13.4638   17.7063 H   0  0  0  0  0  0
  -27.9391  -11.2742   18.9643 H   0  0  0  0  0  0
  -27.3907  -12.4681   17.8165 H   0  0  0  0  0  0
  -27.6140  -14.2502   19.4422 H   0  0  0  0  0  0
  -28.7516  -12.2182   21.4245 H   0  0  0  0  0  0
  -28.3815  -13.8831   21.7970 H   0  0  0  0  0  0
  -25.2761   -9.5671   22.4760 H   0  0  0  0  0  0
  -23.9993   -7.4625   22.7463 H   0  0  0  0  0  0
  -21.0842   -8.8772   19.8947 H   0  0  0  0  0  0
  -22.3699  -10.9669   19.6160 H   0  0  0  0  0  0
  -21.2007   -7.6143   23.9716 H   0  0  0  0  0  0
  -21.1482   -6.0517   25.9079 H   0  0  0  0  0  0
  -22.0601   -2.7602   23.2847 H   0  0  0  0  0  0
  -22.4066  -11.9861   22.4822 H   0  0  0  0  0  0
  -21.1067  -13.1220   22.2650 H   0  0  0  0  0  0
  -24.6465  -15.8429   20.5353 H   0  0  0  0  0  0
  -26.2716  -15.6439   20.1207 H   0  0  0  0  0  0
  -26.7270  -32.5284   23.0981 H   0  0  0  0  0  0
  -25.0098  -33.9592   25.0317 H   0  0  0  0  0  0
  -22.7488  -31.2887   21.3778 H   0  0  0  0  0  0
  -23.3753  -35.9582   23.3280 H   0  0  0  0  0  0
  -24.3578  -36.8919   22.2059 H   0  0  0  0  0  0
  -23.7235  -37.6438   23.6700 H   0  0  0  0  0  0
  -26.1561  -31.4697   20.6121 H   0  0  0  0  0  0
  -26.8729  -30.7660   22.0265 H   0  0  0  0  0  0
  -28.1254  -28.7924   21.2322 H   0  0  0  0  0  0
  -25.8900  -25.8499   18.9875 H   0  0  0  0  0  0
  -23.9772  -27.2983   18.9755 H   0  0  0  0  0  0
  -23.8143  -30.5696   19.3965 H   0  0  0  0  0  0
  -22.7862  -29.2398   19.8353 H   0  0  0  0  0  0
  -25.1295  -36.1839   25.0803 H   0  0  0  0  0  0
  -21.0000  -28.3305   24.1355 H   0  0  0  0  0  0
  -20.5665  -26.2328   23.3623 H   0  0  0  0  0  0
  -21.6652  -26.7410   22.1206 H   0  0  0  0  0  0
  -19.6923  -25.6279   21.1245 H   0  0  0  0  0  0
  -19.6704  -27.3166   20.6715 H   0  0  0  0  0  0
  -17.4208  -26.6672   21.4015 H   0  0  0  0  0  0
  -18.0341  -26.0073   22.9013 H   0  0  0  0  0  0
  -19.7967  -30.7261   24.2247 H   0  0  0  0  0  0
  -17.5048  -31.6269   24.5150 H   0  0  0  0  0  0
  -15.5374  -30.2977   23.7672 H   0  0  0  0  0  0
  -15.8694  -28.0807   22.7093 H   0  0  0  0  0  0
  -24.5914  -30.7096   25.7753 H   0  0  0  0  0  0
  -24.8925  -32.2943   26.4779 H   0  0  0  0  0  0
  -25.8027  -30.8980   27.0231 H   0  0  0  0  0  0
  -26.3022  -29.6671   24.1290 H   0  0  0  0  0  0
  -27.4036  -29.7261   25.4849 H   0  0  0  0  0  0
  -27.8925  -30.4203   23.9589 H   0  0  0  0  0  0
  -27.2632  -33.3658   26.2015 H   0  0  0  0  0  0
  -28.3906  -32.6870   25.0364 H   0  0  0  0  0  0
  -28.0686  -31.8515   26.5484 H   0  0  0  0  0  0
  -28.2544  -38.0106   24.7533 H   0  0  0  0  0  0
  -28.1109  -36.2632   24.6243 H   0  0  0  0  0  0
  -27.2304  -37.1365   25.8865 H   0  0  0  0  0  0
  -20.9480  -29.8792   21.6813 H   0  0  0  0  0  0
  -26.0136  -38.2798   24.1469 H   0  0  0  0  0  0
  -31.2731  -20.1878   19.0350 H   0  0  0  0  0  0
  -31.4386  -17.8190   19.3195 H   0  0  0  0  0  0
  -27.6935  -20.3274   21.3578 H   0  0  0  0  0  0
  -30.8820  -22.3016   18.4430 H   0  0  0  0  0  0
  -31.5401  -22.1828   20.0846 H   0  0  0  0  0  0
  -30.8194  -23.6661   19.5425 H   0  0  0  0  0  0
  -25.8415  -17.5344   22.7081 H   0  0  0  0  0  0
  -25.9397  -18.7389   21.4306 H   0  0  0  0  0  0
  -26.7457  -19.0137   22.9958 H   0  0  0  0  0  0
  -27.6399  -22.8842   20.9106 H   0  0  0  0  0  0
  -29.1164  -23.5583   21.4905 H   0  0  0  0  0  0
  -27.4203  -24.5213   19.1323 H   0  0  0  0  0  0
  -29.0756  -24.7734   18.9592 H   0  0  0  0  0  0
  -28.7848  -15.6858   21.0624 H   0  0  0  0  0  0
  1 25  1  0  0  0
  1 30  2  0  0  0
  1 81  1  0  0  0
  2  3  1  0  0  0
  2 25  1  0  0  0
  2 84  1  0  0  0
  2 85  1  0  0  0
  3  4  1  0  0  0
  3 86  1  0  0  0
  3 87  1  0  0  0
  4  5  1  0  0  0
  4 88  1  0  0  0
  4 89  1  0  0  0
  5  6  1  0  0  0
  5 26  1  0  0  0
  5 90  1  0  0  0
  6 25  1  0  0  0
  6 91  1  0  0  0
  6 92  1  0  0  0
  7  8  2  0  0  0
  7 26  1  0  0  0
  7 29  1  0  0  0
  8  9  1  0  0  0
  8 22  1  0  0  0
  9 10  1  0  0  0
  9 27  2  0  0  0
 10 11  2  0  0  0
 10 15  1  0  0  0
 11 12  1  0  0  0
 11 93  1  0  0  0
 12 13  2  0  0  0
 12 94  1  0  0  0
 13 14  1  0  0  0
 13 31  1  0  0  0
 14 15  2  0  0  0
 14 95  1  0  0  0
 15 96  1  0  0  0
 16 17  2  0  0  0
 16 21  1  0  0  0
 16 31  1  0  0  0
 17 18  1  0  0  0
 17 97  1  0  0  0
 18 19  2  0  0  0
 18 98  1  0  0  0
 19 20  1  0  0  0
 19 24  1  0  0  0
 20 21  2  0  0  0
 20 99  1  0  0  0
 21 23  1  0  0  0
 22 28  1  0  0  0
 22 32  2  0  0  0
 26 27  1  0  0  0
 28100  1  0  0  0
 28101  1  0  0  0
 29102  1  0  0  0
 29103  1  0  0  0
 33 34  1  0  0  0
 33 66  1  0  0  0
 33 70  2  0  0  0
 34 36  1  0  0  0
 34 59  1  0  0  0
 34104  1  0  0  0
 35 44  2  0  0  0
 35 45  1  0  0  0
 35 68  1  0  0  0
 36 56  1  0  0  0
 36105  1  0  0  0
 37 39  1  0  0  0
 37 47  1  0  0  0
 37 66  1  0  0  0
 37106  1  0  0  0
 38 43  2  0  0  0
 38 46  1  0  0  0
 38 47  1  0  0  0
 39 64  1  0  0  0
 39 67  2  0  0  0
 40 52  1  0  0  0
 40 53  2  0  0  0
 40 58  1  0  0  0
 41107  1  0  0  0
 41108  1  0  0  0
 41109  1  0  0  0
 41 48  1  0  0  0
 42 43  1  0  0  0
 42 66  1  0  0  0
 42110  1  0  0  0
 42111  1  0  0  0
 43 44  1  0  0  0
 44112  1  0  0  0
 45 46  2  0  0  0
 45113  1  0  0  0
 46114  1  0  0  0
 47115  1  0  0  0
 47116  1  0  0  0
 48 56  1  0  0  0
 48 65  1  0  0  0
 48117  1  0  0  0
 49 50  1  0  0  0
 49 53  1  0  0  0
 49 64  1  0  0  0
 49118  1  0  0  0
 50 51  1  0  0  0
 50119  1  0  0  0
 50120  1  0  0  0
 51 52  1  0  0  0
 51121  1  0  0  0
 51122  1  0  0  0
 52123  1  0  0  0
 52124  1  0  0  0
 53 54  1  0  0  0
 54 55  2  0  0  0
 54125  1  0  0  0
 55 57  1  0  0  0
 55126  1  0  0  0
 56 69  2  0  0  0
 57 58  2  0  0  0
 57127  1  0  0  0
 58128  1  0  0  0
 59 60  1  0  0  0
 59 61  1  0  0  0
 59 62  1  0  0  0
 60129  1  0  0  0
 60130  1  0  0  0
 60131  1  0  0  0
 61132  1  0  0  0
 61133  1  0  0  0
 61134  1  0  0  0
 62135  1  0  0  0
 62136  1  0  0  0
 62137  1  0  0  0
 63 65  1  0  0  0
 63138  1  0  0  0
 63139  1  0  0  0
 63140  1  0  0  0
 64141  1  0  0  0
 65142  1  0  0  0
 68 80  1  0  0  0
 71 72  2  0  0  0
 71 74  1  0  0  0
 71143  1  0  0  0
 72 75  1  0  0  0
 72144  1  0  0  0
 73 74  2  0  0  0
 73 76  1  0  0  0
 73145  1  0  0  0
 74 82  1  0  0  0
 75 76  2  0  0  0
 75 81  1  0  0  0
 76 83  1  0  0  0
 77 82  1  0  0  0
 77146  1  0  0  0
 77147  1  0  0  0
 77148  1  0  0  0
 78 83  1  0  0  0
 78149  1  0  0  0
 78150  1  0  0  0
 78151  1  0  0  0
 79 80  1  0  0  0
 79 82  1  0  0  0
 79152  1  0  0  0
 79153  1  0  0  0
 80154  1  0  0  0
 80155  1  0  0  0
 81156  1  0  0  0
M  ISO  4   1 100  68 101  80 101  81 100
M  END
> <chiral flag>
0

> <version>
0

> <s_m_source_file>
/data/baiqing/PycharmProjects/Reinvent-master-3.2/result/LINK_invent/BTK/process_docking_weight1_custom_sum_contain_oxygen_bond_distance_aromatic_linkinvent_7_9_3/rearranged_h_0012.sdf

> <i_m_source_file_index>
35

> <r_mmod_Potential_Energy-OPLS-2005>
424.484832763672

> <r_mmod_Stretch_Energy-OPLS-2005>
228.331268310547

> <r_mmod_Bend_Energy-OPLS-2005>
292.592132568359

> <r_mmod_Torsional_Energy-OPLS-2005>
204.113418579102

> <r_mmod_Improper_Torsional_Energy-OPLS-2005>
4.99237012863159

> <r_mmod_Van_der_Waal_Energy-OPLS-2005>
147.752883911133

> <r_mmod_Electrostatic_Energy-OPLS-2005>
-400.192108154297

> <r_mmod_Solvation_Energy-OPLS-2005>
-227.937301635742

> <b_mmod_Minimization_Converged-OPLS-2005>
0

> <r_mmod_RMS_Derivative-OPLS-2005>
1.31793749332428

$$$$
36
                    3D
 Structure written by MMmdl.
155163  0  0  1  0            999 V2000
  -30.5271  -15.0098   20.3997 C   0  0  0  0  0  0
  -30.4350  -12.6289   19.5009 C   0  0  0  0  0  0
  -29.5220  -12.5380   18.2563 C   0  0  0  0  0  0
  -28.0560  -12.3182   18.6738 C   0  0  0  0  0  0
  -27.6231  -13.2565   19.8309 C   0  0  2  0  0  0
  -28.6651  -13.3172   20.9671 C   0  0  0  0  0  0
  -25.2432  -13.8226   20.5710 C   0  0  0  0  0  0
  -24.1764  -13.0437   20.9231 C   0  0  0  0  0  0
  -24.6392  -11.6927   20.8753 C   0  0  0  0  0  0
  -23.9080  -10.4291   21.0407 C   0  0  0  0  0  0
  -24.3631   -9.4205   21.9186 C   0  0  0  0  0  0
  -23.6302   -8.2243   22.0757 C   0  0  0  0  0  0
  -22.4283   -8.0280   21.3544 C   0  0  0  0  0  0
  -21.9921   -9.0252   20.4645 C   0  0  0  0  0  0
  -22.7255  -10.2129   20.3053 C   0  0  0  0  0  0
  -21.6854   -6.0735   22.5279 C   0  0  0  0  0  0
  -21.4016   -6.5640   23.8214 C   0  0  0  0  0  0
  -21.3659   -5.6795   24.9175 C   0  0  0  0  0  0
  -21.6043   -4.3056   24.7226 C   0  0  0  0  0  0
  -21.8820   -3.8145   23.4349 C   0  0  0  0  0  0
  -21.9193   -4.6961   22.3403 C   0  0  0  0  0  0
  -22.7783  -13.5202   21.1886 C   0  0  0  0  0  0
  -22.1661   -4.2148   21.0981 F   0  0  0  0  0  0
  -21.5626   -3.4537   25.7739 F   0  0  0  0  0  0
  -29.9296  -13.7449   20.3571 N   0  0  0  0  0  0
  -26.2859  -12.9472   20.3217 N   0  0  0  0  0  0
  -25.9327  -11.6593   20.5720 N   0  0  0  0  0  0
  -22.0428  -12.8191   22.0440 N   0  0  0  0  0  0
  -25.4068  -15.1956   20.4145 N   0  0  0  0  0  0
  -31.7402  -15.0299   20.1600 O   0  0  0  0  0  0
  -21.6644   -6.8879   21.4243 O   0  0  0  0  0  0
  -22.3466  -14.5506   20.6729 O   0  0  0  0  0  0
  -24.6486  -31.8393   23.1826 C   0  0  0  0  0  0
  -25.9243  -32.4666   23.8227 C   0  0  1  0  0  0
  -27.2151  -27.0967   20.1510 C   0  0  0  0  0  0
  -25.5975  -33.8474   24.2152 N   0  0  0  0  0  0
  -23.4527  -30.4581   21.5286 C   0  0  2  0  0  0
  -24.9018  -28.8771   20.1087 C   0  0  0  0  0  0
  -22.7584  -29.4530   22.4827 C   0  0  0  0  0  0
  -18.0310  -28.1401   22.8472 C   0  0  0  0  0  0
  -24.1493  -36.7244   23.2636 C   0  0  0  0  0  0
  -26.0109  -30.7031   21.3830 C   0  0  0  0  0  0
  -26.0819  -29.3096   20.7259 C   0  0  0  0  0  0
  -27.2396  -28.4370   20.7261 C   0  0  0  0  0  0
  -26.0048  -26.7736   19.4985 C   0  0  0  0  0  0
  -24.8783  -27.6243   19.4780 C   0  0  0  0  0  0
  -23.6804  -29.7830   20.1497 C   0  0  0  0  0  0
  -25.4124  -36.3009   24.0308 C   0  0  1  0  0  0
  -20.5924  -28.3735   23.1219 C   0  0  2  0  0  0
  -20.6796  -26.9436   22.5396 C   0  0  0  0  0  0
  -19.5769  -26.6386   21.5206 C   0  0  0  0  0  0
  -18.1950  -26.7940   22.1617 C   0  0  0  0  0  0
  -19.1567  -28.8886   23.2838 C   0  0  0  0  0  0
  -18.9483  -30.1480   23.8869 C   0  0  0  0  0  0
  -17.6478  -30.6596   24.0558 C   0  0  0  0  0  0
  -25.9082  -34.9393   23.5038 C   0  0  0  0  0  0
  -16.5369  -29.9088   23.6338 C   0  0  0  0  0  0
  -16.7294  -28.6507   23.0357 C   0  0  0  0  0  0
  -26.4555  -31.6537   25.0677 C   0  0  0  0  0  0
  -25.3730  -31.3746   26.1360 C   0  0  0  0  0  0
  -27.0414  -30.2925   24.6273 C   0  0  0  0  0  0
  -27.6072  -32.4298   25.7483 C   0  0  0  0  0  0
  -27.5567  -37.1782   24.8463 C   0  0  0  0  0  0
  -21.4271  -29.3056   22.3583 N   0  0  0  0  0  0
  -26.4277  -37.3732   23.9406 N   0  0  0  0  0  0
  -24.7244  -31.0224   22.0866 N   0  0  0  0  0  0
  -23.4209  -28.8080   23.2994 O   0  0  0  0  0  0
  -28.2586  -26.0889   20.2162 O   0  0  0  0  0  0
  -26.5659  -34.8904   22.4610 O   0  0  0  0  0  0
  -23.5600  -32.1274   23.7035 O   0  0  0  0  0  0
  -31.4361  -18.1005   20.6308 C   0  0  0  0  0  0
  -31.8768  -19.4382   20.6741 C   0  0  0  0  0  0
  -30.0882  -17.7464   20.4608 C   0  0  0  0  0  0
  -29.5874  -20.4141   20.3321 C   0  0  0  0  0  0
  -31.0024  -20.5543   20.5368 C   0  0  0  0  0  0
  -29.1852  -18.9437   20.3263 C   0  0  0  0  0  0
  -33.3715  -19.6602   20.8671 C   0  0  0  0  0  0
  -27.6928  -21.4237   19.1142 C   0  0  0  0  0  0
  -29.0499  -23.2201   20.2767 C   0  0  0  0  0  0
  -27.9778  -24.5425   20.0773 C   0  0  0  0  0  0
  -29.7545  -16.2237   20.4766 N   0  0  0  0  0  0
  -28.7301  -21.6642   20.1152 N   0  0  0  0  0  0
  -31.7806  -22.1043   20.6089 Cl  0  0  0  0  0  0
  -27.5100  -18.5299   20.1860 Cl  0  0  0  0  0  0
  -31.4683  -12.7863   19.1885 H   0  0  0  0  0  0
  -30.4330  -11.6870   20.0513 H   0  0  0  0  0  0
  -29.8512  -11.7308   17.6006 H   0  0  0  0  0  0
  -29.6039  -13.4574   17.6748 H   0  0  0  0  0  0
  -27.9574  -11.2782   18.9865 H   0  0  0  0  0  0
  -27.3940  -12.4418   17.8163 H   0  0  0  0  0  0
  -27.5736  -14.2522   19.3897 H   0  0  0  0  0  0
  -28.7685  -12.3502   21.4614 H   0  0  0  0  0  0
  -28.3553  -14.0275   21.7353 H   0  0  0  0  0  0
  -25.2768   -9.5684   22.4768 H   0  0  0  0  0  0
  -24.0002   -7.4634   22.7482 H   0  0  0  0  0  0
  -21.0848   -8.8778   19.8953 H   0  0  0  0  0  0
  -22.3712  -10.9671   19.6164 H   0  0  0  0  0  0
  -21.2012   -7.6149   23.9716 H   0  0  0  0  0  0
  -21.1479   -6.0523   25.9079 H   0  0  0  0  0  0
  -22.0598   -2.7607   23.2848 H   0  0  0  0  0  0
  -22.4049  -11.9857   22.4829 H   0  0  0  0  0  0
  -21.1040  -13.1214   22.2632 H   0  0  0  0  0  0
  -24.6337  -15.8416   20.5306 H   0  0  0  0  0  0
  -26.2440  -15.6449   20.0693 H   0  0  0  0  0  0
  -26.7299  -32.5273   23.0944 H   0  0  0  0  0  0
  -25.0137  -33.9573   25.0312 H   0  0  0  0  0  0
  -22.7575  -31.2852   21.3702 H   0  0  0  0  0  0
  -23.3756  -35.9574   23.3276 H   0  0  0  0  0  0
  -24.3577  -36.8898   22.2053 H   0  0  0  0  0  0
  -23.7252  -37.6436   23.6690 H   0  0  0  0  0  0
  -26.1641  -31.4537   20.6062 H   0  0  0  0  0  0
  -26.8821  -30.7583   22.0248 H   0  0  0  0  0  0
  -28.1394  -28.7652   21.2270 H   0  0  0  0  0  0
  -25.8925  -25.8150   19.0157 H   0  0  0  0  0  0
  -23.9769  -27.2894   18.9828 H   0  0  0  0  0  0
  -23.8180  -30.5534   19.3902 H   0  0  0  0  0  0
  -22.7948  -29.2248   19.8406 H   0  0  0  0  0  0
  -25.1316  -36.1815   25.0800 H   0  0  0  0  0  0
  -21.0021  -28.3332   24.1340 H   0  0  0  0  0  0
  -20.5686  -26.2355   23.3622 H   0  0  0  0  0  0
  -21.6664  -26.7438   22.1199 H   0  0  0  0  0  0
  -19.6933  -25.6288   21.1259 H   0  0  0  0  0  0
  -19.6708  -27.3177   20.6721 H   0  0  0  0  0  0
  -17.4223  -26.6684   21.4018 H   0  0  0  0  0  0
  -18.0351  -26.0087   22.9019 H   0  0  0  0  0  0
  -19.7961  -30.7303   24.2224 H   0  0  0  0  0  0
  -17.5037  -31.6272   24.5165 H   0  0  0  0  0  0
  -15.5369  -30.2983   23.7682 H   0  0  0  0  0  0
  -15.8696  -28.0818   22.7087 H   0  0  0  0  0  0
  -24.5949  -30.7038   25.7695 H   0  0  0  0  0  0
  -24.8879  -32.2936   26.4657 H   0  0  0  0  0  0
  -25.8014  -30.9024   27.0210 H   0  0  0  0  0  0
  -26.3038  -29.6649   24.1258 H   0  0  0  0  0  0
  -27.3993  -29.7219   25.4853 H   0  0  0  0  0  0
  -27.8961  -30.4137   23.9611 H   0  0  0  0  0  0
  -27.2657  -33.3633   26.1963 H   0  0  0  0  0  0
  -28.3953  -32.6783   25.0363 H   0  0  0  0  0  0
  -28.0656  -31.8473   26.5484 H   0  0  0  0  0  0
  -28.2567  -38.0093   24.7504 H   0  0  0  0  0  0
  -28.1077  -36.2619   24.6291 H   0  0  0  0  0  0
  -27.2287  -37.1430   25.8867 H   0  0  0  0  0  0
  -20.9484  -29.8768   21.6758 H   0  0  0  0  0  0
  -26.0130  -38.2794   24.1406 H   0  0  0  0  0  0
  -32.1766  -17.3270   20.7526 H   0  0  0  0  0  0
  -33.9167  -18.7209   20.9661 H   0  0  0  0  0  0
  -33.5643  -20.2442   21.7676 H   0  0  0  0  0  0
  -33.7924  -20.1914   20.0125 H   0  0  0  0  0  0
  -27.9700  -20.6288   18.4202 H   0  0  0  0  0  0
  -27.5050  -22.3032   18.4993 H   0  0  0  0  0  0
  -26.7506  -21.1518   19.5919 H   0  0  0  0  0  0
  -29.4768  -23.3362   21.2728 H   0  0  0  0  0  0
  -29.8561  -23.4321   19.5751 H   0  0  0  0  0  0
  -27.1274  -24.3475   20.7308 H   0  0  0  0  0  0
  -27.5921  -24.4376   19.0644 H   0  0  0  0  0  0
  -28.7652  -16.0381   20.5416 H   0  0  0  0  0  0
  1 25  1  0  0  0
  1 30  2  0  0  0
  1 81  1  0  0  0
  2  3  1  0  0  0
  2 25  1  0  0  0
  2 85  1  0  0  0
  2 86  1  0  0  0
  3  4  1  0  0  0
  3 87  1  0  0  0
  3 88  1  0  0  0
  4  5  1  0  0  0
  4 89  1  0  0  0
  4 90  1  0  0  0
  5  6  1  0  0  0
  5 26  1  0  0  0
  5 91  1  0  0  0
  6 25  1  0  0  0
  6 92  1  0  0  0
  6 93  1  0  0  0
  7  8  2  0  0  0
  7 26  1  0  0  0
  7 29  1  0  0  0
  8  9  1  0  0  0
  8 22  1  0  0  0
  9 10  1  0  0  0
  9 27  2  0  0  0
 10 11  2  0  0  0
 10 15  1  0  0  0
 11 12  1  0  0  0
 11 94  1  0  0  0
 12 13  2  0  0  0
 12 95  1  0  0  0
 13 14  1  0  0  0
 13 31  1  0  0  0
 14 15  2  0  0  0
 14 96  1  0  0  0
 15 97  1  0  0  0
 16 17  2  0  0  0
 16 21  1  0  0  0
 16 31  1  0  0  0
 17 18  1  0  0  0
 17 98  1  0  0  0
 18 19  2  0  0  0
 18 99  1  0  0  0
 19 20  1  0  0  0
 19 24  1  0  0  0
 20 21  2  0  0  0
 20100  1  0  0  0
 21 23  1  0  0  0
 22 28  1  0  0  0
 22 32  2  0  0  0
 26 27  1  0  0  0
 28101  1  0  0  0
 28102  1  0  0  0
 29103  1  0  0  0
 29104  1  0  0  0
 33 34  1  0  0  0
 33 66  1  0  0  0
 33 70  2  0  0  0
 34 36  1  0  0  0
 34 59  1  0  0  0
 34105  1  0  0  0
 35 44  2  0  0  0
 35 45  1  0  0  0
 35 68  1  0  0  0
 36 56  1  0  0  0
 36106  1  0  0  0
 37 39  1  0  0  0
 37 47  1  0  0  0
 37 66  1  0  0  0
 37107  1  0  0  0
 38 43  2  0  0  0
 38 46  1  0  0  0
 38 47  1  0  0  0
 39 64  1  0  0  0
 39 67  2  0  0  0
 40 52  1  0  0  0
 40 53  2  0  0  0
 40 58  1  0  0  0
 41108  1  0  0  0
 41109  1  0  0  0
 41110  1  0  0  0
 41 48  1  0  0  0
 42 43  1  0  0  0
 42 66  1  0  0  0
 42111  1  0  0  0
 42112  1  0  0  0
 43 44  1  0  0  0
 44113  1  0  0  0
 45 46  2  0  0  0
 45114  1  0  0  0
 46115  1  0  0  0
 47116  1  0  0  0
 47117  1  0  0  0
 48 56  1  0  0  0
 48 65  1  0  0  0
 48118  1  0  0  0
 49 50  1  0  0  0
 49 53  1  0  0  0
 49 64  1  0  0  0
 49119  1  0  0  0
 50 51  1  0  0  0
 50120  1  0  0  0
 50121  1  0  0  0
 51 52  1  0  0  0
 51122  1  0  0  0
 51123  1  0  0  0
 52124  1  0  0  0
 52125  1  0  0  0
 53 54  1  0  0  0
 54 55  2  0  0  0
 54126  1  0  0  0
 55 57  1  0  0  0
 55127  1  0  0  0
 56 69  2  0  0  0
 57 58  2  0  0  0
 57128  1  0  0  0
 58129  1  0  0  0
 59 60  1  0  0  0
 59 61  1  0  0  0
 59 62  1  0  0  0
 60130  1  0  0  0
 60131  1  0  0  0
 60132  1  0  0  0
 61133  1  0  0  0
 61134  1  0  0  0
 61135  1  0  0  0
 62136  1  0  0  0
 62137  1  0  0  0
 62138  1  0  0  0
 63 65  1  0  0  0
 63139  1  0  0  0
 63140  1  0  0  0
 63141  1  0  0  0
 64142  1  0  0  0
 65143  1  0  0  0
 68 80  1  0  0  0
 71 72  2  0  0  0
 71 73  1  0  0  0
 71144  1  0  0  0
 72 75  1  0  0  0
 72 77  1  0  0  0
 73 76  2  0  0  0
 73 81  1  0  0  0
 74 75  2  0  0  0
 74 76  1  0  0  0
 74 82  1  0  0  0
 75 83  1  0  0  0
 76 84  1  0  0  0
 77145  1  0  0  0
 77146  1  0  0  0
 77147  1  0  0  0
 78 82  1  0  0  0
 78148  1  0  0  0
 78149  1  0  0  0
 78150  1  0  0  0
 79 80  1  0  0  0
 79 82  1  0  0  0
 79151  1  0  0  0
 79152  1  0  0  0
 80153  1  0  0  0
 80154  1  0  0  0
 81155  1  0  0  0
M  ISO  4   1 100  68 101  80 101  81 100
M  END
> <chiral flag>
0

> <version>
0

> <s_m_source_file>
/data/baiqing/PycharmProjects/Reinvent-master-3.2/result/LINK_invent/BTK/process_docking_weight1_custom_sum_contain_oxygen_bond_distance_aromatic_linkinvent_7_9_3/rearranged_h_0012.sdf

> <i_m_source_file_index>
36

> <r_mmod_Potential_Energy-OPLS-2005>
726.310974121094

> <r_mmod_Stretch_Energy-OPLS-2005>
335.064971923828

> <r_mmod_Bend_Energy-OPLS-2005>
286.7236328125

> <r_mmod_Torsional_Energy-OPLS-2005>
210.039611816406

> <r_mmod_Improper_Torsional_Energy-OPLS-2005>
6.89100790023804

> <r_mmod_Van_der_Waal_Energy-OPLS-2005>
154.964019775391

> <r_mmod_Electrostatic_Energy-OPLS-2005>
-284.889465332031

> <r_mmod_Solvation_Energy-OPLS-2005>
-215.277801513672

> <b_mmod_Minimization_Converged-OPLS-2005>
0

> <r_mmod_RMS_Derivative-OPLS-2005>
1.11567783355713

$$$$
37
                    3D
 Structure written by MMmdl.
158165  0  0  1  0            999 V2000
  -30.7149  -14.6054   20.4592 C   0  0  0  0  0  0
  -30.4226  -12.3645   19.4308 C   0  0  0  0  0  0
  -29.4849  -12.4067   18.2079 C   0  0  0  0  0  0
  -28.0110  -12.2712   18.6410 C   0  0  0  0  0  0
  -27.6269  -13.1825   19.8325 C   0  0  2  0  0  0
  -28.6948  -13.1540   20.9512 C   0  0  0  0  0  0
  -25.2532  -13.8083   20.5750 C   0  0  0  0  0  0
  -24.1763  -13.0407   20.9242 C   0  0  0  0  0  0
  -24.6285  -11.6855   20.8806 C   0  0  0  0  0  0
  -23.8961  -10.4254   21.0446 C   0  0  0  0  0  0
  -24.3556   -9.4190   21.9215 C   0  0  0  0  0  0
  -23.6248   -8.2211   22.0757 C   0  0  0  0  0  0
  -22.4246   -8.0248   21.3527 C   0  0  0  0  0  0
  -21.9849   -9.0206   20.4638 C   0  0  0  0  0  0
  -22.7152  -10.2099   20.3070 C   0  0  0  0  0  0
  -21.6844   -6.0708   22.5265 C   0  0  0  0  0  0
  -21.4011   -6.5619   23.8210 C   0  0  0  0  0  0
  -21.3651   -5.6778   24.9164 C   0  0  0  0  0  0
  -21.6041   -4.3031   24.7216 C   0  0  0  0  0  0
  -21.8816   -3.8131   23.4336 C   0  0  0  0  0  0
  -21.9198   -4.6937   22.3404 C   0  0  0  0  0  0
  -22.7812  -13.5251   21.1870 C   0  0  0  0  0  0
  -22.1675   -4.2148   21.0964 F   0  0  0  0  0  0
  -21.5625   -3.4512   25.7712 F   0  0  0  0  0  0
  -30.0038  -13.4398   20.3410 N   0  0  0  0  0  0
  -26.2864  -12.9162   20.3315 N   0  0  0  0  0  0
  -25.9202  -11.6369   20.5840 N   0  0  0  0  0  0
  -22.0433  -12.8283   22.0440 N   0  0  0  0  0  0
  -25.4284  -15.1804   20.4173 N   0  0  0  0  0  0
  -31.9311  -14.6375   20.2843 O   0  0  0  0  0  0
  -21.6628   -6.8835   21.4226 O   0  0  0  0  0  0
  -22.3554  -14.5573   20.6696 O   0  0  0  0  0  0
  -24.6161  -31.8670   23.2081 C   0  0  0  0  0  0
  -25.9057  -32.4818   23.8377 C   0  0  1  0  0  0
  -27.2587  -27.4262   20.0929 C   0  0  0  0  0  0
  -25.5916  -33.8616   24.2320 N   0  0  0  0  0  0
  -23.4074  -30.4878   21.5496 C   0  0  2  0  0  0
  -24.8567  -28.9500   20.1157 C   0  0  0  0  0  0
  -22.7431  -29.4652   22.5000 C   0  0  0  0  0  0
  -18.0279  -28.1377   22.8510 C   0  0  0  0  0  0
  -24.1491  -36.7301   23.2636 C   0  0  0  0  0  0
  -25.9367  -30.8239   21.3675 C   0  0  0  0  0  0
  -26.0149  -29.4582   20.7153 C   0  0  0  0  0  0
  -27.2115  -28.7045   20.6997 C   0  0  0  0  0  0
  -26.0795  -26.9427   19.4731 C   0  0  0  0  0  0
  -24.8865  -27.6913   19.4908 C   0  0  0  0  0  0
  -23.6172  -29.8160   20.1670 C   0  0  0  0  0  0
  -25.4118  -36.3108   24.0334 C   0  0  1  0  0  0
  -20.5871  -28.3666   23.1323 C   0  0  2  0  0  0
  -20.6765  -26.9406   22.5416 C   0  0  0  0  0  0
  -19.5743  -26.6392   21.5214 C   0  0  0  0  0  0
  -18.1923  -26.7922   22.1624 C   0  0  0  0  0  0
  -19.1528  -28.8844   23.2907 C   0  0  0  0  0  0
  -18.9442  -30.1451   23.8919 C   0  0  0  0  0  0
  -17.6439  -30.6586   24.0575 C   0  0  0  0  0  0
  -25.9047  -34.9473   23.5128 C   0  0  0  0  0  0
  -16.5337  -29.9087   23.6326 C   0  0  0  0  0  0
  -16.7263  -28.6498   23.0361 C   0  0  0  0  0  0
  -26.4471  -31.6607   25.0723 C   0  0  0  0  0  0
  -25.3733  -31.3716   26.1479 C   0  0  0  0  0  0
  -27.0297  -30.3042   24.6113 C   0  0  0  0  0  0
  -27.6054  -32.4328   25.7476 C   0  0  0  0  0  0
  -27.5585  -37.1810   24.8467 C   0  0  0  0  0  0
  -21.4150  -29.3031   22.3727 N   0  0  0  0  0  0
  -26.4300  -37.3799   23.9410 N   0  0  0  0  0  0
  -24.6718  -31.0746   22.1001 N   0  0  0  0  0  0
  -23.4198  -28.8198   23.3051 O   0  0  0  0  0  0
  -28.4474  -26.7113   20.1382 O   0  0  0  0  0  0
  -26.5605  -34.8921   22.4681 O   0  0  0  0  0  0
  -23.5351  -32.1440   23.7468 O   0  0  0  0  0  0
  -29.5500  -24.5138   20.5261 C   0  0  0  0  0  0
  -29.1885  -16.1122   19.4414 C   0  0  0  0  0  0
  -28.4634  -25.3162   19.7643 C   0  0  0  0  0  0
  -29.6702  -15.9473   17.9874 C   0  0  0  0  0  0
  -30.6796  -19.6046   21.5359 C   0  0  0  0  0  0
  -30.0842  -20.8221   20.7619 C   0  0  0  0  0  0
  -30.6718  -18.3076   20.6710 C   0  0  0  0  0  0
  -30.1318  -22.2122   21.4496 C   0  0  0  0  0  0
  -30.3607  -16.9289   21.3793 C   0  0  0  0  0  0
  -29.3203  -23.1967   20.7084 N   0  0  0  0  0  0
  -30.0197  -15.7915   20.4627 N   0  0  0  0  0  0
  -30.5703  -25.0705   20.9449 O   0  0  0  0  0  0
  -28.1003  -16.6675   19.6401 O   0  0  0  0  0  0
  -29.9785  -17.5476   17.2508 Cl  0  0  0  0  0  0
  -31.4622  -12.4709   19.1143 H   0  0  0  0  0  0
  -30.3495  -11.4034   19.9394 H   0  0  0  0  0  0
  -29.7307  -11.5954   17.5212 H   0  0  0  0  0  0
  -29.6302  -13.3178   17.6366 H   0  0  0  0  0  0
  -27.8486  -11.2270   18.9119 H   0  0  0  0  0  0
  -27.3542  -12.4681   17.7934 H   0  0  0  0  0  0
  -27.5679  -14.1694   19.4007 H   0  0  0  0  0  0
  -28.7105  -12.1835   21.4464 H   0  0  0  0  0  0
  -28.4530  -13.8919   21.7193 H   0  0  0  0  0  0
  -25.2686   -9.5690   22.4808 H   0  0  0  0  0  0
  -23.9965   -7.4609   22.7470 H   0  0  0  0  0  0
  -21.0785   -8.8712   19.8932 H   0  0  0  0  0  0
  -22.3603  -10.9654   19.6199 H   0  0  0  0  0  0
  -21.2008   -7.6132   23.9694 H   0  0  0  0  0  0
  -21.1492   -6.0512   25.9063 H   0  0  0  0  0  0
  -22.0611   -2.7592   23.2835 H   0  0  0  0  0  0
  -22.4024  -11.9962   22.4882 H   0  0  0  0  0  0
  -21.1046  -13.1317   22.2597 H   0  0  0  0  0  0
  -24.6616  -15.8316   20.5391 H   0  0  0  0  0  0
  -26.2901  -15.6420   20.1403 H   0  0  0  0  0  0
  -26.7138  -32.5526   23.1142 H   0  0  0  0  0  0
  -25.0092  -33.9770   25.0483 H   0  0  0  0  0  0
  -22.6947  -31.3036   21.4098 H   0  0  0  0  0  0
  -23.3745  -35.9640   23.3318 H   0  0  0  0  0  0
  -24.3578  -36.8895   22.2043 H   0  0  0  0  0  0
  -23.7233  -37.6509   23.6636 H   0  0  0  0  0  0
  -26.0585  -31.5878   20.5989 H   0  0  0  0  0  0
  -26.8195  -30.8740   21.9914 H   0  0  0  0  0  0
  -28.1065  -29.0952   21.1630 H   0  0  0  0  0  0
  -26.0600  -25.9948   18.9576 H   0  0  0  0  0  0
  -24.0012  -27.2972   19.0114 H   0  0  0  0  0  0
  -23.7202  -30.5886   19.4048 H   0  0  0  0  0  0
  -22.7410  -29.2344   19.8783 H   0  0  0  0  0  0
  -25.1283  -36.1976   25.0824 H   0  0  0  0  0  0
  -20.9966  -28.3223   24.1440 H   0  0  0  0  0  0
  -20.5669  -26.2264   23.3588 H   0  0  0  0  0  0
  -21.6628  -26.7450   22.1200 H   0  0  0  0  0  0
  -19.6888  -25.6310   21.1226 H   0  0  0  0  0  0
  -19.6666  -27.3206   20.6749 H   0  0  0  0  0  0
  -17.4183  -26.6692   21.4033 H   0  0  0  0  0  0
  -18.0312  -26.0055   22.9005 H   0  0  0  0  0  0
  -19.7919  -30.7279   24.2279 H   0  0  0  0  0  0
  -17.4992  -31.6264   24.5167 H   0  0  0  0  0  0
  -15.5340  -30.2984   23.7648 H   0  0  0  0  0  0
  -15.8661  -28.0823   22.7067 H   0  0  0  0  0  0
  -24.5905  -30.7066   25.7808 H   0  0  0  0  0  0
  -24.8928  -32.2878   26.4933 H   0  0  0  0  0  0
  -25.8089  -30.8879   27.0234 H   0  0  0  0  0  0
  -26.2843  -29.6810   24.1165 H   0  0  0  0  0  0
  -27.4046  -29.7274   25.4575 H   0  0  0  0  0  0
  -27.8688  -30.4327   23.9274 H   0  0  0  0  0  0
  -27.2685  -33.3625   26.2067 H   0  0  0  0  0  0
  -28.3854  -32.6900   25.0299 H   0  0  0  0  0  0
  -28.0735  -31.8452   26.5383 H   0  0  0  0  0  0
  -28.2620  -38.0097   24.7530 H   0  0  0  0  0  0
  -28.1072  -36.2632   24.6282 H   0  0  0  0  0  0
  -27.2311  -37.1451   25.8876 H   0  0  0  0  0  0
  -20.9305  -29.8736   21.6936 H   0  0  0  0  0  0
  -26.0188  -38.2879   24.1405 H   0  0  0  0  0  0
  -27.5133  -24.8256   19.9759 H   0  0  0  0  0  0
  -28.6518  -25.2414   18.6927 H   0  0  0  0  0  0
  -28.9013  -15.4583   17.3923 H   0  0  0  0  0  0
  -30.5969  -15.3807   17.8975 H   0  0  0  0  0  0
  -30.0978  -19.4494   22.4454 H   0  0  0  0  0  0
  -31.6999  -19.8223   21.8578 H   0  0  0  0  0  0
  -29.0404  -20.5907   20.5447 H   0  0  0  0  0  0
  -30.5772  -20.9081   19.7912 H   0  0  0  0  0  0
  -31.6138  -18.2325   20.1249 H   0  0  0  0  0  0
  -29.9256  -18.5104   19.9054 H   0  0  0  0  0  0
  -31.1676  -22.5451   21.5400 H   0  0  0  0  0  0
  -29.7385  -22.1449   22.4646 H   0  0  0  0  0  0
  -29.5115  -17.0648   22.0514 H   0  0  0  0  0  0
  -31.1946  -16.6548   22.0274 H   0  0  0  0  0  0
  -28.4480  -22.8520   20.3313 H   0  0  0  0  0  0
  1 25  1  0  0  0
  1 30  2  0  0  0
  1 81  1  0  0  0
  2  3  1  0  0  0
  2 25  1  0  0  0
  2 85  1  0  0  0
  2 86  1  0  0  0
  3  4  1  0  0  0
  3 87  1  0  0  0
  3 88  1  0  0  0
  4  5  1  0  0  0
  4 89  1  0  0  0
  4 90  1  0  0  0
  5  6  1  0  0  0
  5 26  1  0  0  0
  5 91  1  0  0  0
  6 25  1  0  0  0
  6 92  1  0  0  0
  6 93  1  0  0  0
  7  8  2  0  0  0
  7 26  1  0  0  0
  7 29  1  0  0  0
  8  9  1  0  0  0
  8 22  1  0  0  0
  9 10  1  0  0  0
  9 27  2  0  0  0
 10 11  2  0  0  0
 10 15  1  0  0  0
 11 12  1  0  0  0
 11 94  1  0  0  0
 12 13  2  0  0  0
 12 95  1  0  0  0
 13 14  1  0  0  0
 13 31  1  0  0  0
 14 15  2  0  0  0
 14 96  1  0  0  0
 15 97  1  0  0  0
 16 17  2  0  0  0
 16 21  1  0  0  0
 16 31  1  0  0  0
 17 18  1  0  0  0
 17 98  1  0  0  0
 18 19  2  0  0  0
 18 99  1  0  0  0
 19 20  1  0  0  0
 19 24  1  0  0  0
 20 21  2  0  0  0
 20100  1  0  0  0
 21 23  1  0  0  0
 22 28  1  0  0  0
 22 32  2  0  0  0
 26 27  1  0  0  0
 28101  1  0  0  0
 28102  1  0  0  0
 29103  1  0  0  0
 29104  1  0  0  0
 33 34  1  0  0  0
 33 66  1  0  0  0
 33 70  2  0  0  0
 34 36  1  0  0  0
 34 59  1  0  0  0
 34105  1  0  0  0
 35 44  2  0  0  0
 35 45  1  0  0  0
 35 68  1  0  0  0
 36 56  1  0  0  0
 36106  1  0  0  0
 37 39  1  0  0  0
 37 47  1  0  0  0
 37 66  1  0  0  0
 37107  1  0  0  0
 38 43  2  0  0  0
 38 46  1  0  0  0
 38 47  1  0  0  0
 39 64  1  0  0  0
 39 67  2  0  0  0
 40 52  1  0  0  0
 40 53  2  0  0  0
 40 58  1  0  0  0
 41108  1  0  0  0
 41109  1  0  0  0
 41110  1  0  0  0
 41 48  1  0  0  0
 42 43  1  0  0  0
 42 66  1  0  0  0
 42111  1  0  0  0
 42112  1  0  0  0
 43 44  1  0  0  0
 44113  1  0  0  0
 45 46  2  0  0  0
 45114  1  0  0  0
 46115  1  0  0  0
 47116  1  0  0  0
 47117  1  0  0  0
 48 56  1  0  0  0
 48 65  1  0  0  0
 48118  1  0  0  0
 49 50  1  0  0  0
 49 53  1  0  0  0
 49 64  1  0  0  0
 49119  1  0  0  0
 50 51  1  0  0  0
 50120  1  0  0  0
 50121  1  0  0  0
 51 52  1  0  0  0
 51122  1  0  0  0
 51123  1  0  0  0
 52124  1  0  0  0
 52125  1  0  0  0
 53 54  1  0  0  0
 54 55  2  0  0  0
 54126  1  0  0  0
 55 57  1  0  0  0
 55127  1  0  0  0
 56 69  2  0  0  0
 57 58  2  0  0  0
 57128  1  0  0  0
 58129  1  0  0  0
 59 60  1  0  0  0
 59 61  1  0  0  0
 59 62  1  0  0  0
 60130  1  0  0  0
 60131  1  0  0  0
 60132  1  0  0  0
 61133  1  0  0  0
 61134  1  0  0  0
 61135  1  0  0  0
 62136  1  0  0  0
 62137  1  0  0  0
 62138  1  0  0  0
 63 65  1  0  0  0
 63139  1  0  0  0
 63140  1  0  0  0
 63141  1  0  0  0
 64142  1  0  0  0
 65143  1  0  0  0
 68 73  1  0  0  0
 71 73  1  0  0  0
 71 80  1  0  0  0
 71 82  2  0  0  0
 72 74  1  0  0  0
 72 81  1  0  0  0
 72 83  2  0  0  0
 73144  1  0  0  0
 73145  1  0  0  0
 74 84  1  0  0  0
 74146  1  0  0  0
 74147  1  0  0  0
 75 76  1  0  0  0
 75 77  1  0  0  0
 75148  1  0  0  0
 75149  1  0  0  0
 76 78  1  0  0  0
 76150  1  0  0  0
 76151  1  0  0  0
 77 79  1  0  0  0
 77152  1  0  0  0
 77153  1  0  0  0
 78 80  1  0  0  0
 78154  1  0  0  0
 78155  1  0  0  0
 79 81  1  0  0  0
 79156  1  0  0  0
 79157  1  0  0  0
 80158  1  0  0  0
M  ISO  4   1 100  68 101  73 101  81 100
M  END
> <chiral flag>
0

> <version>
0

> <s_m_source_file>
/data/baiqing/PycharmProjects/Reinvent-master-3.2/result/LINK_invent/BTK/process_docking_weight1_custom_sum_contain_oxygen_bond_distance_aromatic_linkinvent_7_9_3/rearranged_h_0012.sdf

> <i_m_source_file_index>
37

> <r_mmod_Potential_Energy-OPLS-2005>
114.014030456543

> <r_mmod_Stretch_Energy-OPLS-2005>
49.9041595458984

> <r_mmod_Bend_Energy-OPLS-2005>
117.008903503418

> <r_mmod_Torsional_Energy-OPLS-2005>
312.689178466797

> <r_mmod_Improper_Torsional_Energy-OPLS-2005>
9.20589637756348

> <r_mmod_Van_der_Waal_Energy-OPLS-2005>
147.114669799805

> <r_mmod_Electrostatic_Energy-OPLS-2005>
-339.501037597656

> <r_mmod_Solvation_Energy-OPLS-2005>
-226.842163085938

> <b_mmod_Minimization_Converged-OPLS-2005>
0

> <r_mmod_RMS_Derivative-OPLS-2005>
3.83596110343933

$$$$
38
                    3D
 Structure written by MMmdl.
162170  0  0  1  0            999 V2000
  -30.5833  -14.7412   20.4048 C   0  0  0  0  0  0
  -30.4444  -12.4187   19.5085 C   0  0  0  0  0  0
  -29.5354  -12.4480   18.2638 C   0  0  0  0  0  0
  -28.0470  -12.3205   18.6535 C   0  0  0  0  0  0
  -27.6479  -13.2239   19.8517 C   0  0  2  0  0  0
  -28.6865  -13.1536   20.9911 C   0  0  0  0  0  0
  -25.2547  -13.8186   20.5653 C   0  0  0  0  0  0
  -24.1823  -13.0450   20.9181 C   0  0  0  0  0  0
  -24.6394  -11.6922   20.8728 C   0  0  0  0  0  0
  -23.9065  -10.4303   21.0399 C   0  0  0  0  0  0
  -24.3619   -9.4220   21.9178 C   0  0  0  0  0  0
  -23.6296   -8.2254   22.0753 C   0  0  0  0  0  0
  -22.4279   -8.0284   21.3543 C   0  0  0  0  0  0
  -21.9912   -9.0257   20.4646 C   0  0  0  0  0  0
  -22.7236  -10.2140   20.3053 C   0  0  0  0  0  0
  -21.6856   -6.0736   22.5276 C   0  0  0  0  0  0
  -21.4013   -6.5638   23.8209 C   0  0  0  0  0  0
  -21.3663   -5.6789   24.9172 C   0  0  0  0  0  0
  -21.6047   -4.3053   24.7221 C   0  0  0  0  0  0
  -21.8818   -3.8146   23.4341 C   0  0  0  0  0  0
  -21.9194   -4.6963   22.3399 C   0  0  0  0  0  0
  -22.7844  -13.5243   21.1843 C   0  0  0  0  0  0
  -22.1658   -4.2149   21.0978 F   0  0  0  0  0  0
  -21.5635   -3.4537   25.7735 F   0  0  0  0  0  0
  -29.9930  -13.4975   20.4162 N   0  0  0  0  0  0
  -26.2963  -12.9373   20.3244 N   0  0  0  0  0  0
  -25.9323  -11.6530   20.5739 N   0  0  0  0  0  0
  -22.0481  -12.8247   22.0402 N   0  0  0  0  0  0
  -25.4266  -15.1904   20.4071 N   0  0  0  0  0  0
  -31.7670  -14.8587   20.0758 O   0  0  0  0  0  0
  -21.6643   -6.8881   21.4239 O   0  0  0  0  0  0
  -22.3531  -14.5545   20.6684 O   0  0  0  0  0  0
  -24.6307  -31.8559   23.1999 C   0  0  0  0  0  0
  -25.9138  -32.4755   23.8342 C   0  0  1  0  0  0
  -27.2206  -27.2702   20.1298 C   0  0  0  0  0  0
  -25.5940  -33.8557   24.2262 N   0  0  0  0  0  0
  -23.4269  -30.4794   21.5427 C   0  0  2  0  0  0
  -24.8751  -28.9316   20.1080 C   0  0  0  0  0  0
  -22.7504  -29.4602   22.4914 C   0  0  0  0  0  0
  -18.0291  -28.1380   22.8482 C   0  0  0  0  0  0
  -24.1487  -36.7288   23.2639 C   0  0  0  0  0  0
  -25.9725  -30.7722   21.3793 C   0  0  0  0  0  0
  -26.0458  -29.3961   20.7208 C   0  0  0  0  0  0
  -27.2202  -28.5774   20.7227 C   0  0  0  0  0  0
  -26.0298  -26.8823   19.4713 C   0  0  0  0  0  0
  -24.8726  -27.6828   19.4714 C   0  0  0  0  0  0
  -23.6450  -29.8161   20.1575 C   0  0  0  0  0  0
  -25.4111  -36.3068   24.0325 C   0  0  1  0  0  0
  -20.5895  -28.3691   23.1268 C   0  0  2  0  0  0
  -20.6775  -26.9410   22.5406 C   0  0  0  0  0  0
  -19.5751  -26.6376   21.5209 C   0  0  0  0  0  0
  -18.1932  -26.7920   22.1623 C   0  0  0  0  0  0
  -19.1545  -28.8853   23.2867 C   0  0  0  0  0  0
  -18.9467  -30.1455   23.8884 C   0  0  0  0  0  0
  -17.6466  -30.6581   24.0558 C   0  0  0  0  0  0
  -25.9055  -34.9439   23.5094 C   0  0  0  0  0  0
  -16.5357  -29.9079   23.6327 C   0  0  0  0  0  0
  -16.7278  -28.6497   23.0348 C   0  0  0  0  0  0
  -26.4508  -31.6578   25.0731 C   0  0  0  0  0  0
  -25.3736  -31.3731   26.1458 C   0  0  0  0  0  0
  -27.0360  -30.2994   24.6218 C   0  0  0  0  0  0
  -27.6055  -32.4324   25.7510 C   0  0  0  0  0  0
  -27.5572  -37.1801   24.8463 C   0  0  0  0  0  0
  -21.4212  -29.3043   22.3663 N   0  0  0  0  0  0
  -26.4284  -37.3768   23.9407 N   0  0  0  0  0  0
  -24.6955  -31.0535   22.0970 N   0  0  0  0  0  0
  -23.4210  -28.8138   23.3004 O   0  0  0  0  0  0
  -28.3108  -26.3705   20.2159 O   0  0  0  0  0  0
  -26.5626  -34.8913   22.4661 O   0  0  0  0  0  0
  -23.5458  -32.1379   23.7297 O   0  0  0  0  0  0
  -29.6454  -19.6755   18.4882 C   0  0  0  0  0  0
  -29.7311  -18.4524   17.8116 C   0  0  0  0  0  0
  -29.6321  -18.4621   20.5867 C   0  0  0  0  0  0
  -29.5223  -19.7410   19.8891 C   0  0  0  0  0  0
  -29.6987  -17.2088   18.4830 C   0  0  0  0  0  0
  -29.7579  -17.1710   19.9093 C   0  0  0  0  0  0
  -28.7921  -22.2345   19.9508 C   0  0  0  0  0  0
  -27.1599  -16.2487   17.0069 C   0  0  0  0  0  0
  -28.7775  -14.8426   15.6721 C   0  0  0  0  0  0
  -29.0305  -23.7172   20.5063 C   0  0  0  0  0  0
  -28.0712  -24.9061   19.9662 C   0  0  0  0  0  0
  -28.6226  -16.0758   16.5688 C   0  0  0  0  0  0
  -29.3816  -21.0945   20.4934 N   0  0  0  0  0  0
  -29.7720  -15.8504   20.5990 N   0  0  0  0  0  0
  -29.5298  -16.0335   17.7239 N   0  0  0  0  0  0
  -28.0132  -22.1274   19.0001 O   0  0  0  0  0  0
  -31.4884  -12.5377   19.2131 H   0  0  0  0  0  0
  -30.3844  -11.4503   20.0077 H   0  0  0  0  0  0
  -29.8100  -11.6459   17.5777 H   0  0  0  0  0  0
  -29.7203  -13.3719   17.7272 H   0  0  0  0  0  0
  -27.8748  -11.2752   18.9123 H   0  0  0  0  0  0
  -27.4064  -12.5236   17.7950 H   0  0  0  0  0  0
  -27.6481  -14.2455   19.4747 H   0  0  0  0  0  0
  -28.7122  -12.1557   21.4311 H   0  0  0  0  0  0
  -28.4208  -13.8358   21.8000 H   0  0  0  0  0  0
  -25.2766   -9.5697   22.4749 H   0  0  0  0  0  0
  -24.0005   -7.4648   22.7476 H   0  0  0  0  0  0
  -21.0843   -8.8775   19.8952 H   0  0  0  0  0  0
  -22.3692  -10.9677   19.6162 H   0  0  0  0  0  0
  -21.1999   -7.6146   23.9714 H   0  0  0  0  0  0
  -21.1488   -6.0519   25.9076 H   0  0  0  0  0  0
  -22.0595   -2.7609   23.2842 H   0  0  0  0  0  0
  -22.4092  -11.9925   22.4822 H   0  0  0  0  0  0
  -21.1091  -13.1273   22.2581 H   0  0  0  0  0  0
  -24.6560  -15.8415   20.5094 H   0  0  0  0  0  0
  -26.2689  -15.6284   20.0580 H   0  0  0  0  0  0
  -26.7206  -32.5408   23.1085 H   0  0  0  0  0  0
  -25.0086  -33.9692   25.0408 H   0  0  0  0  0  0
  -22.7232  -31.3015   21.3978 H   0  0  0  0  0  0
  -23.3742  -35.9628   23.3299 H   0  0  0  0  0  0
  -24.3577  -36.8914   22.2053 H   0  0  0  0  0  0
  -23.7249  -37.6492   23.6667 H   0  0  0  0  0  0
  -26.1108  -31.5337   20.6104 H   0  0  0  0  0  0
  -26.8500  -30.8204   22.0124 H   0  0  0  0  0  0
  -28.1129  -28.9257   21.2235 H   0  0  0  0  0  0
  -25.9563  -25.9342   18.9604 H   0  0  0  0  0  0
  -23.9795  -27.3246   18.9783 H   0  0  0  0  0  0
  -23.7695  -30.5936   19.4027 H   0  0  0  0  0  0
  -22.7636  -29.2497   19.8508 H   0  0  0  0  0  0
  -25.1293  -36.1912   25.0817 H   0  0  0  0  0  0
  -20.9984  -28.3263   24.1390 H   0  0  0  0  0  0
  -20.5664  -26.2307   23.3612 H   0  0  0  0  0  0
  -21.6644  -26.7425   22.1209 H   0  0  0  0  0  0
  -19.6912  -25.6286   21.1243 H   0  0  0  0  0  0
  -19.6680  -27.3182   20.6734 H   0  0  0  0  0  0
  -17.4202  -26.6665   21.4025 H   0  0  0  0  0  0
  -18.0333  -26.0061   22.9018 H   0  0  0  0  0  0
  -19.7945  -30.7271   24.2247 H   0  0  0  0  0  0
  -17.5021  -31.6259   24.5164 H   0  0  0  0  0  0
  -15.5356  -30.2977   23.7652 H   0  0  0  0  0  0
  -15.8680  -28.0810   22.7066 H   0  0  0  0  0  0
  -24.5908  -30.7078   25.7797 H   0  0  0  0  0  0
  -24.8937  -32.2905   26.4877 H   0  0  0  0  0  0
  -25.8064  -30.8920   27.0239 H   0  0  0  0  0  0
  -26.2949  -29.6736   24.1232 H   0  0  0  0  0  0
  -27.4029  -29.7258   25.4740 H   0  0  0  0  0  0
  -27.8830  -30.4262   23.9472 H   0  0  0  0  0  0
  -27.2648  -33.3619   26.2083 H   0  0  0  0  0  0
  -28.3876  -32.6892   25.0354 H   0  0  0  0  0  0
  -28.0715  -31.8459   26.5438 H   0  0  0  0  0  0
  -28.2593  -38.0095   24.7504 H   0  0  0  0  0  0
  -28.1067  -36.2628   24.6295 H   0  0  0  0  0  0
  -27.2296  -37.1457   25.8868 H   0  0  0  0  0  0
  -20.9398  -29.8786   21.6885 H   0  0  0  0  0  0
  -26.0160  -38.2842   24.1406 H   0  0  0  0  0  0
  -29.6534  -20.5749   17.8900 H   0  0  0  0  0  0
  -29.7853  -18.5095   16.7364 H   0  0  0  0  0  0
  -29.5965  -18.4651   21.6663 H   0  0  0  0  0  0
  -26.5016  -16.3148   16.1399 H   0  0  0  0  0  0
  -27.0119  -17.1606   17.5864 H   0  0  0  0  0  0
  -26.8150  -15.4092   17.6102 H   0  0  0  0  0  0
  -28.2565  -14.9931   14.7261 H   0  0  0  0  0  0
  -28.3466  -13.9489   16.1190 H   0  0  0  0  0  0
  -29.8224  -14.6431   15.4322 H   0  0  0  0  0  0
  -30.0606  -23.9737   20.2605 H   0  0  0  0  0  0
  -28.9814  -23.6856   21.5944 H   0  0  0  0  0  0
  -27.0870  -24.6568   20.3646 H   0  0  0  0  0  0
  -27.9921  -24.7982   18.8836 H   0  0  0  0  0  0
  -28.8792  -16.9136   15.9241 H   0  0  0  0  0  0
  -29.8366  -21.2246   21.3880 H   0  0  0  0  0  0
  -28.9151  -15.6375   21.0854 H   0  0  0  0  0  0
  -29.4880  -15.1800   18.2642 H   0  0  0  0  0  0
  1 25  1  0  0  0
  1 30  2  0  0  0
  1 84  1  0  0  0
  2  3  1  0  0  0
  2 25  1  0  0  0
  2 87  1  0  0  0
  2 88  1  0  0  0
  3  4  1  0  0  0
  3 89  1  0  0  0
  3 90  1  0  0  0
  4  5  1  0  0  0
  4 91  1  0  0  0
  4 92  1  0  0  0
  5  6  1  0  0  0
  5 26  1  0  0  0
  5 93  1  0  0  0
  6 25  1  0  0  0
  6 94  1  0  0  0
  6 95  1  0  0  0
  7  8  2  0  0  0
  7 26  1  0  0  0
  7 29  1  0  0  0
  8  9  1  0  0  0
  8 22  1  0  0  0
  9 10  1  0  0  0
  9 27  2  0  0  0
 10 11  2  0  0  0
 10 15  1  0  0  0
 11 12  1  0  0  0
 11 96  1  0  0  0
 12 13  2  0  0  0
 12 97  1  0  0  0
 13 14  1  0  0  0
 13 31  1  0  0  0
 14 15  2  0  0  0
 14 98  1  0  0  0
 15 99  1  0  0  0
 16 17  2  0  0  0
 16 21  1  0  0  0
 16 31  1  0  0  0
 17 18  1  0  0  0
 17100  1  0  0  0
 18 19  2  0  0  0
 18101  1  0  0  0
 19 20  1  0  0  0
 19 24  1  0  0  0
 20 21  2  0  0  0
 20102  1  0  0  0
 21 23  1  0  0  0
 22 28  1  0  0  0
 22 32  2  0  0  0
 26 27  1  0  0  0
 28103  1  0  0  0
 28104  1  0  0  0
 29105  1  0  0  0
 29106  1  0  0  0
 33 34  1  0  0  0
 33 66  1  0  0  0
 33 70  2  0  0  0
 34 36  1  0  0  0
 34 59  1  0  0  0
 34107  1  0  0  0
 35 44  2  0  0  0
 35 45  1  0  0  0
 35 68  1  0  0  0
 36 56  1  0  0  0
 36108  1  0  0  0
 37 39  1  0  0  0
 37 47  1  0  0  0
 37 66  1  0  0  0
 37109  1  0  0  0
 38 43  2  0  0  0
 38 46  1  0  0  0
 38 47  1  0  0  0
 39 64  1  0  0  0
 39 67  2  0  0  0
 40 52  1  0  0  0
 40 53  2  0  0  0
 40 58  1  0  0  0
 41110  1  0  0  0
 41111  1  0  0  0
 41112  1  0  0  0
 41 48  1  0  0  0
 42 43  1  0  0  0
 42 66  1  0  0  0
 42113  1  0  0  0
 42114  1  0  0  0
 43 44  1  0  0  0
 44115  1  0  0  0
 45 46  2  0  0  0
 45116  1  0  0  0
 46117  1  0  0  0
 47118  1  0  0  0
 47119  1  0  0  0
 48 56  1  0  0  0
 48 65  1  0  0  0
 48120  1  0  0  0
 49 50  1  0  0  0
 49 53  1  0  0  0
 49 64  1  0  0  0
 49121  1  0  0  0
 50 51  1  0  0  0
 50122  1  0  0  0
 50123  1  0  0  0
 51 52  1  0  0  0
 51124  1  0  0  0
 51125  1  0  0  0
 52126  1  0  0  0
 52127  1  0  0  0
 53 54  1  0  0  0
 54 55  2  0  0  0
 54128  1  0  0  0
 55 57  1  0  0  0
 55129  1  0  0  0
 56 69  2  0  0  0
 57 58  2  0  0  0
 57130  1  0  0  0
 58131  1  0  0  0
 59 60  1  0  0  0
 59 61  1  0  0  0
 59 62  1  0  0  0
 60132  1  0  0  0
 60133  1  0  0  0
 60134  1  0  0  0
 61135  1  0  0  0
 61136  1  0  0  0
 61137  1  0  0  0
 62138  1  0  0  0
 62139  1  0  0  0
 62140  1  0  0  0
 63 65  1  0  0  0
 63141  1  0  0  0
 63142  1  0  0  0
 63143  1  0  0  0
 64144  1  0  0  0
 65145  1  0  0  0
 68 81  1  0  0  0
 71 72  2  0  0  0
 71 74  1  0  0  0
 71146  1  0  0  0
 72 75  1  0  0  0
 72147  1  0  0  0
 73 74  2  0  0  0
 73 76  1  0  0  0
 73148  1  0  0  0
 74 83  1  0  0  0
 75 76  2  0  0  0
 75 85  1  0  0  0
 76 84  1  0  0  0
 77 80  1  0  0  0
 77 83  1  0  0  0
 77 86  2  0  0  0
 78149  1  0  0  0
 78150  1  0  0  0
 78151  1  0  0  0
 78 82  1  0  0  0
 79 82  1  0  0  0
 79152  1  0  0  0
 79153  1  0  0  0
 79154  1  0  0  0
 80 81  1  0  0  0
 80155  1  0  0  0
 80156  1  0  0  0
 81157  1  0  0  0
 81158  1  0  0  0
 82 85  1  0  0  0
 82159  1  0  0  0
 83160  1  0  0  0
 84161  1  0  0  0
 85162  1  0  0  0
M  ISO  4   1 100  68 101  81 101  84 100
M  END
> <chiral flag>
0

> <version>
0

> <s_m_source_file>
/data/baiqing/PycharmProjects/Reinvent-master-3.2/result/LINK_invent/BTK/process_docking_weight1_custom_sum_contain_oxygen_bond_distance_aromatic_linkinvent_7_9_3/rearranged_h_0012.sdf

> <i_m_source_file_index>
38

> <r_mmod_Potential_Energy-OPLS-2005>
48.0273399353027

> <r_mmod_Stretch_Energy-OPLS-2005>
125.530136108398

> <r_mmod_Bend_Energy-OPLS-2005>
161.048416137695

> <r_mmod_Torsional_Energy-OPLS-2005>
267.997619628906

> <r_mmod_Improper_Torsional_Energy-OPLS-2005>
9.39604568481445

> <r_mmod_Van_der_Waal_Energy-OPLS-2005>
146.391448974609

> <r_mmod_Electrostatic_Energy-OPLS-2005>
-511.780578613281

> <r_mmod_Solvation_Energy-OPLS-2005>
-237.720657348633

> <b_mmod_Minimization_Converged-OPLS-2005>
0

> <r_mmod_RMS_Derivative-OPLS-2005>
0.681620657444

$$$$
39
                    3D
 Structure written by MMmdl.
157165  0  0  1  0            999 V2000
  -30.3924  -15.3803   20.4057 C   0  0  0  0  0  0
  -30.4328  -12.8955   19.5371 C   0  0  0  0  0  0
  -29.5414  -12.6107   18.2969 C   0  0  0  0  0  0
  -28.0866  -12.3223   18.7069 C   0  0  0  0  0  0
  -27.6026  -13.2873   19.8164 C   0  0  2  0  0  0
  -28.6324  -13.4598   20.9523 C   0  0  0  0  0  0
  -25.2166  -13.8162   20.5416 C   0  0  0  0  0  0
  -24.1642  -13.0358   20.9171 C   0  0  0  0  0  0
  -24.6384  -11.6892   20.8758 C   0  0  0  0  0  0
  -23.9097  -10.4253   21.0402 C   0  0  0  0  0  0
  -24.3637   -9.4175   21.9183 C   0  0  0  0  0  0
  -23.6288   -8.2234   22.0777 C   0  0  0  0  0  0
  -22.4273   -8.0265   21.3557 C   0  0  0  0  0  0
  -21.9911   -9.0235   20.4656 C   0  0  0  0  0  0
  -22.7263  -10.2099   20.3045 C   0  0  0  0  0  0
  -21.6842   -6.0727   22.5291 C   0  0  0  0  0  0
  -21.4000   -6.5636   23.8226 C   0  0  0  0  0  0
  -21.3661   -5.6789   24.9187 C   0  0  0  0  0  0
  -21.6035   -4.3055   24.7234 C   0  0  0  0  0  0
  -21.8810   -3.8144   23.4360 C   0  0  0  0  0  0
  -21.9184   -4.6958   22.3418 C   0  0  0  0  0  0
  -22.7662  -13.5097   21.1859 C   0  0  0  0  0  0
  -22.1654   -4.2142   21.0999 F   0  0  0  0  0  0
  -21.5628   -3.4542   25.7754 F   0  0  0  0  0  0
  -29.8470  -14.0443   20.3448 N   0  0  0  0  0  0
  -26.2732  -12.9542   20.3107 N   0  0  0  0  0  0
  -25.9347  -11.6644   20.5743 N   0  0  0  0  0  0
  -22.0344  -12.8134   22.0475 N   0  0  0  0  0  0
  -25.3403  -15.1833   20.3370 N   0  0  0  0  0  0
  -31.5918  -15.3689   20.0766 O   0  0  0  0  0  0
  -21.6627   -6.8873   21.4259 O   0  0  0  0  0  0
  -22.3325  -14.5404   20.6703 O   0  0  0  0  0  0
  -24.6685  -31.8170   23.1630 C   0  0  0  0  0  0
  -25.9329  -32.4545   23.8121 C   0  0  1  0  0  0
  -27.2200  -26.8585   20.1879 C   0  0  0  0  0  0
  -25.5982  -33.8362   24.2032 N   0  0  0  0  0  0
  -23.4873  -30.4239   21.5150 C   0  0  2  0  0  0
  -24.9405  -28.7944   20.1185 C   0  0  0  0  0  0
  -22.7705  -29.4386   22.4747 C   0  0  0  0  0  0
  -18.0339  -28.1393   22.8457 C   0  0  0  0  0  0
  -24.1477  -36.7160   23.2654 C   0  0  0  0  0  0
  -26.0623  -30.5974   21.4055 C   0  0  0  0  0  0
  -26.1292  -29.1809   20.7506 C   0  0  0  0  0  0
  -27.2640  -28.2370   20.7547 C   0  0  0  0  0  0
  -25.9963  -26.6376   19.5157 C   0  0  0  0  0  0
  -24.9022  -27.5433   19.4825 C   0  0  0  0  0  0
  -23.7330  -29.7342   20.1452 C   0  0  0  0  0  0
  -25.4124  -36.2931   24.0305 C   0  0  1  0  0  0
  -20.5974  -28.3731   23.1171 C   0  0  2  0  0  0
  -20.6802  -26.9400   22.5404 C   0  0  0  0  0  0
  -19.5775  -26.6357   21.5206 C   0  0  0  0  0  0
  -18.1957  -26.7927   22.1609 C   0  0  0  0  0  0
  -19.1607  -28.8880   23.2799 C   0  0  0  0  0  0
  -18.9524  -30.1475   23.8829 C   0  0  0  0  0  0
  -17.6520  -30.6592   24.0546 C   0  0  0  0  0  0
  -25.9102  -34.9322   23.4988 C   0  0  0  0  0  0
  -16.5406  -29.9071   23.6345 C   0  0  0  0  0  0
  -16.7326  -28.6487   23.0364 C   0  0  0  0  0  0
  -26.4553  -31.6528   25.0685 C   0  0  0  0  0  0
  -25.3652  -31.3822   26.1320 C   0  0  0  0  0  0
  -27.0469  -30.2885   24.6490 C   0  0  0  0  0  0
  -27.6024  -32.4379   25.7492 C   0  0  0  0  0  0
  -27.5558  -37.1722   24.8476 C   0  0  0  0  0  0
  -21.4369  -29.3014   22.3510 N   0  0  0  0  0  0
  -26.4256  -37.3682   23.9435 N   0  0  0  0  0  0
  -24.7609  -30.9750   22.0812 N   0  0  0  0  0  0
  -23.4228  -28.7946   23.3002 O   0  0  0  0  0  0
  -28.2244  -25.7295   20.2009 O   0  0  0  0  0  0
  -26.5719  -34.8881   22.4591 O   0  0  0  0  0  0
  -23.5737  -32.1174   23.6683 O   0  0  0  0  0  0
  -29.0110  -22.7230   19.8398 C   0  0  0  0  0  0
  -29.8815  -18.8786   18.8618 C   0  0  0  0  0  0
  -29.8937  -20.4862   18.8371 C   0  0  0  0  0  0
  -28.9544  -19.8226   20.7829 C   0  0  0  0  0  0
  -29.8420  -18.3660   20.3097 C   0  0  1  0  0  0
  -26.9147  -17.7060   23.0929 C   0  0  0  0  0  0
  -27.9789  -24.0676   20.3692 C   0  0  0  0  0  0
  -27.5083  -16.9096   21.9240 C   0  0  0  0  0  0
  -29.0361  -16.7515   21.9783 C   0  0  0  0  0  0
  -29.1350  -21.1992   19.9278 N   0  0  0  0  0  0
  -29.6538  -16.6934   20.6395 N   0  0  0  0  0  0
  -29.8525  -23.2023   19.0707 O   0  0  0  0  0  0
  -31.4448  -13.1188   19.1957 H   0  0  0  0  0  0
  -30.5373  -11.9971   20.1486 H   0  0  0  0  0  0
  -29.9438  -11.7730   17.7242 H   0  0  0  0  0  0
  -29.5666  -13.4741   17.6303 H   0  0  0  0  0  0
  -28.0416  -11.2930   19.0644 H   0  0  0  0  0  0
  -27.4285  -12.3729   17.8384 H   0  0  0  0  0  0
  -27.5113  -14.2569   19.3255 H   0  0  0  0  0  0
  -28.8303  -12.5082   21.4476 H   0  0  0  0  0  0
  -28.2360  -14.1098   21.7248 H   0  0  0  0  0  0
  -25.2780   -9.5653   22.4759 H   0  0  0  0  0  0
  -23.9967   -7.4636   22.7521 H   0  0  0  0  0  0
  -21.0833   -8.8757   19.8975 H   0  0  0  0  0  0
  -22.3713  -10.9626   19.6148 H   0  0  0  0  0  0
  -21.1987   -7.6140   23.9721 H   0  0  0  0  0  0
  -21.1481   -6.0529   25.9091 H   0  0  0  0  0  0
  -22.0573   -2.7603   23.2872 H   0  0  0  0  0  0
  -22.4000  -11.9853   22.4930 H   0  0  0  0  0  0
  -21.0958  -13.1148   22.2665 H   0  0  0  0  0  0
  -24.5576  -15.8111   20.4806 H   0  0  0  0  0  0
  -26.1836  -15.6569   20.0439 H   0  0  0  0  0  0
  -26.7397  -32.5055   23.0833 H   0  0  0  0  0  0
  -25.0088  -33.9436   25.0157 H   0  0  0  0  0  0
  -22.8049  -31.2579   21.3377 H   0  0  0  0  0  0
  -23.3775  -35.9455   23.3292 H   0  0  0  0  0  0
  -24.3539  -36.8837   22.2073 H   0  0  0  0  0  0
  -23.7209  -37.6326   23.6742 H   0  0  0  0  0  0
  -26.2533  -31.3376   20.6284 H   0  0  0  0  0  0
  -26.9167  -30.6519   22.0670 H   0  0  0  0  0  0
  -28.1666  -28.5333   21.2692 H   0  0  0  0  0  0
  -25.8525  -25.6880   19.0219 H   0  0  0  0  0  0
  -23.9984  -27.2368   18.9711 H   0  0  0  0  0  0
  -23.8981  -30.5019   19.3878 H   0  0  0  0  0  0
  -22.8399  -29.1961   19.8214 H   0  0  0  0  0  0
  -25.1322  -36.1700   25.0797 H   0  0  0  0  0  0
  -21.0069  -28.3330   24.1285 H   0  0  0  0  0  0
  -20.5662  -26.2341   23.3645 H   0  0  0  0  0  0
  -21.6659  -26.7343   22.1210 H   0  0  0  0  0  0
  -19.6930  -25.6250   21.1261 H   0  0  0  0  0  0
  -19.6725  -27.3139   20.6716 H   0  0  0  0  0  0
  -17.4228  -26.6699   21.4009 H   0  0  0  0  0  0
  -18.0332  -26.0072   22.9010 H   0  0  0  0  0  0
  -19.8010  -30.7299   24.2165 H   0  0  0  0  0  0
  -17.5082  -31.6274   24.5143 H   0  0  0  0  0  0
  -15.5397  -30.2950   23.7722 H   0  0  0  0  0  0
  -15.8730  -28.0797   22.7103 H   0  0  0  0  0  0
  -24.5857  -30.7147   25.7624 H   0  0  0  0  0  0
  -24.8800  -32.3038   26.4560 H   0  0  0  0  0  0
  -25.7833  -30.9113   27.0226 H   0  0  0  0  0  0
  -26.3150  -29.6526   24.1498 H   0  0  0  0  0  0
  -27.3967  -29.7289   25.5179 H   0  0  0  0  0  0
  -27.9112  -30.4043   23.9939 H   0  0  0  0  0  0
  -27.2588  -33.3779   26.1842 H   0  0  0  0  0  0
  -28.3940  -32.6801   25.0377 H   0  0  0  0  0  0
  -28.0578  -31.8662   26.5589 H   0  0  0  0  0  0
  -28.2539  -38.0047   24.7530 H   0  0  0  0  0  0
  -28.1085  -36.2573   24.6296 H   0  0  0  0  0  0
  -27.2277  -37.1353   25.8875 H   0  0  0  0  0  0
  -20.9624  -29.8735   21.6664 H   0  0  0  0  0  0
  -26.0096  -38.2722   24.1502 H   0  0  0  0  0  0
  -30.7431  -18.4786   18.3254 H   0  0  0  0  0  0
  -28.9988  -18.5108   18.3375 H   0  0  0  0  0  0
  -29.5336  -20.8268   17.8653 H   0  0  0  0  0  0
  -30.9312  -20.8140   18.9009 H   0  0  0  0  0  0
  -29.1610  -20.0495   21.8286 H   0  0  0  0  0  0
  -27.8866  -19.6040   20.7455 H   0  0  0  0  0  0
  -30.8489  -18.5381   20.6924 H   0  0  0  0  0  0
  -25.8268  -17.7457   23.0164 H   0  0  0  0  0  0
  -27.2753  -18.7355   23.0979 H   0  0  0  0  0  0
  -27.1616  -17.2565   24.0548 H   0  0  0  0  0  0
  -27.8131  -23.8995   21.4326 H   0  0  0  0  0  0
  -27.0142  -23.8617   19.9067 H   0  0  0  0  0  0
  -27.1986  -17.3730   20.9875 H   0  0  0  0  0  0
  -27.0666  -15.9205   21.9517 H   0  0  0  0  0  0
  -29.2885  -15.8828   22.5883 H   0  0  0  0  0  0
  -29.4733  -17.5802   22.5375 H   0  0  0  0  0  0
  1 25  1  0  0  0
  1 30  2  0  0  0
  1 81  1  0  0  0
  2  3  1  0  0  0
  2 25  1  0  0  0
  2 83  1  0  0  0
  2 84  1  0  0  0
  3  4  1  0  0  0
  3 85  1  0  0  0
  3 86  1  0  0  0
  4  5  1  0  0  0
  4 87  1  0  0  0
  4 88  1  0  0  0
  5  6  1  0  0  0
  5 26  1  0  0  0
  5 89  1  0  0  0
  6 25  1  0  0  0
  6 90  1  0  0  0
  6 91  1  0  0  0
  7  8  2  0  0  0
  7 26  1  0  0  0
  7 29  1  0  0  0
  8  9  1  0  0  0
  8 22  1  0  0  0
  9 10  1  0  0  0
  9 27  2  0  0  0
 10 11  2  0  0  0
 10 15  1  0  0  0
 11 12  1  0  0  0
 11 92  1  0  0  0
 12 13  2  0  0  0
 12 93  1  0  0  0
 13 14  1  0  0  0
 13 31  1  0  0  0
 14 15  2  0  0  0
 14 94  1  0  0  0
 15 95  1  0  0  0
 16 17  2  0  0  0
 16 21  1  0  0  0
 16 31  1  0  0  0
 17 18  1  0  0  0
 17 96  1  0  0  0
 18 19  2  0  0  0
 18 97  1  0  0  0
 19 20  1  0  0  0
 19 24  1  0  0  0
 20 21  2  0  0  0
 20 98  1  0  0  0
 21 23  1  0  0  0
 22 28  1  0  0  0
 22 32  2  0  0  0
 26 27  1  0  0  0
 28 99  1  0  0  0
 28100  1  0  0  0
 29101  1  0  0  0
 29102  1  0  0  0
 33 34  1  0  0  0
 33 66  1  0  0  0
 33 70  2  0  0  0
 34 36  1  0  0  0
 34 59  1  0  0  0
 34103  1  0  0  0
 35 44  2  0  0  0
 35 45  1  0  0  0
 35 68  1  0  0  0
 36 56  1  0  0  0
 36104  1  0  0  0
 37 39  1  0  0  0
 37 47  1  0  0  0
 37 66  1  0  0  0
 37105  1  0  0  0
 38 43  2  0  0  0
 38 46  1  0  0  0
 38 47  1  0  0  0
 39 64  1  0  0  0
 39 67  2  0  0  0
 40 52  1  0  0  0
 40 53  2  0  0  0
 40 58  1  0  0  0
 41106  1  0  0  0
 41107  1  0  0  0
 41108  1  0  0  0
 41 48  1  0  0  0
 42 43  1  0  0  0
 42 66  1  0  0  0
 42109  1  0  0  0
 42110  1  0  0  0
 43 44  1  0  0  0
 44111  1  0  0  0
 45 46  2  0  0  0
 45112  1  0  0  0
 46113  1  0  0  0
 47114  1  0  0  0
 47115  1  0  0  0
 48 56  1  0  0  0
 48 65  1  0  0  0
 48116  1  0  0  0
 49 50  1  0  0  0
 49 53  1  0  0  0
 49 64  1  0  0  0
 49117  1  0  0  0
 50 51  1  0  0  0
 50118  1  0  0  0
 50119  1  0  0  0
 51 52  1  0  0  0
 51120  1  0  0  0
 51121  1  0  0  0
 52122  1  0  0  0
 52123  1  0  0  0
 53 54  1  0  0  0
 54 55  2  0  0  0
 54124  1  0  0  0
 55 57  1  0  0  0
 55125  1  0  0  0
 56 69  2  0  0  0
 57 58  2  0  0  0
 57126  1  0  0  0
 58127  1  0  0  0
 59 60  1  0  0  0
 59 61  1  0  0  0
 59 62  1  0  0  0
 60128  1  0  0  0
 60129  1  0  0  0
 60130  1  0  0  0
 61131  1  0  0  0
 61132  1  0  0  0
 61133  1  0  0  0
 62134  1  0  0  0
 62135  1  0  0  0
 62136  1  0  0  0
 63 65  1  0  0  0
 63137  1  0  0  0
 63138  1  0  0  0
 63139  1  0  0  0
 64140  1  0  0  0
 65141  1  0  0  0
 68 77  1  0  0  0
 71 77  1  0  0  0
 71 80  1  0  0  0
 71 82  2  0  0  0
 72 73  1  0  0  0
 72 75  1  0  0  0
 72142  1  0  0  0
 72143  1  0  0  0
 73 80  1  0  0  0
 73144  1  0  0  0
 73145  1  0  0  0
 74 75  1  0  0  0
 74 80  1  0  0  0
 74146  1  0  0  0
 74147  1  0  0  0
 75 81  1  0  0  0
 75148  1  0  0  0
 76 78  1  0  0  0
 76149  1  0  0  0
 76150  1  0  0  0
 76151  1  0  0  0
 77152  1  0  0  0
 77153  1  0  0  0
 78 79  1  0  0  0
 78154  1  0  0  0
 78155  1  0  0  0
 79 81  1  0  0  0
 79156  1  0  0  0
 79157  1  0  0  0
M  ISO  4   1 100  68 101  77 101  81 100
M  END
> <chiral flag>
0

> <version>
0

> <s_m_source_file>
/data/baiqing/PycharmProjects/Reinvent-master-3.2/result/LINK_invent/BTK/process_docking_weight1_custom_sum_contain_oxygen_bond_distance_aromatic_linkinvent_7_9_3/rearranged_h_0012.sdf

> <i_m_source_file_index>
39

> <r_mmod_Potential_Energy-OPLS-2005>
1904.88696289062

> <r_mmod_Stretch_Energy-OPLS-2005>
706.456909179688

> <r_mmod_Bend_Energy-OPLS-2005>
608.139526367188

> <r_mmod_Torsional_Energy-OPLS-2005>
374.016235351562

> <r_mmod_Improper_Torsional_Energy-OPLS-2005>
8.33584785461426

> <r_mmod_Van_der_Waal_Energy-OPLS-2005>
113.596389770508

> <r_mmod_Electrostatic_Energy-OPLS-2005>
-237.406784057617

> <r_mmod_Solvation_Energy-OPLS-2005>
-234.704620361328

> <b_mmod_Minimization_Converged-OPLS-2005>
0

> <r_mmod_RMS_Derivative-OPLS-2005>
2.66215109825134

$$$$
40
                    3D
 Structure written by MMmdl.
154162  0  0  1  0            999 V2000
  -30.5346  -14.9537   20.4255 C   0  0  0  0  0  0
  -30.4536  -12.5981   19.5030 C   0  0  0  0  0  0
  -29.5426  -12.5819   18.2520 C   0  0  0  0  0  0
  -28.0608  -12.3794   18.6348 C   0  0  0  0  0  0
  -27.6390  -13.2596   19.8405 C   0  0  2  0  0  0
  -28.6804  -13.2681   20.9817 C   0  0  0  0  0  0
  -25.2491  -13.8216   20.5647 C   0  0  0  0  0  0
  -24.1807  -13.0447   20.9159 C   0  0  0  0  0  0
  -24.6440  -11.6932   20.8723 C   0  0  0  0  0  0
  -23.9106  -10.4305   21.0377 C   0  0  0  0  0  0
  -24.3657   -9.4228   21.9157 C   0  0  0  0  0  0
  -23.6342   -8.2262   22.0738 C   0  0  0  0  0  0
  -22.4324   -8.0288   21.3534 C   0  0  0  0  0  0
  -21.9944   -9.0257   20.4643 C   0  0  0  0  0  0
  -22.7252  -10.2151   20.3043 C   0  0  0  0  0  0
  -21.6881   -6.0768   22.5278 C   0  0  0  0  0  0
  -21.4007   -6.5651   23.8212 C   0  0  0  0  0  0
  -21.3664   -5.6794   24.9166 C   0  0  0  0  0  0
  -21.6066   -4.3073   24.7202 C   0  0  0  0  0  0
  -21.8802   -3.8154   23.4324 C   0  0  0  0  0  0
  -21.9193   -4.6993   22.3388 C   0  0  0  0  0  0
  -22.7828  -13.5253   21.1794 C   0  0  0  0  0  0
  -22.1659   -4.2200   21.0968 F   0  0  0  0  0  0
  -21.5650   -3.4533   25.7691 F   0  0  0  0  0  0
  -29.9681  -13.6776   20.4052 N   0  0  0  0  0  0
  -26.2960  -12.9467   20.3219 N   0  0  0  0  0  0
  -25.9399  -11.6596   20.5663 N   0  0  0  0  0  0
  -22.0456  -12.8314   22.0374 N   0  0  0  0  0  0
  -25.4148  -15.1940   20.4021 N   0  0  0  0  0  0
  -31.7123  -15.0632   20.0701 O   0  0  0  0  0  0
  -21.6660   -6.8921   21.4236 O   0  0  0  0  0  0
  -22.3536  -14.5547   20.6594 O   0  0  0  0  0  0
  -24.6439  -31.8505   23.1966 C   0  0  0  0  0  0
  -25.9242  -32.4731   23.8353 C   0  0  1  0  0  0
  -27.1909  -27.1361   20.1358 C   0  0  0  0  0  0
  -25.6013  -33.8538   24.2239 N   0  0  0  0  0  0
  -23.4444  -30.4740   21.5449 C   0  0  2  0  0  0
  -24.8855  -28.9097   20.1041 C   0  0  0  0  0  0
  -22.7555  -29.4610   22.4923 C   0  0  0  0  0  0
  -18.0301  -28.1440   22.8518 C   0  0  0  0  0  0
  -24.1484  -36.7257   23.2637 C   0  0  0  0  0  0
  -26.0039  -30.7096   21.4102 C   0  0  0  0  0  0
  -26.0605  -29.3249   20.7438 C   0  0  0  0  0  0
  -27.2107  -28.4479   20.7573 C   0  0  0  0  0  0
  -26.0041  -26.8449   19.4251 C   0  0  0  0  0  0
  -24.8714  -27.6833   19.4293 C   0  0  0  0  0  0
  -23.6646  -29.8133   20.1577 C   0  0  0  0  0  0
  -25.4134  -36.3068   24.0303 C   0  0  1  0  0  0
  -20.5921  -28.3776   23.1261 C   0  0  2  0  0  0
  -20.6790  -26.9475   22.5459 C   0  0  0  0  0  0
  -19.5757  -26.6404   21.5275 C   0  0  0  0  0  0
  -18.1921  -26.7991   22.1639 C   0  0  0  0  0  0
  -19.1554  -28.8924   23.2873 C   0  0  0  0  0  0
  -18.9464  -30.1513   23.8913 C   0  0  0  0  0  0
  -17.6459  -30.6635   24.0578 C   0  0  0  0  0  0
  -25.9094  -34.9430   23.5073 C   0  0  0  0  0  0
  -16.5356  -29.9130   23.6349 C   0  0  0  0  0  0
  -16.7277  -28.6532   23.0402 C   0  0  0  0  0  0
  -26.4451  -31.6626   25.0852 C   0  0  0  0  0  0
  -25.3595  -31.4062   26.1576 C   0  0  0  0  0  0
  -27.0145  -30.2922   24.6562 C   0  0  0  0  0  0
  -27.6108  -32.4295   25.7545 C   0  0  0  0  0  0
  -27.5605  -37.1780   24.8421 C   0  0  0  0  0  0
  -21.4260  -29.3098   22.3631 N   0  0  0  0  0  0
  -26.4285  -37.3811   23.9410 N   0  0  0  0  0  0
  -24.7165  -31.0365   22.1010 N   0  0  0  0  0  0
  -23.4167  -28.8194   23.3115 O   0  0  0  0  0  0
  -28.2124  -26.1190   20.2355 O   0  0  0  0  0  0
  -26.5676  -34.8900   22.4648 O   0  0  0  0  0  0
  -23.5554  -32.1405   23.7180 O   0  0  0  0  0  0
  -30.3112  -19.8134   19.4081 C   0  0  0  0  0  0
  -30.4776  -18.3807   19.5991 C   0  0  0  0  0  0
  -28.6444  -19.8887   21.0608 C   0  0  0  0  0  0
  -29.3621  -20.6723   20.0897 C   0  0  0  0  0  0
  -29.7205  -17.6014   20.5308 C   0  0  0  0  0  0
  -28.8116  -18.4512   21.2617 C   0  0  0  0  0  0
  -28.6034  -23.2742   20.4431 C   0  0  0  0  0  0
  -31.0725  -23.0881   18.4152 C   0  0  0  0  0  0
  -27.9183  -24.6546   19.7994 C   0  0  0  0  0  0
  -29.6297  -22.5132   18.3488 C   0  0  0  0  0  0
  -29.7213  -16.0756   20.7313 N   0  0  0  0  0  0
  -29.1236  -22.1619   19.6984 N   0  0  0  0  0  0
  -28.5740  -23.1926   21.6746 O   0  0  0  0  0  0
  -28.0313  -17.8543   22.1941 F   0  0  0  0  0  0
  -31.4901  -12.7574   19.2038 H   0  0  0  0  0  0
  -30.4353  -11.6356   20.0171 H   0  0  0  0  0  0
  -29.8730  -11.8053   17.5589 H   0  0  0  0  0  0
  -29.6510  -13.5297   17.7172 H   0  0  0  0  0  0
  -27.9106  -11.3238   18.8580 H   0  0  0  0  0  0
  -27.4277  -12.6031   17.7736 H   0  0  0  0  0  0
  -27.6043  -14.2768   19.4480 H   0  0  0  0  0  0
  -28.7633  -12.2914   21.4594 H   0  0  0  0  0  0
  -28.3754  -13.9727   21.7578 H   0  0  0  0  0  0
  -25.2802   -9.5715   22.4716 H   0  0  0  0  0  0
  -24.0068   -7.4666   22.7442 H   0  0  0  0  0  0
  -21.0877   -8.8727   19.8953 H   0  0  0  0  0  0
  -22.3680  -10.9680   19.6134 H   0  0  0  0  0  0
  -21.1980   -7.6154   23.9745 H   0  0  0  0  0  0
  -21.1522   -6.0506   25.9082 H   0  0  0  0  0  0
  -22.0599   -2.7626   23.2767 H   0  0  0  0  0  0
  -22.4037  -12.0037   22.4896 H   0  0  0  0  0  0
  -21.1071  -13.1376   22.2491 H   0  0  0  0  0  0
  -24.6382  -15.8402   20.4817 H   0  0  0  0  0  0
  -26.2575  -15.6359   20.0582 H   0  0  0  0  0  0
  -26.7338  -32.5302   23.1101 H   0  0  0  0  0  0
  -25.0183  -33.9683   25.0395 H   0  0  0  0  0  0
  -22.7499  -31.3044   21.4007 H   0  0  0  0  0  0
  -23.3813  -35.9517   23.3192 H   0  0  0  0  0  0
  -24.3621  -36.9011   22.2082 H   0  0  0  0  0  0
  -23.7065  -37.6344   23.6734 H   0  0  0  0  0  0
  -26.1879  -31.4669   20.6448 H   0  0  0  0  0  0
  -26.8606  -30.7425   22.0728 H   0  0  0  0  0  0
  -28.0888  -28.7441   21.3107 H   0  0  0  0  0  0
  -25.9013  -25.9287   18.8615 H   0  0  0  0  0  0
  -23.9870  -27.3780   18.8899 H   0  0  0  0  0  0
  -23.7955  -30.5926   19.4052 H   0  0  0  0  0  0
  -22.7757  -29.2601   19.8503 H   0  0  0  0  0  0
  -25.1306  -36.1926   25.0793 H   0  0  0  0  0  0
  -20.9998  -28.3393   24.1378 H   0  0  0  0  0  0
  -20.5735  -26.2419   23.3710 H   0  0  0  0  0  0
  -21.6640  -26.7530   22.1220 H   0  0  0  0  0  0
  -19.6908  -25.6292   21.1369 H   0  0  0  0  0  0
  -19.6691  -27.3172   20.6762 H   0  0  0  0  0  0
  -17.4235  -26.6841   21.3975 H   0  0  0  0  0  0
  -18.0214  -26.0090   22.8959 H   0  0  0  0  0  0
  -19.7936  -30.7355   24.2261 H   0  0  0  0  0  0
  -17.5006  -31.6330   24.5154 H   0  0  0  0  0  0
  -15.5352  -30.3042   23.7672 H   0  0  0  0  0  0
  -15.8664  -28.0825   22.7175 H   0  0  0  0  0  0
  -24.5636  -30.7540   25.7957 H   0  0  0  0  0  0
  -24.8938  -32.3362   26.4876 H   0  0  0  0  0  0
  -25.7755  -30.9293   27.0455 H   0  0  0  0  0  0
  -26.2697  -29.6799   24.1458 H   0  0  0  0  0  0
  -27.3412  -29.7183   25.5249 H   0  0  0  0  0  0
  -27.8822  -30.3998   24.0057 H   0  0  0  0  0  0
  -27.2846  -33.3672   26.2055 H   0  0  0  0  0  0
  -28.3909  -32.6696   25.0312 H   0  0  0  0  0  0
  -28.0742  -31.8428   26.5485 H   0  0  0  0  0  0
  -28.2591  -38.0118   24.7569 H   0  0  0  0  0  0
  -28.1116  -36.2664   24.6066 H   0  0  0  0  0  0
  -27.2392  -37.1236   25.8843 H   0  0  0  0  0  0
  -20.9500  -29.8789   21.6773 H   0  0  0  0  0  0
  -26.0158  -38.2873   24.1476 H   0  0  0  0  0  0
  -30.9591  -20.2503   18.6622 H   0  0  0  0  0  0
  -31.1973  -17.8785   18.9694 H   0  0  0  0  0  0
  -27.8954  -20.3837   21.6629 H   0  0  0  0  0  0
  -31.5667  -23.0994   17.4409 H   0  0  0  0  0  0
  -31.7138  -22.5112   19.0898 H   0  0  0  0  0  0
  -31.0840  -24.1207   18.7743 H   0  0  0  0  0  0
  -26.8794  -24.4803   20.0811 H   0  0  0  0  0  0
  -27.9083  -24.6436   18.7126 H   0  0  0  0  0  0
  -29.5838  -21.6274   17.7143 H   0  0  0  0  0  0
  -28.9848  -23.1869   17.7841 H   0  0  0  0  0  0
  -28.8798  -15.7743   21.1960 H   0  0  0  0  0  0
  1 25  1  0  0  0
  1 30  2  0  0  0
  1 81  1  0  0  0
  2  3  1  0  0  0
  2 25  1  0  0  0
  2 85  1  0  0  0
  2 86  1  0  0  0
  3  4  1  0  0  0
  3 87  1  0  0  0
  3 88  1  0  0  0
  4  5  1  0  0  0
  4 89  1  0  0  0
  4 90  1  0  0  0
  5  6  1  0  0  0
  5 26  1  0  0  0
  5 91  1  0  0  0
  6 25  1  0  0  0
  6 92  1  0  0  0
  6 93  1  0  0  0
  7  8  2  0  0  0
  7 26  1  0  0  0
  7 29  1  0  0  0
  8  9  1  0  0  0
  8 22  1  0  0  0
  9 10  1  0  0  0
  9 27  2  0  0  0
 10 11  2  0  0  0
 10 15  1  0  0  0
 11 12  1  0  0  0
 11 94  1  0  0  0
 12 13  2  0  0  0
 12 95  1  0  0  0
 13 14  1  0  0  0
 13 31  1  0  0  0
 14 15  2  0  0  0
 14 96  1  0  0  0
 15 97  1  0  0  0
 16 17  2  0  0  0
 16 21  1  0  0  0
 16 31  1  0  0  0
 17 18  1  0  0  0
 17 98  1  0  0  0
 18 19  2  0  0  0
 18 99  1  0  0  0
 19 20  1  0  0  0
 19 24  1  0  0  0
 20 21  2  0  0  0
 20100  1  0  0  0
 21 23  1  0  0  0
 22 28  1  0  0  0
 22 32  2  0  0  0
 26 27  1  0  0  0
 28101  1  0  0  0
 28102  1  0  0  0
 29103  1  0  0  0
 29104  1  0  0  0
 33 34  1  0  0  0
 33 66  1  0  0  0
 33 70  2  0  0  0
 34 36  1  0  0  0
 34 59  1  0  0  0
 34105  1  0  0  0
 35 44  2  0  0  0
 35 45  1  0  0  0
 35 68  1  0  0  0
 36 56  1  0  0  0
 36106  1  0  0  0
 37 39  1  0  0  0
 37 47  1  0  0  0
 37 66  1  0  0  0
 37107  1  0  0  0
 38 43  2  0  0  0
 38 46  1  0  0  0
 38 47  1  0  0  0
 39 64  1  0  0  0
 39 67  2  0  0  0
 40 52  1  0  0  0
 40 53  2  0  0  0
 40 58  1  0  0  0
 41108  1  0  0  0
 41109  1  0  0  0
 41110  1  0  0  0
 41 48  1  0  0  0
 42 43  1  0  0  0
 42 66  1  0  0  0
 42111  1  0  0  0
 42112  1  0  0  0
 43 44  1  0  0  0
 44113  1  0  0  0
 45 46  2  0  0  0
 45114  1  0  0  0
 46115  1  0  0  0
 47116  1  0  0  0
 47117  1  0  0  0
 48 56  1  0  0  0
 48 65  1  0  0  0
 48118  1  0  0  0
 49 50  1  0  0  0
 49 53  1  0  0  0
 49 64  1  0  0  0
 49119  1  0  0  0
 50 51  1  0  0  0
 50120  1  0  0  0
 50121  1  0  0  0
 51 52  1  0  0  0
 51122  1  0  0  0
 51123  1  0  0  0
 52124  1  0  0  0
 52125  1  0  0  0
 53 54  1  0  0  0
 54 55  2  0  0  0
 54126  1  0  0  0
 55 57  1  0  0  0
 55127  1  0  0  0
 56 69  2  0  0  0
 57 58  2  0  0  0
 57128  1  0  0  0
 58129  1  0  0  0
 59 60  1  0  0  0
 59 61  1  0  0  0
 59 62  1  0  0  0
 60130  1  0  0  0
 60131  1  0  0  0
 60132  1  0  0  0
 61133  1  0  0  0
 61134  1  0  0  0
 61135  1  0  0  0
 62136  1  0  0  0
 62137  1  0  0  0
 62138  1  0  0  0
 63 65  1  0  0  0
 63139  1  0  0  0
 63140  1  0  0  0
 63141  1  0  0  0
 64142  1  0  0  0
 65143  1  0  0  0
 68 79  1  0  0  0
 71 72  2  0  0  0
 71 74  1  0  0  0
 71144  1  0  0  0
 72 75  1  0  0  0
 72145  1  0  0  0
 73 74  2  0  0  0
 73 76  1  0  0  0
 73146  1  0  0  0
 74 82  1  0  0  0
 75 76  2  0  0  0
 75 81  1  0  0  0
 76 84  1  0  0  0
 77 79  1  0  0  0
 77 82  1  0  0  0
 77 83  2  0  0  0
 78 80  1  0  0  0
 78147  1  0  0  0
 78148  1  0  0  0
 78149  1  0  0  0
 79150  1  0  0  0
 79151  1  0  0  0
 80 82  1  0  0  0
 80152  1  0  0  0
 80153  1  0  0  0
 81154  1  0  0  0
M  ISO  4   1 100  68 101  79 101  81 100
M  END
> <chiral flag>
0

> <version>
0

> <s_m_source_file>
/data/baiqing/PycharmProjects/Reinvent-master-3.2/result/LINK_invent/BTK/process_docking_weight1_custom_sum_contain_oxygen_bond_distance_aromatic_linkinvent_7_9_3/rearranged_h_0012.sdf

> <i_m_source_file_index>
40

> <r_mmod_Potential_Energy-OPLS-2005>
572.094604492188

> <r_mmod_Stretch_Energy-OPLS-2005>
247.909210205078

> <r_mmod_Bend_Energy-OPLS-2005>
263.659118652344

> <r_mmod_Torsional_Energy-OPLS-2005>
263.761322021484

> <r_mmod_Improper_Torsional_Energy-OPLS-2005>
4.32688999176025

> <r_mmod_Van_der_Waal_Energy-OPLS-2005>
146.077758789062

> <r_mmod_Electrostatic_Energy-OPLS-2005>
-334.863372802734

> <r_mmod_Solvation_Energy-OPLS-2005>
-221.843963623047

> <b_mmod_Minimization_Converged-OPLS-2005>
0

> <r_mmod_RMS_Derivative-OPLS-2005>
6.30159711837769

$$$$
41
                    3D
 Structure written by MMmdl.
151159  0  0  1  0            999 V2000
  -30.6242  -14.6242   20.5043 C   0  0  0  0  0  0
  -30.4414  -12.3827   19.4496 C   0  0  0  0  0  0
  -29.5085  -12.5046   18.2235 C   0  0  0  0  0  0
  -28.0316  -12.3430   18.6369 C   0  0  0  0  0  0
  -27.6557  -13.2132   19.8659 C   0  0  2  0  0  0
  -28.7005  -13.0548   20.9944 C   0  0  0  0  0  0
  -25.2557  -13.8153   20.5672 C   0  0  0  0  0  0
  -24.1818  -13.0419   20.9156 C   0  0  0  0  0  0
  -24.6392  -11.6893   20.8720 C   0  0  0  0  0  0
  -23.9060  -10.4281   21.0400 C   0  0  0  0  0  0
  -24.3610   -9.4202   21.9185 C   0  0  0  0  0  0
  -23.6289   -8.2238   22.0752 C   0  0  0  0  0  0
  -22.4271   -8.0275   21.3543 C   0  0  0  0  0  0
  -21.9902   -9.0248   20.4650 C   0  0  0  0  0  0
  -22.7228  -10.2129   20.3057 C   0  0  0  0  0  0
  -21.6849   -6.0735   22.5285 C   0  0  0  0  0  0
  -21.4010   -6.5636   23.8218 C   0  0  0  0  0  0
  -21.3659   -5.6788   24.9178 C   0  0  0  0  0  0
  -21.6044   -4.3052   24.7226 C   0  0  0  0  0  0
  -21.8819   -3.8145   23.4347 C   0  0  0  0  0  0
  -21.9191   -4.6964   22.3406 C   0  0  0  0  0  0
  -22.7845  -13.5223   21.1836 C   0  0  0  0  0  0
  -22.1663   -4.2154   21.0984 F   0  0  0  0  0  0
  -21.5629   -3.4533   25.7735 F   0  0  0  0  0  0
  -30.0191  -13.3972   20.4346 N   0  0  0  0  0  0
  -26.2998  -12.9342   20.3337 N   0  0  0  0  0  0
  -25.9325  -11.6496   20.5753 N   0  0  0  0  0  0
  -22.0489  -12.8228   22.0407 N   0  0  0  0  0  0
  -25.4236  -15.1880   20.4147 N   0  0  0  0  0  0
  -31.7818  -14.7950   20.1108 O   0  0  0  0  0  0
  -21.6634   -6.8875   21.4245 O   0  0  0  0  0  0
  -22.3527  -14.5531   20.6691 O   0  0  0  0  0  0
  -24.6258  -31.8616   23.2045 C   0  0  0  0  0  0
  -25.9110  -32.4787   23.8372 C   0  0  1  0  0  0
  -27.2156  -27.3263   20.1061 C   0  0  0  0  0  0
  -25.5927  -33.8585   24.2301 N   0  0  0  0  0  0
  -23.4179  -30.4892   21.5482 C   0  0  2  0  0  0
  -24.8613  -28.9495   20.1095 C   0  0  0  0  0  0
  -22.7471  -29.4639   22.4937 C   0  0  0  0  0  0
  -18.0290  -28.1387   22.8492 C   0  0  0  0  0  0
  -24.1490  -36.7295   23.2636 C   0  0  0  0  0  0
  -25.9603  -30.7947   21.3749 C   0  0  0  0  0  0
  -26.0319  -29.4239   20.7148 C   0  0  0  0  0  0
  -27.2131  -28.6236   20.7041 C   0  0  0  0  0  0
  -26.0199  -26.9088   19.4741 C   0  0  0  0  0  0
  -24.8570  -27.6975   19.4807 C   0  0  0  0  0  0
  -23.6308  -29.8309   20.1608 C   0  0  0  0  0  0
  -25.4109  -36.3088   24.0338 C   0  0  1  0  0  0
  -20.5890  -28.3686   23.1290 C   0  0  2  0  0  0
  -20.6778  -26.9412   22.5410 C   0  0  0  0  0  0
  -19.5747  -26.6393   21.5216 C   0  0  0  0  0  0
  -18.1933  -26.7927   22.1636 C   0  0  0  0  0  0
  -19.1540  -28.8854   23.2891 C   0  0  0  0  0  0
  -18.9459  -30.1457   23.8906 C   0  0  0  0  0  0
  -17.6458  -30.6590   24.0566 C   0  0  0  0  0  0
  -25.9049  -34.9453   23.5120 C   0  0  0  0  0  0
  -16.5351  -29.9091   23.6329 C   0  0  0  0  0  0
  -16.7277  -28.6508   23.0355 C   0  0  0  0  0  0
  -26.4489  -31.6583   25.0731 C   0  0  0  0  0  0
  -25.3726  -31.3736   26.1467 C   0  0  0  0  0  0
  -27.0308  -30.3002   24.6171 C   0  0  0  0  0  0
  -27.6078  -32.4292   25.7483 C   0  0  0  0  0  0
  -27.5583  -37.1799   24.8466 C   0  0  0  0  0  0
  -21.4185  -29.3044   22.3683 N   0  0  0  0  0  0
  -26.4288  -37.3782   23.9418 N   0  0  0  0  0  0
  -24.6871  -31.0641   22.0995 N   0  0  0  0  0  0
  -23.4199  -28.8165   23.3002 O   0  0  0  0  0  0
  -28.3291  -26.4718   20.1556 O   0  0  0  0  0  0
  -26.5612  -34.8914   22.4684 O   0  0  0  0  0  0
  -23.5422  -32.1412   23.7376 O   0  0  0  0  0  0
  -30.9508  -19.2796   20.2034 C   0  0  0  0  0  0
  -31.0074  -17.8569   20.3112 C   0  0  0  0  0  0
  -28.6365  -19.2631   20.8627 C   0  0  0  0  0  0
  -29.7693  -20.0258   20.4730 C   0  0  0  0  0  0
  -29.8732  -17.1028   20.7108 C   0  0  0  0  0  0
  -28.6933  -17.8441   20.9799 C   0  0  0  0  0  0
  -28.8231  -22.4332   20.2980 C   0  0  0  0  0  0
  -29.2033  -23.9663   20.3720 C   0  0  0  0  0  0
  -28.0817  -25.0208   19.9848 C   0  0  0  0  0  0
  -29.8107  -21.4899   20.4054 N   0  0  0  0  0  0
  -29.8119  -15.6549   20.8827 N   0  0  0  0  0  0
  -27.6429  -22.1184   20.1318 O   0  0  0  0  0  0
  -27.5831  -17.1702   21.3664 F   0  0  0  0  0  0
  -31.4823  -12.5091   19.1470 H   0  0  0  0  0  0
  -30.3766  -11.3843   19.8850 H   0  0  0  0  0  0
  -29.7710  -11.7553   17.4755 H   0  0  0  0  0  0
  -29.6516  -13.4754   17.7460 H   0  0  0  0  0  0
  -27.8699  -11.2895   18.8698 H   0  0  0  0  0  0
  -27.3754  -12.5707   17.7956 H   0  0  0  0  0  0
  -27.6764  -14.2502   19.5294 H   0  0  0  0  0  0
  -28.7076  -12.0292   21.3666 H   0  0  0  0  0  0
  -28.4459  -13.6770   21.8535 H   0  0  0  0  0  0
  -25.2759   -9.5681   22.4754 H   0  0  0  0  0  0
  -24.0004   -7.4628   22.7466 H   0  0  0  0  0  0
  -21.0835   -8.8765   19.8958 H   0  0  0  0  0  0
  -22.3687  -10.9665   19.6163 H   0  0  0  0  0  0
  -21.1999   -7.6145   23.9721 H   0  0  0  0  0  0
  -21.1483   -6.0519   25.9082 H   0  0  0  0  0  0
  -22.0598   -2.7608   23.2842 H   0  0  0  0  0  0
  -22.4097  -11.9892   22.4808 H   0  0  0  0  0  0
  -21.1116  -13.1277   22.2623 H   0  0  0  0  0  0
  -24.6617  -15.8381   20.5686 H   0  0  0  0  0  0
  -26.3009  -15.6534   20.2175 H   0  0  0  0  0  0
  -26.7175  -32.5454   23.1119 H   0  0  0  0  0  0
  -25.0062  -33.9728   25.0435 H   0  0  0  0  0  0
  -22.7128  -31.3115   21.4102 H   0  0  0  0  0  0
  -23.3756  -35.9622   23.3283 H   0  0  0  0  0  0
  -24.3592  -36.8923   22.2054 H   0  0  0  0  0  0
  -23.7229  -37.6492   23.6657 H   0  0  0  0  0  0
  -26.0934  -31.5601   20.6086 H   0  0  0  0  0  0
  -26.8407  -30.8409   22.0041 H   0  0  0  0  0  0
  -28.1112  -28.9812   21.1875 H   0  0  0  0  0  0
  -25.9469  -25.9564   18.9714 H   0  0  0  0  0  0
  -23.9603  -27.3326   18.9986 H   0  0  0  0  0  0
  -23.7504  -30.6114   19.4084 H   0  0  0  0  0  0
  -22.7487  -29.2650   19.8566 H   0  0  0  0  0  0
  -25.1281  -36.1946   25.0830 H   0  0  0  0  0  0
  -20.9998  -28.3255   24.1406 H   0  0  0  0  0  0
  -20.5695  -26.2287   23.3604 H   0  0  0  0  0  0
  -21.6643  -26.7452   22.1193 H   0  0  0  0  0  0
  -19.6905  -25.6308   21.1244 H   0  0  0  0  0  0
  -19.6682  -27.3207   20.6747 H   0  0  0  0  0  0
  -17.4198  -26.6678   21.4043 H   0  0  0  0  0  0
  -18.0335  -26.0073   22.9038 H   0  0  0  0  0  0
  -19.7932  -30.7273   24.2283 H   0  0  0  0  0  0
  -17.5012  -31.6271   24.5164 H   0  0  0  0  0  0
  -15.5352  -30.2997   23.7643 H   0  0  0  0  0  0
  -15.8678  -28.0831   22.7065 H   0  0  0  0  0  0
  -24.5858  -30.7139   25.7788 H   0  0  0  0  0  0
  -24.8965  -32.2911   26.4934 H   0  0  0  0  0  0
  -25.8039  -30.8861   27.0217 H   0  0  0  0  0  0
  -26.2866  -29.6765   24.1203 H   0  0  0  0  0  0
  -27.4014  -29.7248   25.4663 H   0  0  0  0  0  0
  -27.8742  -30.4284   23.9381 H   0  0  0  0  0  0
  -27.2739  -33.3614   26.2046 H   0  0  0  0  0  0
  -28.3891  -32.6802   25.0297 H   0  0  0  0  0  0
  -28.0734  -31.8404   26.5396 H   0  0  0  0  0  0
  -28.2598  -38.0099   24.7522 H   0  0  0  0  0  0
  -28.1081  -36.2632   24.6278 H   0  0  0  0  0  0
  -27.2305  -37.1431   25.8869 H   0  0  0  0  0  0
  -20.9354  -29.8774   21.6905 H   0  0  0  0  0  0
  -26.0173  -38.2859   24.1417 H   0  0  0  0  0  0
  -31.8498  -19.8028   19.9079 H   0  0  0  0  0  0
  -31.9406  -17.3593   20.0917 H   0  0  0  0  0  0
  -27.7071  -19.7570   21.1029 H   0  0  0  0  0  0
  -30.0784  -24.1343   19.7452 H   0  0  0  0  0  0
  -29.5213  -24.1642   21.3957 H   0  0  0  0  0  0
  -27.1924  -24.7612   20.5624 H   0  0  0  0  0  0
  -27.8302  -24.8451   18.9378 H   0  0  0  0  0  0
  -30.7409  -21.8850   20.4370 H   0  0  0  0  0  0
  -28.9117  -15.3405   21.2131 H   0  0  0  0  0  0
  1 25  1  0  0  0
  1 30  2  0  0  0
  1 81  1  0  0  0
  2  3  1  0  0  0
  2 25  1  0  0  0
  2 84  1  0  0  0
  2 85  1  0  0  0
  3  4  1  0  0  0
  3 86  1  0  0  0
  3 87  1  0  0  0
  4  5  1  0  0  0
  4 88  1  0  0  0
  4 89  1  0  0  0
  5  6  1  0  0  0
  5 26  1  0  0  0
  5 90  1  0  0  0
  6 25  1  0  0  0
  6 91  1  0  0  0
  6 92  1  0  0  0
  7  8  2  0  0  0
  7 26  1  0  0  0
  7 29  1  0  0  0
  8  9  1  0  0  0
  8 22  1  0  0  0
  9 10  1  0  0  0
  9 27  2  0  0  0
 10 11  2  0  0  0
 10 15  1  0  0  0
 11 12  1  0  0  0
 11 93  1  0  0  0
 12 13  2  0  0  0
 12 94  1  0  0  0
 13 14  1  0  0  0
 13 31  1  0  0  0
 14 15  2  0  0  0
 14 95  1  0  0  0
 15 96  1  0  0  0
 16 17  2  0  0  0
 16 21  1  0  0  0
 16 31  1  0  0  0
 17 18  1  0  0  0
 17 97  1  0  0  0
 18 19  2  0  0  0
 18 98  1  0  0  0
 19 20  1  0  0  0
 19 24  1  0  0  0
 20 21  2  0  0  0
 20 99  1  0  0  0
 21 23  1  0  0  0
 22 28  1  0  0  0
 22 32  2  0  0  0
 26 27  1  0  0  0
 28100  1  0  0  0
 28101  1  0  0  0
 29102  1  0  0  0
 29103  1  0  0  0
 33 34  1  0  0  0
 33 66  1  0  0  0
 33 70  2  0  0  0
 34 36  1  0  0  0
 34 59  1  0  0  0
 34104  1  0  0  0
 35 44  2  0  0  0
 35 45  1  0  0  0
 35 68  1  0  0  0
 36 56  1  0  0  0
 36105  1  0  0  0
 37 39  1  0  0  0
 37 47  1  0  0  0
 37 66  1  0  0  0
 37106  1  0  0  0
 38 43  2  0  0  0
 38 46  1  0  0  0
 38 47  1  0  0  0
 39 64  1  0  0  0
 39 67  2  0  0  0
 40 52  1  0  0  0
 40 53  2  0  0  0
 40 58  1  0  0  0
 41107  1  0  0  0
 41108  1  0  0  0
 41109  1  0  0  0
 41 48  1  0  0  0
 42 43  1  0  0  0
 42 66  1  0  0  0
 42110  1  0  0  0
 42111  1  0  0  0
 43 44  1  0  0  0
 44112  1  0  0  0
 45 46  2  0  0  0
 45113  1  0  0  0
 46114  1  0  0  0
 47115  1  0  0  0
 47116  1  0  0  0
 48 56  1  0  0  0
 48 65  1  0  0  0
 48117  1  0  0  0
 49 50  1  0  0  0
 49 53  1  0  0  0
 49 64  1  0  0  0
 49118  1  0  0  0
 50 51  1  0  0  0
 50119  1  0  0  0
 50120  1  0  0  0
 51 52  1  0  0  0
 51121  1  0  0  0
 51122  1  0  0  0
 52123  1  0  0  0
 52124  1  0  0  0
 53 54  1  0  0  0
 54 55  2  0  0  0
 54125  1  0  0  0
 55 57  1  0  0  0
 55126  1  0  0  0
 56 69  2  0  0  0
 57 58  2  0  0  0
 57127  1  0  0  0
 58128  1  0  0  0
 59 60  1  0  0  0
 59 61  1  0  0  0
 59 62  1  0  0  0
 60129  1  0  0  0
 60130  1  0  0  0
 60131  1  0  0  0
 61132  1  0  0  0
 61133  1  0  0  0
 61134  1  0  0  0
 62135  1  0  0  0
 62136  1  0  0  0
 62137  1  0  0  0
 63 65  1  0  0  0
 63138  1  0  0  0
 63139  1  0  0  0
 63140  1  0  0  0
 64141  1  0  0  0
 65142  1  0  0  0
 68 79  1  0  0  0
 71 72  2  0  0  0
 71 74  1  0  0  0
 71143  1  0  0  0
 72 75  1  0  0  0
 72144  1  0  0  0
 73 74  2  0  0  0
 73 76  1  0  0  0
 73145  1  0  0  0
 74 80  1  0  0  0
 75 76  2  0  0  0
 75 81  1  0  0  0
 76 83  1  0  0  0
 77 78  1  0  0  0
 77 80  1  0  0  0
 77 82  2  0  0  0
 78 79  1  0  0  0
 78146  1  0  0  0
 78147  1  0  0  0
 79148  1  0  0  0
 79149  1  0  0  0
 80150  1  0  0  0
 81151  1  0  0  0
M  ISO  4   1 100  68 101  79 101  81 100
M  END
> <chiral flag>
0

> <version>
0

> <s_m_source_file>
/data/baiqing/PycharmProjects/Reinvent-master-3.2/result/LINK_invent/BTK/process_docking_weight1_custom_sum_contain_oxygen_bond_distance_aromatic_linkinvent_7_9_3/rearranged_h_0012.sdf

> <i_m_source_file_index>
41

> <r_mmod_Potential_Energy-OPLS-2005>
-42.3102340698242

> <r_mmod_Stretch_Energy-OPLS-2005>
73.474479675293

> <r_mmod_Bend_Energy-OPLS-2005>
137.113388061523

> <r_mmod_Torsional_Energy-OPLS-2005>
218.337249755859

> <r_mmod_Improper_Torsional_Energy-OPLS-2005>
4.02269601821899

> <r_mmod_Van_der_Waal_Energy-OPLS-2005>
148.6728515625

> <r_mmod_Electrostatic_Energy-OPLS-2005>
-448.560668945312

> <r_mmod_Solvation_Energy-OPLS-2005>
-220.761657714844

> <b_mmod_Minimization_Converged-OPLS-2005>
0

> <r_mmod_RMS_Derivative-OPLS-2005>
1.14069616794586

$$$$
42
                    3D
 Structure written by MMmdl.
166174  0  0  1  0            999 V2000
  -30.7176  -14.3943   20.6215 C   0  0  0  0  0  0
  -30.4208  -12.2749   19.4026 C   0  0  0  0  0  0
  -29.4895  -12.5170   18.1973 C   0  0  0  0  0  0
  -28.0098  -12.3835   18.6083 C   0  0  0  0  0  0
  -27.6677  -13.1988   19.8837 C   0  0  2  0  0  0
  -28.7047  -12.9233   20.9955 C   0  0  0  0  0  0
  -25.2617  -13.8152   20.5680 C   0  0  0  0  0  0
  -24.1853  -13.0439   20.9163 C   0  0  0  0  0  0
  -24.6393  -11.6900   20.8721 C   0  0  0  0  0  0
  -23.9054  -10.4291   21.0398 C   0  0  0  0  0  0
  -24.3608   -9.4210   21.9178 C   0  0  0  0  0  0
  -23.6288   -8.2244   22.0751 C   0  0  0  0  0  0
  -22.4270   -8.0280   21.3542 C   0  0  0  0  0  0
  -21.9902   -9.0250   20.4643 C   0  0  0  0  0  0
  -22.7226  -10.2131   20.3050 C   0  0  0  0  0  0
  -21.6855   -6.0735   22.5279 C   0  0  0  0  0  0
  -21.4013   -6.5638   23.8211 C   0  0  0  0  0  0
  -21.3658   -5.6792   24.9174 C   0  0  0  0  0  0
  -21.6048   -4.3056   24.7225 C   0  0  0  0  0  0
  -21.8818   -3.8146   23.4347 C   0  0  0  0  0  0
  -21.9191   -4.6963   22.3403 C   0  0  0  0  0  0
  -22.7877  -13.5243   21.1834 C   0  0  0  0  0  0
  -22.1662   -4.2150   21.0981 F   0  0  0  0  0  0
  -21.5629   -3.4539   25.7736 F   0  0  0  0  0  0
  -30.0471  -13.2245   20.4602 N   0  0  0  0  0  0
  -26.3051  -12.9306   20.3391 N   0  0  0  0  0  0
  -25.9316  -11.6469   20.5755 N   0  0  0  0  0  0
  -22.0517  -12.8232   22.0390 N   0  0  0  0  0  0
  -25.4366  -15.1870   20.4113 N   0  0  0  0  0  0
  -31.8007  -14.6299   20.0767 O   0  0  0  0  0  0
  -21.6638   -6.8876   21.4242 O   0  0  0  0  0  0
  -22.3560  -14.5553   20.6695 O   0  0  0  0  0  0
  -24.6103  -31.8697   23.2114 C   0  0  0  0  0  0
  -25.9011  -32.4834   23.8390 C   0  0  1  0  0  0
  -27.2405  -27.4705   20.0901 C   0  0  0  0  0  0
  -25.5885  -33.8630   24.2328 N   0  0  0  0  0  0
  -23.3961  -30.4922   21.5513 C   0  0  2  0  0  0
  -24.8414  -28.9566   20.1189 C   0  0  0  0  0  0
  -22.7385  -29.4658   22.5005 C   0  0  0  0  0  0
  -18.0266  -28.1385   22.8480 C   0  0  0  0  0  0
  -24.1490  -36.7317   23.2639 C   0  0  0  0  0  0
  -25.9193  -30.8476   21.3552 C   0  0  0  0  0  0
  -25.9979  -29.4831   20.7059 C   0  0  0  0  0  0
  -27.1998  -28.7481   20.6838 C   0  0  0  0  0  0
  -26.0655  -26.9399   19.5116 C   0  0  0  0  0  0
  -24.8681  -27.6822   19.5215 C   0  0  0  0  0  0
  -23.6021  -29.8203   20.1666 C   0  0  0  0  0  0
  -25.4111  -36.3116   24.0343 C   0  0  1  0  0  0
  -20.5851  -28.3652   23.1338 C   0  0  2  0  0  0
  -20.6762  -26.9398   22.5423 C   0  0  0  0  0  0
  -19.5743  -26.6389   21.5216 C   0  0  0  0  0  0
  -18.1917  -26.7928   22.1620 C   0  0  0  0  0  0
  -19.1515  -28.8834   23.2907 C   0  0  0  0  0  0
  -18.9447  -30.1440   23.8916 C   0  0  0  0  0  0
  -17.6453  -30.6585   24.0566 C   0  0  0  0  0  0
  -25.9036  -34.9481   23.5134 C   0  0  0  0  0  0
  -16.5343  -29.9091   23.6325 C   0  0  0  0  0  0
  -16.7257  -28.6517   23.0329 C   0  0  0  0  0  0
  -26.4453  -31.6600   25.0703 C   0  0  0  0  0  0
  -25.3728  -31.3698   26.1456 C   0  0  0  0  0  0
  -27.0280  -30.3058   24.6033 C   0  0  0  0  0  0
  -27.6032  -32.4306   25.7465 C   0  0  0  0  0  0
  -27.5579  -37.1812   24.8465 C   0  0  0  0  0  0
  -21.4116  -29.3023   22.3749 N   0  0  0  0  0  0
  -26.4297  -37.3797   23.9406 N   0  0  0  0  0  0
  -24.6603  -31.0831   22.0989 N   0  0  0  0  0  0
  -23.4180  -28.8199   23.3027 O   0  0  0  0  0  0
  -28.4426  -26.8089   20.0680 O   0  0  0  0  0  0
  -26.5594  -34.8927   22.4694 O   0  0  0  0  0  0
  -23.5304  -32.1424   23.7537 O   0  0  0  0  0  0
  -29.2907  -18.8154   22.3090 C   0  0  0  0  0  0
  -30.8675  -17.4474   20.4280 C   0  0  0  0  0  0
  -29.3274  -17.4048   22.3220 C   0  0  0  0  0  0
  -30.0497  -19.5454   21.3714 C   0  0  0  0  0  0
  -30.1230  -16.7063   21.3796 C   0  0  0  0  0  0
  -30.8323  -18.8526   20.4245 C   0  0  0  0  0  0
  -30.8791  -21.6270   22.0528 C   0  0  0  0  0  0
  -30.8822  -23.1541   21.9369 C   0  0  0  0  0  0
  -28.5011  -16.6539   23.3545 C   0  0  0  0  0  0
  -33.3881  -21.2368   22.5511 C   0  0  0  0  0  0
  -31.7103  -21.3560   24.4844 C   0  0  0  0  0  0
  -29.8510  -25.0268   20.6820 C   0  0  0  0  0  0
  -28.4313  -25.3982   20.2353 C   0  0  0  0  0  0
  -31.9355  -20.9910   23.0039 C   0  0  0  0  0  0
  -30.0295  -20.9410   21.3732 N   0  0  0  0  0  0
  -30.0895  -15.2817   21.4084 N   0  0  0  0  0  0
  -29.9805  -23.6238   21.0611 N   0  0  0  0  0  0
  -31.6496  -23.8900   22.5637 O   0  0  0  0  0  0
  -31.5595  -19.5400   19.5094 F   0  0  0  0  0  0
  -31.4652  -12.3732   19.1011 H   0  0  0  0  0  0
  -30.3145  -11.2520   19.7669 H   0  0  0  0  0  0
  -29.7185  -11.8127   17.3968 H   0  0  0  0  0  0
  -29.6681  -13.5125   17.7876 H   0  0  0  0  0  0
  -27.8066  -11.3256   18.7800 H   0  0  0  0  0  0
  -27.3621  -12.6863   17.7849 H   0  0  0  0  0  0
  -27.7301  -14.2547   19.6195 H   0  0  0  0  0  0
  -28.6661  -11.8737   21.2908 H   0  0  0  0  0  0
  -28.4572  -13.4770   21.9015 H   0  0  0  0  0  0
  -25.2756   -9.5689   22.4747 H   0  0  0  0  0  0
  -24.0001   -7.4637   22.7469 H   0  0  0  0  0  0
  -21.0835   -8.8763   19.8950 H   0  0  0  0  0  0
  -22.3684  -10.9667   19.6155 H   0  0  0  0  0  0
  -21.2006   -7.6144   23.9715 H   0  0  0  0  0  0
  -21.1483   -6.0522   25.9077 H   0  0  0  0  0  0
  -22.0600   -2.7608   23.2846 H   0  0  0  0  0  0
  -22.4125  -11.9882   22.4761 H   0  0  0  0  0  0
  -21.1138  -13.1258   22.2603 H   0  0  0  0  0  0
  -24.6739  -15.8462   20.5209 H   0  0  0  0  0  0
  -26.2978  -15.6246   20.1078 H   0  0  0  0  0  0
  -26.7084  -32.5562   23.1157 H   0  0  0  0  0  0
  -25.0029  -33.9794   25.0466 H   0  0  0  0  0  0
  -22.6831  -31.3071   21.4117 H   0  0  0  0  0  0
  -23.3745  -35.9655   23.3319 H   0  0  0  0  0  0
  -24.3580  -36.8911   22.2049 H   0  0  0  0  0  0
  -23.7246  -37.6533   23.6637 H   0  0  0  0  0  0
  -26.0203  -31.6128   20.5840 H   0  0  0  0  0  0
  -26.8126  -30.9063   21.9662 H   0  0  0  0  0  0
  -28.0994  -29.1562   21.1233 H   0  0  0  0  0  0
  -26.0723  -25.9691   19.0375 H   0  0  0  0  0  0
  -23.9773  -27.2701   19.0675 H   0  0  0  0  0  0
  -23.7082  -30.5927   19.4040 H   0  0  0  0  0  0
  -22.7272  -29.2376   19.8730 H   0  0  0  0  0  0
  -25.1285  -36.1989   25.0840 H   0  0  0  0  0  0
  -20.9937  -28.3214   24.1461 H   0  0  0  0  0  0
  -20.5680  -26.2256   23.3599 H   0  0  0  0  0  0
  -21.6631  -26.7453   22.1207 H   0  0  0  0  0  0
  -19.6918  -25.6311   21.1221 H   0  0  0  0  0  0
  -19.6700  -27.3216   20.6762 H   0  0  0  0  0  0
  -17.4193  -26.6669   21.4022 H   0  0  0  0  0  0
  -18.0319  -26.0074   22.9023 H   0  0  0  0  0  0
  -19.7931  -30.7244   24.2293 H   0  0  0  0  0  0
  -17.5018  -31.6267   24.5162 H   0  0  0  0  0  0
  -15.5349  -30.3005   23.7649 H   0  0  0  0  0  0
  -15.8654  -28.0860   22.7016 H   0  0  0  0  0  0
  -24.5893  -30.7060   25.7781 H   0  0  0  0  0  0
  -24.8926  -32.2859   26.4911 H   0  0  0  0  0  0
  -25.8078  -30.8849   27.0203 H   0  0  0  0  0  0
  -26.2811  -29.6833   24.1093 H   0  0  0  0  0  0
  -27.4092  -29.7273   25.4454 H   0  0  0  0  0  0
  -27.8620  -30.4403   23.9140 H   0  0  0  0  0  0
  -27.2653  -33.3588   26.2082 H   0  0  0  0  0  0
  -28.3824  -32.6891   25.0283 H   0  0  0  0  0  0
  -28.0722  -31.8407   26.5351 H   0  0  0  0  0  0
  -28.2600  -38.0104   24.7498 H   0  0  0  0  0  0
  -28.1071  -36.2632   24.6307 H   0  0  0  0  0  0
  -27.2295  -37.1482   25.8869 H   0  0  0  0  0  0
  -20.9274  -29.8742   21.6972 H   0  0  0  0  0  0
  -26.0194  -38.2879   24.1401 H   0  0  0  0  0  0
  -28.6834  -19.3452   23.0296 H   0  0  0  0  0  0
  -31.4723  -16.9692   19.6745 H   0  0  0  0  0  0
  -28.0077  -17.3376   24.0453 H   0  0  0  0  0  0
  -29.1335  -15.9905   23.9456 H   0  0  0  0  0  0
  -27.7279  -16.0574   22.8693 H   0  0  0  0  0  0
  -33.5350  -20.9285   21.5152 H   0  0  0  0  0  0
  -34.0854  -20.6627   23.1618 H   0  0  0  0  0  0
  -33.6781  -22.2842   22.6328 H   0  0  0  0  0  0
  -30.6955  -21.1095   24.8003 H   0  0  0  0  0  0
  -31.8744  -22.4154   24.6811 H   0  0  0  0  0  0
  -32.3926  -20.8012   25.1289 H   0  0  0  0  0  0
  -30.1265  -25.6659   21.5239 H   0  0  0  0  0  0
  -30.5613  -25.2447   19.8831 H   0  0  0  0  0  0
  -27.7064  -25.1055   20.9977 H   0  0  0  0  0  0
  -28.1710  -24.8978   19.3016 H   0  0  0  0  0  0
  -31.8360  -19.9081   22.9872 H   0  0  0  0  0  0
  -29.3290  -14.8842   21.9365 H   0  0  0  0  0  0
  -29.4086  -22.9260   20.5993 H   0  0  0  0  0  0
  1 25  1  0  0  0
  1 30  2  0  0  0
  1 86  1  0  0  0
  2  3  1  0  0  0
  2 25  1  0  0  0
  2 90  1  0  0  0
  2 91  1  0  0  0
  3  4  1  0  0  0
  3 92  1  0  0  0
  3 93  1  0  0  0
  4  5  1  0  0  0
  4 94  1  0  0  0
  4 95  1  0  0  0
  5  6  1  0  0  0
  5 26  1  0  0  0
  5 96  1  0  0  0
  6 25  1  0  0  0
  6 97  1  0  0  0
  6 98  1  0  0  0
  7  8  2  0  0  0
  7 26  1  0  0  0
  7 29  1  0  0  0
  8  9  1  0  0  0
  8 22  1  0  0  0
  9 10  1  0  0  0
  9 27  2  0  0  0
 10 11  2  0  0  0
 10 15  1  0  0  0
 11 12  1  0  0  0
 11 99  1  0  0  0
 12 13  2  0  0  0
 12100  1  0  0  0
 13 14  1  0  0  0
 13 31  1  0  0  0
 14 15  2  0  0  0
 14101  1  0  0  0
 15102  1  0  0  0
 16 17  2  0  0  0
 16 21  1  0  0  0
 16 31  1  0  0  0
 17 18  1  0  0  0
 17103  1  0  0  0
 18 19  2  0  0  0
 18104  1  0  0  0
 19 20  1  0  0  0
 19 24  1  0  0  0
 20 21  2  0  0  0
 20105  1  0  0  0
 21 23  1  0  0  0
 22 28  1  0  0  0
 22 32  2  0  0  0
 26 27  1  0  0  0
 28106  1  0  0  0
 28107  1  0  0  0
 29108  1  0  0  0
 29109  1  0  0  0
 33 34  1  0  0  0
 33 66  1  0  0  0
 33 70  2  0  0  0
 34 36  1  0  0  0
 34 59  1  0  0  0
 34110  1  0  0  0
 35 44  2  0  0  0
 35 45  1  0  0  0
 35 68  1  0  0  0
 36 56  1  0  0  0
 36111  1  0  0  0
 37 39  1  0  0  0
 37 47  1  0  0  0
 37 66  1  0  0  0
 37112  1  0  0  0
 38 43  2  0  0  0
 38 46  1  0  0  0
 38 47  1  0  0  0
 39 64  1  0  0  0
 39 67  2  0  0  0
 40 52  1  0  0  0
 40 53  2  0  0  0
 40 58  1  0  0  0
 41113  1  0  0  0
 41114  1  0  0  0
 41115  1  0  0  0
 41 48  1  0  0  0
 42 43  1  0  0  0
 42 66  1  0  0  0
 42116  1  0  0  0
 42117  1  0  0  0
 43 44  1  0  0  0
 44118  1  0  0  0
 45 46  2  0  0  0
 45119  1  0  0  0
 46120  1  0  0  0
 47121  1  0  0  0
 47122  1  0  0  0
 48 56  1  0  0  0
 48 65  1  0  0  0
 48123  1  0  0  0
 49 50  1  0  0  0
 49 53  1  0  0  0
 49 64  1  0  0  0
 49124  1  0  0  0
 50 51  1  0  0  0
 50125  1  0  0  0
 50126  1  0  0  0
 51 52  1  0  0  0
 51127  1  0  0  0
 51128  1  0  0  0
 52129  1  0  0  0
 52130  1  0  0  0
 53 54  1  0  0  0
 54 55  2  0  0  0
 54131  1  0  0  0
 55 57  1  0  0  0
 55132  1  0  0  0
 56 69  2  0  0  0
 57 58  2  0  0  0
 57133  1  0  0  0
 58134  1  0  0  0
 59 60  1  0  0  0
 59 61  1  0  0  0
 59 62  1  0  0  0
 60135  1  0  0  0
 60136  1  0  0  0
 60137  1  0  0  0
 61138  1  0  0  0
 61139  1  0  0  0
 61140  1  0  0  0
 62141  1  0  0  0
 62142  1  0  0  0
 62143  1  0  0  0
 63 65  1  0  0  0
 63144  1  0  0  0
 63145  1  0  0  0
 63146  1  0  0  0
 64147  1  0  0  0
 65148  1  0  0  0
 68 83  1  0  0  0
 71 73  2  0  0  0
 71 74  1  0  0  0
 71149  1  0  0  0
 72 75  2  0  0  0
 72 76  1  0  0  0
 72150  1  0  0  0
 73 75  1  0  0  0
 73 79  1  0  0  0
 74 76  2  0  0  0
 74 85  1  0  0  0
 75 86  1  0  0  0
 76 89  1  0  0  0
 77 78  1  0  0  0
 77 84  1  0  0  0
 77 85  2  0  0  0
 78 87  1  0  0  0
 78 88  2  0  0  0
 79151  1  0  0  0
 79152  1  0  0  0
 79153  1  0  0  0
 80154  1  0  0  0
 80155  1  0  0  0
 80156  1  0  0  0
 80 84  1  0  0  0
 81 84  1  0  0  0
 81157  1  0  0  0
 81158  1  0  0  0
 81159  1  0  0  0
 82 83  1  0  0  0
 82 87  1  0  0  0
 82160  1  0  0  0
 82161  1  0  0  0
 83162  1  0  0  0
 83163  1  0  0  0
 84164  1  0  0  0
 86165  1  0  0  0
 87166  1  0  0  0
M  ISO  4   1 100  68 101  83 101  86 100
M  END
> <chiral flag>
0

> <version>
0

> <s_m_source_file>
/data/baiqing/PycharmProjects/Reinvent-master-3.2/result/LINK_invent/BTK/process_docking_weight1_custom_sum_contain_oxygen_bond_distance_aromatic_linkinvent_7_9_3/rearranged_h_0012.sdf

> <i_m_source_file_index>
42

> <r_mmod_Potential_Energy-OPLS-2005>
-15.9869747161865

> <r_mmod_Stretch_Energy-OPLS-2005>
38.7602119445801

> <r_mmod_Bend_Energy-OPLS-2005>
108.961578369141

> <r_mmod_Torsional_Energy-OPLS-2005>
233.140884399414

> <r_mmod_Improper_Torsional_Energy-OPLS-2005>
2.85128474235535

> <r_mmod_Van_der_Waal_Energy-OPLS-2005>
174.886459350586

> <r_mmod_Electrostatic_Energy-OPLS-2005>
-364.929718017578

> <r_mmod_Solvation_Energy-OPLS-2005>
-217.645629882812

> <b_mmod_Minimization_Converged-OPLS-2005>
0

> <r_mmod_RMS_Derivative-OPLS-2005>
0.941573262214661

$$$$
43
                    3D
 Structure written by MMmdl.
148156  0  0  1  0            999 V2000
  -30.5203  -15.0498   20.4092 C   0  0  0  0  0  0
  -30.4381  -12.6579   19.5057 C   0  0  0  0  0  0
  -29.5236  -12.5408   18.2641 C   0  0  0  0  0  0
  -28.0620  -12.3082   18.6875 C   0  0  0  0  0  0
  -27.6225  -13.2580   19.8316 C   0  0  2  0  0  0
  -28.6642  -13.3403   20.9675 C   0  0  0  0  0  0
  -25.2432  -13.8229   20.5726 C   0  0  0  0  0  0
  -24.1765  -13.0438   20.9244 C   0  0  0  0  0  0
  -24.6397  -11.6929   20.8762 C   0  0  0  0  0  0
  -23.9086  -10.4293   21.0409 C   0  0  0  0  0  0
  -24.3632   -9.4206   21.9186 C   0  0  0  0  0  0
  -23.6302   -8.2243   22.0755 C   0  0  0  0  0  0
  -22.4284   -8.0283   21.3544 C   0  0  0  0  0  0
  -21.9924   -9.0258   20.4646 C   0  0  0  0  0  0
  -22.7258  -10.2135   20.3057 C   0  0  0  0  0  0
  -21.6855   -6.0738   22.5279 C   0  0  0  0  0  0
  -21.4016   -6.5641   23.8213 C   0  0  0  0  0  0
  -21.3659   -5.6793   24.9174 C   0  0  0  0  0  0
  -21.6044   -4.3056   24.7225 C   0  0  0  0  0  0
  -21.8818   -3.8149   23.4345 C   0  0  0  0  0  0
  -21.9194   -4.6966   22.3402 C   0  0  0  0  0  0
  -22.7783  -13.5200   21.1893 C   0  0  0  0  0  0
  -22.1662   -4.2151   21.0979 F   0  0  0  0  0  0
  -21.5628   -3.4540   25.7737 F   0  0  0  0  0  0
  -29.9246  -13.7796   20.3541 N   0  0  0  0  0  0
  -26.2858  -12.9479   20.3236 N   0  0  0  0  0  0
  -25.9331  -11.6599   20.5739 N   0  0  0  0  0  0
  -22.0439  -12.8182   22.0447 N   0  0  0  0  0  0
  -25.4065  -15.1961   20.4147 N   0  0  0  0  0  0
  -31.7300  -15.0656   20.1557 O   0  0  0  0  0  0
  -21.6644   -6.8882   21.4241 O   0  0  0  0  0  0
  -22.3462  -14.5501   20.6735 O   0  0  0  0  0  0
  -24.6503  -31.8372   23.1823 C   0  0  0  0  0  0
  -25.9244  -32.4658   23.8238 C   0  0  1  0  0  0
  -27.2148  -27.0635   20.1620 C   0  0  0  0  0  0
  -25.5964  -33.8466   24.2150 N   0  0  0  0  0  0
  -23.4576  -30.4546   21.5291 C   0  0  2  0  0  0
  -24.9083  -28.8690   20.1097 C   0  0  0  0  0  0
  -22.7603  -29.4512   22.4830 C   0  0  0  0  0  0
  -18.0310  -28.1404   22.8474 C   0  0  0  0  0  0
  -24.1491  -36.7238   23.2644 C   0  0  0  0  0  0
  -26.0188  -30.6879   21.3919 C   0  0  0  0  0  0
  -26.0887  -29.2919   20.7339 C   0  0  0  0  0  0
  -27.2416  -28.4071   20.7402 C   0  0  0  0  0  0
  -26.0076  -26.7619   19.4931 C   0  0  0  0  0  0
  -24.8851  -27.6202   19.4717 C   0  0  0  0  0  0
  -23.6886  -29.7804   20.1502 C   0  0  0  0  0  0
  -25.4127  -36.3009   24.0309 C   0  0  1  0  0  0
  -20.5927  -28.3735   23.1218 C   0  0  2  0  0  0
  -20.6792  -26.9430   22.5403 C   0  0  0  0  0  0
  -19.5764  -26.6382   21.5213 C   0  0  0  0  0  0
  -18.1946  -26.7940   22.1624 C   0  0  0  0  0  0
  -19.1569  -28.8889   23.2836 C   0  0  0  0  0  0
  -18.9483  -30.1483   23.8865 C   0  0  0  0  0  0
  -17.6479  -30.6597   24.0560 C   0  0  0  0  0  0
  -25.9084  -34.9387   23.5042 C   0  0  0  0  0  0
  -16.5369  -29.9088   23.6341 C   0  0  0  0  0  0
  -16.7293  -28.6508   23.0361 C   0  0  0  0  0  0
  -26.4542  -31.6554   25.0711 C   0  0  0  0  0  0
  -25.3705  -31.3767   26.1392 C   0  0  0  0  0  0
  -27.0420  -30.2940   24.6345 C   0  0  0  0  0  0
  -27.6055  -32.4339   25.7504 C   0  0  0  0  0  0
  -27.5571  -37.1779   24.8467 C   0  0  0  0  0  0
  -21.4287  -29.3049   22.3582 N   0  0  0  0  0  0
  -26.4284  -37.3730   23.9406 N   0  0  0  0  0  0
  -24.7293  -31.0164   22.0889 N   0  0  0  0  0  0
  -23.4214  -28.8065   23.3010 O   0  0  0  0  0  0
  -28.2385  -26.0254   20.2417 O   0  0  0  0  0  0
  -26.5676  -34.8898   22.4626 O   0  0  0  0  0  0
  -23.5606  -32.1278   23.7003 O   0  0  0  0  0  0
  -30.8423  -20.6091   21.0816 C   0  0  0  0  0  0
  -31.6628  -19.5072   21.4061 C   0  0  0  0  0  0
  -29.5504  -20.4670   20.5271 C   0  0  0  0  0  0
  -30.0508  -17.7991   20.6225 C   0  0  0  0  0  0
  -31.2901  -18.1609   21.2047 C   0  0  0  0  0  0
  -29.1924  -19.0096   20.3123 C   0  0  0  0  0  0
  -28.9731  -23.2087   20.4064 C   0  0  0  0  0  0
  -27.9169  -24.4779   20.0514 C   0  0  0  0  0  0
  -28.7345  -21.7833   20.2506 N   0  0  0  0  0  0
  -29.7423  -16.2673   20.4803 N   0  0  0  0  0  0
  -30.0647  -23.5785   20.8439 O   0  0  0  0  0  0
  -32.1502  -17.2125   21.6418 F   0  0  0  0  0  0
  -27.6315  -18.6912   19.6466 Cl  0  0  0  0  0  0
  -31.4678  -12.8246   19.1863 H   0  0  0  0  0  0
  -30.4520  -11.7229   20.0681 H   0  0  0  0  0  0
  -29.8613  -11.7295   17.6179 H   0  0  0  0  0  0
  -29.5929  -13.4547   17.6720 H   0  0  0  0  0  0
  -27.9790  -11.2726   19.0195 H   0  0  0  0  0  0
  -27.3955  -12.4077   17.8301 H   0  0  0  0  0  0
  -27.5675  -14.2474   19.3767 H   0  0  0  0  0  0
  -28.7784  -12.3803   21.4732 H   0  0  0  0  0  0
  -28.3461  -14.0567   21.7267 H   0  0  0  0  0  0
  -25.2774   -9.5681   22.4766 H   0  0  0  0  0  0
  -24.0009   -7.4633   22.7475 H   0  0  0  0  0  0
  -21.0856   -8.8781   19.8950 H   0  0  0  0  0  0
  -22.3717  -10.9676   19.6168 H   0  0  0  0  0  0
  -21.2009   -7.6150   23.9716 H   0  0  0  0  0  0
  -21.1482   -6.0524   25.9077 H   0  0  0  0  0  0
  -22.0597   -2.7611   23.2845 H   0  0  0  0  0  0
  -22.4069  -11.9850   22.4837 H   0  0  0  0  0  0
  -21.1050  -13.1190   22.2650 H   0  0  0  0  0  0
  -24.6316  -15.8410   20.5253 H   0  0  0  0  0  0
  -26.2390  -15.6421   20.0542 H   0  0  0  0  0  0
  -26.7310  -32.5241   23.0960 H   0  0  0  0  0  0
  -25.0084  -33.9567   25.0281 H   0  0  0  0  0  0
  -22.7640  -31.2828   21.3699 H   0  0  0  0  0  0
  -23.3758  -35.9563   23.3291 H   0  0  0  0  0  0
  -24.3571  -36.8890   22.2061 H   0  0  0  0  0  0
  -23.7243  -37.6426   23.6698 H   0  0  0  0  0  0
  -26.1835  -31.4382   20.6172 H   0  0  0  0  0  0
  -26.8855  -30.7401   22.0389 H   0  0  0  0  0  0
  -28.1377  -28.7251   21.2543 H   0  0  0  0  0  0
  -25.8939  -25.8080   19.0007 H   0  0  0  0  0  0
  -23.9855  -27.2919   18.9691 H   0  0  0  0  0  0
  -23.8322  -30.5536   19.3945 H   0  0  0  0  0  0
  -22.8011  -29.2279   19.8365 H   0  0  0  0  0  0
  -25.1321  -36.1823   25.0801 H   0  0  0  0  0  0
  -21.0019  -28.3330   24.1340 H   0  0  0  0  0  0
  -20.5680  -26.2350   23.3630 H   0  0  0  0  0  0
  -21.6657  -26.7426   22.1205 H   0  0  0  0  0  0
  -19.6923  -25.6284   21.1264 H   0  0  0  0  0  0
  -19.6701  -27.3176   20.6729 H   0  0  0  0  0  0
  -17.4215  -26.6683   21.4027 H   0  0  0  0  0  0
  -18.0344  -26.0090   22.9029 H   0  0  0  0  0  0
  -19.7958  -30.7310   24.2218 H   0  0  0  0  0  0
  -17.5031  -31.6273   24.5169 H   0  0  0  0  0  0
  -15.5369  -30.2982   23.7684 H   0  0  0  0  0  0
  -15.8693  -28.0818   22.7094 H   0  0  0  0  0  0
  -24.5897  -30.7099   25.7715 H   0  0  0  0  0  0
  -24.8881  -32.2956   26.4731 H   0  0  0  0  0  0
  -25.7973  -30.9001   27.0225 H   0  0  0  0  0  0
  -26.3057  -29.6645   24.1335 H   0  0  0  0  0  0
  -27.3988  -29.7263   25.4949 H   0  0  0  0  0  0
  -27.8982  -30.4158   23.9708 H   0  0  0  0  0  0
  -27.2635  -33.3668   26.1996 H   0  0  0  0  0  0
  -28.3912  -32.6852   25.0368 H   0  0  0  0  0  0
  -28.0668  -31.8521   26.5494 H   0  0  0  0  0  0
  -28.2585  -38.0079   24.7508 H   0  0  0  0  0  0
  -28.1072  -36.2607   24.6304 H   0  0  0  0  0  0
  -27.2287  -37.1435   25.8870 H   0  0  0  0  0  0
  -20.9511  -29.8757   21.6748 H   0  0  0  0  0  0
  -26.0142  -38.2794   24.1411 H   0  0  0  0  0  0
  -31.2473  -21.5835   21.2980 H   0  0  0  0  0  0
  -32.6262  -19.7032   21.8537 H   0  0  0  0  0  0
  -27.0101  -24.2725   20.6209 H   0  0  0  0  0  0
  -27.6433  -24.3408   19.0054 H   0  0  0  0  0  0
  -27.8133  -21.5991   19.8759 H   0  0  0  0  0  0
  -28.7539  -16.0763   20.4504 H   0  0  0  0  0  0
  1 25  1  0  0  0
  1 30  2  0  0  0
  1 80  1  0  0  0
  2  3  1  0  0  0
  2 25  1  0  0  0
  2 84  1  0  0  0
  2 85  1  0  0  0
  3  4  1  0  0  0
  3 86  1  0  0  0
  3 87  1  0  0  0
  4  5  1  0  0  0
  4 88  1  0  0  0
  4 89  1  0  0  0
  5  6  1  0  0  0
  5 26  1  0  0  0
  5 90  1  0  0  0
  6 25  1  0  0  0
  6 91  1  0  0  0
  6 92  1  0  0  0
  7  8  2  0  0  0
  7 26  1  0  0  0
  7 29  1  0  0  0
  8  9  1  0  0  0
  8 22  1  0  0  0
  9 10  1  0  0  0
  9 27  2  0  0  0
 10 11  2  0  0  0
 10 15  1  0  0  0
 11 12  1  0  0  0
 11 93  1  0  0  0
 12 13  2  0  0  0
 12 94  1  0  0  0
 13 14  1  0  0  0
 13 31  1  0  0  0
 14 15  2  0  0  0
 14 95  1  0  0  0
 15 96  1  0  0  0
 16 17  2  0  0  0
 16 21  1  0  0  0
 16 31  1  0  0  0
 17 18  1  0  0  0
 17 97  1  0  0  0
 18 19  2  0  0  0
 18 98  1  0  0  0
 19 20  1  0  0  0
 19 24  1  0  0  0
 20 21  2  0  0  0
 20 99  1  0  0  0
 21 23  1  0  0  0
 22 28  1  0  0  0
 22 32  2  0  0  0
 26 27  1  0  0  0
 28100  1  0  0  0
 28101  1  0  0  0
 29102  1  0  0  0
 29103  1  0  0  0
 33 34  1  0  0  0
 33 66  1  0  0  0
 33 70  2  0  0  0
 34 36  1  0  0  0
 34 59  1  0  0  0
 34104  1  0  0  0
 35 44  2  0  0  0
 35 45  1  0  0  0
 35 68  1  0  0  0
 36 56  1  0  0  0
 36105  1  0  0  0
 37 39  1  0  0  0
 37 47  1  0  0  0
 37 66  1  0  0  0
 37106  1  0  0  0
 38 43  2  0  0  0
 38 46  1  0  0  0
 38 47  1  0  0  0
 39 64  1  0  0  0
 39 67  2  0  0  0
 40 52  1  0  0  0
 40 53  2  0  0  0
 40 58  1  0  0  0
 41107  1  0  0  0
 41108  1  0  0  0
 41109  1  0  0  0
 41 48  1  0  0  0
 42 43  1  0  0  0
 42 66  1  0  0  0
 42110  1  0  0  0
 42111  1  0  0  0
 43 44  1  0  0  0
 44112  1  0  0  0
 45 46  2  0  0  0
 45113  1  0  0  0
 46114  1  0  0  0
 47115  1  0  0  0
 47116  1  0  0  0
 48 56  1  0  0  0
 48 65  1  0  0  0
 48117  1  0  0  0
 49 50  1  0  0  0
 49 53  1  0  0  0
 49 64  1  0  0  0
 49118  1  0  0  0
 50 51  1  0  0  0
 50119  1  0  0  0
 50120  1  0  0  0
 51 52  1  0  0  0
 51121  1  0  0  0
 51122  1  0  0  0
 52123  1  0  0  0
 52124  1  0  0  0
 53 54  1  0  0  0
 54 55  2  0  0  0
 54125  1  0  0  0
 55 57  1  0  0  0
 55126  1  0  0  0
 56 69  2  0  0  0
 57 58  2  0  0  0
 57127  1  0  0  0
 58128  1  0  0  0
 59 60  1  0  0  0
 59 61  1  0  0  0
 59 62  1  0  0  0
 60129  1  0  0  0
 60130  1  0  0  0
 60131  1  0  0  0
 61132  1  0  0  0
 61133  1  0  0  0
 61134  1  0  0  0
 62135  1  0  0  0
 62136  1  0  0  0
 62137  1  0  0  0
 63 65  1  0  0  0
 63138  1  0  0  0
 63139  1  0  0  0
 63140  1  0  0  0
 64141  1  0  0  0
 65142  1  0  0  0
 68 78  1  0  0  0
 71 72  2  0  0  0
 71 73  1  0  0  0
 71143  1  0  0  0
 72 75  1  0  0  0
 72144  1  0  0  0
 73 76  2  0  0  0
 73 79  1  0  0  0
 74 75  2  0  0  0
 74 76  1  0  0  0
 74 80  1  0  0  0
 75 82  1  0  0  0
 76 83  1  0  0  0
 77 78  1  0  0  0
 77 79  1  0  0  0
 77 81  2  0  0  0
 78145  1  0  0  0
 78146  1  0  0  0
 79147  1  0  0  0
 80148  1  0  0  0
M  ISO  4   1 100  68 101  78 101  80 100
M  END
> <chiral flag>
0

> <version>
0

> <s_m_source_file>
/data/baiqing/PycharmProjects/Reinvent-master-3.2/result/LINK_invent/BTK/process_docking_weight1_custom_sum_contain_oxygen_bond_distance_aromatic_linkinvent_7_9_3/rearranged_h_0012.sdf

> <i_m_source_file_index>
43

> <r_mmod_Potential_Energy-OPLS-2005>
569.570129394531

> <r_mmod_Stretch_Energy-OPLS-2005>
349.825988769531

> <r_mmod_Bend_Energy-OPLS-2005>
270.763641357422

> <r_mmod_Torsional_Energy-OPLS-2005>
221.838333129883

> <r_mmod_Improper_Torsional_Energy-OPLS-2005>
6.34044218063354

> <r_mmod_Van_der_Waal_Energy-OPLS-2005>
133.703552246094

> <r_mmod_Electrostatic_Energy-OPLS-2005>
-434.523773193359

> <r_mmod_Solvation_Energy-OPLS-2005>
-246.120269775391

> <b_mmod_Minimization_Converged-OPLS-2005>
0

> <r_mmod_RMS_Derivative-OPLS-2005>
0.229929774999619

$$$$
44
                    3D
 Structure written by MMmdl.
160168  0  0  1  0            999 V2000
  -30.5936  -14.7522   20.4483 C   0  0  0  0  0  0
  -30.4282  -12.4582   19.4701 C   0  0  0  0  0  0
  -29.5058  -12.5061   18.2327 C   0  0  0  0  0  0
  -28.0303  -12.3326   18.6441 C   0  0  0  0  0  0
  -27.6356  -13.2309   19.8470 C   0  0  2  0  0  0
  -28.6802  -13.1671   20.9821 C   0  0  0  0  0  0
  -25.2475  -13.8173   20.5695 C   0  0  0  0  0  0
  -24.1781  -13.0413   20.9210 C   0  0  0  0  0  0
  -24.6379  -11.6899   20.8748 C   0  0  0  0  0  0
  -23.9057  -10.4272   21.0410 C   0  0  0  0  0  0
  -24.3615   -9.4198   21.9191 C   0  0  0  0  0  0
  -23.6286   -8.2240   22.0759 C   0  0  0  0  0  0
  -22.4268   -8.0276   21.3546 C   0  0  0  0  0  0
  -21.9908   -9.0247   20.4642 C   0  0  0  0  0  0
  -22.7234  -10.2120   20.3050 C   0  0  0  0  0  0
  -21.6858   -6.0735   22.5271 C   0  0  0  0  0  0
  -21.4023   -6.5644   23.8207 C   0  0  0  0  0  0
  -21.3648   -5.6791   24.9164 C   0  0  0  0  0  0
  -21.6046   -4.3052   24.7219 C   0  0  0  0  0  0
  -21.8815   -3.8145   23.4341 C   0  0  0  0  0  0
  -21.9197   -4.6961   22.3397 C   0  0  0  0  0  0
  -22.7804  -13.5213   21.1861 C   0  0  0  0  0  0
  -22.1661   -4.2153   21.0972 F   0  0  0  0  0  0
  -21.5620   -3.4530   25.7732 F   0  0  0  0  0  0
  -29.9774  -13.5224   20.3948 N   0  0  0  0  0  0
  -26.2891  -12.9392   20.3258 N   0  0  0  0  0  0
  -25.9309  -11.6528   20.5750 N   0  0  0  0  0  0
  -22.0452  -12.8189   22.0403 N   0  0  0  0  0  0
  -25.4109  -15.1902   20.4114 N   0  0  0  0  0  0
  -31.7898  -14.8348   20.1537 O   0  0  0  0  0  0
  -21.6638   -6.8877   21.4234 O   0  0  0  0  0  0
  -22.3483  -14.5521   20.6706 O   0  0  0  0  0  0
  -24.6290  -31.8536   23.1981 C   0  0  0  0  0  0
  -25.9112  -32.4750   23.8335 C   0  0  1  0  0  0
  -27.2236  -27.2577   20.1260 C   0  0  0  0  0  0
  -25.5917  -33.8568   24.2241 N   0  0  0  0  0  0
  -23.4282  -30.4732   21.5390 C   0  0  2  0  0  0
  -24.8777  -28.9189   20.1063 C   0  0  0  0  0  0
  -22.7498  -29.4558   22.4891 C   0  0  0  0  0  0
  -18.0304  -28.1373   22.8485 C   0  0  0  0  0  0
  -24.1496  -36.7266   23.2644 C   0  0  0  0  0  0
  -25.9738  -30.7668   21.3777 C   0  0  0  0  0  0
  -26.0452  -29.3898   20.7171 C   0  0  0  0  0  0
  -27.2154  -28.5669   20.7188 C   0  0  0  0  0  0
  -26.0250  -26.8435   19.5043 C   0  0  0  0  0  0
  -24.8722  -27.6569   19.4945 C   0  0  0  0  0  0
  -23.6477  -29.8052   20.1547 C   0  0  0  0  0  0
  -25.4123  -36.3063   24.0314 C   0  0  1  0  0  0
  -20.5906  -28.3660   23.1284 C   0  0  2  0  0  0
  -20.6780  -26.9374   22.5425 C   0  0  0  0  0  0
  -19.5766  -26.6357   21.5228 C   0  0  0  0  0  0
  -18.1935  -26.7912   22.1613 C   0  0  0  0  0  0
  -19.1554  -28.8828   23.2882 C   0  0  0  0  0  0
  -18.9479  -30.1433   23.8899 C   0  0  0  0  0  0
  -17.6484  -30.6577   24.0554 C   0  0  0  0  0  0
  -25.9060  -34.9433   23.5074 C   0  0  0  0  0  0
  -16.5373  -29.9063   23.6346 C   0  0  0  0  0  0
  -16.7291  -28.6487   23.0360 C   0  0  0  0  0  0
  -26.4502  -31.6608   25.0738 C   0  0  0  0  0  0
  -25.3712  -31.3766   26.1454 C   0  0  0  0  0  0
  -27.0360  -30.3030   24.6215 C   0  0  0  0  0  0
  -27.6042  -32.4368   25.7521 C   0  0  0  0  0  0
  -27.5581  -37.1784   24.8459 C   0  0  0  0  0  0
  -21.4199  -29.3013   22.3652 N   0  0  0  0  0  0
  -26.4288  -37.3761   23.9406 N   0  0  0  0  0  0
  -24.6959  -31.0483   22.0970 N   0  0  0  0  0  0
  -23.4199  -28.8093   23.2980 O   0  0  0  0  0  0
  -28.3426  -26.3995   20.2197 O   0  0  0  0  0  0
  -26.5643  -34.8903   22.4657 O   0  0  0  0  0  0
  -23.5422  -32.1385   23.7244 O   0  0  0  0  0  0
  -30.8182  -20.1451   20.8476 C   0  0  0  0  0  0
  -31.4142  -17.7629   20.9440 C   0  0  0  0  0  0
  -31.7689  -19.1235   21.0539 C   0  0  0  0  0  0
  -29.4748  -19.8481   20.5451 C   0  0  0  0  0  0
  -29.1298  -18.4278   20.4338 C   0  0  0  0  0  0
  -30.0992  -17.3460   20.6301 C   0  0  0  0  0  0
  -28.3455  -23.7041   20.4019 C   0  0  0  0  0  0
  -33.1914  -19.4855   21.4405 C   0  0  0  0  0  0
  -27.6879  -18.0740   20.1038 C   0  0  0  0  0  0
  -29.4029  -22.3870   18.5944 C   0  0  0  0  0  0
  -28.4416  -21.0746   20.4886 C   0  0  0  0  0  0
  -28.4652  -25.0618   19.5402 C   0  0  0  0  0  0
  -29.7899  -15.8836   20.5943 N   0  0  0  0  0  0
  -28.7748  -22.4611   19.9134 N   0  0  0  0  0  0
  -27.8098  -23.7838   21.5116 O   0  0  0  0  0  0
  -31.4682  -12.5848   19.1676 H   0  0  0  0  0  0
  -30.3741  -11.4833   19.9570 H   0  0  0  0  0  0
  -29.7878  -11.7303   17.5188 H   0  0  0  0  0  0
  -29.6296  -13.4588   17.7153 H   0  0  0  0  0  0
  -27.8795  -11.2828   18.8991 H   0  0  0  0  0  0
  -27.3764  -12.5345   17.7936 H   0  0  0  0  0  0
  -27.6248  -14.2521   19.4648 H   0  0  0  0  0  0
  -28.7184  -12.1694   21.4231 H   0  0  0  0  0  0
  -28.4153  -13.8503   21.7912 H   0  0  0  0  0  0
  -25.2762   -9.5688   22.4756 H   0  0  0  0  0  0
  -23.9996   -7.4642   22.7486 H   0  0  0  0  0  0
  -21.0844   -8.8763   19.8947 H   0  0  0  0  0  0
  -22.3702  -10.9661   19.6151 H   0  0  0  0  0  0
  -21.2019   -7.6151   23.9714 H   0  0  0  0  0  0
  -21.1469   -6.0517   25.9068 H   0  0  0  0  0  0
  -22.0607   -2.7607   23.2832 H   0  0  0  0  0  0
  -22.4079  -11.9848   22.4776 H   0  0  0  0  0  0
  -21.1068  -13.1198   22.2631 H   0  0  0  0  0  0
  -24.6352  -15.8340   20.5207 H   0  0  0  0  0  0
  -26.2408  -15.6305   20.0418 H   0  0  0  0  0  0
  -26.7158  -32.5406   23.1049 H   0  0  0  0  0  0
  -25.0069  -33.9752   25.0383 H   0  0  0  0  0  0
  -22.7250  -31.2947   21.3832 H   0  0  0  0  0  0
  -23.3769  -35.9585   23.3285 H   0  0  0  0  0  0
  -24.3576  -36.8938   22.2066 H   0  0  0  0  0  0
  -23.7247  -37.6450   23.6701 H   0  0  0  0  0  0
  -26.1129  -31.5299   20.6111 H   0  0  0  0  0  0
  -26.8517  -30.8165   22.0119 H   0  0  0  0  0  0
  -28.1096  -28.9171   21.2140 H   0  0  0  0  0  0
  -25.9386  -25.8668   19.0561 H   0  0  0  0  0  0
  -23.9695  -27.2863   19.0285 H   0  0  0  0  0  0
  -23.7677  -30.5832   19.3997 H   0  0  0  0  0  0
  -22.7687  -29.2342   19.8508 H   0  0  0  0  0  0
  -25.1299  -36.1897   25.0799 H   0  0  0  0  0  0
  -20.9997  -28.3225   24.1405 H   0  0  0  0  0  0
  -20.5685  -26.2258   23.3618 H   0  0  0  0  0  0
  -21.6636  -26.7384   22.1209 H   0  0  0  0  0  0
  -19.6950  -25.6278   21.1243 H   0  0  0  0  0  0
  -19.6740  -27.3161   20.6765 H   0  0  0  0  0  0
  -17.4219  -26.6716   21.3996 H   0  0  0  0  0  0
  -18.0284  -26.0047   22.8989 H   0  0  0  0  0  0
  -19.7974  -30.7235   24.2258 H   0  0  0  0  0  0
  -17.5054  -31.6270   24.5127 H   0  0  0  0  0  0
  -15.5379  -30.2957   23.7680 H   0  0  0  0  0  0
  -15.8696  -28.0795   22.7075 H   0  0  0  0  0  0
  -24.5903  -30.7077   25.7795 H   0  0  0  0  0  0
  -24.8865  -32.2939   26.4824 H   0  0  0  0  0  0
  -25.8025  -30.9013   27.0273 H   0  0  0  0  0  0
  -26.2948  -29.6778   24.1215 H   0  0  0  0  0  0
  -27.4045  -29.7290   25.4731 H   0  0  0  0  0  0
  -27.8811  -30.4312   23.9441 H   0  0  0  0  0  0
  -27.2650  -33.3699   26.2016 H   0  0  0  0  0  0
  -28.3912  -32.6898   25.0405 H   0  0  0  0  0  0
  -28.0627  -31.8556   26.5533 H   0  0  0  0  0  0
  -28.2551  -38.0125   24.7515 H   0  0  0  0  0  0
  -28.1139  -36.2654   24.6257 H   0  0  0  0  0  0
  -27.2296  -37.1356   25.8862 H   0  0  0  0  0  0
  -20.9353  -29.8763   21.6903 H   0  0  0  0  0  0
  -26.0169  -38.2823   24.1455 H   0  0  0  0  0  0
  -31.1185  -21.1784   20.9621 H   0  0  0  0  0  0
  -32.1828  -17.0304   21.1380 H   0  0  0  0  0  0
  -33.2338  -20.4636   21.9201 H   0  0  0  0  0  0
  -33.8386  -19.5045   20.5630 H   0  0  0  0  0  0
  -33.5937  -18.7601   22.1490 H   0  0  0  0  0  0
  -27.0339  -18.3358   20.9366 H   0  0  0  0  0  0
  -27.5568  -17.0167   19.8843 H   0  0  0  0  0  0
  -27.3540  -18.6193   19.2201 H   0  0  0  0  0  0
  -28.8259  -22.9264   17.8414 H   0  0  0  0  0  0
  -29.4856  -21.3602   18.2369 H   0  0  0  0  0  0
  -30.4102  -22.8043   18.6257 H   0  0  0  0  0  0
  -28.1039  -21.2133   21.5156 H   0  0  0  0  0  0
  -27.5521  -20.7534   19.9481 H   0  0  0  0  0  0
  -27.8244  -24.9910   18.6633 H   0  0  0  0  0  0
  -29.4753  -25.0653   19.1309 H   0  0  0  0  0  0
  -28.8111  -15.6596   20.6725 H   0  0  0  0  0  0
  1 25  1  0  0  0
  1 30  2  0  0  0
  1 83  1  0  0  0
  2  3  1  0  0  0
  2 25  1  0  0  0
  2 86  1  0  0  0
  2 87  1  0  0  0
  3  4  1  0  0  0
  3 88  1  0  0  0
  3 89  1  0  0  0
  4  5  1  0  0  0
  4 90  1  0  0  0
  4 91  1  0  0  0
  5  6  1  0  0  0
  5 26  1  0  0  0
  5 92  1  0  0  0
  6 25  1  0  0  0
  6 93  1  0  0  0
  6 94  1  0  0  0
  7  8  2  0  0  0
  7 26  1  0  0  0
  7 29  1  0  0  0
  8  9  1  0  0  0
  8 22  1  0  0  0
  9 10  1  0  0  0
  9 27  2  0  0  0
 10 11  2  0  0  0
 10 15  1  0  0  0
 11 12  1  0  0  0
 11 95  1  0  0  0
 12 13  2  0  0  0
 12 96  1  0  0  0
 13 14  1  0  0  0
 13 31  1  0  0  0
 14 15  2  0  0  0
 14 97  1  0  0  0
 15 98  1  0  0  0
 16 17  2  0  0  0
 16 21  1  0  0  0
 16 31  1  0  0  0
 17 18  1  0  0  0
 17 99  1  0  0  0
 18 19  2  0  0  0
 18100  1  0  0  0
 19 20  1  0  0  0
 19 24  1  0  0  0
 20 21  2  0  0  0
 20101  1  0  0  0
 21 23  1  0  0  0
 22 28  1  0  0  0
 22 32  2  0  0  0
 26 27  1  0  0  0
 28102  1  0  0  0
 28103  1  0  0  0
 29104  1  0  0  0
 29105  1  0  0  0
 33 34  1  0  0  0
 33 66  1  0  0  0
 33 70  2  0  0  0
 34 36  1  0  0  0
 34 59  1  0  0  0
 34106  1  0  0  0
 35 44  2  0  0  0
 35 45  1  0  0  0
 35 68  1  0  0  0
 36 56  1  0  0  0
 36107  1  0  0  0
 37 39  1  0  0  0
 37 47  1  0  0  0
 37 66  1  0  0  0
 37108  1  0  0  0
 38 43  2  0  0  0
 38 46  1  0  0  0
 38 47  1  0  0  0
 39 64  1  0  0  0
 39 67  2  0  0  0
 40 52  1  0  0  0
 40 53  2  0  0  0
 40 58  1  0  0  0
 41109  1  0  0  0
 41110  1  0  0  0
 41111  1  0  0  0
 41 48  1  0  0  0
 42 43  1  0  0  0
 42 66  1  0  0  0
 42112  1  0  0  0
 42113  1  0  0  0
 43 44  1  0  0  0
 44114  1  0  0  0
 45 46  2  0  0  0
 45115  1  0  0  0
 46116  1  0  0  0
 47117  1  0  0  0
 47118  1  0  0  0
 48 56  1  0  0  0
 48 65  1  0  0  0
 48119  1  0  0  0
 49 50  1  0  0  0
 49 53  1  0  0  0
 49 64  1  0  0  0
 49120  1  0  0  0
 50 51  1  0  0  0
 50121  1  0  0  0
 50122  1  0  0  0
 51 52  1  0  0  0
 51123  1  0  0  0
 51124  1  0  0  0
 52125  1  0  0  0
 52126  1  0  0  0
 53 54  1  0  0  0
 54 55  2  0  0  0
 54127  1  0  0  0
 55 57  1  0  0  0
 55128  1  0  0  0
 56 69  2  0  0  0
 57 58  2  0  0  0
 57129  1  0  0  0
 58130  1  0  0  0
 59 60  1  0  0  0
 59 61  1  0  0  0
 59 62  1  0  0  0
 60131  1  0  0  0
 60132  1  0  0  0
 60133  1  0  0  0
 61134  1  0  0  0
 61135  1  0  0  0
 61136  1  0  0  0
 62137  1  0  0  0
 62138  1  0  0  0
 62139  1  0  0  0
 63 65  1  0  0  0
 63140  1  0  0  0
 63141  1  0  0  0
 63142  1  0  0  0
 64143  1  0  0  0
 65144  1  0  0  0
 68 82  1  0  0  0
 71 73  2  0  0  0
 71 74  1  0  0  0
 71145  1  0  0  0
 72 73  1  0  0  0
 72 76  2  0  0  0
 72146  1  0  0  0
 73 78  1  0  0  0
 74 75  2  0  0  0
 74 81  1  0  0  0
 75 76  1  0  0  0
 75 79  1  0  0  0
 76 83  1  0  0  0
 77 82  1  0  0  0
 77 84  1  0  0  0
 77 85  2  0  0  0
 78147  1  0  0  0
 78148  1  0  0  0
 78149  1  0  0  0
 79150  1  0  0  0
 79151  1  0  0  0
 79152  1  0  0  0
 80 84  1  0  0  0
 80153  1  0  0  0
 80154  1  0  0  0
 80155  1  0  0  0
 81 84  1  0  0  0
 81156  1  0  0  0
 81157  1  0  0  0
 82158  1  0  0  0
 82159  1  0  0  0
 83160  1  0  0  0
M  ISO  4   1 100  68 101  82 101  83 100
M  END
> <chiral flag>
0

> <version>
0

> <s_m_source_file>
/data/baiqing/PycharmProjects/Reinvent-master-3.2/result/LINK_invent/BTK/process_docking_weight1_custom_sum_contain_oxygen_bond_distance_aromatic_linkinvent_7_9_3/rearranged_h_0012.sdf

> <i_m_source_file_index>
44

> <r_mmod_Potential_Energy-OPLS-2005>
170.436096191406

> <r_mmod_Stretch_Energy-OPLS-2005>
136.640914916992

> <r_mmod_Bend_Energy-OPLS-2005>
173.801849365234

> <r_mmod_Torsional_Energy-OPLS-2005>
222.400207519531

> <r_mmod_Improper_Torsional_Energy-OPLS-2005>
6.8219518661499

> <r_mmod_Van_der_Waal_Energy-OPLS-2005>
140.965286254883

> <r_mmod_Electrostatic_Energy-OPLS-2005>
-358.496185302734

> <r_mmod_Solvation_Energy-OPLS-2005>
-238.911605834961

> <b_mmod_Minimization_Converged-OPLS-2005>
0

> <r_mmod_RMS_Derivative-OPLS-2005>
2.81194067001343

$$$$
45
                    3D
 Structure written by MMmdl.
154162  0  0  1  0            999 V2000
  -30.6727  -14.6016   20.6142 C   0  0  0  0  0  0
  -30.4399  -12.3991   19.4714 C   0  0  0  0  0  0
  -29.5176  -12.5598   18.2379 C   0  0  0  0  0  0
  -28.0428  -12.3852   18.6396 C   0  0  0  0  0  0
  -27.6738  -13.2227   19.8911 C   0  0  2  0  0  0
  -28.7134  -13.0366   21.0267 C   0  0  0  0  0  0
  -25.2548  -13.8136   20.5497 C   0  0  0  0  0  0
  -24.1834  -13.0419   20.9181 C   0  0  0  0  0  0
  -24.6427  -11.6918   20.8795 C   0  0  0  0  0  0
  -23.9088  -10.4292   21.0445 C   0  0  0  0  0  0
  -24.3648   -9.4197   21.9196 C   0  0  0  0  0  0
  -23.6304   -8.2239   22.0767 C   0  0  0  0  0  0
  -22.4269   -8.0307   21.3583 C   0  0  0  0  0  0
  -21.9922   -9.0280   20.4666 C   0  0  0  0  0  0
  -22.7265  -10.2140   20.3074 C   0  0  0  0  0  0
  -21.6853   -6.0753   22.5275 C   0  0  0  0  0  0
  -21.4013   -6.5638   23.8206 C   0  0  0  0  0  0
  -21.3676   -5.6790   24.9168 C   0  0  0  0  0  0
  -21.6048   -4.3057   24.7227 C   0  0  0  0  0  0
  -21.8828   -3.8157   23.4341 C   0  0  0  0  0  0
  -21.9188   -4.6980   22.3401 C   0  0  0  0  0  0
  -22.7880  -13.5269   21.1885 C   0  0  0  0  0  0
  -22.1667   -4.2160   21.0989 F   0  0  0  0  0  0
  -21.5633   -3.4535   25.7733 F   0  0  0  0  0  0
  -30.0474  -13.3835   20.4960 N   0  0  0  0  0  0
  -26.3083  -12.9369   20.3398 N   0  0  0  0  0  0
  -25.9377  -11.6524   20.5857 N   0  0  0  0  0  0
  -22.0504  -12.8210   22.0411 N   0  0  0  0  0  0
  -25.4131  -15.1765   20.3549 N   0  0  0  0  0  0
  -31.7195  -14.8227   19.9950 O   0  0  0  0  0  0
  -21.6637   -6.8896   21.4242 O   0  0  0  0  0  0
  -22.3539  -14.5556   20.6729 O   0  0  0  0  0  0
  -24.6184  -31.8634   23.2051 C   0  0  0  0  0  0
  -25.9058  -32.4790   23.8340 C   0  0  1  0  0  0
  -27.2558  -27.3973   20.1343 C   0  0  0  0  0  0
  -25.5905  -33.8580   24.2306 N   0  0  0  0  0  0
  -23.4096  -30.4860   21.5400 C   0  0  2  0  0  0
  -24.8660  -28.9359   20.1200 C   0  0  0  0  0  0
  -22.7398  -29.4676   22.4925 C   0  0  0  0  0  0
  -18.0295  -28.1354   22.8502 C   0  0  0  0  0  0
  -24.1485  -36.7304   23.2620 C   0  0  0  0  0  0
  -25.9392  -30.8269   21.3552 C   0  0  0  0  0  0
  -26.0246  -29.4504   20.7173 C   0  0  0  0  0  0
  -27.2229  -28.6932   20.7149 C   0  0  0  0  0  0
  -26.0806  -26.9036   19.5301 C   0  0  0  0  0  0
  -24.8896  -27.6618   19.5155 C   0  0  0  0  0  0
  -23.6253  -29.8046   20.1588 C   0  0  0  0  0  0
  -25.4091  -36.3055   24.0334 C   0  0  1  0  0  0
  -20.5868  -28.3678   23.1341 C   0  0  2  0  0  0
  -20.6829  -26.9434   22.5459 C   0  0  0  0  0  0
  -19.5845  -26.6416   21.5215 C   0  0  0  0  0  0
  -18.1997  -26.7955   22.1574 C   0  0  0  0  0  0
  -19.1529  -28.8832   23.2935 C   0  0  0  0  0  0
  -18.9467  -30.1427   23.8936 C   0  0  0  0  0  0
  -17.6466  -30.6583   24.0525 C   0  0  0  0  0  0
  -25.9043  -34.9441   23.5097 C   0  0  0  0  0  0
  -16.5361  -29.9071   23.6288 C   0  0  0  0  0  0
  -16.7284  -28.6464   23.0357 C   0  0  0  0  0  0
  -26.4467  -31.6553   25.0667 C   0  0  0  0  0  0
  -25.3776  -31.3677   26.1454 C   0  0  0  0  0  0
  -27.0316  -30.2998   24.6043 C   0  0  0  0  0  0
  -27.6051  -32.4213   25.7425 C   0  0  0  0  0  0
  -27.5561  -37.1788   24.8438 C   0  0  0  0  0  0
  -21.4120  -29.3062   22.3736 N   0  0  0  0  0  0
  -26.4251  -37.3745   23.9401 N   0  0  0  0  0  0
  -24.6757  -31.0715   22.0943 N   0  0  0  0  0  0
  -23.4172  -28.8187   23.2936 O   0  0  0  0  0  0
  -28.4208  -26.6490   20.0764 O   0  0  0  0  0  0
  -26.5569  -34.8889   22.4639 O   0  0  0  0  0  0
  -23.5366  -32.1364   23.7430 O   0  0  0  0  0  0
  -30.4234  -17.9389   20.6938 C   0  0  0  0  0  0
  -29.5423  -19.0857   20.8539 C   0  0  0  0  0  0
  -29.7426  -16.8435   21.2170 C   0  0  0  0  0  0
  -29.9335  -20.5543   20.6199 C   0  0  0  0  0  0
  -27.4202  -16.6838   22.3051 C   0  0  0  0  0  0
  -28.4496  -24.0828   20.4055 C   0  0  0  0  0  0
  -29.2501  -22.9606   21.1857 C   0  0  0  0  0  0
  -28.6019  -25.5371   20.9990 C   0  0  0  0  0  0
  -28.3816  -18.6799   21.3691 N   0  0  0  0  0  0
  -28.5107  -17.3501   21.6212 N   0  0  0  0  0  0
  -30.1203  -15.5205   21.4570 N   0  0  0  0  0  0
  -28.9939  -21.5268   20.8342 N   0  0  0  0  0  0
  -31.0951  -20.8626   20.3347 O   0  0  0  0  0  0
  -32.0347  -17.9437   20.0675 Cl  0  0  0  0  0  0
  -31.4856  -12.5071   19.1669 H   0  0  0  0  0  0
  -30.3653  -11.3811   19.8661 H   0  0  0  0  0  0
  -29.7802  -11.8442   17.4590 H   0  0  0  0  0  0
  -29.6586  -13.5529   17.8040 H   0  0  0  0  0  0
  -27.8677  -11.3257   18.8270 H   0  0  0  0  0  0
  -27.3951  -12.6526   17.8045 H   0  0  0  0  0  0
  -27.7104  -14.2693   19.5854 H   0  0  0  0  0  0
  -28.7113  -11.9922   21.3555 H   0  0  0  0  0  0
  -28.4436  -13.6143   21.9061 H   0  0  0  0  0  0
  -25.2801   -9.5623   22.4783 H   0  0  0  0  0  0
  -24.0006   -7.4606   22.7462 H   0  0  0  0  0  0
  -21.0870   -8.8826   19.8961 H   0  0  0  0  0  0
  -22.3764  -10.9701   19.6197 H   0  0  0  0  0  0
  -21.2005   -7.6136   23.9710 H   0  0  0  0  0  0
  -21.1493   -6.0522   25.9060 H   0  0  0  0  0  0
  -22.0588   -2.7608   23.2837 H   0  0  0  0  0  0
  -22.4097  -11.9821   22.4735 H   0  0  0  0  0  0
  -21.1174  -13.1302   22.2727 H   0  0  0  0  0  0
  -24.6419  -15.8339   20.4276 H   0  0  0  0  0  0
  -26.2525  -15.5906   19.9735 H   0  0  0  0  0  0
  -26.7141  -32.5470   23.1100 H   0  0  0  0  0  0
  -25.0147  -33.9695   25.0522 H   0  0  0  0  0  0
  -22.6974  -31.3001   21.3867 H   0  0  0  0  0  0
  -23.3719  -35.9651   23.3257 H   0  0  0  0  0  0
  -24.3634  -36.8955   22.2046 H   0  0  0  0  0  0
  -23.7279  -37.6515   23.6678 H   0  0  0  0  0  0
  -26.0453  -31.5888   20.5808 H   0  0  0  0  0  0
  -26.8236  -30.8926   21.9737 H   0  0  0  0  0  0
  -28.1228  -29.1006   21.1560 H   0  0  0  0  0  0
  -26.1026  -25.9347   19.0513 H   0  0  0  0  0  0
  -24.0032  -27.2665   19.0343 H   0  0  0  0  0  0
  -23.7335  -30.5706   19.3897 H   0  0  0  0  0  0
  -22.7520  -29.2210   19.8621 H   0  0  0  0  0  0
  -25.1267  -36.1880   25.0829 H   0  0  0  0  0  0
  -21.0010  -28.3326   24.1438 H   0  0  0  0  0  0
  -20.5717  -26.2315   23.3642 H   0  0  0  0  0  0
  -21.6716  -26.7509   22.1272 H   0  0  0  0  0  0
  -19.7068  -25.6334   21.1226 H   0  0  0  0  0  0
  -19.6835  -27.3253   20.6772 H   0  0  0  0  0  0
  -17.4318  -26.6743   21.3909 H   0  0  0  0  0  0
  -18.0381  -26.0007   22.8877 H   0  0  0  0  0  0
  -19.7913  -30.7229   24.2408 H   0  0  0  0  0  0
  -17.4990  -31.6281   24.5082 H   0  0  0  0  0  0
  -15.5350  -30.2977   23.7546 H   0  0  0  0  0  0
  -15.8704  -28.0718   22.7113 H   0  0  0  0  0  0
  -24.5926  -30.7011   25.7843 H   0  0  0  0  0  0
  -24.8987  -32.2862   26.4868 H   0  0  0  0  0  0
  -25.8174  -30.8898   27.0229 H   0  0  0  0  0  0
  -26.2902  -29.6716   24.1096 H   0  0  0  0  0  0
  -27.4140  -29.7205   25.4461 H   0  0  0  0  0  0
  -27.8682  -30.4290   23.9165 H   0  0  0  0  0  0
  -27.2706  -33.3481   26.2052 H   0  0  0  0  0  0
  -28.3859  -32.6804   25.0278 H   0  0  0  0  0  0
  -28.0731  -31.8318   26.5308 H   0  0  0  0  0  0
  -28.2532  -38.0114   24.7501 H   0  0  0  0  0  0
  -28.1102  -36.2672   24.6224 H   0  0  0  0  0  0
  -27.2326  -37.1382   25.8841 H   0  0  0  0  0  0
  -20.9293  -29.8902   21.7055 H   0  0  0  0  0  0
  -26.0147  -38.2797   24.1437 H   0  0  0  0  0  0
  -27.4554  -16.9300   23.3685 H   0  0  0  0  0  0
  -27.4762  -15.6080   22.1736 H   0  0  0  0  0  0
  -26.4701  -17.0439   21.9049 H   0  0  0  0  0  0
  -27.3828  -23.8412   20.3718 H   0  0  0  0  0  0
  -28.7989  -24.1031   19.3704 H   0  0  0  0  0  0
  -29.0189  -23.0638   22.2510 H   0  0  0  0  0  0
  -30.3188  -23.1874   21.1063 H   0  0  0  0  0  0
  -29.6280  -25.6450   21.3620 H   0  0  0  0  0  0
  -27.9740  -25.6649   21.8860 H   0  0  0  0  0  0
  -29.5894  -15.1031   22.1977 H   0  0  0  0  0  0
  -28.0702  -21.1622   21.0265 H   0  0  0  0  0  0
  1 25  1  0  0  0
  1 30  2  0  0  0
  1 81  1  0  0  0
  2  3  1  0  0  0
  2 25  1  0  0  0
  2 85  1  0  0  0
  2 86  1  0  0  0
  3  4  1  0  0  0
  3 87  1  0  0  0
  3 88  1  0  0  0
  4  5  1  0  0  0
  4 89  1  0  0  0
  4 90  1  0  0  0
  5  6  1  0  0  0
  5 26  1  0  0  0
  5 91  1  0  0  0
  6 25  1  0  0  0
  6 92  1  0  0  0
  6 93  1  0  0  0
  7  8  2  0  0  0
  7 26  1  0  0  0
  7 29  1  0  0  0
  8  9  1  0  0  0
  8 22  1  0  0  0
  9 10  1  0  0  0
  9 27  2  0  0  0
 10 11  2  0  0  0
 10 15  1  0  0  0
 11 12  1  0  0  0
 11 94  1  0  0  0
 12 13  2  0  0  0
 12 95  1  0  0  0
 13 14  1  0  0  0
 13 31  1  0  0  0
 14 15  2  0  0  0
 14 96  1  0  0  0
 15 97  1  0  0  0
 16 17  2  0  0  0
 16 21  1  0  0  0
 16 31  1  0  0  0
 17 18  1  0  0  0
 17 98  1  0  0  0
 18 19  2  0  0  0
 18 99  1  0  0  0
 19 20  1  0  0  0
 19 24  1  0  0  0
 20 21  2  0  0  0
 20100  1  0  0  0
 21 23  1  0  0  0
 22 28  1  0  0  0
 22 32  2  0  0  0
 26 27  1  0  0  0
 28101  1  0  0  0
 28102  1  0  0  0
 29103  1  0  0  0
 29104  1  0  0  0
 33 34  1  0  0  0
 33 66  1  0  0  0
 33 70  2  0  0  0
 34 36  1  0  0  0
 34 59  1  0  0  0
 34105  1  0  0  0
 35 44  2  0  0  0
 35 45  1  0  0  0
 35 68  1  0  0  0
 36 56  1  0  0  0
 36106  1  0  0  0
 37 39  1  0  0  0
 37 47  1  0  0  0
 37 66  1  0  0  0
 37107  1  0  0  0
 38 43  2  0  0  0
 38 46  1  0  0  0
 38 47  1  0  0  0
 39 64  1  0  0  0
 39 67  2  0  0  0
 40 52  1  0  0  0
 40 53  2  0  0  0
 40 58  1  0  0  0
 41108  1  0  0  0
 41109  1  0  0  0
 41110  1  0  0  0
 41 48  1  0  0  0
 42 43  1  0  0  0
 42 66  1  0  0  0
 42111  1  0  0  0
 42112  1  0  0  0
 43 44  1  0  0  0
 44113  1  0  0  0
 45 46  2  0  0  0
 45114  1  0  0  0
 46115  1  0  0  0
 47116  1  0  0  0
 47117  1  0  0  0
 48 56  1  0  0  0
 48 65  1  0  0  0
 48118  1  0  0  0
 49 50  1  0  0  0
 49 53  1  0  0  0
 49 64  1  0  0  0
 49119  1  0  0  0
 50 51  1  0  0  0
 50120  1  0  0  0
 50121  1  0  0  0
 51 52  1  0  0  0
 51122  1  0  0  0
 51123  1  0  0  0
 52124  1  0  0  0
 52125  1  0  0  0
 53 54  1  0  0  0
 54 55  2  0  0  0
 54126  1  0  0  0
 55 57  1  0  0  0
 55127  1  0  0  0
 56 69  2  0  0  0
 57 58  2  0  0  0
 57128  1  0  0  0
 58129  1  0  0  0
 59 60  1  0  0  0
 59 61  1  0  0  0
 59 62  1  0  0  0
 60130  1  0  0  0
 60131  1  0  0  0
 60132  1  0  0  0
 61133  1  0  0  0
 61134  1  0  0  0
 61135  1  0  0  0
 62136  1  0  0  0
 62137  1  0  0  0
 62138  1  0  0  0
 63 65  1  0  0  0
 63139  1  0  0  0
 63140  1  0  0  0
 63141  1  0  0  0
 64142  1  0  0  0
 65143  1  0  0  0
 68 78  1  0  0  0
 71 72  1  0  0  0
 71 73  2  0  0  0
 71 84  1  0  0  0
 72 74  1  0  0  0
 72 79  2  0  0  0
 73 80  1  0  0  0
 73 81  1  0  0  0
 74 82  1  0  0  0
 74 83  2  0  0  0
 75 80  1  0  0  0
 75144  1  0  0  0
 75145  1  0  0  0
 75146  1  0  0  0
 76 77  1  0  0  0
 76 78  1  0  0  0
 76147  1  0  0  0
 76148  1  0  0  0
 77 82  1  0  0  0
 77149  1  0  0  0
 77150  1  0  0  0
 78151  1  0  0  0
 78152  1  0  0  0
 79 80  1  0  0  0
 81153  1  0  0  0
 82154  1  0  0  0
M  ISO  4   1 100  68 101  78 101  81 100
M  END
> <chiral flag>
0

> <version>
0

> <s_m_source_file>
/data/baiqing/PycharmProjects/Reinvent-master-3.2/result/LINK_invent/BTK/process_docking_weight1_custom_sum_contain_oxygen_bond_distance_aromatic_linkinvent_7_9_3/rearranged_h_0012.sdf

> <i_m_source_file_index>
45

> <r_mmod_Potential_Energy-OPLS-2005>
-16.0075836181641

> <r_mmod_Stretch_Energy-OPLS-2005>
64.8516540527344

> <r_mmod_Bend_Energy-OPLS-2005>
151.746627807617

> <r_mmod_Torsional_Energy-OPLS-2005>
280.746276855469

> <r_mmod_Improper_Torsional_Energy-OPLS-2005>
6.88021898269653

> <r_mmod_Van_der_Waal_Energy-OPLS-2005>
113.305389404297

> <r_mmod_Electrostatic_Energy-OPLS-2005>
-412.837890625

> <r_mmod_Solvation_Energy-OPLS-2005>
-248.809204101562

> <b_mmod_Minimization_Converged-OPLS-2005>
0

> <r_mmod_RMS_Derivative-OPLS-2005>
14.7544507980347

$$$$
46
                    3D
 Structure written by MMmdl.
151159  0  0  1  0            999 V2000
  -30.4853  -15.0793   20.3863 C   0  0  0  0  0  0
  -30.4382  -12.6674   19.5364 C   0  0  0  0  0  0
  -29.5333  -12.5588   18.2844 C   0  0  0  0  0  0
  -28.0693  -12.3216   18.6941 C   0  0  0  0  0  0
  -27.6263  -13.2636   19.8429 C   0  0  2  0  0  0
  -28.6593  -13.3386   20.9892 C   0  0  0  0  0  0
  -25.2436  -13.8244   20.5732 C   0  0  0  0  0  0
  -24.1764  -13.0446   20.9227 C   0  0  0  0  0  0
  -24.6398  -11.6937   20.8743 C   0  0  0  0  0  0
  -23.9088  -10.4298   21.0395 C   0  0  0  0  0  0
  -24.3634   -9.4212   21.9175 C   0  0  0  0  0  0
  -23.6306   -8.2248   22.0749 C   0  0  0  0  0  0
  -22.4286   -8.0284   21.3542 C   0  0  0  0  0  0
  -21.9925   -9.0258   20.4643 C   0  0  0  0  0  0
  -22.7256  -10.2136   20.3049 C   0  0  0  0  0  0
  -21.6856   -6.0738   22.5278 C   0  0  0  0  0  0
  -21.4018   -6.5642   23.8211 C   0  0  0  0  0  0
  -21.3661   -5.6793   24.9173 C   0  0  0  0  0  0
  -21.6044   -4.3056   24.7223 C   0  0  0  0  0  0
  -21.8819   -3.8148   23.4344 C   0  0  0  0  0  0
  -21.9195   -4.6966   22.3401 C   0  0  0  0  0  0
  -22.7781  -13.5204   21.1885 C   0  0  0  0  0  0
  -22.1662   -4.2151   21.0978 F   0  0  0  0  0  0
  -21.5628   -3.4539   25.7735 F   0  0  0  0  0  0
  -29.9296  -13.7853   20.4009 N   0  0  0  0  0  0
  -26.2870  -12.9501   20.3261 N   0  0  0  0  0  0
  -25.9337  -11.6614   20.5732 N   0  0  0  0  0  0
  -22.0445  -12.8183   22.0444 N   0  0  0  0  0  0
  -25.4110  -15.1975   20.4183 N   0  0  0  0  0  0
  -31.6641  -15.1366   20.0140 O   0  0  0  0  0  0
  -21.6646   -6.8884   21.4240 O   0  0  0  0  0  0
  -22.3457  -14.5504   20.6730 O   0  0  0  0  0  0
  -24.6503  -31.8337   23.1781 C   0  0  0  0  0  0
  -25.9236  -32.4638   23.8206 C   0  0  1  0  0  0
  -27.2243  -27.0463   20.1624 C   0  0  0  0  0  0
  -25.5953  -33.8449   24.2120 N   0  0  0  0  0  0
  -23.4598  -30.4467   21.5234 C   0  0  2  0  0  0
  -24.9137  -28.8546   20.1001 C   0  0  0  0  0  0
  -22.7607  -29.4486   22.4809 C   0  0  0  0  0  0
  -18.0312  -28.1407   22.8475 C   0  0  0  0  0  0
  -24.1492  -36.7231   23.2646 C   0  0  0  0  0  0
  -26.0190  -30.6763   21.3914 C   0  0  0  0  0  0
  -26.0878  -29.2785   20.7332 C   0  0  0  0  0  0
  -27.2340  -28.3871   20.7524 C   0  0  0  0  0  0
  -26.0296  -26.7443   19.4746 C   0  0  0  0  0  0
  -24.9028  -27.6054   19.4542 C   0  0  0  0  0  0
  -23.6918  -29.7664   20.1448 C   0  0  0  0  0  0
  -25.4130  -36.3000   24.0307 C   0  0  1  0  0  0
  -20.5929  -28.3737   23.1219 C   0  0  2  0  0  0
  -20.6792  -26.9429   22.5411 C   0  0  0  0  0  0
  -19.5766  -26.6382   21.5219 C   0  0  0  0  0  0
  -18.1947  -26.7943   22.1626 C   0  0  0  0  0  0
  -19.1571  -28.8891   23.2838 C   0  0  0  0  0  0
  -18.9485  -30.1486   23.8866 C   0  0  0  0  0  0
  -17.6480  -30.6599   24.0562 C   0  0  0  0  0  0
  -25.9086  -34.9377   23.5031 C   0  0  0  0  0  0
  -16.5370  -29.9091   23.6341 C   0  0  0  0  0  0
  -16.7296  -28.6512   23.0358 C   0  0  0  0  0  0
  -26.4532  -31.6548   25.0690 C   0  0  0  0  0  0
  -25.3693  -31.3766   26.1369 C   0  0  0  0  0  0
  -27.0414  -30.2932   24.6341 C   0  0  0  0  0  0
  -27.6045  -32.4338   25.7480 C   0  0  0  0  0  0
  -27.5573  -37.1773   24.8467 C   0  0  0  0  0  0
  -21.4287  -29.3039   22.3569 N   0  0  0  0  0  0
  -26.4284  -37.3724   23.9407 N   0  0  0  0  0  0
  -24.7297  -31.0106   22.0853 N   0  0  0  0  0  0
  -23.4209  -28.8057   23.3010 O   0  0  0  0  0  0
  -28.2526  -26.0218   20.3352 O   0  0  0  0  0  0
  -26.5690  -34.8897   22.4623 O   0  0  0  0  0  0
  -23.5602  -32.1254   23.6949 O   0  0  0  0  0  0
  -29.0563  -17.6288   18.7412 C   0  0  0  0  0  0
  -28.5970  -18.7679   18.0455 C   0  0  0  0  0  0
  -29.5092  -17.6887   20.0725 C   0  0  0  0  0  0
  -29.0244  -20.3649   19.9027 C   0  0  0  0  0  0
  -28.5719  -20.0753   18.5859 C   0  0  0  0  0  0
  -29.4798  -19.1045   20.6265 C   0  0  0  0  0  0
  -28.2326  -23.0222   20.2575 C   0  0  0  0  0  0
  -30.5552  -22.3205   20.4335 C   0  0  0  0  0  0
  -28.4528  -24.5999   19.6415 C   0  0  0  0  0  0
  -29.7515  -16.2810   20.7243 N   0  0  0  0  0  0
  -29.1677  -21.9030   20.2425 N   0  0  0  0  0  0
  -27.1053  -22.8014   20.7101 O   0  0  0  0  0  0
  -28.0487  -21.3293   17.5128 Cl  0  0  0  0  0  0
  -30.0208  -19.2931   22.2550 Cl  0  0  0  0  0  0
  -31.4724  -12.8269   19.2284 H   0  0  0  0  0  0
  -30.4433  -11.7268   20.0898 H   0  0  0  0  0  0
  -29.8776  -11.7530   17.6346 H   0  0  0  0  0  0
  -29.6062  -13.4776   17.7002 H   0  0  0  0  0  0
  -27.9826  -11.2834   19.0165 H   0  0  0  0  0  0
  -27.4086  -12.4300   17.8331 H   0  0  0  0  0  0
  -27.5760  -14.2574   19.3964 H   0  0  0  0  0  0
  -28.7680  -12.3739   21.4867 H   0  0  0  0  0  0
  -28.3291  -14.0438   21.7528 H   0  0  0  0  0  0
  -25.2776   -9.5687   22.4753 H   0  0  0  0  0  0
  -24.0013   -7.4639   22.7469 H   0  0  0  0  0  0
  -21.0856   -8.8778   19.8949 H   0  0  0  0  0  0
  -22.3712  -10.9674   19.6159 H   0  0  0  0  0  0
  -21.2011   -7.6150   23.9716 H   0  0  0  0  0  0
  -21.1484   -6.0523   25.9077 H   0  0  0  0  0  0
  -22.0597   -2.7611   23.2842 H   0  0  0  0  0  0
  -22.4081  -11.9853   22.4831 H   0  0  0  0  0  0
  -21.1057  -13.1184   22.2652 H   0  0  0  0  0  0
  -24.6438  -15.8508   20.5324 H   0  0  0  0  0  0
  -26.2609  -15.6387   20.0917 H   0  0  0  0  0  0
  -26.7298  -32.5209   23.0923 H   0  0  0  0  0  0
  -25.0055  -33.9544   25.0238 H   0  0  0  0  0  0
  -22.7669  -31.2749   21.3607 H   0  0  0  0  0  0
  -23.3760  -35.9556   23.3290 H   0  0  0  0  0  0
  -24.3574  -36.8890   22.2065 H   0  0  0  0  0  0
  -23.7242  -37.6415   23.6705 H   0  0  0  0  0  0
  -26.1867  -31.4252   20.6162 H   0  0  0  0  0  0
  -26.8844  -30.7291   22.0403 H   0  0  0  0  0  0
  -28.1184  -28.6986   21.2901 H   0  0  0  0  0  0
  -25.9246  -25.7792   19.0013 H   0  0  0  0  0  0
  -24.0060  -27.2751   18.9481 H   0  0  0  0  0  0
  -23.8322  -30.5375   19.3865 H   0  0  0  0  0  0
  -22.8048  -29.2116   19.8341 H   0  0  0  0  0  0
  -25.1326  -36.1809   25.0799 H   0  0  0  0  0  0
  -21.0024  -28.3340   24.1340 H   0  0  0  0  0  0
  -20.5681  -26.2353   23.3641 H   0  0  0  0  0  0
  -21.6656  -26.7424   22.1211 H   0  0  0  0  0  0
  -19.6924  -25.6285   21.1271 H   0  0  0  0  0  0
  -19.6704  -27.3175   20.6735 H   0  0  0  0  0  0
  -17.4217  -26.6691   21.4028 H   0  0  0  0  0  0
  -18.0339  -26.0096   22.9032 H   0  0  0  0  0  0
  -19.7961  -30.7314   24.2217 H   0  0  0  0  0  0
  -17.5033  -31.6274   24.5173 H   0  0  0  0  0  0
  -15.5369  -30.2984   23.7683 H   0  0  0  0  0  0
  -15.8697  -28.0823   22.7086 H   0  0  0  0  0  0
  -24.5887  -30.7099   25.7686 H   0  0  0  0  0  0
  -24.8864  -32.2955   26.4702 H   0  0  0  0  0  0
  -25.7955  -30.8999   27.0205 H   0  0  0  0  0  0
  -26.3052  -29.6627   24.1342 H   0  0  0  0  0  0
  -27.3986  -29.7268   25.4952 H   0  0  0  0  0  0
  -27.8977  -30.4144   23.9703 H   0  0  0  0  0  0
  -27.2626  -33.3672   26.1962 H   0  0  0  0  0  0
  -28.3901  -32.6843   25.0339 H   0  0  0  0  0  0
  -28.0659  -31.8525   26.5472 H   0  0  0  0  0  0
  -28.2581  -38.0077   24.7513 H   0  0  0  0  0  0
  -28.1078  -36.2607   24.6297 H   0  0  0  0  0  0
  -27.2290  -37.1421   25.8869 H   0  0  0  0  0  0
  -20.9516  -29.8726   21.6712 H   0  0  0  0  0  0
  -26.0140  -38.2787   24.1411 H   0  0  0  0  0  0
  -29.0099  -16.6750   18.2356 H   0  0  0  0  0  0
  -28.2538  -18.6323   17.0297 H   0  0  0  0  0  0
  -30.9589  -22.7361   19.5097 H   0  0  0  0  0  0
  -31.1905  -21.4815   20.7167 H   0  0  0  0  0  0
  -30.6484  -23.0722   21.2194 H   0  0  0  0  0  0
  -27.8724  -24.6237   18.7200 H   0  0  0  0  0  0
  -29.4832  -24.6227   19.2900 H   0  0  0  0  0  0
  -29.0049  -16.0518   21.3638 H   0  0  0  0  0  0
  1 25  1  0  0  0
  1 30  2  0  0  0
  1 80  1  0  0  0
  2  3  1  0  0  0
  2 25  1  0  0  0
  2 85  1  0  0  0
  2 86  1  0  0  0
  3  4  1  0  0  0
  3 87  1  0  0  0
  3 88  1  0  0  0
  4  5  1  0  0  0
  4 89  1  0  0  0
  4 90  1  0  0  0
  5  6  1  0  0  0
  5 26  1  0  0  0
  5 91  1  0  0  0
  6 25  1  0  0  0
  6 92  1  0  0  0
  6 93  1  0  0  0
  7  8  2  0  0  0
  7 26  1  0  0  0
  7 29  1  0  0  0
  8  9  1  0  0  0
  8 22  1  0  0  0
  9 10  1  0  0  0
  9 27  2  0  0  0
 10 11  2  0  0  0
 10 15  1  0  0  0
 11 12  1  0  0  0
 11 94  1  0  0  0
 12 13  2  0  0  0
 12 95  1  0  0  0
 13 14  1  0  0  0
 13 31  1  0  0  0
 14 15  2  0  0  0
 14 96  1  0  0  0
 15 97  1  0  0  0
 16 17  2  0  0  0
 16 21  1  0  0  0
 16 31  1  0  0  0
 17 18  1  0  0  0
 17 98  1  0  0  0
 18 19  2  0  0  0
 18 99  1  0  0  0
 19 20  1  0  0  0
 19 24  1  0  0  0
 20 21  2  0  0  0
 20100  1  0  0  0
 21 23  1  0  0  0
 22 28  1  0  0  0
 22 32  2  0  0  0
 26 27  1  0  0  0
 28101  1  0  0  0
 28102  1  0  0  0
 29103  1  0  0  0
 29104  1  0  0  0
 33 34  1  0  0  0
 33 66  1  0  0  0
 33 70  2  0  0  0
 34 36  1  0  0  0
 34 59  1  0  0  0
 34105  1  0  0  0
 35 44  2  0  0  0
 35 45  1  0  0  0
 35 68  1  0  0  0
 36 56  1  0  0  0
 36106  1  0  0  0
 37 39  1  0  0  0
 37 47  1  0  0  0
 37 66  1  0  0  0
 37107  1  0  0  0
 38 43  2  0  0  0
 38 46  1  0  0  0
 38 47  1  0  0  0
 39 64  1  0  0  0
 39 67  2  0  0  0
 40 52  1  0  0  0
 40 53  2  0  0  0
 40 58  1  0  0  0
 41108  1  0  0  0
 41109  1  0  0  0
 41110  1  0  0  0
 41 48  1  0  0  0
 42 43  1  0  0  0
 42 66  1  0  0  0
 42111  1  0  0  0
 42112  1  0  0  0
 43 44  1  0  0  0
 44113  1  0  0  0
 45 46  2  0  0  0
 45114  1  0  0  0
 46115  1  0  0  0
 47116  1  0  0  0
 47117  1  0  0  0
 48 56  1  0  0  0
 48 65  1  0  0  0
 48118  1  0  0  0
 49 50  1  0  0  0
 49 53  1  0  0  0
 49 64  1  0  0  0
 49119  1  0  0  0
 50 51  1  0  0  0
 50120  1  0  0  0
 50121  1  0  0  0
 51 52  1  0  0  0
 51122  1  0  0  0
 51123  1  0  0  0
 52124  1  0  0  0
 52125  1  0  0  0
 53 54  1  0  0  0
 54 55  2  0  0  0
 54126  1  0  0  0
 55 57  1  0  0  0
 55127  1  0  0  0
 56 69  2  0  0  0
 57 58  2  0  0  0
 57128  1  0  0  0
 58129  1  0  0  0
 59 60  1  0  0  0
 59 61  1  0  0  0
 59 62  1  0  0  0
 60130  1  0  0  0
 60131  1  0  0  0
 60132  1  0  0  0
 61133  1  0  0  0
 61134  1  0  0  0
 61135  1  0  0  0
 62136  1  0  0  0
 62137  1  0  0  0
 62138  1  0  0  0
 63 65  1  0  0  0
 63139  1  0  0  0
 63140  1  0  0  0
 63141  1  0  0  0
 64142  1  0  0  0
 65143  1  0  0  0
 68 79  1  0  0  0
 71 72  2  0  0  0
 71 73  1  0  0  0
 71144  1  0  0  0
 72 75  1  0  0  0
 72145  1  0  0  0
 73 76  2  0  0  0
 73 80  1  0  0  0
 74 75  2  0  0  0
 74 76  1  0  0  0
 74 81  1  0  0  0
 75 83  1  0  0  0
 76 84  1  0  0  0
 77 79  1  0  0  0
 77 81  1  0  0  0
 77 82  2  0  0  0
 78 81  1  0  0  0
 78146  1  0  0  0
 78147  1  0  0  0
 78148  1  0  0  0
 79149  1  0  0  0
 79150  1  0  0  0
 80151  1  0  0  0
M  ISO  4   1 100  68 101  79 101  80 100
M  END
> <chiral flag>
0

> <version>
0

> <s_m_source_file>
/data/baiqing/PycharmProjects/Reinvent-master-3.2/result/LINK_invent/BTK/process_docking_weight1_custom_sum_contain_oxygen_bond_distance_aromatic_linkinvent_7_9_3/rearranged_h_0012.sdf

> <i_m_source_file_index>
46

> <r_mmod_Potential_Energy-OPLS-2005>
868.810607910156

> <r_mmod_Stretch_Energy-OPLS-2005>
378.244750976562

> <r_mmod_Bend_Energy-OPLS-2005>
346.501953125

> <r_mmod_Torsional_Energy-OPLS-2005>
336.543884277344

> <r_mmod_Improper_Torsional_Energy-OPLS-2005>
6.66454696655273

> <r_mmod_Van_der_Waal_Energy-OPLS-2005>
120.957580566406

> <r_mmod_Electrostatic_Energy-OPLS-2005>
-379.457702636719

> <r_mmod_Solvation_Energy-OPLS-2005>
-234.812881469727

> <b_mmod_Minimization_Converged-OPLS-2005>
0

> <r_mmod_RMS_Derivative-OPLS-2005>
0.376617074012756

$$$$
47
                    3D
 Structure written by MMmdl.
151159  0  0  1  0            999 V2000
  -30.6336  -14.7258   20.4395 C   0  0  0  0  0  0
  -30.4283  -12.4400   19.4730 C   0  0  0  0  0  0
  -29.5063  -12.4975   18.2354 C   0  0  0  0  0  0
  -28.0333  -12.3265   18.6507 C   0  0  0  0  0  0
  -27.6426  -13.2305   19.8498 C   0  0  2  0  0  0
  -28.6886  -13.1711   20.9854 C   0  0  0  0  0  0
  -25.2533  -13.8200   20.5698 C   0  0  0  0  0  0
  -24.1813  -13.0451   20.9196 C   0  0  0  0  0  0
  -24.6398  -11.6928   20.8748 C   0  0  0  0  0  0
  -23.9078  -10.4302   21.0417 C   0  0  0  0  0  0
  -24.3627   -9.4209   21.9192 C   0  0  0  0  0  0
  -23.6294   -8.2245   22.0754 C   0  0  0  0  0  0
  -22.4279   -8.0285   21.3544 C   0  0  0  0  0  0
  -21.9921   -9.0265   20.4648 C   0  0  0  0  0  0
  -22.7251  -10.2143   20.3059 C   0  0  0  0  0  0
  -21.6859   -6.0738   22.5278 C   0  0  0  0  0  0
  -21.4012   -6.5641   23.8210 C   0  0  0  0  0  0
  -21.3648   -5.6797   24.9171 C   0  0  0  0  0  0
  -21.6050   -4.3062   24.7227 C   0  0  0  0  0  0
  -21.8817   -3.8150   23.4352 C   0  0  0  0  0  0
  -21.9194   -4.6966   22.3408 C   0  0  0  0  0  0
  -22.7834  -13.5238   21.1851 C   0  0  0  0  0  0
  -22.1665   -4.2152   21.0988 F   0  0  0  0  0  0
  -21.5626   -3.4546   25.7736 F   0  0  0  0  0  0
  -29.9939  -13.5076   20.4037 N   0  0  0  0  0  0
  -26.2953  -12.9402   20.3296 N   0  0  0  0  0  0
  -25.9334  -11.6549   20.5774 N   0  0  0  0  0  0
  -22.0489  -12.8212   22.0403 N   0  0  0  0  0  0
  -25.4240  -15.1922   20.4094 N   0  0  0  0  0  0
  -31.8259  -14.7862   20.1312 O   0  0  0  0  0  0
  -21.6647   -6.8883   21.4240 O   0  0  0  0  0  0
  -22.3516  -14.5551   20.6712 O   0  0  0  0  0  0
  -24.6320  -31.8545   23.1961 C   0  0  0  0  0  0
  -25.9141  -32.4745   23.8310 C   0  0  1  0  0  0
  -27.2266  -27.2773   20.1268 C   0  0  0  0  0  0
  -25.5928  -33.8547   24.2236 N   0  0  0  0  0  0
  -23.4265  -30.4787   21.5381 C   0  0  2  0  0  0
  -24.8749  -28.9268   20.1056 C   0  0  0  0  0  0
  -22.7498  -29.4614   22.4893 C   0  0  0  0  0  0
  -18.0273  -28.1391   22.8471 C   0  0  0  0  0  0
  -24.1478  -36.7265   23.2646 C   0  0  0  0  0  0
  -25.9700  -30.7756   21.3696 C   0  0  0  0  0  0
  -26.0447  -29.3990   20.7124 C   0  0  0  0  0  0
  -27.2220  -28.5872   20.7120 C   0  0  0  0  0  0
  -26.0326  -26.8669   19.4928 C   0  0  0  0  0  0
  -24.8741  -27.6676   19.4856 C   0  0  0  0  0  0
  -23.6433  -29.8098   20.1539 C   0  0  0  0  0  0
  -25.4096  -36.3047   24.0338 C   0  0  1  0  0  0
  -20.5890  -28.3693   23.1257 C   0  0  2  0  0  0
  -20.6766  -26.9409   22.5407 C   0  0  0  0  0  0
  -19.5733  -26.6377   21.5218 C   0  0  0  0  0  0
  -18.1905  -26.7920   22.1620 C   0  0  0  0  0  0
  -19.1537  -28.8848   23.2863 C   0  0  0  0  0  0
  -18.9476  -30.1448   23.8886 C   0  0  0  0  0  0
  -17.6487  -30.6589   24.0563 C   0  0  0  0  0  0
  -25.9058  -34.9437   23.5082 C   0  0  0  0  0  0
  -16.5368  -29.9094   23.6346 C   0  0  0  0  0  0
  -16.7266  -28.6519   23.0348 C   0  0  0  0  0  0
  -26.4504  -31.6583   25.0707 C   0  0  0  0  0  0
  -25.3734  -31.3760   26.1438 C   0  0  0  0  0  0
  -27.0358  -30.3001   24.6180 C   0  0  0  0  0  0
  -27.6035  -32.4354   25.7476 C   0  0  0  0  0  0
  -27.5573  -37.1760   24.8455 C   0  0  0  0  0  0
  -21.4202  -29.3054   22.3649 N   0  0  0  0  0  0
  -26.4239  -37.3778   23.9454 N   0  0  0  0  0  0
  -24.6958  -31.0541   22.0919 N   0  0  0  0  0  0
  -23.4216  -28.8155   23.2981 O   0  0  0  0  0  0
  -28.3258  -26.3919   20.2079 O   0  0  0  0  0  0
  -26.5638  -34.8923   22.4662 O   0  0  0  0  0  0
  -23.5471  -32.1338   23.7285 O   0  0  0  0  0  0
  -31.1566  -17.6004   19.3127 C   0  0  0  0  0  0
  -29.6698  -19.8208   20.3765 C   0  0  0  0  0  0
  -30.1547  -17.2953   20.2658 C   0  0  0  0  0  0
  -31.4318  -18.9256   18.9196 C   0  0  0  0  0  0
  -30.7089  -20.0161   19.4419 C   0  0  0  0  0  0
  -29.4123  -18.4390   20.7792 C   0  0  0  0  0  0
  -28.8368  -23.7171   20.6579 C   0  0  0  0  0  0
  -28.9614  -21.1066   21.0005 C   0  0  0  0  0  0
  -28.1614  -24.9380   19.8566 C   0  0  0  0  0  0
  -29.8834  -15.8766   20.6432 N   0  0  0  0  0  0
  -28.7125  -22.4056   20.2291 N   0  0  0  0  0  0
  -29.4500  -23.9551   21.7061 O   0  0  0  0  0  0
  -32.4246  -19.1559   18.0274 F   0  0  0  0  0  0
  -31.0505  -21.2669   19.0473 F   0  0  0  0  0  0
  -28.1743  -18.1195   21.9434 Cl  0  0  0  0  0  0
  -31.4695  -12.5517   19.1665 H   0  0  0  0  0  0
  -30.3655  -11.4660   19.9598 H   0  0  0  0  0  0
  -29.7858  -11.7221   17.5212 H   0  0  0  0  0  0
  -29.6330  -13.4495   17.7177 H   0  0  0  0  0  0
  -27.8869  -11.2776   18.9128 H   0  0  0  0  0  0
  -27.3750  -12.5184   17.8031 H   0  0  0  0  0  0
  -27.6369  -14.2505   19.4658 H   0  0  0  0  0  0
  -28.7189  -12.1785   21.4363 H   0  0  0  0  0  0
  -28.4263  -13.8625   21.7876 H   0  0  0  0  0  0
  -25.2775   -9.5686   22.4756 H   0  0  0  0  0  0
  -24.0010   -7.4641   22.7468 H   0  0  0  0  0  0
  -21.0854   -8.8788   19.8949 H   0  0  0  0  0  0
  -22.3721  -10.9682   19.6162 H   0  0  0  0  0  0
  -21.1997   -7.6142   23.9715 H   0  0  0  0  0  0
  -21.1470   -6.0524   25.9076 H   0  0  0  0  0  0
  -22.0604   -2.7607   23.2855 H   0  0  0  0  0  0
  -22.4117  -11.9858   22.4747 H   0  0  0  0  0  0
  -21.1110  -13.1225   22.2633 H   0  0  0  0  0  0
  -24.6568  -15.8467   20.5166 H   0  0  0  0  0  0
  -26.2761  -15.6339   20.0892 H   0  0  0  0  0  0
  -26.7211  -32.5397   23.1054 H   0  0  0  0  0  0
  -25.0056  -33.9676   25.0362 H   0  0  0  0  0  0
  -22.7219  -31.3014   21.3905 H   0  0  0  0  0  0
  -23.3759  -35.9581   23.3248 H   0  0  0  0  0  0
  -24.3588  -36.8940   22.2079 H   0  0  0  0  0  0
  -23.7204  -37.6440   23.6700 H   0  0  0  0  0  0
  -26.1046  -31.5366   20.5996 H   0  0  0  0  0  0
  -26.8503  -30.8267   21.9987 H   0  0  0  0  0  0
  -28.1148  -28.9470   21.2022 H   0  0  0  0  0  0
  -25.9674  -25.9006   19.0145 H   0  0  0  0  0  0
  -23.9793  -27.2942   19.0078 H   0  0  0  0  0  0
  -23.7616  -30.5845   19.3949 H   0  0  0  0  0  0
  -22.7628  -29.2402   19.8525 H   0  0  0  0  0  0
  -25.1274  -36.1861   25.0828 H   0  0  0  0  0  0
  -20.9983  -28.3262   24.1378 H   0  0  0  0  0  0
  -20.5653  -26.2315   23.3623 H   0  0  0  0  0  0
  -21.6624  -26.7414   22.1201 H   0  0  0  0  0  0
  -19.6905  -25.6301   21.1218 H   0  0  0  0  0  0
  -19.6659  -27.3209   20.6769 H   0  0  0  0  0  0
  -17.4194  -26.6681   21.4013 H   0  0  0  0  0  0
  -18.0268  -26.0062   22.9008 H   0  0  0  0  0  0
  -19.7972  -30.7242   24.2242 H   0  0  0  0  0  0
  -17.5062  -31.6271   24.5160 H   0  0  0  0  0  0
  -15.5375  -30.3007   23.7687 H   0  0  0  0  0  0
  -15.8654  -28.0852   22.7069 H   0  0  0  0  0  0
  -24.5888  -30.7117   25.7784 H   0  0  0  0  0  0
  -24.8956  -32.2965   26.4830 H   0  0  0  0  0  0
  -25.8051  -30.8967   27.0232 H   0  0  0  0  0  0
  -26.2949  -29.6736   24.1195 H   0  0  0  0  0  0
  -27.4064  -29.7259   25.4678 H   0  0  0  0  0  0
  -27.8797  -30.4287   23.9393 H   0  0  0  0  0  0
  -27.2603  -33.3659   26.2007 H   0  0  0  0  0  0
  -28.3850  -32.6919   25.0314 H   0  0  0  0  0  0
  -28.0687  -31.8530   26.5434 H   0  0  0  0  0  0
  -28.2515  -38.0131   24.7602 H   0  0  0  0  0  0
  -28.1127  -36.2671   24.6105 H   0  0  0  0  0  0
  -27.2321  -37.1203   25.8858 H   0  0  0  0  0  0
  -20.9377  -29.8817   21.6893 H   0  0  0  0  0  0
  -26.0096  -38.2818   24.1552 H   0  0  0  0  0  0
  -31.7422  -16.8244   18.8479 H   0  0  0  0  0  0
  -29.5405  -21.3511   21.8920 H   0  0  0  0  0  0
  -27.9861  -20.7968   21.3746 H   0  0  0  0  0  0
  -27.5644  -24.9255   20.7704 H   0  0  0  0  0  0
  -29.2078  -25.0765   19.5840 H   0  0  0  0  0  0
  -28.9622  -15.7124   21.0199 H   0  0  0  0  0  0
  -28.2251  -22.2936   19.3496 H   0  0  0  0  0  0
  1 25  1  0  0  0
  1 30  2  0  0  0
  1 80  1  0  0  0
  2  3  1  0  0  0
  2 25  1  0  0  0
  2 86  1  0  0  0
  2 87  1  0  0  0
  3  4  1  0  0  0
  3 88  1  0  0  0
  3 89  1  0  0  0
  4  5  1  0  0  0
  4 90  1  0  0  0
  4 91  1  0  0  0
  5  6  1  0  0  0
  5 26  1  0  0  0
  5 92  1  0  0  0
  6 25  1  0  0  0
  6 93  1  0  0  0
  6 94  1  0  0  0
  7  8  2  0  0  0
  7 26  1  0  0  0
  7 29  1  0  0  0
  8  9  1  0  0  0
  8 22  1  0  0  0
  9 10  1  0  0  0
  9 27  2  0  0  0
 10 11  2  0  0  0
 10 15  1  0  0  0
 11 12  1  0  0  0
 11 95  1  0  0  0
 12 13  2  0  0  0
 12 96  1  0  0  0
 13 14  1  0  0  0
 13 31  1  0  0  0
 14 15  2  0  0  0
 14 97  1  0  0  0
 15 98  1  0  0  0
 16 17  2  0  0  0
 16 21  1  0  0  0
 16 31  1  0  0  0
 17 18  1  0  0  0
 17 99  1  0  0  0
 18 19  2  0  0  0
 18100  1  0  0  0
 19 20  1  0  0  0
 19 24  1  0  0  0
 20 21  2  0  0  0
 20101  1  0  0  0
 21 23  1  0  0  0
 22 28  1  0  0  0
 22 32  2  0  0  0
 26 27  1  0  0  0
 28102  1  0  0  0
 28103  1  0  0  0
 29104  1  0  0  0
 29105  1  0  0  0
 33 34  1  0  0  0
 33 66  1  0  0  0
 33 70  2  0  0  0
 34 36  1  0  0  0
 34 59  1  0  0  0
 34106  1  0  0  0
 35 44  2  0  0  0
 35 45  1  0  0  0
 35 68  1  0  0  0
 36 56  1  0  0  0
 36107  1  0  0  0
 37 39  1  0  0  0
 37 47  1  0  0  0
 37 66  1  0  0  0
 37108  1  0  0  0
 38 43  2  0  0  0
 38 46  1  0  0  0
 38 47  1  0  0  0
 39 64  1  0  0  0
 39 67  2  0  0  0
 40 52  1  0  0  0
 40 53  2  0  0  0
 40 58  1  0  0  0
 41109  1  0  0  0
 41110  1  0  0  0
 41111  1  0  0  0
 41 48  1  0  0  0
 42 43  1  0  0  0
 42 66  1  0  0  0
 42112  1  0  0  0
 42113  1  0  0  0
 43 44  1  0  0  0
 44114  1  0  0  0
 45 46  2  0  0  0
 45115  1  0  0  0
 46116  1  0  0  0
 47117  1  0  0  0
 47118  1  0  0  0
 48 56  1  0  0  0
 48 65  1  0  0  0
 48119  1  0  0  0
 49 50  1  0  0  0
 49 53  1  0  0  0
 49 64  1  0  0  0
 49120  1  0  0  0
 50 51  1  0  0  0
 50121  1  0  0  0
 50122  1  0  0  0
 51 52  1  0  0  0
 51123  1  0  0  0
 51124  1  0  0  0
 52125  1  0  0  0
 52126  1  0  0  0
 53 54  1  0  0  0
 54 55  2  0  0  0
 54127  1  0  0  0
 55 57  1  0  0  0
 55128  1  0  0  0
 56 69  2  0  0  0
 57 58  2  0  0  0
 57129  1  0  0  0
 58130  1  0  0  0
 59 60  1  0  0  0
 59 61  1  0  0  0
 59 62  1  0  0  0
 60131  1  0  0  0
 60132  1  0  0  0
 60133  1  0  0  0
 61134  1  0  0  0
 61135  1  0  0  0
 61136  1  0  0  0
 62137  1  0  0  0
 62138  1  0  0  0
 62139  1  0  0  0
 63 65  1  0  0  0
 63140  1  0  0  0
 63141  1  0  0  0
 63142  1  0  0  0
 64143  1  0  0  0
 65144  1  0  0  0
 68 79  1  0  0  0
 71 73  2  0  0  0
 71 74  1  0  0  0
 71145  1  0  0  0
 72 75  1  0  0  0
 72 76  2  0  0  0
 72 78  1  0  0  0
 73 76  1  0  0  0
 73 80  1  0  0  0
 74 75  2  0  0  0
 74 83  1  0  0  0
 75 84  1  0  0  0
 76 85  1  0  0  0
 77 79  1  0  0  0
 77 81  1  0  0  0
 77 82  2  0  0  0
 78 81  1  0  0  0
 78146  1  0  0  0
 78147  1  0  0  0
 79148  1  0  0  0
 79149  1  0  0  0
 80150  1  0  0  0
 81151  1  0  0  0
M  ISO  4   1 100  68 101  79 101  80 100
M  END
> <chiral flag>
0

> <version>
0

> <s_m_source_file>
/data/baiqing/PycharmProjects/Reinvent-master-3.2/result/LINK_invent/BTK/process_docking_weight1_custom_sum_contain_oxygen_bond_distance_aromatic_linkinvent_7_9_3/rearranged_h_0012.sdf

> <i_m_source_file_index>
47

> <r_mmod_Potential_Energy-OPLS-2005>
271.064880371094

> <r_mmod_Stretch_Energy-OPLS-2005>
121.176155090332

> <r_mmod_Bend_Energy-OPLS-2005>
360.179595947266

> <r_mmod_Torsional_Energy-OPLS-2005>
214.859741210938

> <r_mmod_Improper_Torsional_Energy-OPLS-2005>
5.03292036056519

> <r_mmod_Van_der_Waal_Energy-OPLS-2005>
148.129043579102

> <r_mmod_Electrostatic_Energy-OPLS-2005>
-418.556823730469

> <r_mmod_Solvation_Energy-OPLS-2005>
-238.293838500977

> <b_mmod_Minimization_Converged-OPLS-2005>
0

> <r_mmod_RMS_Derivative-OPLS-2005>
2.49845600128174

$$$$
48
                    3D
 Structure written by MMmdl.
162169  0  0  1  0            999 V2000
  -30.5424  -14.9380   20.4049 C   0  0  0  0  0  0
  -30.4373  -12.5797   19.4892 C   0  0  0  0  0  0
  -29.5137  -12.5233   18.2499 C   0  0  0  0  0  0
  -28.0429  -12.3268   18.6655 C   0  0  0  0  0  0
  -27.6264  -13.2513   19.8405 C   0  0  2  0  0  0
  -28.6737  -13.2653   20.9729 C   0  0  0  0  0  0
  -25.2421  -13.8206   20.5729 C   0  0  0  0  0  0
  -24.1751  -13.0417   20.9255 C   0  0  0  0  0  0
  -24.6381  -11.6913   20.8775 C   0  0  0  0  0  0
  -23.9072  -10.4283   21.0405 C   0  0  0  0  0  0
  -24.3621   -9.4195   21.9182 C   0  0  0  0  0  0
  -23.6291   -8.2234   22.0750 C   0  0  0  0  0  0
  -22.4273   -8.0281   21.3542 C   0  0  0  0  0  0
  -21.9913   -9.0255   20.4641 C   0  0  0  0  0  0
  -22.7247  -10.2122   20.3050 C   0  0  0  0  0  0
  -21.6841   -6.0737   22.5276 C   0  0  0  0  0  0
  -21.4017   -6.5647   23.8211 C   0  0  0  0  0  0
  -21.3662   -5.6799   24.9176 C   0  0  0  0  0  0
  -21.6037   -4.3058   24.7219 C   0  0  0  0  0  0
  -21.8819   -3.8154   23.4339 C   0  0  0  0  0  0
  -21.9192   -4.6971   22.3399 C   0  0  0  0  0  0
  -22.7768  -13.5170   21.1906 C   0  0  0  0  0  0
  -22.1645   -4.2160   21.0980 F   0  0  0  0  0  0
  -21.5635   -3.4536   25.7737 F   0  0  0  0  0  0
  -29.9450  -13.6799   20.3648 N   0  0  0  0  0  0
  -26.2865  -12.9448   20.3279 N   0  0  0  0  0  0
  -25.9318  -11.6570   20.5779 N   0  0  0  0  0  0
  -22.0427  -12.8157   22.0457 N   0  0  0  0  0  0
  -25.4042  -15.1943   20.4144 N   0  0  0  0  0  0
  -31.7530  -14.9961   20.1643 O   0  0  0  0  0  0
  -21.6640   -6.8876   21.4236 O   0  0  0  0  0  0
  -22.3458  -14.5472   20.6739 O   0  0  0  0  0  0
  -24.6445  -31.8427   23.1868 C   0  0  0  0  0  0
  -25.9216  -32.4679   23.8268 C   0  0  1  0  0  0
  -27.2161  -27.1262   20.1412 C   0  0  0  0  0  0
  -25.5967  -33.8487   24.2185 N   0  0  0  0  0  0
  -23.4477  -30.4615   21.5327 C   0  0  2  0  0  0
  -24.8977  -28.8874   20.1101 C   0  0  0  0  0  0
  -22.7575  -29.4522   22.4852 C   0  0  0  0  0  0
  -18.0321  -28.1379   22.8474 C   0  0  0  0  0  0
  -24.1506  -36.7251   23.2635 C   0  0  0  0  0  0
  -26.0061  -30.7126   21.3883 C   0  0  0  0  0  0
  -26.0768  -29.3242   20.7266 C   0  0  0  0  0  0
  -27.2364  -28.4592   20.7256 C   0  0  0  0  0  0
  -26.0093  -26.7952   19.4870 C   0  0  0  0  0  0
  -24.8769  -27.6362   19.4768 C   0  0  0  0  0  0
  -23.6757  -29.7918   20.1522 C   0  0  0  0  0  0
  -25.4135  -36.3021   24.0308 C   0  0  1  0  0  0
  -20.5928  -28.3704   23.1251 C   0  0  2  0  0  0
  -20.6799  -26.9404   22.5420 C   0  0  0  0  0  0
  -19.5777  -26.6368   21.5222 C   0  0  0  0  0  0
  -18.1953  -26.7917   22.1621 C   0  0  0  0  0  0
  -19.1568  -28.8858   23.2850 C   0  0  0  0  0  0
  -18.9482  -30.1464   23.8863 C   0  0  0  0  0  0
  -17.6473  -30.6575   24.0544 C   0  0  0  0  0  0
  -25.9089  -34.9392   23.5049 C   0  0  0  0  0  0
  -16.5367  -29.9063   23.6324 C   0  0  0  0  0  0
  -16.7296  -28.6485   23.0341 C   0  0  0  0  0  0
  -26.4535  -31.6547   25.0708 C   0  0  0  0  0  0
  -25.3715  -31.3740   26.1402 C   0  0  0  0  0  0
  -27.0394  -30.2933   24.6291 C   0  0  0  0  0  0
  -27.6062  -32.4315   25.7504 C   0  0  0  0  0  0
  -27.5583  -37.1785   24.8463 C   0  0  0  0  0  0
  -21.4264  -29.3036   22.3624 N   0  0  0  0  0  0
  -26.4297  -37.3735   23.9402 N   0  0  0  0  0  0
  -24.7189  -31.0268   22.0916 N   0  0  0  0  0  0
  -23.4232  -28.8052   23.2986 O   0  0  0  0  0  0
  -28.2664  -26.1355   20.2079 O   0  0  0  0  0  0
  -26.5664  -34.8888   22.4629 O   0  0  0  0  0  0
  -23.5562  -32.1314   23.7084 O   0  0  0  0  0  0
  -29.5189  -20.5937   20.3919 C   0  0  0  0  0  0
  -29.2863  -23.4744   21.8990 C   0  0  0  0  0  0
  -29.1063  -18.9824   20.2281 C   0  0  0  0  0  0
  -26.2667  -21.2933   20.2854 C   0  0  0  0  0  0
  -30.1511  -17.6691   20.4837 C   0  0  0  0  0  0
  -27.4683  -21.5402   19.3573 C   0  0  0  0  0  0
  -24.9436  -21.1136   19.5143 C   0  0  0  0  0  0
  -28.0079  -24.6116   19.9759 C   0  0  0  0  0  0
  -29.0065  -23.3024   20.3971 C   0  0  2  0  0  0
  -29.7662  -16.1271   20.4997 N   0  0  0  0  0  0
  -28.7086  -21.7517   20.1123 N   0  0  0  0  0  0
  -23.7841  -20.9729   20.4131 N   0  3  0  0  0  0
  -30.6580  -20.7780   20.8264 O   0  0  0  0  0  0
  -31.4691  -12.7399   19.1745 H   0  0  0  0  0  0
  -30.4356  -11.6284   20.0248 H   0  0  0  0  0  0
  -29.8233  -11.7177   17.5828 H   0  0  0  0  0  0
  -29.6106  -13.4506   17.6836 H   0  0  0  0  0  0
  -27.9177  -11.2832   18.9566 H   0  0  0  0  0  0
  -27.3836  -12.4879   17.8127 H   0  0  0  0  0  0
  -27.5911  -14.2576   19.4221 H   0  0  0  0  0  0
  -28.7596  -12.2808   21.4351 H   0  0  0  0  0  0
  -28.3820  -13.9553   21.7663 H   0  0  0  0  0  0
  -25.2750   -9.5673   22.4777 H   0  0  0  0  0  0
  -23.9998   -7.4617   22.7457 H   0  0  0  0  0  0
  -21.0854   -8.8762   19.8942 H   0  0  0  0  0  0
  -22.3695  -10.9666   19.6174 H   0  0  0  0  0  0
  -21.2009   -7.6155   23.9723 H   0  0  0  0  0  0
  -21.1478   -6.0529   25.9085 H   0  0  0  0  0  0
  -22.0599   -2.7621   23.2834 H   0  0  0  0  0  0
  -22.4054  -11.9819   22.4840 H   0  0  0  0  0  0
  -21.1044  -13.1162   22.2670 H   0  0  0  0  0  0
  -24.6265  -15.8358   20.5309 H   0  0  0  0  0  0
  -26.2308  -15.6409   20.0396 H   0  0  0  0  0  0
  -26.7270  -32.5269   23.0987 H   0  0  0  0  0  0
  -25.0120  -33.9609   25.0331 H   0  0  0  0  0  0
  -22.7497  -31.2861   21.3773 H   0  0  0  0  0  0
  -23.3774  -35.9580   23.3279 H   0  0  0  0  0  0
  -24.3599  -36.8903   22.2057 H   0  0  0  0  0  0
  -23.7265  -37.6435   23.6700 H   0  0  0  0  0  0
  -26.1663  -31.4675   20.6169 H   0  0  0  0  0  0
  -26.8752  -30.7607   22.0333 H   0  0  0  0  0  0
  -28.1348  -28.7852   21.2309 H   0  0  0  0  0  0
  -25.9072  -25.8394   18.9959 H   0  0  0  0  0  0
  -23.9757  -27.2952   18.9869 H   0  0  0  0  0  0
  -23.8171  -30.5667   19.3991 H   0  0  0  0  0  0
  -22.7898  -29.2383   19.8364 H   0  0  0  0  0  0
  -25.1328  -36.1835   25.0799 H   0  0  0  0  0  0
  -21.0020  -28.3284   24.1371 H   0  0  0  0  0  0
  -20.5693  -26.2300   23.3626 H   0  0  0  0  0  0
  -21.6658  -26.7402   22.1205 H   0  0  0  0  0  0
  -19.6930  -25.6278   21.1248 H   0  0  0  0  0  0
  -19.6713  -27.3173   20.6747 H   0  0  0  0  0  0
  -17.4224  -26.6666   21.4020 H   0  0  0  0  0  0
  -18.0343  -26.0067   22.9023 H   0  0  0  0  0  0
  -19.7952  -30.7300   24.2197 H   0  0  0  0  0  0
  -17.5019  -31.6245   24.5162 H   0  0  0  0  0  0
  -15.5360  -30.2944   23.7672 H   0  0  0  0  0  0
  -15.8702  -28.0794   22.7063 H   0  0  0  0  0  0
  -24.5929  -30.7040   25.7748 H   0  0  0  0  0  0
  -24.8859  -32.2908   26.4742 H   0  0  0  0  0  0
  -25.7997  -30.8990   27.0235 H   0  0  0  0  0  0
  -26.3002  -29.6653   24.1296 H   0  0  0  0  0  0
  -27.4004  -29.7235   25.4865 H   0  0  0  0  0  0
  -27.8919  -30.4170   23.9608 H   0  0  0  0  0  0
  -27.2658  -33.3653   26.1996 H   0  0  0  0  0  0
  -28.3920  -32.6801   25.0363 H   0  0  0  0  0  0
  -28.0670  -31.8480   26.5485 H   0  0  0  0  0  0
  -28.2570  -38.0108   24.7514 H   0  0  0  0  0  0
  -28.1099  -36.2629   24.6281 H   0  0  0  0  0  0
  -27.2293  -37.1422   25.8861 H   0  0  0  0  0  0
  -20.9472  -29.8785   21.6826 H   0  0  0  0  0  0
  -26.0147  -38.2792   24.1405 H   0  0  0  0  0  0
  -30.0823  -22.8264   22.2593 H   0  0  0  0  0  0
  -28.3932  -23.2619   22.4871 H   0  0  0  0  0  0
  -29.5872  -24.5002   22.1138 H   0  0  0  0  0  0
  -28.6907  -18.8621   19.2290 H   0  0  0  0  0  0
  -28.2625  -18.8426   20.9005 H   0  0  0  0  0  0
  -26.1764  -22.1330   20.9739 H   0  0  0  0  0  0
  -26.4516  -20.4134   20.9016 H   0  0  0  0  0  0
  -30.6239  -17.8465   21.4500 H   0  0  0  0  0  0
  -30.9669  -17.7672   19.7676 H   0  0  0  0  0  0
  -27.2720  -22.3922   18.7108 H   0  0  0  0  0  0
  -27.5819  -20.7097   18.6604 H   0  0  0  0  0  0
  -24.9971  -20.2328   18.8731 H   0  0  0  0  0  0
  -24.7730  -21.9678   18.8569 H   0  0  0  0  0  0
  -27.0499  -24.4067   20.4528 H   0  0  0  0  0  0
  -27.8189  -24.5324   18.9055 H   0  0  0  0  0  0
  -29.9483  -23.4846   19.8778 H   0  0  0  0  0  0
  -28.7808  -15.9444   20.6219 H   0  0  0  0  0  0
  -23.8748  -20.1636   21.0018 H   0  0  0  0  0  0
  -22.9424  -20.8688   19.8734 H   0  0  0  0  0  0
  -23.6794  -21.7851   20.9948 H   0  0  0  0  0  0
  1 25  1  0  0  0
  1 30  2  0  0  0
  1 80  1  0  0  0
  2  3  1  0  0  0
  2 25  1  0  0  0
  2 84  1  0  0  0
  2 85  1  0  0  0
  3  4  1  0  0  0
  3 86  1  0  0  0
  3 87  1  0  0  0
  4  5  1  0  0  0
  4 88  1  0  0  0
  4 89  1  0  0  0
  5  6  1  0  0  0
  5 26  1  0  0  0
  5 90  1  0  0  0
  6 25  1  0  0  0
  6 91  1  0  0  0
  6 92  1  0  0  0
  7  8  2  0  0  0
  7 26  1  0  0  0
  7 29  1  0  0  0
  8  9  1  0  0  0
  8 22  1  0  0  0
  9 10  1  0  0  0
  9 27  2  0  0  0
 10 11  2  0  0  0
 10 15  1  0  0  0
 11 12  1  0  0  0
 11 93  1  0  0  0
 12 13  2  0  0  0
 12 94  1  0  0  0
 13 14  1  0  0  0
 13 31  1  0  0  0
 14 15  2  0  0  0
 14 95  1  0  0  0
 15 96  1  0  0  0
 16 17  2  0  0  0
 16 21  1  0  0  0
 16 31  1  0  0  0
 17 18  1  0  0  0
 17 97  1  0  0  0
 18 19  2  0  0  0
 18 98  1  0  0  0
 19 20  1  0  0  0
 19 24  1  0  0  0
 20 21  2  0  0  0
 20 99  1  0  0  0
 21 23  1  0  0  0
 22 28  1  0  0  0
 22 32  2  0  0  0
 26 27  1  0  0  0
 28100  1  0  0  0
 28101  1  0  0  0
 29102  1  0  0  0
 29103  1  0  0  0
 33 34  1  0  0  0
 33 66  1  0  0  0
 33 70  2  0  0  0
 34 36  1  0  0  0
 34 59  1  0  0  0
 34104  1  0  0  0
 35 44  2  0  0  0
 35 45  1  0  0  0
 35 68  1  0  0  0
 36 56  1  0  0  0
 36105  1  0  0  0
 37 39  1  0  0  0
 37 47  1  0  0  0
 37 66  1  0  0  0
 37106  1  0  0  0
 38 43  2  0  0  0
 38 46  1  0  0  0
 38 47  1  0  0  0
 39 64  1  0  0  0
 39 67  2  0  0  0
 40 52  1  0  0  0
 40 53  2  0  0  0
 40 58  1  0  0  0
 41107  1  0  0  0
 41108  1  0  0  0
 41109  1  0  0  0
 41 48  1  0  0  0
 42 43  1  0  0  0
 42 66  1  0  0  0
 42110  1  0  0  0
 42111  1  0  0  0
 43 44  1  0  0  0
 44112  1  0  0  0
 45 46  2  0  0  0
 45113  1  0  0  0
 46114  1  0  0  0
 47115  1  0  0  0
 47116  1  0  0  0
 48 56  1  0  0  0
 48 65  1  0  0  0
 48117  1  0  0  0
 49 50  1  0  0  0
 49 53  1  0  0  0
 49 64  1  0  0  0
 49118  1  0  0  0
 50 51  1  0  0  0
 50119  1  0  0  0
 50120  1  0  0  0
 51 52  1  0  0  0
 51121  1  0  0  0
 51122  1  0  0  0
 52123  1  0  0  0
 52124  1  0  0  0
 53 54  1  0  0  0
 54 55  2  0  0  0
 54125  1  0  0  0
 55 57  1  0  0  0
 55126  1  0  0  0
 56 69  2  0  0  0
 57 58  2  0  0  0
 57127  1  0  0  0
 58128  1  0  0  0
 59 60  1  0  0  0
 59 61  1  0  0  0
 59 62  1  0  0  0
 60129  1  0  0  0
 60130  1  0  0  0
 60131  1  0  0  0
 61132  1  0  0  0
 61133  1  0  0  0
 61134  1  0  0  0
 62135  1  0  0  0
 62136  1  0  0  0
 62137  1  0  0  0
 63 65  1  0  0  0
 63138  1  0  0  0
 63139  1  0  0  0
 63140  1  0  0  0
 64141  1  0  0  0
 65142  1  0  0  0
 68 78  1  0  0  0
 71 73  1  0  0  0
 71 81  1  0  0  0
 71 83  2  0  0  0
 72143  1  0  0  0
 72144  1  0  0  0
 72145  1  0  0  0
 72 79  1  0  0  0
 73 75  1  0  0  0
 73146  1  0  0  0
 73147  1  0  0  0
 74 76  1  0  0  0
 74 77  1  0  0  0
 74148  1  0  0  0
 74149  1  0  0  0
 75 80  1  0  0  0
 75150  1  0  0  0
 75151  1  0  0  0
 76 81  1  0  0  0
 76152  1  0  0  0
 76153  1  0  0  0
 77 82  1  0  0  0
 77154  1  0  0  0
 77155  1  0  0  0
 78 79  1  0  0  0
 78156  1  0  0  0
 78157  1  0  0  0
 79 81  1  0  0  0
 79158  1  0  0  0
 80159  1  0  0  0
 82160  1  0  0  0
 82161  1  0  0  0
 82162  1  0  0  0
M  CHG  1  82   1
M  ISO  4   1 100  68 101  78 101  80 100
M  END
> <chiral flag>
0

> <version>
0

> <s_m_source_file>
/data/baiqing/PycharmProjects/Reinvent-master-3.2/result/LINK_invent/BTK/process_docking_weight1_custom_sum_contain_oxygen_bond_distance_aromatic_linkinvent_7_9_3/rearranged_h_0012.sdf

> <i_m_source_file_index>
48

> <r_mmod_Potential_Energy-OPLS-2005>
290.276336669922

> <r_mmod_Stretch_Energy-OPLS-2005>
290.140655517578

> <r_mmod_Bend_Energy-OPLS-2005>
259.637145996094

> <r_mmod_Torsional_Energy-OPLS-2005>
244.804748535156

> <r_mmod_Improper_Torsional_Energy-OPLS-2005>
4.68627977371216

> <r_mmod_Van_der_Waal_Energy-OPLS-2005>
112.153167724609

> <r_mmod_Electrostatic_Energy-OPLS-2005>
-238.693740844727

> <r_mmod_Solvation_Energy-OPLS-2005>
-575.020751953125

> <b_mmod_Minimization_Converged-OPLS-2005>
0

> <r_mmod_RMS_Derivative-OPLS-2005>
2.44612050056458

$$$$
49
                    3D
 Structure written by MMmdl.
152160  0  0  1  0            999 V2000
  -30.5110  -15.0068   20.4070 C   0  0  0  0  0  0
  -30.4372  -12.6283   19.4931 C   0  0  0  0  0  0
  -29.5177  -12.5296   18.2546 C   0  0  0  0  0  0
  -28.0537  -12.3045   18.6776 C   0  0  0  0  0  0
  -27.6194  -13.2504   19.8281 C   0  0  2  0  0  0
  -28.6617  -13.3092   20.9625 C   0  0  0  0  0  0
  -25.2420  -13.8222   20.5706 C   0  0  0  0  0  0
  -24.1751  -13.0444   20.9242 C   0  0  0  0  0  0
  -24.6377  -11.6930   20.8761 C   0  0  0  0  0  0
  -23.9065  -10.4295   21.0418 C   0  0  0  0  0  0
  -24.3623   -9.4211   21.9191 C   0  0  0  0  0  0
  -23.6299   -8.2239   22.0754 C   0  0  0  0  0  0
  -22.4278   -8.0276   21.3545 C   0  0  0  0  0  0
  -21.9918   -9.0250   20.4645 C   0  0  0  0  0  0
  -22.7244  -10.2132   20.3060 C   0  0  0  0  0  0
  -21.6854   -6.0738   22.5282 C   0  0  0  0  0  0
  -21.4009   -6.5638   23.8214 C   0  0  0  0  0  0
  -21.3661   -5.6791   24.9176 C   0  0  0  0  0  0
  -21.6044   -4.3054   24.7225 C   0  0  0  0  0  0
  -21.8820   -3.8151   23.4346 C   0  0  0  0  0  0
  -21.9187   -4.6966   22.3402 C   0  0  0  0  0  0
  -22.7773  -13.5210   21.1903 C   0  0  0  0  0  0
  -22.1661   -4.2150   21.0980 F   0  0  0  0  0  0
  -21.5630   -3.4538   25.7739 F   0  0  0  0  0  0
  -29.9241  -13.7397   20.3489 N   0  0  0  0  0  0
  -26.2830  -12.9451   20.3207 N   0  0  0  0  0  0
  -25.9297  -11.6583   20.5728 N   0  0  0  0  0  0
  -22.0422  -12.8179   22.0457 N   0  0  0  0  0  0
  -25.4069  -15.1951   20.4126 N   0  0  0  0  0  0
  -31.7297  -15.0450   20.1982 O   0  0  0  0  0  0
  -21.6637   -6.8883   21.4246 O   0  0  0  0  0  0
  -22.3446  -14.5510   20.6752 O   0  0  0  0  0  0
  -24.6491  -31.8375   23.1838 C   0  0  0  0  0  0
  -25.9243  -32.4656   23.8241 C   0  0  1  0  0  0
  -27.2114  -27.0813   20.1582 C   0  0  0  0  0  0
  -25.5974  -33.8464   24.2156 N   0  0  0  0  0  0
  -23.4559  -30.4558   21.5293 C   0  0  2  0  0  0
  -24.9052  -28.8738   20.1086 C   0  0  0  0  0  0
  -22.7596  -29.4514   22.4821 C   0  0  0  0  0  0
  -18.0311  -28.1422   22.8454 C   0  0  0  0  0  0
  -24.1500  -36.7240   23.2640 C   0  0  0  0  0  0
  -26.0171  -30.6932   21.3912 C   0  0  0  0  0  0
  -26.0846  -29.3010   20.7302 C   0  0  0  0  0  0
  -27.2382  -28.4213   20.7363 C   0  0  0  0  0  0
  -26.0054  -26.7672   19.4952 C   0  0  0  0  0  0
  -24.8799  -27.6225   19.4738 C   0  0  0  0  0  0
  -23.6856  -29.7839   20.1488 C   0  0  0  0  0  0
  -25.4135  -36.3008   24.0305 C   0  0  1  0  0  0
  -20.5924  -28.3741   23.1215 C   0  0  2  0  0  0
  -20.6803  -26.9440   22.5405 C   0  0  0  0  0  0
  -19.5786  -26.6392   21.5212 C   0  0  0  0  0  0
  -18.1956  -26.7951   22.1612 C   0  0  0  0  0  0
  -19.1567  -28.8902   23.2817 C   0  0  0  0  0  0
  -18.9488  -30.1488   23.8857 C   0  0  0  0  0  0
  -17.6484  -30.6602   24.0562 C   0  0  0  0  0  0
  -25.9087  -34.9384   23.5037 C   0  0  0  0  0  0
  -16.5372  -29.9098   23.6352 C   0  0  0  0  0  0
  -16.7292  -28.6530   23.0344 C   0  0  0  0  0  0
  -26.4546  -31.6552   25.0710 C   0  0  0  0  0  0
  -25.3714  -31.3757   26.1391 C   0  0  0  0  0  0
  -27.0424  -30.2939   24.6347 C   0  0  0  0  0  0
  -27.6071  -32.4327   25.7497 C   0  0  0  0  0  0
  -27.5576  -37.1773   24.8462 C   0  0  0  0  0  0
  -21.4282  -29.3043   22.3573 N   0  0  0  0  0  0
  -26.4293  -37.3731   23.9399 N   0  0  0  0  0  0
  -24.7277  -31.0179   22.0899 N   0  0  0  0  0  0
  -23.4204  -28.8055   23.2996 O   0  0  0  0  0  0
  -28.2462  -26.0640   20.2364 O   0  0  0  0  0  0
  -26.5676  -34.8895   22.4618 O   0  0  0  0  0  0
  -23.5592  -32.1283   23.7025 O   0  0  0  0  0  0
  -31.2447  -18.0449   21.2018 C   0  0  0  0  0  0
  -31.6317  -19.3699   21.4913 C   0  0  0  0  0  0
  -30.0151  -17.7255   20.6034 C   0  0  0  0  0  0
  -29.5413  -20.3905   20.5642 C   0  0  0  0  0  0
  -30.8190  -20.5023   21.2010 C   0  0  0  0  0  0
  -29.1820  -18.9443   20.2960 C   0  0  0  0  0  0
  -32.9869  -19.5696   22.1528 C   0  0  0  0  0  0
  -28.9989  -23.1952   20.4556 C   0  0  0  0  0  0
  -27.9809  -24.5148   20.0505 C   0  0  0  0  0  0
  -29.7161  -16.2079   20.4327 N   0  0  0  0  0  0
  -28.7298  -21.6367   20.2484 N   0  0  0  0  0  0
  -31.4727  -22.0353   21.6828 Cl  0  0  0  0  0  0
  -27.6530  -18.6494   19.5463 Cl  0  0  0  0  0  0
  -31.4669  -12.8005   19.1751 H   0  0  0  0  0  0
  -30.4486  -11.6884   20.0478 H   0  0  0  0  0  0
  -29.8477  -11.7235   17.5978 H   0  0  0  0  0  0
  -29.5891  -13.4503   17.6737 H   0  0  0  0  0  0
  -27.9600  -11.2667   19.0009 H   0  0  0  0  0  0
  -27.3878  -12.4151   17.8206 H   0  0  0  0  0  0
  -27.5714  -14.2441   19.3820 H   0  0  0  0  0  0
  -28.7655  -12.3402   21.4526 H   0  0  0  0  0  0
  -28.3513  -14.0173   21.7335 H   0  0  0  0  0  0
  -25.2771   -9.5675   22.4767 H   0  0  0  0  0  0
  -24.0002   -7.4626   22.7470 H   0  0  0  0  0  0
  -21.0851   -8.8776   19.8947 H   0  0  0  0  0  0
  -22.3714  -10.9670   19.6165 H   0  0  0  0  0  0
  -21.2003   -7.6145   23.9718 H   0  0  0  0  0  0
  -21.1484   -6.0520   25.9077 H   0  0  0  0  0  0
  -22.0597   -2.7609   23.2845 H   0  0  0  0  0  0
  -22.4050  -11.9842   22.4837 H   0  0  0  0  0  0
  -21.1042  -13.1189   22.2679 H   0  0  0  0  0  0
  -24.6357  -15.8431   20.5289 H   0  0  0  0  0  0
  -26.2405  -15.6404   20.0540 H   0  0  0  0  0  0
  -26.7303  -32.5234   23.0954 H   0  0  0  0  0  0
  -25.0110  -33.9577   25.0291 H   0  0  0  0  0  0
  -22.7630  -31.2840   21.3694 H   0  0  0  0  0  0
  -23.3771  -35.9563   23.3292 H   0  0  0  0  0  0
  -24.3578  -36.8892   22.2058 H   0  0  0  0  0  0
  -23.7257  -37.6427   23.6697 H   0  0  0  0  0  0
  -26.1824  -31.4471   20.6195 H   0  0  0  0  0  0
  -26.8834  -30.7396   22.0410 H   0  0  0  0  0  0
  -28.1337  -28.7412   21.2505 H   0  0  0  0  0  0
  -25.8971  -25.8084   19.0101 H   0  0  0  0  0  0
  -23.9793  -27.2909   18.9758 H   0  0  0  0  0  0
  -23.8322  -30.5582   19.3943 H   0  0  0  0  0  0
  -22.7995  -29.2302   19.8329 H   0  0  0  0  0  0
  -25.1326  -36.1825   25.0799 H   0  0  0  0  0  0
  -21.0003  -28.3353   24.1338 H   0  0  0  0  0  0
  -20.5727  -26.2351   23.3621 H   0  0  0  0  0  0
  -21.6663  -26.7462   22.1183 H   0  0  0  0  0  0
  -19.6958  -25.6295   21.1264 H   0  0  0  0  0  0
  -19.6745  -27.3183   20.6727 H   0  0  0  0  0  0
  -17.4226  -26.6678   21.4011 H   0  0  0  0  0  0
  -18.0352  -26.0116   22.9038 H   0  0  0  0  0  0
  -19.7962  -30.7305   24.2216 H   0  0  0  0  0  0
  -17.5042  -31.6280   24.5165 H   0  0  0  0  0  0
  -15.5370  -30.2984   23.7715 H   0  0  0  0  0  0
  -15.8690  -28.0844   22.7070 H   0  0  0  0  0  0
  -24.5899  -30.7110   25.7693 H   0  0  0  0  0  0
  -24.8905  -32.2946   26.4754 H   0  0  0  0  0  0
  -25.7974  -30.8957   27.0211 H   0  0  0  0  0  0
  -26.3059  -29.6637   24.1359 H   0  0  0  0  0  0
  -27.4009  -29.7269   25.4948 H   0  0  0  0  0  0
  -27.8977  -30.4151   23.9699 H   0  0  0  0  0  0
  -27.2672  -33.3664   26.1991 H   0  0  0  0  0  0
  -28.3928  -32.6828   25.0353 H   0  0  0  0  0  0
  -28.0695  -31.8511   26.5484 H   0  0  0  0  0  0
  -28.2571  -38.0089   24.7506 H   0  0  0  0  0  0
  -28.1094  -36.2612   24.6295 H   0  0  0  0  0  0
  -27.2282  -37.1418   25.8862 H   0  0  0  0  0  0
  -20.9518  -29.8736   21.6717 H   0  0  0  0  0  0
  -26.0153  -38.2790   24.1422 H   0  0  0  0  0  0
  -31.9152  -17.2450   21.4795 H   0  0  0  0  0  0
  -33.5253  -18.6296   22.2706 H   0  0  0  0  0  0
  -32.8680  -20.0103   23.1432 H   0  0  0  0  0  0
  -33.6094  -20.2318   21.5499 H   0  0  0  0  0  0
  -29.1949  -23.3193   21.5203 H   0  0  0  0  0  0
  -29.9462  -23.3998   19.9558 H   0  0  0  0  0  0
  -27.0369  -24.3246   20.5615 H   0  0  0  0  0  0
  -27.7556  -24.3956   18.9905 H   0  0  0  0  0  0
  -28.7318  -16.0067   20.3497 H   0  0  0  0  0  0
  -27.8346  -21.4318   19.8145 H   0  0  0  0  0  0
  1 25  1  0  0  0
  1 30  2  0  0  0
  1 80  1  0  0  0
  2  3  1  0  0  0
  2 25  1  0  0  0
  2 84  1  0  0  0
  2 85  1  0  0  0
  3  4  1  0  0  0
  3 86  1  0  0  0
  3 87  1  0  0  0
  4  5  1  0  0  0
  4 88  1  0  0  0
  4 89  1  0  0  0
  5  6  1  0  0  0
  5 26  1  0  0  0
  5 90  1  0  0  0
  6 25  1  0  0  0
  6 91  1  0  0  0
  6 92  1  0  0  0
  7  8  2  0  0  0
  7 26  1  0  0  0
  7 29  1  0  0  0
  8  9  1  0  0  0
  8 22  1  0  0  0
  9 10  1  0  0  0
  9 27  2  0  0  0
 10 11  2  0  0  0
 10 15  1  0  0  0
 11 12  1  0  0  0
 11 93  1  0  0  0
 12 13  2  0  0  0
 12 94  1  0  0  0
 13 14  1  0  0  0
 13 31  1  0  0  0
 14 15  2  0  0  0
 14 95  1  0  0  0
 15 96  1  0  0  0
 16 17  2  0  0  0
 16 21  1  0  0  0
 16 31  1  0  0  0
 17 18  1  0  0  0
 17 97  1  0  0  0
 18 19  2  0  0  0
 18 98  1  0  0  0
 19 20  1  0  0  0
 19 24  1  0  0  0
 20 21  2  0  0  0
 20 99  1  0  0  0
 21 23  1  0  0  0
 22 28  1  0  0  0
 22 32  2  0  0  0
 26 27  1  0  0  0
 28100  1  0  0  0
 28101  1  0  0  0
 29102  1  0  0  0
 29103  1  0  0  0
 33 34  1  0  0  0
 33 66  1  0  0  0
 33 70  2  0  0  0
 34 36  1  0  0  0
 34 59  1  0  0  0
 34104  1  0  0  0
 35 44  2  0  0  0
 35 45  1  0  0  0
 35 68  1  0  0  0
 36 56  1  0  0  0
 36105  1  0  0  0
 37 39  1  0  0  0
 37 47  1  0  0  0
 37 66  1  0  0  0
 37106  1  0  0  0
 38 43  2  0  0  0
 38 46  1  0  0  0
 38 47  1  0  0  0
 39 64  1  0  0  0
 39 67  2  0  0  0
 40 52  1  0  0  0
 40 53  2  0  0  0
 40 58  1  0  0  0
 41107  1  0  0  0
 41108  1  0  0  0
 41109  1  0  0  0
 41 48  1  0  0  0
 42 43  1  0  0  0
 42 66  1  0  0  0
 42110  1  0  0  0
 42111  1  0  0  0
 43 44  1  0  0  0
 44112  1  0  0  0
 45 46  2  0  0  0
 45113  1  0  0  0
 46114  1  0  0  0
 47115  1  0  0  0
 47116  1  0  0  0
 48 56  1  0  0  0
 48 65  1  0  0  0
 48117  1  0  0  0
 49 50  1  0  0  0
 49 53  1  0  0  0
 49 64  1  0  0  0
 49118  1  0  0  0
 50 51  1  0  0  0
 50119  1  0  0  0
 50120  1  0  0  0
 51 52  1  0  0  0
 51121  1  0  0  0
 51122  1  0  0  0
 52123  1  0  0  0
 52124  1  0  0  0
 53 54  1  0  0  0
 54 55  2  0  0  0
 54125  1  0  0  0
 55 57  1  0  0  0
 55126  1  0  0  0
 56 69  2  0  0  0
 57 58  2  0  0  0
 57127  1  0  0  0
 58128  1  0  0  0
 59 60  1  0  0  0
 59 61  1  0  0  0
 59 62  1  0  0  0
 60129  1  0  0  0
 60130  1  0  0  0
 60131  1  0  0  0
 61132  1  0  0  0
 61133  1  0  0  0
 61134  1  0  0  0
 62135  1  0  0  0
 62136  1  0  0  0
 62137  1  0  0  0
 63 65  1  0  0  0
 63138  1  0  0  0
 63139  1  0  0  0
 63140  1  0  0  0
 64141  1  0  0  0
 65142  1  0  0  0
 68 79  1  0  0  0
 71 72  2  0  0  0
 71 73  1  0  0  0
 71143  1  0  0  0
 72 75  1  0  0  0
 72 77  1  0  0  0
 73 76  2  0  0  0
 73 80  1  0  0  0
 74 75  2  0  0  0
 74 76  1  0  0  0
 74 81  1  0  0  0
 75 82  1  0  0  0
 76 83  1  0  0  0
 77144  1  0  0  0
 77145  1  0  0  0
 77146  1  0  0  0
 78 79  1  0  0  0
 78 81  1  0  0  0
 78147  1  0  0  0
 78148  1  0  0  0
 79149  1  0  0  0
 79150  1  0  0  0
 80151  1  0  0  0
 81152  1  0  0  0
M  ISO  4   1 100  68 101  79 101  80 100
M  END
> <chiral flag>
0

> <version>
0

> <s_m_source_file>
/data/baiqing/PycharmProjects/Reinvent-master-3.2/result/LINK_invent/BTK/process_docking_weight1_custom_sum_contain_oxygen_bond_distance_aromatic_linkinvent_7_9_3/rearranged_h_0012.sdf

> <i_m_source_file_index>
49

> <r_mmod_Potential_Energy-OPLS-2005>
683.684387207031

> <r_mmod_Stretch_Energy-OPLS-2005>
325.239562988281

> <r_mmod_Bend_Energy-OPLS-2005>
282.5732421875

> <r_mmod_Torsional_Energy-OPLS-2005>
206.250625610352

> <r_mmod_Improper_Torsional_Energy-OPLS-2005>
6.11711263656616

> <r_mmod_Van_der_Waal_Energy-OPLS-2005>
143.1796875

> <r_mmod_Electrostatic_Energy-OPLS-2005>
-309.890899658203

> <r_mmod_Solvation_Energy-OPLS-2005>
-212.676574707031

> <b_mmod_Minimization_Converged-OPLS-2005>
0

> <r_mmod_RMS_Derivative-OPLS-2005>
2.04973578453064

$$$$
50
                    3D
 Structure written by MMmdl.
140147  0  0  1  0            999 V2000
  -29.9283  -16.5799   20.2615 C   0  0  0  0  0  0
  -30.3120  -13.8110   19.5160 C   0  0  0  0  0  0
  -29.5689  -12.9495   18.4127 C   0  0  0  0  0  0
  -28.2354  -12.3826   18.9053 C   0  0  0  0  0  0
  -27.5722  -13.4250   19.8167 C   0  0  2  0  0  0
  -28.5114  -14.1374   20.8592 C   0  0  0  0  0  0
  -25.2161  -13.8472   20.5955 C   0  0  0  0  0  0
  -24.1652  -13.0474   20.9358 C   0  0  0  0  0  0
  -24.6516  -11.7027   20.8752 C   0  0  0  0  0  0
  -23.9222  -10.4315   21.0344 C   0  0  0  0  0  0
  -24.3721   -9.4223   21.9142 C   0  0  0  0  0  0
  -23.6364   -8.2272   22.0732 C   0  0  0  0  0  0
  -22.4340   -8.0301   21.3532 C   0  0  0  0  0  0
  -22.0000   -9.0277   20.4624 C   0  0  0  0  0  0
  -22.7366  -10.2146   20.3016 C   0  0  0  0  0  0
  -21.6878   -6.0753   22.5280 C   0  0  0  0  0  0
  -21.4030   -6.5638   23.8224 C   0  0  0  0  0  0
  -21.3669   -5.6779   24.9182 C   0  0  0  0  0  0
  -21.6055   -4.3044   24.7215 C   0  0  0  0  0  0
  -21.8817   -3.8144   23.4330 C   0  0  0  0  0  0
  -21.9203   -4.6976   22.3395 C   0  0  0  0  0  0
  -22.7624  -13.5115   21.1942 C   0  0  0  0  0  0
  -22.1671   -4.2157   21.0974 F   0  0  0  0  0  0
  -21.5626   -3.4519   25.7720 F   0  0  0  0  0  0
  -29.5124  -15.0501   20.1470 N   0  0  0  0  0  0
  -26.2786  -13.0048   20.3484 N   0  0  0  0  0  0
  -25.9524  -11.6973   20.5683 N   0  0  0  0  0  0
  -22.0317  -12.8068   22.0498 N   0  0  0  0  0  0
  -25.3586  -15.2235   20.4368 N   0  0  0  0  0  0
  -31.1811  -16.3547   20.2198 O   0  0  0  0  0  0
  -21.6677   -6.8912   21.4247 O   0  0  0  0  0  0
  -22.3245  -14.5381   20.6758 O   0  0  0  0  0  0
  -24.7466  -31.7220   23.0967 C   0  0  0  0  0  0
  -25.9720  -32.4093   23.7764 C   0  0  1  0  0  0
  -27.2634  -26.0526   20.2716 C   0  0  0  0  0  0
  -25.6035  -33.7958   24.1594 N   0  0  0  0  0  0
  -23.6018  -30.2916   21.4665 C   0  0  2  0  0  0
  -25.0651  -28.4892   20.1418 C   0  0  0  0  0  0
  -22.8040  -29.3911   22.4545 C   0  0  0  0  0  0
  -18.0376  -28.1446   22.8426 C   0  0  0  0  0  0
  -24.1495  -36.6998   23.2664 C   0  0  0  0  0  0
  -26.2021  -30.2374   21.4606 C   0  0  0  0  0  0
  -26.2625  -28.7285   20.8227 C   0  0  0  0  0  0
  -27.3127  -27.5623   20.8354 C   0  0  0  0  0  0
  -26.0277  -26.1877   19.5247 C   0  0  0  0  0  0
  -25.0245  -27.2477   19.4674 C   0  0  0  0  0  0
  -23.8916  -29.5227   20.1333 C   0  0  0  0  0  0
  -25.4157  -36.2673   24.0238 C   0  0  1  0  0  0
  -20.6043  -28.3836   23.1022 C   0  0  2  0  0  0
  -20.6794  -26.9429   22.5411 C   0  0  0  0  0  0
  -19.5787  -26.6338   21.5207 C   0  0  0  0  0  0
  -18.1974  -26.7963   22.1598 C   0  0  0  0  0  0
  -19.1662  -28.8980   23.2685 C   0  0  0  0  0  0
  -18.9553  -30.1543   23.8757 C   0  0  0  0  0  0
  -17.6528  -30.6608   24.0533 C   0  0  0  0  0  0
  -25.9187  -34.9089   23.4801 C   0  0  0  0  0  0
  -16.5421  -29.9081   23.6359 C   0  0  0  0  0  0
  -16.7350  -28.6503   23.0370 C   0  0  0  0  0  0
  -26.4696  -31.6404   25.0640 C   0  0  0  0  0  0
  -25.3593  -31.3904   26.1129 C   0  0  0  0  0  0
  -27.0714  -30.2674   24.7010 C   0  0  0  0  0  0
  -27.6041  -32.4407   25.7468 C   0  0  0  0  0  0
  -27.5548  -37.1633   24.8445 C   0  0  0  0  0  0
  -21.4634  -29.2969   22.3278 N   0  0  0  0  0  0
  -26.4219  -37.3511   23.9433 N   0  0  0  0  0  0
  -24.8823  -30.7993   22.0604 N   0  0  0  0  0  0
  -23.4162  -28.7622   23.3194 O   0  0  0  0  0  0
  -28.1706  -24.5566   20.3110 O   0  0  0  0  0  0
  -26.5905  -34.8799   22.4471 O   0  0  0  0  0  0
  -23.6351  -32.0599   23.5495 O   0  0  0  0  0  0
  -27.7374  -17.9358   20.2149 C   0  0  0  0  0  0
  -29.1875  -20.3116   20.2571 C   0  0  0  0  0  0
  -28.1948  -22.4508   20.2692 C   0  0  0  0  0  0
  -29.1717  -18.2021   20.2573 N   0  0  0  0  0  0
  -31.2009  -14.2129   19.0290 H   0  0  0  0  0  0
  -30.7155  -13.1645   20.2971 H   0  0  0  0  0  0
  -30.2134  -12.1441   18.0590 H   0  0  0  0  0  0
  -29.3796  -13.5854   17.5483 H   0  0  0  0  0  0
  -28.4288  -11.4717   19.4734 H   0  0  0  0  0  0
  -27.5908  -12.1044   18.0695 H   0  0  0  0  0  0
  -27.3175  -14.2169   19.1098 H   0  0  0  0  0  0
  -28.9695  -13.4286   21.5516 H   0  0  0  0  0  0
  -27.9101  -14.7894   21.4922 H   0  0  0  0  0  0
  -25.2847   -9.5694   22.4748 H   0  0  0  0  0  0
  -24.0045   -7.4661   22.7462 H   0  0  0  0  0  0
  -21.0925   -8.8817   19.8932 H   0  0  0  0  0  0
  -22.3808  -10.9684   19.6129 H   0  0  0  0  0  0
  -21.2027   -7.6143   23.9737 H   0  0  0  0  0  0
  -21.1503   -6.0503   25.9096 H   0  0  0  0  0  0
  -22.0590   -2.7596   23.2829 H   0  0  0  0  0  0
  -22.3943  -11.9743   22.4895 H   0  0  0  0  0  0
  -21.0915  -13.1044   22.2705 H   0  0  0  0  0  0
  -24.5841  -15.8707   20.5396 H   0  0  0  0  0  0
  -26.2061  -15.6625   20.1047 H   0  0  0  0  0  0
  -26.7887  -32.4460   23.0541 H   0  0  0  0  0  0
  -25.0005  -33.8887   24.9635 H   0  0  0  0  0  0
  -22.9678  -31.1441   21.2161 H   0  0  0  0  0  0
  -23.3801  -35.9277   23.3161 H   0  0  0  0  0  0
  -24.3577  -36.8864   22.2121 H   0  0  0  0  0  0
  -23.7207  -37.6081   23.6905 H   0  0  0  0  0  0
  -26.4662  -30.9184   20.6507 H   0  0  0  0  0  0
  -27.0316  -30.3315   22.1456 H   0  0  0  0  0  0
  -28.2044  -27.7821   21.4076 H   0  0  0  0  0  0
  -25.7622  -25.3030   18.9632 H   0  0  0  0  0  0
  -24.1420  -27.0364   18.8802 H   0  0  0  0  0  0
  -24.1229  -30.2525   19.3553 H   0  0  0  0  0  0
  -22.9849  -29.0205   19.7928 H   0  0  0  0  0  0
  -25.1394  -36.1329   25.0720 H   0  0  0  0  0  0
  -21.0102  -28.3494   24.1158 H   0  0  0  0  0  0
  -20.5545  -26.2486   23.3734 H   0  0  0  0  0  0
  -21.6657  -26.7235   22.1302 H   0  0  0  0  0  0
  -19.6920  -25.6204   21.1338 H   0  0  0  0  0  0
  -19.6746  -27.3067   20.6674 H   0  0  0  0  0  0
  -17.4240  -26.6712   21.4002 H   0  0  0  0  0  0
  -18.0345  -26.0130   22.9016 H   0  0  0  0  0  0
  -19.8025  -30.7401   24.2063 H   0  0  0  0  0  0
  -17.5073  -31.6274   24.5165 H   0  0  0  0  0  0
  -15.5416  -30.2928   23.7761 H   0  0  0  0  0  0
  -15.8751  -28.0775   22.7152 H   0  0  0  0  0  0
  -24.5826  -30.7223   25.7382 H   0  0  0  0  0  0
  -24.8731  -32.3183   26.4169 H   0  0  0  0  0  0
  -25.7603  -30.9286   27.0159 H   0  0  0  0  0  0
  -26.3522  -29.6060   24.2168 H   0  0  0  0  0  0
  -27.4033  -29.7434   25.5991 H   0  0  0  0  0  0
  -27.9554  -30.3646   24.0700 H   0  0  0  0  0  0
  -27.2527  -33.3858   26.1624 H   0  0  0  0  0  0
  -28.4036  -32.6728   25.0416 H   0  0  0  0  0  0
  -28.0503  -31.8820   26.5707 H   0  0  0  0  0  0
  -28.2425  -38.0053   24.7570 H   0  0  0  0  0  0
  -28.1171  -36.2576   24.6145 H   0  0  0  0  0  0
  -27.2294  -37.1094   25.8845 H   0  0  0  0  0  0
  -21.0076  -29.8569   21.6206 H   0  0  0  0  0  0
  -25.9983  -38.2511   24.1500 H   0  0  0  0  0  0
  -27.1469  -18.8488   20.1336 H   0  0  0  0  0  0
  -27.4168  -17.4192   21.1212 H   0  0  0  0  0  0
  -27.4876  -17.3109   19.3555 H   0  0  0  0  0  0
  -29.8774  -20.4381   21.0918 H   0  0  0  0  0  0
  -29.8207  -20.4330   19.3770 H   0  0  0  0  0  0
  -27.5835  -22.3222   21.1630 H   0  0  0  0  0  0
  -27.4841  -22.3189   19.4541 H   0  0  0  0  0  0
  1 25  1  0  0  0
  1 30  2  0  0  0
  1 74  1  0  0  0
  2  3  1  0  0  0
  2 25  1  0  0  0
  2 75  1  0  0  0
  2 76  1  0  0  0
  3  4  1  0  0  0
  3 77  1  0  0  0
  3 78  1  0  0  0
  4  5  1  0  0  0
  4 79  1  0  0  0
  4 80  1  0  0  0
  5  6  1  0  0  0
  5 26  1  0  0  0
  5 81  1  0  0  0
  6 25  1  0  0  0
  6 82  1  0  0  0
  6 83  1  0  0  0
  7  8  2  0  0  0
  7 26  1  0  0  0
  7 29  1  0  0  0
  8  9  1  0  0  0
  8 22  1  0  0  0
  9 10  1  0  0  0
  9 27  2  0  0  0
 10 11  2  0  0  0
 10 15  1  0  0  0
 11 12  1  0  0  0
 11 84  1  0  0  0
 12 13  2  0  0  0
 12 85  1  0  0  0
 13 14  1  0  0  0
 13 31  1  0  0  0
 14 15  2  0  0  0
 14 86  1  0  0  0
 15 87  1  0  0  0
 16 17  2  0  0  0
 16 21  1  0  0  0
 16 31  1  0  0  0
 17 18  1  0  0  0
 17 88  1  0  0  0
 18 19  2  0  0  0
 18 89  1  0  0  0
 19 20  1  0  0  0
 19 24  1  0  0  0
 20 21  2  0  0  0
 20 90  1  0  0  0
 21 23  1  0  0  0
 22 28  1  0  0  0
 22 32  2  0  0  0
 26 27  1  0  0  0
 28 91  1  0  0  0
 28 92  1  0  0  0
 29 93  1  0  0  0
 29 94  1  0  0  0
 33 34  1  0  0  0
 33 66  1  0  0  0
 33 70  2  0  0  0
 34 36  1  0  0  0
 34 59  1  0  0  0
 34 95  1  0  0  0
 35 44  2  0  0  0
 35 45  1  0  0  0
 35 68  1  0  0  0
 36 56  1  0  0  0
 36 96  1  0  0  0
 37 39  1  0  0  0
 37 47  1  0  0  0
 37 66  1  0  0  0
 37 97  1  0  0  0
 38 43  2  0  0  0
 38 46  1  0  0  0
 38 47  1  0  0  0
 39 64  1  0  0  0
 39 67  2  0  0  0
 40 52  1  0  0  0
 40 53  2  0  0  0
 40 58  1  0  0  0
 41 98  1  0  0  0
 41 99  1  0  0  0
 41100  1  0  0  0
 41 48  1  0  0  0
 42 43  1  0  0  0
 42 66  1  0  0  0
 42101  1  0  0  0
 42102  1  0  0  0
 43 44  1  0  0  0
 44103  1  0  0  0
 45 46  2  0  0  0
 45104  1  0  0  0
 46105  1  0  0  0
 47106  1  0  0  0
 47107  1  0  0  0
 48 56  1  0  0  0
 48 65  1  0  0  0
 48108  1  0  0  0
 49 50  1  0  0  0
 49 53  1  0  0  0
 49 64  1  0  0  0
 49109  1  0  0  0
 50 51  1  0  0  0
 50110  1  0  0  0
 50111  1  0  0  0
 51 52  1  0  0  0
 51112  1  0  0  0
 51113  1  0  0  0
 52114  1  0  0  0
 52115  1  0  0  0
 53 54  1  0  0  0
 54 55  2  0  0  0
 54116  1  0  0  0
 55 57  1  0  0  0
 55117  1  0  0  0
 56 69  2  0  0  0
 57 58  2  0  0  0
 57118  1  0  0  0
 58119  1  0  0  0
 59 60  1  0  0  0
 59 61  1  0  0  0
 59 62  1  0  0  0
 60120  1  0  0  0
 60121  1  0  0  0
 60122  1  0  0  0
 61123  1  0  0  0
 61124  1  0  0  0
 61125  1  0  0  0
 62126  1  0  0  0
 62127  1  0  0  0
 62128  1  0  0  0
 63 65  1  0  0  0
 63129  1  0  0  0
 63130  1  0  0  0
 63131  1  0  0  0
 64132  1  0  0  0
 65133  1  0  0  0
 68 73  1  0  0  0
 71 74  1  0  0  0
 71134  1  0  0  0
 71135  1  0  0  0
 71136  1  0  0  0
 72 73  1  0  0  0
 72 74  1  0  0  0
 72137  1  0  0  0
 72138  1  0  0  0
 73139  1  0  0  0
 73140  1  0  0  0
M  ISO  4   1 100  68 101  73 101  74 100
M  END
> <chiral flag>
0

> <version>
0

> <s_m_source_file>
/data/baiqing/PycharmProjects/Reinvent-master-3.2/result/LINK_invent/BTK/process_docking_weight1_custom_sum_contain_oxygen_bond_distance_aromatic_linkinvent_7_9_3/rearranged_h_0012.sdf

> <i_m_source_file_index>
50

> <r_mmod_Potential_Energy-OPLS-2005>
6995.5966796875

> <r_mmod_Stretch_Energy-OPLS-2005>
3160.97802734375

> <r_mmod_Bend_Energy-OPLS-2005>
1095.92114257812

> <r_mmod_Torsional_Energy-OPLS-2005>
274.212127685547

> <r_mmod_Improper_Torsional_Energy-OPLS-2005>
4.78383302688599

> <r_mmod_Van_der_Waal_Energy-OPLS-2005>
116.226234436035

> <r_mmod_Electrostatic_Energy-OPLS-2005>
-291.605102539062

> <r_mmod_Solvation_Energy-OPLS-2005>
-227.434844970703

> <b_mmod_Minimization_Converged-OPLS-2005>
0

> <r_mmod_RMS_Derivative-OPLS-2005>
2.47042632102966

$$$$
51
                    3D
 Structure written by MMmdl.
167175  0  0  1  0            999 V2000
  -30.6409  -14.7425   20.4290 C   0  0  0  0  0  0
  -30.4207  -12.4484   19.4758 C   0  0  0  0  0  0
  -29.5043  -12.4962   18.2357 C   0  0  0  0  0  0
  -28.0326  -12.3233   18.6528 C   0  0  0  0  0  0
  -27.6376  -13.2370   19.8447 C   0  0  2  0  0  0
  -28.6838  -13.1984   20.9798 C   0  0  0  0  0  0
  -25.2496  -13.8216   20.5694 C   0  0  0  0  0  0
  -24.1801  -13.0451   20.9223 C   0  0  0  0  0  0
  -24.6404  -11.6932   20.8768 C   0  0  0  0  0  0
  -23.9089  -10.4301   21.0417 C   0  0  0  0  0  0
  -24.3634   -9.4209   21.9192 C   0  0  0  0  0  0
  -23.6304   -8.2247   22.0758 C   0  0  0  0  0  0
  -22.4287   -8.0287   21.3547 C   0  0  0  0  0  0
  -21.9931   -9.0264   20.4651 C   0  0  0  0  0  0
  -22.7263  -10.2142   20.3066 C   0  0  0  0  0  0
  -21.6852   -6.0743   22.5279 C   0  0  0  0  0  0
  -21.4008   -6.5643   23.8212 C   0  0  0  0  0  0
  -21.3661   -5.6795   24.9173 C   0  0  0  0  0  0
  -21.6045   -4.3058   24.7222 C   0  0  0  0  0  0
  -21.8818   -3.8152   23.4342 C   0  0  0  0  0  0
  -21.9192   -4.6971   22.3399 C   0  0  0  0  0  0
  -22.7817  -13.5222   21.1870 C   0  0  0  0  0  0
  -22.1659   -4.2159   21.0978 F   0  0  0  0  0  0
  -21.5635   -3.4541   25.7736 F   0  0  0  0  0  0
  -29.9835  -13.5328   20.3871 N   0  0  0  0  0  0
  -26.2926  -12.9435   20.3275 N   0  0  0  0  0  0
  -25.9335  -11.6575   20.5776 N   0  0  0  0  0  0
  -22.0463  -12.8220   22.0428 N   0  0  0  0  0  0
  -25.4156  -15.1938   20.4051 N   0  0  0  0  0  0
  -31.8449  -14.7524   20.1709 O   0  0  0  0  0  0
  -21.6641   -6.8890   21.4247 O   0  0  0  0  0  0
  -22.3507  -14.5529   20.6714 O   0  0  0  0  0  0
  -24.6306  -31.8551   23.1967 C   0  0  0  0  0  0
  -25.9131  -32.4747   23.8312 C   0  0  1  0  0  0
  -27.2178  -27.2713   20.1390 C   0  0  0  0  0  0
  -25.5943  -33.8549   24.2247 N   0  0  0  0  0  0
  -23.4264  -30.4749   21.5414 C   0  0  2  0  0  0
  -24.8720  -28.9134   20.1168 C   0  0  0  0  0  0
  -22.7492  -29.4599   22.4935 C   0  0  0  0  0  0
  -18.0286  -28.1377   22.8485 C   0  0  0  0  0  0
  -24.1489  -36.7272   23.2642 C   0  0  0  0  0  0
  -25.9681  -30.7730   21.3705 C   0  0  0  0  0  0
  -26.0428  -29.3926   20.7190 C   0  0  0  0  0  0
  -27.2235  -28.5853   20.7119 C   0  0  0  0  0  0
  -26.0261  -26.8440   19.5227 C   0  0  0  0  0  0
  -24.8668  -27.6467   19.5078 C   0  0  0  0  0  0
  -23.6434  -29.8026   20.1595 C   0  0  0  0  0  0
  -25.4119  -36.3058   24.0326 C   0  0  1  0  0  0
  -20.5890  -28.3687   23.1280 C   0  0  2  0  0  0
  -20.6778  -26.9414   22.5408 C   0  0  0  0  0  0
  -19.5754  -26.6382   21.5208 C   0  0  0  0  0  0
  -18.1926  -26.7916   22.1619 C   0  0  0  0  0  0
  -19.1542  -28.8850   23.2866 C   0  0  0  0  0  0
  -18.9469  -30.1450   23.8891 C   0  0  0  0  0  0
  -17.6471  -30.6588   24.0562 C   0  0  0  0  0  0
  -25.9068  -34.9431   23.5089 C   0  0  0  0  0  0
  -16.5361  -29.9089   23.6335 C   0  0  0  0  0  0
  -16.7275  -28.6502   23.0360 C   0  0  0  0  0  0
  -26.4510  -31.6573   25.0696 C   0  0  0  0  0  0
  -25.3741  -31.3709   26.1422 C   0  0  0  0  0  0
  -27.0360  -30.3001   24.6153 C   0  0  0  0  0  0
  -27.6060  -32.4315   25.7477 C   0  0  0  0  0  0
  -27.5574  -37.1792   24.8465 C   0  0  0  0  0  0
  -21.4208  -29.3029   22.3668 N   0  0  0  0  0  0
  -26.4287  -37.3762   23.9415 N   0  0  0  0  0  0
  -24.6945  -31.0525   22.0934 N   0  0  0  0  0  0
  -23.4195  -28.8151   23.3037 O   0  0  0  0  0  0
  -28.3270  -26.4077   20.1222 O   0  0  0  0  0  0
  -26.5635  -34.8917   22.4654 O   0  0  0  0  0  0
  -23.5461  -32.1368   23.7282 O   0  0  0  0  0  0
  -31.0506  -20.0805   19.7310 C   0  0  0  0  0  0
  -31.5498  -17.6969   19.8275 C   0  0  0  0  0  0
  -31.9560  -19.0201   19.5281 C   0  0  0  0  0  0
  -29.7374  -19.8848   20.2035 C   0  0  0  0  0  0
  -30.2593  -17.3645   20.3159 C   0  0  0  0  0  0
  -29.3522  -18.5056   20.4949 C   0  0  0  0  0  0
  -29.1780  -22.4217   20.4368 C   0  0  0  0  0  0
  -34.1024  -20.2808   19.9272 C   0  0  0  0  0  0
  -33.2012  -20.0472   17.5890 C   0  0  0  0  0  0
  -34.2318  -18.0972   18.7370 C   0  0  0  0  0  0
  -27.9402  -17.6730   22.1958 C   0  0  0  0  0  0
  -28.2493  -23.6400   19.9616 C   0  0  0  0  0  0
  -28.2382  -25.0531   20.7615 C   0  0  0  0  0  0
  -33.3523  -19.3467   18.9565 C   0  0  0  0  0  0
  -28.8488  -21.0794   20.2588 N   0  0  0  0  0  0
  -29.9037  -15.9231   20.5525 N   0  0  0  0  0  0
  -30.2362  -22.7225   20.9935 O   0  0  0  0  0  0
  -28.0641  -18.3186   20.9345 O   0  0  0  0  0  0
  -31.4647  -12.5467   19.1727 H   0  0  0  0  0  0
  -30.3480  -11.4803   19.9726 H   0  0  0  0  0  0
  -29.7849  -11.7164   17.5266 H   0  0  0  0  0  0
  -29.6324  -13.4461   17.7139 H   0  0  0  0  0  0
  -27.8947  -11.2779   18.9299 H   0  0  0  0  0  0
  -27.3728  -12.5003   17.8026 H   0  0  0  0  0  0
  -27.6249  -14.2531   19.4507 H   0  0  0  0  0  0
  -28.7175  -12.2131   21.4465 H   0  0  0  0  0  0
  -28.4243  -13.9049   21.7706 H   0  0  0  0  0  0
  -25.2772   -9.5676   22.4773 H   0  0  0  0  0  0
  -24.0004   -7.4642   22.7483 H   0  0  0  0  0  0
  -21.0860   -8.8795   19.8958 H   0  0  0  0  0  0
  -22.3727  -10.9688   19.6182 H   0  0  0  0  0  0
  -21.1998   -7.6149   23.9720 H   0  0  0  0  0  0
  -21.1482   -6.0522   25.9078 H   0  0  0  0  0  0
  -22.0597   -2.7618   23.2838 H   0  0  0  0  0  0
  -22.4070  -11.9878   22.4810 H   0  0  0  0  0  0
  -21.1087  -13.1255   22.2641 H   0  0  0  0  0  0
  -24.6331  -15.8342   20.4815 H   0  0  0  0  0  0
  -26.2431  -15.6288   20.0184 H   0  0  0  0  0  0
  -26.7191  -32.5407   23.1052 H   0  0  0  0  0  0
  -25.0066  -33.9664   25.0375 H   0  0  0  0  0  0
  -22.7226  -31.2964   21.3933 H   0  0  0  0  0  0
  -23.3752  -35.9600   23.3287 H   0  0  0  0  0  0
  -24.3579  -36.8918   22.2058 H   0  0  0  0  0  0
  -23.7236  -37.6465   23.6687 H   0  0  0  0  0  0
  -26.0987  -31.5320   20.5979 H   0  0  0  0  0  0
  -26.8483  -30.8275   21.9995 H   0  0  0  0  0  0
  -28.1272  -28.9519   21.1770 H   0  0  0  0  0  0
  -25.9909  -25.8701   19.0549 H   0  0  0  0  0  0
  -23.9696  -27.2738   19.0327 H   0  0  0  0  0  0
  -23.7679  -30.5766   19.4008 H   0  0  0  0  0  0
  -22.7624  -29.2342   19.8573 H   0  0  0  0  0  0
  -25.1297  -36.1904   25.0816 H   0  0  0  0  0  0
  -20.9961  -28.3266   24.1415 H   0  0  0  0  0  0
  -20.5681  -26.2298   23.3606 H   0  0  0  0  0  0
  -21.6645  -26.7441   22.1206 H   0  0  0  0  0  0
  -19.6918  -25.6294   21.1235 H   0  0  0  0  0  0
  -19.6700  -27.3198   20.6740 H   0  0  0  0  0  0
  -17.4201  -26.6669   21.4015 H   0  0  0  0  0  0
  -18.0324  -26.0060   22.9019 H   0  0  0  0  0  0
  -19.7952  -30.7252   24.2271 H   0  0  0  0  0  0
  -17.5034  -31.6274   24.5153 H   0  0  0  0  0  0
  -15.5363  -30.2985   23.7667 H   0  0  0  0  0  0
  -15.8671  -28.0820   22.7085 H   0  0  0  0  0  0
  -24.5915  -30.7065   25.7746 H   0  0  0  0  0  0
  -24.8930  -32.2867   26.4865 H   0  0  0  0  0  0
  -25.8053  -30.8874   27.0195 H   0  0  0  0  0  0
  -26.2928  -29.6734   24.1209 H   0  0  0  0  0  0
  -27.4098  -29.7282   25.4655 H   0  0  0  0  0  0
  -27.8779  -30.4282   23.9344 H   0  0  0  0  0  0
  -27.2674  -33.3642   26.2004 H   0  0  0  0  0  0
  -28.3901  -32.6832   25.0320 H   0  0  0  0  0  0
  -28.0689  -31.8466   26.5438 H   0  0  0  0  0  0
  -28.2580  -38.0098   24.7528 H   0  0  0  0  0  0
  -28.1078  -36.2632   24.6275 H   0  0  0  0  0  0
  -27.2291  -37.1425   25.8865 H   0  0  0  0  0  0
  -20.9401  -29.8754   21.6872 H   0  0  0  0  0  0
  -26.0160  -38.2830   24.1432 H   0  0  0  0  0  0
  -31.3738  -21.0778   19.4754 H   0  0  0  0  0  0
  -32.2616  -16.9171   19.6445 H   0  0  0  0  0  0
  -33.5910  -21.2339   20.0638 H   0  0  0  0  0  0
  -35.1054  -20.5099   19.5647 H   0  0  0  0  0  0
  -34.2077  -19.8233   20.9120 H   0  0  0  0  0  0
  -32.6707  -20.9966   17.6613 H   0  0  0  0  0  0
  -32.6517  -19.4205   16.8851 H   0  0  0  0  0  0
  -34.1716  -20.2661   17.1420 H   0  0  0  0  0  0
  -34.4108  -17.5593   19.6690 H   0  0  0  0  0  0
  -35.2097  -18.3661   18.3363 H   0  0  0  0  0  0
  -33.7796  -17.4050   18.0250 H   0  0  0  0  0  0
  -28.8036  -17.8467   22.8409 H   0  0  0  0  0  0
  -27.8008  -16.5988   22.0768 H   0  0  0  0  0  0
  -27.0621  -18.0596   22.7124 H   0  0  0  0  0  0
  -27.2257  -23.2752   19.8719 H   0  0  0  0  0  0
  -28.5611  -23.8520   18.9395 H   0  0  0  0  0  0
  -29.0834  -25.0387   21.4491 H   0  0  0  0  0  0
  -27.3696  -25.0488   21.4224 H   0  0  0  0  0  0
  -27.8798  -20.8951   20.0356 H   0  0  0  0  0  0
  -28.9309  -15.7659   20.7618 H   0  0  0  0  0  0
  1 25  1  0  0  0
  1 30  2  0  0  0
  1 86  1  0  0  0
  2  3  1  0  0  0
  2 25  1  0  0  0
  2 89  1  0  0  0
  2 90  1  0  0  0
  3  4  1  0  0  0
  3 91  1  0  0  0
  3 92  1  0  0  0
  4  5  1  0  0  0
  4 93  1  0  0  0
  4 94  1  0  0  0
  5  6  1  0  0  0
  5 26  1  0  0  0
  5 95  1  0  0  0
  6 25  1  0  0  0
  6 96  1  0  0  0
  6 97  1  0  0  0
  7  8  2  0  0  0
  7 26  1  0  0  0
  7 29  1  0  0  0
  8  9  1  0  0  0
  8 22  1  0  0  0
  9 10  1  0  0  0
  9 27  2  0  0  0
 10 11  2  0  0  0
 10 15  1  0  0  0
 11 12  1  0  0  0
 11 98  1  0  0  0
 12 13  2  0  0  0
 12 99  1  0  0  0
 13 14  1  0  0  0
 13 31  1  0  0  0
 14 15  2  0  0  0
 14100  1  0  0  0
 15101  1  0  0  0
 16 17  2  0  0  0
 16 21  1  0  0  0
 16 31  1  0  0  0
 17 18  1  0  0  0
 17102  1  0  0  0
 18 19  2  0  0  0
 18103  1  0  0  0
 19 20  1  0  0  0
 19 24  1  0  0  0
 20 21  2  0  0  0
 20104  1  0  0  0
 21 23  1  0  0  0
 22 28  1  0  0  0
 22 32  2  0  0  0
 26 27  1  0  0  0
 28105  1  0  0  0
 28106  1  0  0  0
 29107  1  0  0  0
 29108  1  0  0  0
 33 34  1  0  0  0
 33 66  1  0  0  0
 33 70  2  0  0  0
 34 36  1  0  0  0
 34 59  1  0  0  0
 34109  1  0  0  0
 35 44  2  0  0  0
 35 45  1  0  0  0
 35 68  1  0  0  0
 36 56  1  0  0  0
 36110  1  0  0  0
 37 39  1  0  0  0
 37 47  1  0  0  0
 37 66  1  0  0  0
 37111  1  0  0  0
 38 43  2  0  0  0
 38 46  1  0  0  0
 38 47  1  0  0  0
 39 64  1  0  0  0
 39 67  2  0  0  0
 40 52  1  0  0  0
 40 53  2  0  0  0
 40 58  1  0  0  0
 41112  1  0  0  0
 41113  1  0  0  0
 41114  1  0  0  0
 41 48  1  0  0  0
 42 43  1  0  0  0
 42 66  1  0  0  0
 42115  1  0  0  0
 42116  1  0  0  0
 43 44  1  0  0  0
 44117  1  0  0  0
 45 46  2  0  0  0
 45118  1  0  0  0
 46119  1  0  0  0
 47120  1  0  0  0
 47121  1  0  0  0
 48 56  1  0  0  0
 48 65  1  0  0  0
 48122  1  0  0  0
 49 50  1  0  0  0
 49 53  1  0  0  0
 49 64  1  0  0  0
 49123  1  0  0  0
 50 51  1  0  0  0
 50124  1  0  0  0
 50125  1  0  0  0
 51 52  1  0  0  0
 51126  1  0  0  0
 51127  1  0  0  0
 52128  1  0  0  0
 52129  1  0  0  0
 53 54  1  0  0  0
 54 55  2  0  0  0
 54130  1  0  0  0
 55 57  1  0  0  0
 55131  1  0  0  0
 56 69  2  0  0  0
 57 58  2  0  0  0
 57132  1  0  0  0
 58133  1  0  0  0
 59 60  1  0  0  0
 59 61  1  0  0  0
 59 62  1  0  0  0
 60134  1  0  0  0
 60135  1  0  0  0
 60136  1  0  0  0
 61137  1  0  0  0
 61138  1  0  0  0
 61139  1  0  0  0
 62140  1  0  0  0
 62141  1  0  0  0
 62142  1  0  0  0
 63 65  1  0  0  0
 63143  1  0  0  0
 63144  1  0  0  0
 63145  1  0  0  0
 64146  1  0  0  0
 65147  1  0  0  0
 68 83  1  0  0  0
 71 73  2  0  0  0
 71 74  1  0  0  0
 71148  1  0  0  0
 72 73  1  0  0  0
 72 75  2  0  0  0
 72149  1  0  0  0
 73 84  1  0  0  0
 74 76  2  0  0  0
 74 85  1  0  0  0
 75 76  1  0  0  0
 75 86  1  0  0  0
 76 88  1  0  0  0
 77 82  1  0  0  0
 77 85  1  0  0  0
 77 87  2  0  0  0
 78150  1  0  0  0
 78151  1  0  0  0
 78152  1  0  0  0
 78 84  1  0  0  0
 79 84  1  0  0  0
 79153  1  0  0  0
 79154  1  0  0  0
 79155  1  0  0  0
 80 84  1  0  0  0
 80156  1  0  0  0
 80157  1  0  0  0
 80158  1  0  0  0
 81 88  1  0  0  0
 81159  1  0  0  0
 81160  1  0  0  0
 81161  1  0  0  0
 82 83  1  0  0  0
 82162  1  0  0  0
 82163  1  0  0  0
 83164  1  0  0  0
 83165  1  0  0  0
 85166  1  0  0  0
 86167  1  0  0  0
M  ISO  4   1 100  68 101  83 101  86 100
M  END
> <chiral flag>
0

> <version>
0

> <s_m_source_file>
/data/baiqing/PycharmProjects/Reinvent-master-3.2/result/LINK_invent/BTK/process_docking_weight1_custom_sum_contain_oxygen_bond_distance_aromatic_linkinvent_7_9_3/rearranged_h_0012.sdf

> <i_m_source_file_index>
51

> <r_mmod_Potential_Energy-OPLS-2005>
126.40096282959

> <r_mmod_Stretch_Energy-OPLS-2005>
131.991638183594

> <r_mmod_Bend_Energy-OPLS-2005>
178.630401611328

> <r_mmod_Torsional_Energy-OPLS-2005>
284.650390625

> <r_mmod_Improper_Torsional_Energy-OPLS-2005>
5.41543292999268

> <r_mmod_Van_der_Waal_Energy-OPLS-2005>
154.340621948242

> <r_mmod_Electrostatic_Energy-OPLS-2005>
-490.459350585938

> <r_mmod_Solvation_Energy-OPLS-2005>
-219.736343383789

> <b_mmod_Minimization_Converged-OPLS-2005>
0

> <r_mmod_RMS_Derivative-OPLS-2005>
1.3321760892868

$$$$
52
                    3D
 Structure written by MMmdl.
160168  0  0  1  0            999 V2000
  -30.5993  -14.7490   20.4440 C   0  0  0  0  0  0
  -30.4429  -12.4546   19.4795 C   0  0  0  0  0  0
  -29.5181  -12.5172   18.2416 C   0  0  0  0  0  0
  -28.0428  -12.3417   18.6534 C   0  0  0  0  0  0
  -27.6517  -13.2301   19.8659 C   0  0  2  0  0  0
  -28.6980  -13.1471   21.0001 C   0  0  0  0  0  0
  -25.2580  -13.8189   20.5785 C   0  0  0  0  0  0
  -24.1822  -13.0461   20.9231 C   0  0  0  0  0  0
  -24.6385  -11.6930   20.8743 C   0  0  0  0  0  0
  -23.9048  -10.4313   21.0391 C   0  0  0  0  0  0
  -24.3595   -9.4227   21.9174 C   0  0  0  0  0  0
  -23.6285   -8.2256   22.0740 C   0  0  0  0  0  0
  -22.4261   -8.0287   21.3542 C   0  0  0  0  0  0
  -21.9904   -9.0257   20.4632 C   0  0  0  0  0  0
  -22.7216  -10.2148   20.3049 C   0  0  0  0  0  0
  -21.6845   -6.0722   22.5261 C   0  0  0  0  0  0
  -21.4018   -6.5626   23.8197 C   0  0  0  0  0  0
  -21.3660   -5.6765   24.9163 C   0  0  0  0  0  0
  -21.6063   -4.3036   24.7201 C   0  0  0  0  0  0
  -21.8815   -3.8133   23.4321 C   0  0  0  0  0  0
  -21.9199   -4.6957   22.3381 C   0  0  0  0  0  0
  -22.7852  -13.5263   21.1880 C   0  0  0  0  0  0
  -22.1662   -4.2149   21.0956 F   0  0  0  0  0  0
  -21.5642   -3.4519   25.7717 F   0  0  0  0  0  0
  -30.0012  -13.5086   20.4232 N   0  0  0  0  0  0
  -26.3003  -12.9384   20.3379 N   0  0  0  0  0  0
  -25.9328  -11.6533   20.5774 N   0  0  0  0  0  0
  -22.0441  -12.8284   22.0406 N   0  0  0  0  0  0
  -25.4411  -15.1922   20.4309 N   0  0  0  0  0  0
  -31.7766  -14.8682   20.0860 O   0  0  0  0  0  0
  -21.6632   -6.8879   21.4227 O   0  0  0  0  0  0
  -22.3570  -14.5576   20.6704 O   0  0  0  0  0  0
  -24.6318  -31.8559   23.1928 C   0  0  0  0  0  0
  -25.9131  -32.4783   23.8294 C   0  0  1  0  0  0
  -27.2290  -27.2426   20.1566 C   0  0  0  0  0  0
  -25.5910  -33.8580   24.2236 N   0  0  0  0  0  0
  -23.4315  -30.4731   21.5381 C   0  0  2  0  0  0
  -24.8821  -28.9055   20.1194 C   0  0  0  0  0  0
  -22.7510  -29.4608   22.4917 C   0  0  0  0  0  0
  -18.0288  -28.1410   22.8551 C   0  0  0  0  0  0
  -24.1466  -36.7256   23.2643 C   0  0  0  0  0  0
  -25.9780  -30.7635   21.3735 C   0  0  0  0  0  0
  -26.0524  -29.3794   20.7250 C   0  0  0  0  0  0
  -27.2323  -28.5655   20.7217 C   0  0  0  0  0  0
  -26.0319  -26.8245   19.5406 C   0  0  0  0  0  0
  -24.8765  -27.6361   19.5145 C   0  0  0  0  0  0
  -23.6541  -29.7994   20.1566 C   0  0  0  0  0  0
  -25.4111  -36.3096   24.0333 C   0  0  1  0  0  0
  -20.5908  -28.3706   23.1305 C   0  0  2  0  0  0
  -20.6794  -26.9412   22.5441 C   0  0  0  0  0  0
  -19.5745  -26.6405   21.5271 C   0  0  0  0  0  0
  -18.1923  -26.7975   22.1680 C   0  0  0  0  0  0
  -19.1560  -28.8879   23.2933 C   0  0  0  0  0  0
  -18.9471  -30.1487   23.8943 C   0  0  0  0  0  0
  -17.6474  -30.6618   24.0586 C   0  0  0  0  0  0
  -25.9061  -34.9472   23.5108 C   0  0  0  0  0  0
  -16.5357  -29.9125   23.6333 C   0  0  0  0  0  0
  -16.7286  -28.6528   23.0391 C   0  0  0  0  0  0
  -26.4504  -31.6611   25.0690 C   0  0  0  0  0  0
  -25.3716  -31.3768   26.1399 C   0  0  0  0  0  0
  -27.0329  -30.3024   24.6163 C   0  0  0  0  0  0
  -27.6048  -32.4352   25.7484 C   0  0  0  0  0  0
  -27.5574  -37.1798   24.8483 C   0  0  0  0  0  0
  -21.4214  -29.3061   22.3682 N   0  0  0  0  0  0
  -26.4283  -37.3801   23.9424 N   0  0  0  0  0  0
  -24.6993  -31.0501   22.0917 N   0  0  0  0  0  0
  -23.4198  -28.8146   23.3030 O   0  0  0  0  0  0
  -28.3529  -26.3873   20.0902 O   0  0  0  0  0  0
  -26.5639  -34.8961   22.4680 O   0  0  0  0  0  0
  -23.5467  -32.1357   23.7237 O   0  0  0  0  0  0
  -29.5236  -18.3894   20.8169 C   0  0  0  0  0  0
  -29.8806  -17.2226   20.1423 C   0  0  0  0  0  0
  -29.5145  -19.7246   20.1239 C   0  0  0  0  0  0
  -30.1818  -17.3650   18.7075 C   0  0  0  0  0  0
  -29.1168  -18.3784   22.2814 C   0  0  0  0  0  0
  -30.8450  -22.6069   20.1917 C   0  0  0  0  0  0
  -30.6808  -18.8650   16.8537 C   0  0  0  0  0  0
  -28.4317  -23.5617   20.1068 C   0  0  0  0  0  0
  -28.4170  -25.0526   20.7911 C   0  0  0  0  0  0
  -29.4168  -22.4078   20.7203 C   0  0  1  0  0  0
  -29.9057  -19.8382   18.8919 N   0  0  0  0  0  0
  -30.2770  -18.6554   18.2477 N   0  0  0  0  0  0
  -29.8026  -15.8608   20.6906 N   0  0  0  0  0  0
  -29.0622  -20.9156   20.8056 N   0  0  0  0  0  0
  -30.2829  -16.4088   17.9326 O   0  0  0  0  0  0
  -31.4874  -12.5776   19.1844 H   0  0  0  0  0  0
  -30.3863  -11.4752   19.9543 H   0  0  0  0  0  0
  -29.8008  -11.7443   17.5266 H   0  0  0  0  0  0
  -29.6461  -13.4718   17.7292 H   0  0  0  0  0  0
  -27.8956  -11.2914   18.9023 H   0  0  0  0  0  0
  -27.3854  -12.5463   17.8070 H   0  0  0  0  0  0
  -27.6504  -14.2562   19.4991 H   0  0  0  0  0  0
  -28.7384  -12.1399   21.4176 H   0  0  0  0  0  0
  -28.4349  -13.8079   21.8274 H   0  0  0  0  0  0
  -25.2732   -9.5712   22.4750 H   0  0  0  0  0  0
  -23.9993   -7.4648   22.7461 H   0  0  0  0  0  0
  -21.0835   -8.8763   19.8934 H   0  0  0  0  0  0
  -22.3657  -10.9684   19.6163 H   0  0  0  0  0  0
  -21.1992   -7.6123   23.9712 H   0  0  0  0  0  0
  -21.1505   -6.0486   25.9070 H   0  0  0  0  0  0
  -22.0607   -2.7601   23.2802 H   0  0  0  0  0  0
  -22.4009  -11.9927   22.4786 H   0  0  0  0  0  0
  -21.1072  -13.1379   22.2583 H   0  0  0  0  0  0
  -24.6991  -15.8681   20.5739 H   0  0  0  0  0  0
  -26.3074  -15.6182   20.1290 H   0  0  0  0  0  0
  -26.7191  -32.5456   23.1032 H   0  0  0  0  0  0
  -25.0071  -33.9702   25.0403 H   0  0  0  0  0  0
  -22.7294  -31.2954   21.3914 H   0  0  0  0  0  0
  -23.3752  -35.9568   23.3347 H   0  0  0  0  0  0
  -24.3520  -36.8818   22.2041 H   0  0  0  0  0  0
  -23.7182  -37.6461   23.6628 H   0  0  0  0  0  0
  -26.1146  -31.5175   20.5988 H   0  0  0  0  0  0
  -26.8563  -30.8206   22.0046 H   0  0  0  0  0  0
  -28.1398  -28.9408   21.1737 H   0  0  0  0  0  0
  -25.9945  -25.8525   19.0728 H   0  0  0  0  0  0
  -23.9802  -27.2652   19.0351 H   0  0  0  0  0  0
  -23.7859  -30.5734   19.3997 H   0  0  0  0  0  0
  -22.7719  -29.2375   19.8463 H   0  0  0  0  0  0
  -25.1301  -36.1950   25.0825 H   0  0  0  0  0  0
  -21.0035  -28.3278   24.1425 H   0  0  0  0  0  0
  -20.5741  -26.2305   23.3647 H   0  0  0  0  0  0
  -21.6650  -26.7487   22.1191 H   0  0  0  0  0  0
  -19.6869  -25.6320   21.1294 H   0  0  0  0  0  0
  -19.6662  -27.3242   20.6812 H   0  0  0  0  0  0
  -17.4204  -26.6790   21.4044 H   0  0  0  0  0  0
  -18.0239  -26.0113   22.9057 H   0  0  0  0  0  0
  -19.7939  -30.7319   24.2312 H   0  0  0  0  0  0
  -17.5014  -31.6303   24.5187 H   0  0  0  0  0  0
  -15.5362  -30.3052   23.7616 H   0  0  0  0  0  0
  -15.8693  -28.0845   22.7116 H   0  0  0  0  0  0
  -24.5917  -30.7091   25.7717 H   0  0  0  0  0  0
  -24.8887  -32.2950   26.4749 H   0  0  0  0  0  0
  -25.8032  -30.8998   27.0206 H   0  0  0  0  0  0
  -26.2887  -29.6791   24.1191 H   0  0  0  0  0  0
  -27.4003  -29.7269   25.4665 H   0  0  0  0  0  0
  -27.8784  -30.4284   23.9393 H   0  0  0  0  0  0
  -27.2643  -33.3664   26.2013 H   0  0  0  0  0  0
  -28.3907  -32.6868   25.0359 H   0  0  0  0  0  0
  -28.0662  -31.8499   26.5443 H   0  0  0  0  0  0
  -28.2652  -38.0048   24.7540 H   0  0  0  0  0  0
  -28.1020  -36.2593   24.6332 H   0  0  0  0  0  0
  -27.2287  -37.1476   25.8885 H   0  0  0  0  0  0
  -20.9365  -29.8758   21.6884 H   0  0  0  0  0  0
  -26.0164  -38.2877   24.1438 H   0  0  0  0  0  0
  -28.0725  -18.6659   22.4026 H   0  0  0  0  0  0
  -29.7390  -19.0635   22.8584 H   0  0  0  0  0  0
  -29.2426  -17.3908   22.7217 H   0  0  0  0  0  0
  -31.5623  -21.9730   20.7159 H   0  0  0  0  0  0
  -31.1741  -23.6408   20.3044 H   0  0  0  0  0  0
  -30.8952  -22.3656   19.1310 H   0  0  0  0  0  0
  -30.8187  -19.9196   16.6086 H   0  0  0  0  0  0
  -29.9233  -18.4662   16.1780 H   0  0  0  0  0  0
  -31.6200  -18.3539   16.6327 H   0  0  0  0  0  0
  -28.6718  -23.6725   19.0498 H   0  0  0  0  0  0
  -27.4091  -23.1855   20.1135 H   0  0  0  0  0  0
  -29.3705  -25.1206   21.3150 H   0  0  0  0  0  0
  -27.6870  -25.0489   21.6020 H   0  0  0  0  0  0
  -29.4780  -22.6722   21.7774 H   0  0  0  0  0  0
  -28.9326  -15.6578   21.1549 H   0  0  0  0  0  0
  -28.6212  -20.7290   21.7006 H   0  0  0  0  0  0
  1 25  1  0  0  0
  1 30  2  0  0  0
  1 83  1  0  0  0
  2  3  1  0  0  0
  2 25  1  0  0  0
  2 86  1  0  0  0
  2 87  1  0  0  0
  3  4  1  0  0  0
  3 88  1  0  0  0
  3 89  1  0  0  0
  4  5  1  0  0  0
  4 90  1  0  0  0
  4 91  1  0  0  0
  5  6  1  0  0  0
  5 26  1  0  0  0
  5 92  1  0  0  0
  6 25  1  0  0  0
  6 93  1  0  0  0
  6 94  1  0  0  0
  7  8  2  0  0  0
  7 26  1  0  0  0
  7 29  1  0  0  0
  8  9  1  0  0  0
  8 22  1  0  0  0
  9 10  1  0  0  0
  9 27  2  0  0  0
 10 11  2  0  0  0
 10 15  1  0  0  0
 11 12  1  0  0  0
 11 95  1  0  0  0
 12 13  2  0  0  0
 12 96  1  0  0  0
 13 14  1  0  0  0
 13 31  1  0  0  0
 14 15  2  0  0  0
 14 97  1  0  0  0
 15 98  1  0  0  0
 16 17  2  0  0  0
 16 21  1  0  0  0
 16 31  1  0  0  0
 17 18  1  0  0  0
 17 99  1  0  0  0
 18 19  2  0  0  0
 18100  1  0  0  0
 19 20  1  0  0  0
 19 24  1  0  0  0
 20 21  2  0  0  0
 20101  1  0  0  0
 21 23  1  0  0  0
 22 28  1  0  0  0
 22 32  2  0  0  0
 26 27  1  0  0  0
 28102  1  0  0  0
 28103  1  0  0  0
 29104  1  0  0  0
 29105  1  0  0  0
 33 34  1  0  0  0
 33 66  1  0  0  0
 33 70  2  0  0  0
 34 36  1  0  0  0
 34 59  1  0  0  0
 34106  1  0  0  0
 35 44  2  0  0  0
 35 45  1  0  0  0
 35 68  1  0  0  0
 36 56  1  0  0  0
 36107  1  0  0  0
 37 39  1  0  0  0
 37 47  1  0  0  0
 37 66  1  0  0  0
 37108  1  0  0  0
 38 43  2  0  0  0
 38 46  1  0  0  0
 38 47  1  0  0  0
 39 64  1  0  0  0
 39 67  2  0  0  0
 40 52  1  0  0  0
 40 53  2  0  0  0
 40 58  1  0  0  0
 41109  1  0  0  0
 41110  1  0  0  0
 41111  1  0  0  0
 41 48  1  0  0  0
 42 43  1  0  0  0
 42 66  1  0  0  0
 42112  1  0  0  0
 42113  1  0  0  0
 43 44  1  0  0  0
 44114  1  0  0  0
 45 46  2  0  0  0
 45115  1  0  0  0
 46116  1  0  0  0
 47117  1  0  0  0
 47118  1  0  0  0
 48 56  1  0  0  0
 48 65  1  0  0  0
 48119  1  0  0  0
 49 50  1  0  0  0
 49 53  1  0  0  0
 49 64  1  0  0  0
 49120  1  0  0  0
 50 51  1  0  0  0
 50121  1  0  0  0
 50122  1  0  0  0
 51 52  1  0  0  0
 51123  1  0  0  0
 51124  1  0  0  0
 52125  1  0  0  0
 52126  1  0  0  0
 53 54  1  0  0  0
 54 55  2  0  0  0
 54127  1  0  0  0
 55 57  1  0  0  0
 55128  1  0  0  0
 56 69  2  0  0  0
 57 58  2  0  0  0
 57129  1  0  0  0
 58130  1  0  0  0
 59 60  1  0  0  0
 59 61  1  0  0  0
 59 62  1  0  0  0
 60131  1  0  0  0
 60132  1  0  0  0
 60133  1  0  0  0
 61134  1  0  0  0
 61135  1  0  0  0
 61136  1  0  0  0
 62137  1  0  0  0
 62138  1  0  0  0
 62139  1  0  0  0
 63 65  1  0  0  0
 63140  1  0  0  0
 63141  1  0  0  0
 63142  1  0  0  0
 64143  1  0  0  0
 65144  1  0  0  0
 68 79  1  0  0  0
 71 72  2  0  0  0
 71 73  1  0  0  0
 71 75  1  0  0  0
 72 74  1  0  0  0
 72 83  1  0  0  0
 73 81  2  0  0  0
 73 84  1  0  0  0
 74 82  1  0  0  0
 74 85  2  0  0  0
 75145  1  0  0  0
 75146  1  0  0  0
 75147  1  0  0  0
 76148  1  0  0  0
 76149  1  0  0  0
 76150  1  0  0  0
 76 80  1  0  0  0
 77 82  1  0  0  0
 77151  1  0  0  0
 77152  1  0  0  0
 77153  1  0  0  0
 78 79  1  0  0  0
 78 80  1  0  0  0
 78154  1  0  0  0
 78155  1  0  0  0
 79156  1  0  0  0
 79157  1  0  0  0
 80 84  1  0  0  0
 80158  1  0  0  0
 81 82  1  0  0  0
 83159  1  0  0  0
 84160  1  0  0  0
M  ISO  4   1 100  68 101  79 101  83 100
M  END
> <chiral flag>
0

> <version>
0

> <s_m_source_file>
/data/baiqing/PycharmProjects/Reinvent-master-3.2/result/LINK_invent/BTK/process_docking_weight1_custom_sum_contain_oxygen_bond_distance_aromatic_linkinvent_7_9_3/rearranged_h_0012.sdf

> <i_m_source_file_index>
52

> <r_mmod_Potential_Energy-OPLS-2005>
217.500900268555

> <r_mmod_Stretch_Energy-OPLS-2005>
148.898834228516

> <r_mmod_Bend_Energy-OPLS-2005>
219.020385742188

> <r_mmod_Torsional_Energy-OPLS-2005>
288.448303222656

> <r_mmod_Improper_Torsional_Energy-OPLS-2005>
6.44792175292969

> <r_mmod_Van_der_Waal_Energy-OPLS-2005>
156.482635498047

> <r_mmod_Electrostatic_Energy-OPLS-2005>
-439.184753417969

> <r_mmod_Solvation_Energy-OPLS-2005>
-247.120697021484

> <b_mmod_Minimization_Converged-OPLS-2005>
0

> <r_mmod_RMS_Derivative-OPLS-2005>
3.83739447593689

$$$$
53
                    3D
 Structure written by MMmdl.
157165  0  0  1  0            999 V2000
  -30.6621  -14.8403   20.4383 C   0  0  0  0  0  0
  -30.4119  -12.5344   19.4741 C   0  0  0  0  0  0
  -29.4977  -12.5137   18.2334 C   0  0  0  0  0  0
  -28.0321  -12.3207   18.6617 C   0  0  0  0  0  0
  -27.6260  -13.2460   19.8415 C   0  0  2  0  0  0
  -28.6800  -13.2567   20.9690 C   0  0  0  0  0  0
  -25.2442  -13.8223   20.5756 C   0  0  0  0  0  0
  -24.1759  -13.0436   20.9251 C   0  0  0  0  0  0
  -24.6388  -11.6927   20.8779 C   0  0  0  0  0  0
  -23.9083  -10.4290   21.0412 C   0  0  0  0  0  0
  -24.3634   -9.4206   21.9191 C   0  0  0  0  0  0
  -23.6308   -8.2240   22.0755 C   0  0  0  0  0  0
  -22.4288   -8.0287   21.3543 C   0  0  0  0  0  0
  -21.9930   -9.0262   20.4647 C   0  0  0  0  0  0
  -22.7257  -10.2142   20.3058 C   0  0  0  0  0  0
  -21.6861   -6.0738   22.5285 C   0  0  0  0  0  0
  -21.4013   -6.5641   23.8218 C   0  0  0  0  0  0
  -21.3658   -5.6794   24.9180 C   0  0  0  0  0  0
  -21.6046   -4.3053   24.7228 C   0  0  0  0  0  0
  -21.8815   -3.8153   23.4346 C   0  0  0  0  0  0
  -21.9192   -4.6969   22.3405 C   0  0  0  0  0  0
  -22.7773  -13.5193   21.1891 C   0  0  0  0  0  0
  -22.1649   -4.2158   21.0979 F   0  0  0  0  0  0
  -21.5640   -3.4533   25.7735 F   0  0  0  0  0  0
  -29.9483  -13.6518   20.3451 N   0  0  0  0  0  0
  -26.2874  -12.9458   20.3315 N   0  0  0  0  0  0
  -25.9325  -11.6586   20.5807 N   0  0  0  0  0  0
  -22.0430  -12.8183   22.0448 N   0  0  0  0  0  0
  -25.4103  -15.1953   20.4179 N   0  0  0  0  0  0
  -31.8766  -14.7497   20.2343 O   0  0  0  0  0  0
  -21.6646   -6.8887   21.4243 O   0  0  0  0  0  0
  -22.3453  -14.5497   20.6740 O   0  0  0  0  0  0
  -24.6378  -31.8507   23.1963 C   0  0  0  0  0  0
  -25.9175  -32.4734   23.8314 C   0  0  1  0  0  0
  -27.2067  -27.2078   20.1420 C   0  0  0  0  0  0
  -25.5954  -33.8541   24.2250 N   0  0  0  0  0  0
  -23.4362  -30.4751   21.5409 C   0  0  2  0  0  0
  -24.8820  -28.9185   20.1071 C   0  0  0  0  0  0
  -22.7537  -29.4577   22.4889 C   0  0  0  0  0  0
  -18.0301  -28.1387   22.8490 C   0  0  0  0  0  0
  -24.1491  -36.7269   23.2641 C   0  0  0  0  0  0
  -25.9859  -30.7505   21.3815 C   0  0  0  0  0  0
  -26.0560  -29.3687   20.7223 C   0  0  0  0  0  0
  -27.2205  -28.5262   20.7293 C   0  0  0  0  0  0
  -26.0119  -26.8483   19.4780 C   0  0  0  0  0  0
  -24.8678  -27.6691   19.4725 C   0  0  0  0  0  0
  -23.6554  -29.8109   20.1564 C   0  0  0  0  0  0
  -25.4113  -36.3069   24.0334 C   0  0  1  0  0  0
  -20.5916  -28.3694   23.1266 C   0  0  2  0  0  0
  -20.6793  -26.9408   22.5420 C   0  0  0  0  0  0
  -19.5760  -26.6381   21.5233 C   0  0  0  0  0  0
  -18.1937  -26.7929   22.1630 C   0  0  0  0  0  0
  -19.1564  -28.8858   23.2874 C   0  0  0  0  0  0
  -18.9475  -30.1459   23.8890 C   0  0  0  0  0  0
  -17.6471  -30.6584   24.0559 C   0  0  0  0  0  0
  -25.9058  -34.9436   23.5089 C   0  0  0  0  0  0
  -16.5363  -29.9080   23.6329 C   0  0  0  0  0  0
  -16.7288  -28.6500   23.0346 C   0  0  0  0  0  0
  -26.4515  -31.6562   25.0709 C   0  0  0  0  0  0
  -25.3717  -31.3741   26.1411 C   0  0  0  0  0  0
  -27.0355  -30.2974   24.6212 C   0  0  0  0  0  0
  -27.6051  -32.4308   25.7490 C   0  0  0  0  0  0
  -27.5579  -37.1790   24.8468 C   0  0  0  0  0  0
  -21.4247  -29.3034   22.3636 N   0  0  0  0  0  0
  -26.4287  -37.3774   23.9418 N   0  0  0  0  0  0
  -24.7064  -31.0442   22.0952 N   0  0  0  0  0  0
  -23.4216  -28.8118   23.3001 O   0  0  0  0  0  0
  -28.2670  -26.2589   20.2329 O   0  0  0  0  0  0
  -26.5640  -34.8922   22.4673 O   0  0  0  0  0  0
  -23.5511  -32.1354   23.7220 O   0  0  0  0  0  0
  -28.7021  -21.9793   20.0908 C   0  0  0  0  0  0
  -28.5677  -18.2284   21.1347 C   0  0  0  0  0  0
  -30.7258  -18.7509   20.1752 C   0  0  0  0  0  0
  -28.7268  -16.6825   20.6919 C   0  0  0  0  0  0
  -30.8403  -17.2541   19.6584 C   0  0  0  0  0  0
  -29.2901  -19.3535   20.2861 C   0  0  0  0  0  0
  -29.8208  -21.0743   22.0758 C   0  0  0  0  0  0
  -28.9270  -23.5279   20.5636 C   0  0  0  0  0  0
  -27.9832  -24.7687   20.0355 C   0  0  0  0  0  0
  -30.0902  -16.1460   20.3601 N   0  0  0  0  0  0
  -29.2190  -20.8468   20.7597 N   0  0  0  0  0  0
  -28.0707  -21.8171   19.0440 O   0  0  0  0  0  0
  -31.4500  -12.6402   19.1557 H   0  0  0  0  0  0
  -30.3657  -11.5826   20.0050 H   0  0  0  0  0  0
  -29.7982  -11.7170   17.5515 H   0  0  0  0  0  0
  -29.6011  -13.4493   17.6797 H   0  0  0  0  0  0
  -27.9165  -11.2763   18.9553 H   0  0  0  0  0  0
  -27.3643  -12.4729   17.8135 H   0  0  0  0  0  0
  -27.5907  -14.2507   19.4217 H   0  0  0  0  0  0
  -28.7631  -12.2726   21.4320 H   0  0  0  0  0  0
  -28.4040  -13.9382   21.7720 H   0  0  0  0  0  0
  -25.2776   -9.5676   22.4775 H   0  0  0  0  0  0
  -24.0022   -7.4617   22.7462 H   0  0  0  0  0  0
  -21.0867   -8.8769   19.8946 H   0  0  0  0  0  0
  -22.3709  -10.9680   19.6171 H   0  0  0  0  0  0
  -21.1996   -7.6150   23.9722 H   0  0  0  0  0  0
  -21.1486   -6.0524   25.9082 H   0  0  0  0  0  0
  -22.0599   -2.7620   23.2843 H   0  0  0  0  0  0
  -22.4053  -11.9852   22.4840 H   0  0  0  0  0  0
  -21.1039  -13.1190   22.2632 H   0  0  0  0  0  0
  -24.6476  -15.8497   20.5500 H   0  0  0  0  0  0
  -26.2661  -15.6403   20.1152 H   0  0  0  0  0  0
  -26.7232  -32.5368   23.1039 H   0  0  0  0  0  0
  -25.0079  -33.9658   25.0382 H   0  0  0  0  0  0
  -22.7354  -31.2995   21.3947 H   0  0  0  0  0  0
  -23.3768  -35.9585   23.3295 H   0  0  0  0  0  0
  -24.3588  -36.8906   22.2063 H   0  0  0  0  0  0
  -23.7222  -37.6459   23.6661 H   0  0  0  0  0  0
  -26.1317  -31.5101   20.6123 H   0  0  0  0  0  0
  -26.8613  -30.7998   22.0163 H   0  0  0  0  0  0
  -28.1130  -28.8595   21.2400 H   0  0  0  0  0  0
  -25.9223  -25.8970   18.9753 H   0  0  0  0  0  0
  -23.9699  -27.3209   18.9823 H   0  0  0  0  0  0
  -23.7812  -30.5887   19.4025 H   0  0  0  0  0  0
  -22.7711  -29.2495   19.8476 H   0  0  0  0  0  0
  -25.1303  -36.1917   25.0826 H   0  0  0  0  0  0
  -21.0004  -28.3285   24.1388 H   0  0  0  0  0  0
  -20.5719  -26.2305   23.3634 H   0  0  0  0  0  0
  -21.6646  -26.7432   22.1192 H   0  0  0  0  0  0
  -19.6918  -25.6303   21.1241 H   0  0  0  0  0  0
  -19.6695  -27.3200   20.6781 H   0  0  0  0  0  0
  -17.4219  -26.6697   21.4024 H   0  0  0  0  0  0
  -18.0302  -26.0080   22.9029 H   0  0  0  0  0  0
  -19.7956  -30.7280   24.2250 H   0  0  0  0  0  0
  -17.5024  -31.6258   24.5158 H   0  0  0  0  0  0
  -15.5360  -30.2966   23.7666 H   0  0  0  0  0  0
  -15.8692  -28.0813   22.7053 H   0  0  0  0  0  0
  -24.5884  -30.7108   25.7728 H   0  0  0  0  0  0
  -24.8907  -32.2922   26.4792 H   0  0  0  0  0  0
  -25.7992  -30.8933   27.0216 H   0  0  0  0  0  0
  -26.2942  -29.6728   24.1215 H   0  0  0  0  0  0
  -27.4019  -29.7235   25.4733 H   0  0  0  0  0  0
  -27.8835  -30.4255   23.9479 H   0  0  0  0  0  0
  -27.2645  -33.3619   26.2038 H   0  0  0  0  0  0
  -28.3865  -32.6862   25.0314 H   0  0  0  0  0  0
  -28.0714  -31.8461   26.5433 H   0  0  0  0  0  0
  -28.2593  -38.0095   24.7518 H   0  0  0  0  0  0
  -28.1087  -36.2626   24.6283 H   0  0  0  0  0  0
  -27.2304  -37.1423   25.8875 H   0  0  0  0  0  0
  -20.9445  -29.8759   21.6831 H   0  0  0  0  0  0
  -26.0177  -38.2857   24.1404 H   0  0  0  0  0  0
  -28.9115  -18.2982   22.1667 H   0  0  0  0  0  0
  -27.5023  -18.4628   21.1797 H   0  0  0  0  0  0
  -31.3163  -19.3877   19.5145 H   0  0  0  0  0  0
  -31.2245  -18.8053   21.1438 H   0  0  0  0  0  0
  -28.1202  -16.5303   19.7996 H   0  0  0  0  0  0
  -28.2729  -16.0681   21.4667 H   0  0  0  0  0  0
  -31.9092  -17.0408   19.6220 H   0  0  0  0  0  0
  -30.5218  -17.2292   18.6164 H   0  0  0  0  0  0
  -28.8563  -19.3275   19.2854 H   0  0  0  0  0  0
  -30.7010  -21.7135   21.9955 H   0  0  0  0  0  0
  -30.1342  -20.1572   22.5705 H   0  0  0  0  0  0
  -29.1078  -21.5539   22.7477 H   0  0  0  0  0  0
  -29.9518  -23.7627   20.2777 H   0  0  0  0  0  0
  -28.9191  -23.5621   21.6519 H   0  0  0  0  0  0
  -27.0103  -24.5739   20.4884 H   0  0  0  0  0  0
  -27.8388  -24.6255   18.9646 H   0  0  0  0  0  0
  1 25  1  0  0  0
  1 30  2  0  0  0
  1 80  1  0  0  0
  2  3  1  0  0  0
  2 25  1  0  0  0
  2 83  1  0  0  0
  2 84  1  0  0  0
  3  4  1  0  0  0
  3 85  1  0  0  0
  3 86  1  0  0  0
  4  5  1  0  0  0
  4 87  1  0  0  0
  4 88  1  0  0  0
  5  6  1  0  0  0
  5 26  1  0  0  0
  5 89  1  0  0  0
  6 25  1  0  0  0
  6 90  1  0  0  0
  6 91  1  0  0  0
  7  8  2  0  0  0
  7 26  1  0  0  0
  7 29  1  0  0  0
  8  9  1  0  0  0
  8 22  1  0  0  0
  9 10  1  0  0  0
  9 27  2  0  0  0
 10 11  2  0  0  0
 10 15  1  0  0  0
 11 12  1  0  0  0
 11 92  1  0  0  0
 12 13  2  0  0  0
 12 93  1  0  0  0
 13 14  1  0  0  0
 13 31  1  0  0  0
 14 15  2  0  0  0
 14 94  1  0  0  0
 15 95  1  0  0  0
 16 17  2  0  0  0
 16 21  1  0  0  0
 16 31  1  0  0  0
 17 18  1  0  0  0
 17 96  1  0  0  0
 18 19  2  0  0  0
 18 97  1  0  0  0
 19 20  1  0  0  0
 19 24  1  0  0  0
 20 21  2  0  0  0
 20 98  1  0  0  0
 21 23  1  0  0  0
 22 28  1  0  0  0
 22 32  2  0  0  0
 26 27  1  0  0  0
 28 99  1  0  0  0
 28100  1  0  0  0
 29101  1  0  0  0
 29102  1  0  0  0
 33 34  1  0  0  0
 33 66  1  0  0  0
 33 70  2  0  0  0
 34 36  1  0  0  0
 34 59  1  0  0  0
 34103  1  0  0  0
 35 44  2  0  0  0
 35 45  1  0  0  0
 35 68  1  0  0  0
 36 56  1  0  0  0
 36104  1  0  0  0
 37 39  1  0  0  0
 37 47  1  0  0  0
 37 66  1  0  0  0
 37105  1  0  0  0
 38 43  2  0  0  0
 38 46  1  0  0  0
 38 47  1  0  0  0
 39 64  1  0  0  0
 39 67  2  0  0  0
 40 52  1  0  0  0
 40 53  2  0  0  0
 40 58  1  0  0  0
 41106  1  0  0  0
 41107  1  0  0  0
 41108  1  0  0  0
 41 48  1  0  0  0
 42 43  1  0  0  0
 42 66  1  0  0  0
 42109  1  0  0  0
 42110  1  0  0  0
 43 44  1  0  0  0
 44111  1  0  0  0
 45 46  2  0  0  0
 45112  1  0  0  0
 46113  1  0  0  0
 47114  1  0  0  0
 47115  1  0  0  0
 48 56  1  0  0  0
 48 65  1  0  0  0
 48116  1  0  0  0
 49 50  1  0  0  0
 49 53  1  0  0  0
 49 64  1  0  0  0
 49117  1  0  0  0
 50 51  1  0  0  0
 50118  1  0  0  0
 50119  1  0  0  0
 51 52  1  0  0  0
 51120  1  0  0  0
 51121  1  0  0  0
 52122  1  0  0  0
 52123  1  0  0  0
 53 54  1  0  0  0
 54 55  2  0  0  0
 54124  1  0  0  0
 55 57  1  0  0  0
 55125  1  0  0  0
 56 69  2  0  0  0
 57 58  2  0  0  0
 57126  1  0  0  0
 58127  1  0  0  0
 59 60  1  0  0  0
 59 61  1  0  0  0
 59 62  1  0  0  0
 60128  1  0  0  0
 60129  1  0  0  0
 60130  1  0  0  0
 61131  1  0  0  0
 61132  1  0  0  0
 61133  1  0  0  0
 62134  1  0  0  0
 62135  1  0  0  0
 62136  1  0  0  0
 63 65  1  0  0  0
 63137  1  0  0  0
 63138  1  0  0  0
 63139  1  0  0  0
 64140  1  0  0  0
 65141  1  0  0  0
 68 79  1  0  0  0
 71 78  1  0  0  0
 71 81  1  0  0  0
 71 82  2  0  0  0
 72 74  1  0  0  0
 72 76  1  0  0  0
 72142  1  0  0  0
 72143  1  0  0  0
 73 75  1  0  0  0
 73 76  1  0  0  0
 73144  1  0  0  0
 73145  1  0  0  0
 74 80  1  0  0  0
 74146  1  0  0  0
 74147  1  0  0  0
 75 80  1  0  0  0
 75148  1  0  0  0
 75149  1  0  0  0
 76 81  1  0  0  0
 76150  1  0  0  0
 77 81  1  0  0  0
 77151  1  0  0  0
 77152  1  0  0  0
 77153  1  0  0  0
 78 79  1  0  0  0
 78154  1  0  0  0
 78155  1  0  0  0
 79156  1  0  0  0
 79157  1  0  0  0
M  ISO  4   1 100  68 101  79 101  80 100
M  END
> <chiral flag>
0

> <version>
0

> <s_m_source_file>
/data/baiqing/PycharmProjects/Reinvent-master-3.2/result/LINK_invent/BTK/process_docking_weight1_custom_sum_contain_oxygen_bond_distance_aromatic_linkinvent_7_9_3/rearranged_h_0012.sdf

> <i_m_source_file_index>
53

> <r_mmod_Potential_Energy-OPLS-2005>
535.056884765625

> <r_mmod_Stretch_Energy-OPLS-2005>
178.740386962891

> <r_mmod_Bend_Energy-OPLS-2005>
241.884796142578

> <r_mmod_Torsional_Energy-OPLS-2005>
343.167602539062

> <r_mmod_Improper_Torsional_Energy-OPLS-2005>
11.3020811080933

> <r_mmod_Van_der_Waal_Energy-OPLS-2005>
134.108444213867

> <r_mmod_Electrostatic_Energy-OPLS-2005>
-285.897308349609

> <r_mmod_Solvation_Energy-OPLS-2005>
-223.34309387207

> <b_mmod_Minimization_Converged-OPLS-2005>
0

> <r_mmod_RMS_Derivative-OPLS-2005>
2.05980849266052

$$$$
54
                    3D
 Structure written by MMmdl.
153161  0  0  1  0            999 V2000
  -30.5486  -14.7653   20.5406 C   0  0  0  0  0  0
  -30.4626  -12.4882   19.4621 C   0  0  0  0  0  0
  -29.5189  -12.5484   18.2358 C   0  0  0  0  0  0
  -28.0434  -12.3599   18.6461 C   0  0  0  0  0  0
  -27.6579  -13.2234   19.8756 C   0  0  2  0  0  0
  -28.7087  -13.0625   20.9975 C   0  0  0  0  0  0
  -25.2500  -13.8148   20.5544 C   0  0  0  0  0  0
  -24.1813  -13.0416   20.9164 C   0  0  0  0  0  0
  -24.6417  -11.6901   20.8763 C   0  0  0  0  0  0
  -23.9082  -10.4284   21.0422 C   0  0  0  0  0  0
  -24.3624   -9.4195   21.9198 C   0  0  0  0  0  0
  -23.6294   -8.2234   22.0759 C   0  0  0  0  0  0
  -22.4277   -8.0279   21.3545 C   0  0  0  0  0  0
  -21.9919   -9.0256   20.4649 C   0  0  0  0  0  0
  -22.7254  -10.2132   20.3066 C   0  0  0  0  0  0
  -21.6850   -6.0735   22.5278 C   0  0  0  0  0  0
  -21.4013   -6.5639   23.8211 C   0  0  0  0  0  0
  -21.3659   -5.6792   24.9174 C   0  0  0  0  0  0
  -21.6044   -4.3055   24.7224 C   0  0  0  0  0  0
  -21.8819   -3.8147   23.4346 C   0  0  0  0  0  0
  -21.9191   -4.6963   22.3401 C   0  0  0  0  0  0
  -22.7835  -13.5206   21.1835 C   0  0  0  0  0  0
  -22.1661   -4.2150   21.0978 F   0  0  0  0  0  0
  -21.5629   -3.4538   25.7736 F   0  0  0  0  0  0
  -30.0085  -13.4933   20.4548 N   0  0  0  0  0  0
  -26.3013  -12.9370   20.3376 N   0  0  0  0  0  0
  -25.9364  -11.6519   20.5826 N   0  0  0  0  0  0
  -22.0493  -12.8207   22.0414 N   0  0  0  0  0  0
  -25.4043  -15.1834   20.3630 N   0  0  0  0  0  0
  -31.6511  -15.0007   20.0338 O   0  0  0  0  0  0
  -21.6637   -6.8880   21.4240 O   0  0  0  0  0  0
  -22.3500  -14.5505   20.6685 O   0  0  0  0  0  0
  -24.6326  -31.8528   23.1949 C   0  0  0  0  0  0
  -25.9142  -32.4742   23.8308 C   0  0  1  0  0  0
  -27.2323  -27.2483   20.1424 C   0  0  0  0  0  0
  -25.5930  -33.8544   24.2234 N   0  0  0  0  0  0
  -23.4313  -30.4717   21.5382 C   0  0  2  0  0  0
  -24.8820  -28.9078   20.1169 C   0  0  0  0  0  0
  -22.7511  -29.4586   22.4909 C   0  0  0  0  0  0
  -18.0292  -28.1390   22.8482 C   0  0  0  0  0  0
  -24.1490  -36.7279   23.2642 C   0  0  0  0  0  0
  -25.9768  -30.7632   21.3746 C   0  0  0  0  0  0
  -26.0537  -29.3811   20.7222 C   0  0  0  0  0  0
  -27.2336  -28.5668   20.7161 C   0  0  0  0  0  0
  -26.0367  -26.8376   19.5175 C   0  0  0  0  0  0
  -24.8789  -27.6442   19.5028 C   0  0  0  0  0  0
  -23.6526  -29.7972   20.1579 C   0  0  0  0  0  0
  -25.4118  -36.3061   24.0323 C   0  0  1  0  0  0
  -20.5896  -28.3703   23.1268 C   0  0  2  0  0  0
  -20.6780  -26.9418   22.5411 C   0  0  0  0  0  0
  -19.5755  -26.6385   21.5213 C   0  0  0  0  0  0
  -18.1936  -26.7931   22.1625 C   0  0  0  0  0  0
  -19.1546  -28.8863   23.2869 C   0  0  0  0  0  0
  -18.9467  -30.1463   23.8890 C   0  0  0  0  0  0
  -17.6466  -30.6591   24.0561 C   0  0  0  0  0  0
  -25.9058  -34.9433   23.5083 C   0  0  0  0  0  0
  -16.5356  -29.9089   23.6330 C   0  0  0  0  0  0
  -16.7278  -28.6505   23.0354 C   0  0  0  0  0  0
  -26.4504  -31.6577   25.0707 C   0  0  0  0  0  0
  -25.3722  -31.3735   26.1425 C   0  0  0  0  0  0
  -27.0358  -30.2992   24.6205 C   0  0  0  0  0  0
  -27.6047  -32.4327   25.7490 C   0  0  0  0  0  0
  -27.5574  -37.1799   24.8467 C   0  0  0  0  0  0
  -21.4215  -29.3045   22.3655 N   0  0  0  0  0  0
  -26.4291  -37.3762   23.9403 N   0  0  0  0  0  0
  -24.6993  -31.0479   22.0926 N   0  0  0  0  0  0
  -23.4198  -28.8138   23.3026 O   0  0  0  0  0  0
  -28.3401  -26.3658   20.1313 O   0  0  0  0  0  0
  -26.5637  -34.8913   22.4656 O   0  0  0  0  0  0
  -23.5473  -32.1353   23.7238 O   0  0  0  0  0  0
  -29.7078  -18.3581   20.5563 C   0  0  0  0  0  0
  -27.1919  -18.3006   21.7535 C   0  0  0  0  0  0
  -29.2479  -17.0860   21.1329 C   0  0  0  0  0  0
  -27.5997  -19.4742   21.1047 C   0  0  0  0  0  0
  -28.9216  -19.6106   20.6027 C   0  0  0  0  0  0
  -28.0121  -17.1664   21.8233 C   0  0  0  0  0  0
  -28.7953  -23.6170   19.9233 C   0  0  0  0  0  0
  -28.2035  -24.9542   20.6574 C   0  0  0  0  0  0
  -29.0325  -22.2265   20.7565 C   0  0  0  0  0  0
  -26.6335  -20.4654   20.9299 N   0  0  0  0  0  0
  -29.8234  -15.7039   21.2570 N   0  0  0  0  0  0
  -29.3419  -20.8928   20.0966 O   0  0  0  0  0  0
  -27.4418  -15.8582   22.8039 Cl  0  0  0  0  0  0
  -31.4932  -12.6658   19.1502 H   0  0  0  0  0  0
  -30.4576  -11.4902   19.9029 H   0  0  0  0  0  0
  -29.8031  -11.7917   17.5033 H   0  0  0  0  0  0
  -29.6345  -13.5122   17.7376 H   0  0  0  0  0  0
  -27.8952  -11.3045   18.8782 H   0  0  0  0  0  0
  -27.3849  -12.5815   17.8055 H   0  0  0  0  0  0
  -27.6765  -14.2632   19.5487 H   0  0  0  0  0  0
  -28.7594  -12.0207   21.3172 H   0  0  0  0  0  0
  -28.4339  -13.6100   21.8933 H   0  0  0  0  0  0
  -25.2770   -9.5668   22.4774 H   0  0  0  0  0  0
  -23.9999   -7.4622   22.7477 H   0  0  0  0  0  0
  -21.0852   -8.8780   19.8951 H   0  0  0  0  0  0
  -22.3721  -10.9673   19.6174 H   0  0  0  0  0  0
  -21.2006   -7.6148   23.9716 H   0  0  0  0  0  0
  -21.1481   -6.0522   25.9077 H   0  0  0  0  0  0
  -22.0600   -2.7610   23.2844 H   0  0  0  0  0  0
  -22.4119  -11.9875   22.4807 H   0  0  0  0  0  0
  -21.1117  -13.1237   22.2632 H   0  0  0  0  0  0
  -24.6346  -15.8331   20.4732 H   0  0  0  0  0  0
  -26.2578  -15.6249   20.0510 H   0  0  0  0  0  0
  -26.7210  -32.5393   23.1050 H   0  0  0  0  0  0
  -25.0066  -33.9673   25.0373 H   0  0  0  0  0  0
  -22.7284  -31.2936   21.3868 H   0  0  0  0  0  0
  -23.3747  -35.9617   23.3313 H   0  0  0  0  0  0
  -24.3573  -36.8896   22.2054 H   0  0  0  0  0  0
  -23.7253  -37.6485   23.6665 H   0  0  0  0  0  0
  -26.1134  -31.5209   20.6018 H   0  0  0  0  0  0
  -26.8544  -30.8174   22.0072 H   0  0  0  0  0  0
  -28.1353  -28.9313   21.1879 H   0  0  0  0  0  0
  -25.9939  -25.8679   19.0419 H   0  0  0  0  0  0
  -23.9824  -27.2758   19.0233 H   0  0  0  0  0  0
  -23.7795  -30.5692   19.3980 H   0  0  0  0  0  0
  -22.7712  -29.2300   19.8535 H   0  0  0  0  0  0
  -25.1305  -36.1903   25.0816 H   0  0  0  0  0  0
  -20.9984  -28.3283   24.1390 H   0  0  0  0  0  0
  -20.5680  -26.2313   23.3618 H   0  0  0  0  0  0
  -21.6648  -26.7443   22.1205 H   0  0  0  0  0  0
  -19.6919  -25.6295   21.1248 H   0  0  0  0  0  0
  -19.6694  -27.3190   20.6739 H   0  0  0  0  0  0
  -17.4206  -26.6673   21.4028 H   0  0  0  0  0  0
  -18.0338  -26.0078   22.9026 H   0  0  0  0  0  0
  -19.7944  -30.7278   24.2258 H   0  0  0  0  0  0
  -17.5022  -31.6270   24.5166 H   0  0  0  0  0  0
  -15.5358  -30.2991   23.7660 H   0  0  0  0  0  0
  -15.8677  -28.0822   22.7078 H   0  0  0  0  0  0
  -24.5900  -30.7080   25.7753 H   0  0  0  0  0  0
  -24.8910  -32.2909   26.4826 H   0  0  0  0  0  0
  -25.8035  -30.8929   27.0215 H   0  0  0  0  0  0
  -26.2947  -29.6732   24.1221 H   0  0  0  0  0  0
  -27.4027  -29.7265   25.4733 H   0  0  0  0  0  0
  -27.8827  -30.4263   23.9458 H   0  0  0  0  0  0
  -27.2642  -33.3633   26.2043 H   0  0  0  0  0  0
  -28.3873  -32.6880   25.0334 H   0  0  0  0  0  0
  -28.0696  -31.8470   26.5431 H   0  0  0  0  0  0
  -28.2603  -38.0084   24.7493 H   0  0  0  0  0  0
  -28.1059  -36.2614   24.6325 H   0  0  0  0  0  0
  -27.2287  -37.1485   25.8870 H   0  0  0  0  0  0
  -20.9410  -29.8757   21.6844 H   0  0  0  0  0  0
  -26.0167  -38.2837   24.1394 H   0  0  0  0  0  0
  -30.6841  -18.3870   20.0955 H   0  0  0  0  0  0
  -26.2153  -18.2506   22.2124 H   0  0  0  0  0  0
  -29.7501  -23.8835   19.4703 H   0  0  0  0  0  0
  -28.1373  -23.3957   19.0832 H   0  0  0  0  0  0
  -28.6831  -24.9943   21.6355 H   0  0  0  0  0  0
  -27.1555  -24.7605   20.8883 H   0  0  0  0  0  0
  -28.2467  -22.1505   21.5008 H   0  0  0  0  0  0
  -29.9059  -22.4124   21.3821 H   0  0  0  0  0  0
  -25.6572  -20.1945   20.9807 H   0  0  0  0  0  0
  -26.8104  -21.1400   20.1939 H   0  0  0  0  0  0
  -29.1965  -15.1722   21.8459 H   0  0  0  0  0  0
  1 25  1  0  0  0
  1 30  2  0  0  0
  1 81  1  0  0  0
  2  3  1  0  0  0
  2 25  1  0  0  0
  2 84  1  0  0  0
  2 85  1  0  0  0
  3  4  1  0  0  0
  3 86  1  0  0  0
  3 87  1  0  0  0
  4  5  1  0  0  0
  4 88  1  0  0  0
  4 89  1  0  0  0
  5  6  1  0  0  0
  5 26  1  0  0  0
  5 90  1  0  0  0
  6 25  1  0  0  0
  6 91  1  0  0  0
  6 92  1  0  0  0
  7  8  2  0  0  0
  7 26  1  0  0  0
  7 29  1  0  0  0
  8  9  1  0  0  0
  8 22  1  0  0  0
  9 10  1  0  0  0
  9 27  2  0  0  0
 10 11  2  0  0  0
 10 15  1  0  0  0
 11 12  1  0  0  0
 11 93  1  0  0  0
 12 13  2  0  0  0
 12 94  1  0  0  0
 13 14  1  0  0  0
 13 31  1  0  0  0
 14 15  2  0  0  0
 14 95  1  0  0  0
 15 96  1  0  0  0
 16 17  2  0  0  0
 16 21  1  0  0  0
 16 31  1  0  0  0
 17 18  1  0  0  0
 17 97  1  0  0  0
 18 19  2  0  0  0
 18 98  1  0  0  0
 19 20  1  0  0  0
 19 24  1  0  0  0
 20 21  2  0  0  0
 20 99  1  0  0  0
 21 23  1  0  0  0
 22 28  1  0  0  0
 22 32  2  0  0  0
 26 27  1  0  0  0
 28100  1  0  0  0
 28101  1  0  0  0
 29102  1  0  0  0
 29103  1  0  0  0
 33 34  1  0  0  0
 33 66  1  0  0  0
 33 70  2  0  0  0
 34 36  1  0  0  0
 34 59  1  0  0  0
 34104  1  0  0  0
 35 44  2  0  0  0
 35 45  1  0  0  0
 35 68  1  0  0  0
 36 56  1  0  0  0
 36105  1  0  0  0
 37 39  1  0  0  0
 37 47  1  0  0  0
 37 66  1  0  0  0
 37106  1  0  0  0
 38 43  2  0  0  0
 38 46  1  0  0  0
 38 47  1  0  0  0
 39 64  1  0  0  0
 39 67  2  0  0  0
 40 52  1  0  0  0
 40 53  2  0  0  0
 40 58  1  0  0  0
 41107  1  0  0  0
 41108  1  0  0  0
 41109  1  0  0  0
 41 48  1  0  0  0
 42 43  1  0  0  0
 42 66  1  0  0  0
 42110  1  0  0  0
 42111  1  0  0  0
 43 44  1  0  0  0
 44112  1  0  0  0
 45 46  2  0  0  0
 45113  1  0  0  0
 46114  1  0  0  0
 47115  1  0  0  0
 47116  1  0  0  0
 48 56  1  0  0  0
 48 65  1  0  0  0
 48117  1  0  0  0
 49 50  1  0  0  0
 49 53  1  0  0  0
 49 64  1  0  0  0
 49118  1  0  0  0
 50 51  1  0  0  0
 50119  1  0  0  0
 50120  1  0  0  0
 51 52  1  0  0  0
 51121  1  0  0  0
 51122  1  0  0  0
 52123  1  0  0  0
 52124  1  0  0  0
 53 54  1  0  0  0
 54 55  2  0  0  0
 54125  1  0  0  0
 55 57  1  0  0  0
 55126  1  0  0  0
 56 69  2  0  0  0
 57 58  2  0  0  0
 57127  1  0  0  0
 58128  1  0  0  0
 59 60  1  0  0  0
 59 61  1  0  0  0
 59 62  1  0  0  0
 60129  1  0  0  0
 60130  1  0  0  0
 60131  1  0  0  0
 61132  1  0  0  0
 61133  1  0  0  0
 61134  1  0  0  0
 62135  1  0  0  0
 62136  1  0  0  0
 62137  1  0  0  0
 63 65  1  0  0  0
 63138  1  0  0  0
 63139  1  0  0  0
 63140  1  0  0  0
 64141  1  0  0  0
 65142  1  0  0  0
 68 78  1  0  0  0
 71 73  2  0  0  0
 71 75  1  0  0  0
 71143  1  0  0  0
 72 74  1  0  0  0
 72 76  2  0  0  0
 72144  1  0  0  0
 73 76  1  0  0  0
 73 81  1  0  0  0
 74 75  2  0  0  0
 74 80  1  0  0  0
 75 82  1  0  0  0
 76 83  1  0  0  0
 77 78  1  0  0  0
 77 79  1  0  0  0
 77145  1  0  0  0
 77146  1  0  0  0
 78147  1  0  0  0
 78148  1  0  0  0
 79 82  1  0  0  0
 79149  1  0  0  0
 79150  1  0  0  0
 80151  1  0  0  0
 80152  1  0  0  0
 81153  1  0  0  0
M  ISO  4   1 100  68 101  78 101  81 100
M  END
> <chiral flag>
0

> <version>
0

> <s_m_source_file>
/data/baiqing/PycharmProjects/Reinvent-master-3.2/result/LINK_invent/BTK/process_docking_weight1_custom_sum_contain_oxygen_bond_distance_aromatic_linkinvent_7_9_3/rearranged_h_0012.sdf

> <i_m_source_file_index>
54

> <r_mmod_Potential_Energy-OPLS-2005>
268.794982910156

> <r_mmod_Stretch_Energy-OPLS-2005>
157.448532104492

> <r_mmod_Bend_Energy-OPLS-2005>
248.932250976562

> <r_mmod_Torsional_Energy-OPLS-2005>
273.450256347656

> <r_mmod_Improper_Torsional_Energy-OPLS-2005>
9.150634765625

> <r_mmod_Van_der_Waal_Energy-OPLS-2005>
142.215225219727

> <r_mmod_Electrostatic_Energy-OPLS-2005>
-439.220428466797

> <r_mmod_Solvation_Energy-OPLS-2005>
-215.306625366211

> <b_mmod_Minimization_Converged-OPLS-2005>
0

> <r_mmod_RMS_Derivative-OPLS-2005>
0.302162498235703

$$$$
55
                    3D
 Structure written by MMmdl.
161169  0  0  1  0            999 V2000
  -30.5811  -14.7572   20.4742 C   0  0  0  0  0  0
  -30.4304  -12.4712   19.4583 C   0  0  0  0  0  0
  -29.5144  -12.5440   18.2163 C   0  0  0  0  0  0
  -28.0398  -12.3453   18.6228 C   0  0  0  0  0  0
  -27.6347  -13.2291   19.8344 C   0  0  2  0  0  0
  -28.6771  -13.1579   20.9708 C   0  0  0  0  0  0
  -25.2525  -13.8181   20.5699 C   0  0  0  0  0  0
  -24.1808  -13.0422   20.9174 C   0  0  0  0  0  0
  -24.6392  -11.6898   20.8673 C   0  0  0  0  0  0
  -23.9041  -10.4289   21.0328 C   0  0  0  0  0  0
  -24.3613   -9.4218   21.9121 C   0  0  0  0  0  0
  -23.6306   -8.2247   22.0711 C   0  0  0  0  0  0
  -22.4285   -8.0282   21.3511 C   0  0  0  0  0  0
  -21.9901   -9.0226   20.4594 C   0  0  0  0  0  0
  -22.7208  -10.2109   20.2987 C   0  0  0  0  0  0
  -21.6869   -6.0740   22.5276 C   0  0  0  0  0  0
  -21.4015   -6.5624   23.8208 C   0  0  0  0  0  0
  -21.3656   -5.6760   24.9146 C   0  0  0  0  0  0
  -21.6048   -4.3026   24.7191 C   0  0  0  0  0  0
  -21.8821   -3.8143   23.4297 C   0  0  0  0  0  0
  -21.9185   -4.6966   22.3366 C   0  0  0  0  0  0
  -22.7839  -13.5217   21.1835 C   0  0  0  0  0  0
  -22.1680   -4.2152   21.0939 F   0  0  0  0  0  0
  -21.5613   -3.4501   25.7695 F   0  0  0  0  0  0
  -29.9754  -13.5231   20.3954 N   0  0  0  0  0  0
  -26.2903  -12.9371   20.3173 N   0  0  0  0  0  0
  -25.9305  -11.6506   20.5620 N   0  0  0  0  0  0
  -22.0466  -12.8216   22.0371 N   0  0  0  0  0  0
  -25.4215  -15.1924   20.4249 N   0  0  0  0  0  0
  -31.7844  -14.8683   20.2196 O   0  0  0  0  0  0
  -21.6641   -6.8889   21.4243 O   0  0  0  0  0  0
  -22.3505  -14.5497   20.6620 O   0  0  0  0  0  0
  -24.6347  -31.8533   23.1917 C   0  0  0  0  0  0
  -25.9160  -32.4739   23.8278 C   0  0  1  0  0  0
  -27.2117  -27.2552   20.1130 C   0  0  0  0  0  0
  -25.5935  -33.8544   24.2195 N   0  0  0  0  0  0
  -23.4278  -30.4759   21.5373 C   0  0  2  0  0  0
  -24.8666  -28.9158   20.1011 C   0  0  0  0  0  0
  -22.7502  -29.4608   22.4890 C   0  0  0  0  0  0
  -18.0298  -28.1405   22.8457 C   0  0  0  0  0  0
  -24.1497  -36.7326   23.2628 C   0  0  0  0  0  0
  -25.9740  -30.7589   21.3716 C   0  0  0  0  0  0
  -26.0385  -29.3815   20.7136 C   0  0  0  0  0  0
  -27.2067  -28.5595   20.7103 C   0  0  0  0  0  0
  -26.0140  -26.8480   19.4863 C   0  0  0  0  0  0
  -24.8609  -27.6574   19.4794 C   0  0  0  0  0  0
  -23.6391  -29.8044   20.1532 C   0  0  0  0  0  0
  -25.4117  -36.3068   24.0291 C   0  0  1  0  0  0
  -20.5896  -28.3716   23.1253 C   0  0  2  0  0  0
  -20.6792  -26.9435   22.5398 C   0  0  0  0  0  0
  -19.5769  -26.6390   21.5207 C   0  0  0  0  0  0
  -18.1951  -26.7946   22.1622 C   0  0  0  0  0  0
  -19.1537  -28.8878   23.2856 C   0  0  0  0  0  0
  -18.9450  -30.1488   23.8867 C   0  0  0  0  0  0
  -17.6444  -30.6589   24.0570 C   0  0  0  0  0  0
  -25.9069  -34.9437   23.5054 C   0  0  0  0  0  0
  -16.5342  -29.9090   23.6349 C   0  0  0  0  0  0
  -16.7277  -28.6526   23.0325 C   0  0  0  0  0  0
  -26.4471  -31.6611   25.0728 C   0  0  0  0  0  0
  -25.3653  -31.3811   26.1429 C   0  0  0  0  0  0
  -27.0307  -30.2994   24.6305 C   0  0  0  0  0  0
  -27.5984  -32.4360   25.7548 C   0  0  0  0  0  0
  -27.5587  -37.1826   24.8433 C   0  0  0  0  0  0
  -21.4196  -29.3068   22.3649 N   0  0  0  0  0  0
  -26.4297  -37.3766   23.9372 N   0  0  0  0  0  0
  -24.6988  -31.0494   22.0901 N   0  0  0  0  0  0
  -23.4207  -28.8133   23.2965 O   0  0  0  0  0  0
  -28.3343  -26.4016   20.1880 O   0  0  0  0  0  0
  -26.5637  -34.8930   22.4630 O   0  0  0  0  0  0
  -23.5487  -32.1358   23.7223 O   0  0  0  0  0  0
  -30.9275  -17.5938   21.9026 C   0  0  0  0  0  0
  -30.3958  -19.9919   21.8352 C   0  0  0  0  0  0
  -29.2833  -18.4414   20.3308 C   0  0  0  0  0  0
  -31.0870  -18.8983   22.4230 C   0  0  0  0  0  0
  -30.0134  -17.3018   20.8717 C   0  0  0  0  0  0
  -29.4765  -19.8255   20.7702 C   0  0  0  0  0  0
  -32.0298  -19.9986   24.4836 C   0  0  0  0  0  0
  -29.1475  -22.3713   20.3418 C   0  0  0  0  0  0
  -32.6925  -19.6124   25.8015 C   0  0  0  0  0  0
  -27.4000  -20.7743   19.6978 C   0  0  0  0  0  0
  -28.1844  -23.6569   20.4938 C   0  0  0  0  0  0
  -28.4062  -25.0071   19.6245 C   0  0  0  0  0  0
  -31.8984  -19.0001   23.5925 N   0  0  0  0  0  0
  -29.7492  -15.8715   20.5565 N   0  0  0  0  0  0
  -28.7103  -21.0334   20.3015 N   0  0  0  0  0  0
  -31.6786  -21.1680   24.3044 O   0  0  0  0  0  0
  -30.3552  -22.6195   20.2815 O   0  0  0  0  0  0
  -31.4744  -12.6030   19.1727 H   0  0  0  0  0  0
  -30.3695  -11.4861   19.9232 H   0  0  0  0  0  0
  -29.8157  -11.8043   17.4750 H   0  0  0  0  0  0
  -29.6303  -13.5169   17.7336 H   0  0  0  0  0  0
  -27.9018  -11.2926   18.8670 H   0  0  0  0  0  0
  -27.3893  -12.5411   17.7681 H   0  0  0  0  0  0
  -27.6243  -14.2514   19.4634 H   0  0  0  0  0  0
  -28.7169  -12.1553   21.3945 H   0  0  0  0  0  0
  -28.4048  -13.8283   21.7871 H   0  0  0  0  0  0
  -25.2772   -9.5722   22.4674 H   0  0  0  0  0  0
  -24.0025   -7.4634   22.7421 H   0  0  0  0  0  0
  -21.0842   -8.8709   19.8909 H   0  0  0  0  0  0
  -22.3660  -10.9618   19.6074 H   0  0  0  0  0  0
  -21.2047   -7.6136   23.9732 H   0  0  0  0  0  0
  -21.1476   -6.0466   25.9055 H   0  0  0  0  0  0
  -22.0617   -2.7613   23.2761 H   0  0  0  0  0  0
  -22.4127  -11.9966   22.4905 H   0  0  0  0  0  0
  -21.1029  -13.1169   22.2423 H   0  0  0  0  0  0
  -24.6542  -15.8446   20.5546 H   0  0  0  0  0  0
  -26.2753  -15.6434   20.1272 H   0  0  0  0  0  0
  -26.7256  -32.5340   23.1038 H   0  0  0  0  0  0
  -25.0062  -33.9648   25.0326 H   0  0  0  0  0  0
  -22.7288  -31.3008   21.3896 H   0  0  0  0  0  0
  -23.3739  -35.9692   23.3269 H   0  0  0  0  0  0
  -24.3612  -36.8986   22.2060 H   0  0  0  0  0  0
  -23.7297  -37.6527   23.6697 H   0  0  0  0  0  0
  -26.1217  -31.5132   20.5981 H   0  0  0  0  0  0
  -26.8514  -30.8011   22.0065 H   0  0  0  0  0  0
  -28.1045  -28.9090   21.2002 H   0  0  0  0  0  0
  -25.9319  -25.8828   19.0145 H   0  0  0  0  0  0
  -23.9642  -27.2896   19.0001 H   0  0  0  0  0  0
  -23.7534  -30.5746   19.3888 H   0  0  0  0  0  0
  -22.7569  -29.2303   19.8629 H   0  0  0  0  0  0
  -25.1332  -36.1899   25.0787 H   0  0  0  0  0  0
  -21.0009  -28.3299   24.1361 H   0  0  0  0  0  0
  -20.5696  -26.2325   23.3594 H   0  0  0  0  0  0
  -21.6660  -26.7471   22.1182 H   0  0  0  0  0  0
  -19.6921  -25.6295   21.1251 H   0  0  0  0  0  0
  -19.6719  -27.3182   20.6716 H   0  0  0  0  0  0
  -17.4230  -26.6658   21.4031 H   0  0  0  0  0  0
  -18.0365  -26.0110   22.9039 H   0  0  0  0  0  0
  -19.7938  -30.7314   24.2195 H   0  0  0  0  0  0
  -17.5007  -31.6258   24.5213 H   0  0  0  0  0  0
  -15.5338  -30.2961   23.7703 H   0  0  0  0  0  0
  -15.8696  -28.0861   22.6988 H   0  0  0  0  0  0
  -24.5768  -30.7246   25.7734 H   0  0  0  0  0  0
  -24.8930  -32.3026   26.4856 H   0  0  0  0  0  0
  -25.7911  -30.8946   27.0221 H   0  0  0  0  0  0
  -26.2922  -29.6764   24.1248 H   0  0  0  0  0  0
  -27.3810  -29.7260   25.4905 H   0  0  0  0  0  0
  -27.8892  -30.4201   23.9684 H   0  0  0  0  0  0
  -27.2523  -33.3609   26.2184 H   0  0  0  0  0  0
  -28.3805  -32.7010   25.0420 H   0  0  0  0  0  0
  -28.0680  -31.8480   26.5452 H   0  0  0  0  0  0
  -28.2566  -38.0155   24.7504 H   0  0  0  0  0  0
  -28.1112  -36.2685   24.6229 H   0  0  0  0  0  0
  -27.2315  -37.1454   25.8833 H   0  0  0  0  0  0
  -20.9356  -29.8848   21.6921 H   0  0  0  0  0  0
  -26.0162  -38.2846   24.1329 H   0  0  0  0  0  0
  -31.4584  -16.7818   22.3736 H   0  0  0  0  0  0
  -30.5230  -20.9818   22.2474 H   0  0  0  0  0  0
  -28.5494  -18.2327   19.5681 H   0  0  0  0  0  0
  -32.4407  -20.3351   26.5777 H   0  0  0  0  0  0
  -33.7767  -19.5701   25.7004 H   0  0  0  0  0  0
  -32.3383  -18.6366   26.1378 H   0  0  0  0  0  0
  -27.4551  -19.9606   18.9749 H   0  0  0  0  0  0
  -27.0022  -21.6177   19.1334 H   0  0  0  0  0  0
  -26.6781  -20.4963   20.4669 H   0  0  0  0  0  0
  -28.2964  -23.9525   21.5361 H   0  0  0  0  0  0
  -27.1415  -23.3586   20.4226 H   0  0  0  0  0  0
  -27.7984  -24.9359   18.7231 H   0  0  0  0  0  0
  -29.4179  -24.9395   19.2301 H   0  0  0  0  0  0
  -32.3115  -18.1319   23.9038 H   0  0  0  0  0  0
  -28.7714  -15.6335   20.4972 H   0  0  0  0  0  0
  1 25  1  0  0  0
  1 30  2  0  0  0
  1 84  1  0  0  0
  2  3  1  0  0  0
  2 25  1  0  0  0
  2 88  1  0  0  0
  2 89  1  0  0  0
  3  4  1  0  0  0
  3 90  1  0  0  0
  3 91  1  0  0  0
  4  5  1  0  0  0
  4 92  1  0  0  0
  4 93  1  0  0  0
  5  6  1  0  0  0
  5 26  1  0  0  0
  5 94  1  0  0  0
  6 25  1  0  0  0
  6 95  1  0  0  0
  6 96  1  0  0  0
  7  8  2  0  0  0
  7 26  1  0  0  0
  7 29  1  0  0  0
  8  9  1  0  0  0
  8 22  1  0  0  0
  9 10  1  0  0  0
  9 27  2  0  0  0
 10 11  2  0  0  0
 10 15  1  0  0  0
 11 12  1  0  0  0
 11 97  1  0  0  0
 12 13  2  0  0  0
 12 98  1  0  0  0
 13 14  1  0  0  0
 13 31  1  0  0  0
 14 15  2  0  0  0
 14 99  1  0  0  0
 15100  1  0  0  0
 16 17  2  0  0  0
 16 21  1  0  0  0
 16 31  1  0  0  0
 17 18  1  0  0  0
 17101  1  0  0  0
 18 19  2  0  0  0
 18102  1  0  0  0
 19 20  1  0  0  0
 19 24  1  0  0  0
 20 21  2  0  0  0
 20103  1  0  0  0
 21 23  1  0  0  0
 22 28  1  0  0  0
 22 32  2  0  0  0
 26 27  1  0  0  0
 28104  1  0  0  0
 28105  1  0  0  0
 29106  1  0  0  0
 29107  1  0  0  0
 33 34  1  0  0  0
 33 66  1  0  0  0
 33 70  2  0  0  0
 34 36  1  0  0  0
 34 59  1  0  0  0
 34108  1  0  0  0
 35 44  2  0  0  0
 35 45  1  0  0  0
 35 68  1  0  0  0
 36 56  1  0  0  0
 36109  1  0  0  0
 37 39  1  0  0  0
 37 47  1  0  0  0
 37 66  1  0  0  0
 37110  1  0  0  0
 38 43  2  0  0  0
 38 46  1  0  0  0
 38 47  1  0  0  0
 39 64  1  0  0  0
 39 67  2  0  0  0
 40 52  1  0  0  0
 40 53  2  0  0  0
 40 58  1  0  0  0
 41111  1  0  0  0
 41112  1  0  0  0
 41113  1  0  0  0
 41 48  1  0  0  0
 42 43  1  0  0  0
 42 66  1  0  0  0
 42114  1  0  0  0
 42115  1  0  0  0
 43 44  1  0  0  0
 44116  1  0  0  0
 45 46  2  0  0  0
 45117  1  0  0  0
 46118  1  0  0  0
 47119  1  0  0  0
 47120  1  0  0  0
 48 56  1  0  0  0
 48 65  1  0  0  0
 48121  1  0  0  0
 49 50  1  0  0  0
 49 53  1  0  0  0
 49 64  1  0  0  0
 49122  1  0  0  0
 50 51  1  0  0  0
 50123  1  0  0  0
 50124  1  0  0  0
 51 52  1  0  0  0
 51125  1  0  0  0
 51126  1  0  0  0
 52127  1  0  0  0
 52128  1  0  0  0
 53 54  1  0  0  0
 54 55  2  0  0  0
 54129  1  0  0  0
 55 57  1  0  0  0
 55130  1  0  0  0
 56 69  2  0  0  0
 57 58  2  0  0  0
 57131  1  0  0  0
 58132  1  0  0  0
 59 60  1  0  0  0
 59 61  1  0  0  0
 59 62  1  0  0  0
 60133  1  0  0  0
 60134  1  0  0  0
 60135  1  0  0  0
 61136  1  0  0  0
 61137  1  0  0  0
 61138  1  0  0  0
 62139  1  0  0  0
 62140  1  0  0  0
 62141  1  0  0  0
 63 65  1  0  0  0
 63142  1  0  0  0
 63143  1  0  0  0
 63144  1  0  0  0
 64145  1  0  0  0
 65146  1  0  0  0
 68 82  1  0  0  0
 71 74  2  0  0  0
 71 75  1  0  0  0
 71147  1  0  0  0
 72 74  1  0  0  0
 72 76  2  0  0  0
 72148  1  0  0  0
 73 75  2  0  0  0
 73 76  1  0  0  0
 73149  1  0  0  0
 74 83  1  0  0  0
 75 84  1  0  0  0
 76 85  1  0  0  0
 77 79  1  0  0  0
 77 83  1  0  0  0
 77 86  2  0  0  0
 78 81  1  0  0  0
 78 85  1  0  0  0
 78 87  2  0  0  0
 79150  1  0  0  0
 79151  1  0  0  0
 79152  1  0  0  0
 80 85  1  0  0  0
 80153  1  0  0  0
 80154  1  0  0  0
 80155  1  0  0  0
 81 82  1  0  0  0
 81156  1  0  0  0
 81157  1  0  0  0
 82158  1  0  0  0
 82159  1  0  0  0
 83160  1  0  0  0
 84161  1  0  0  0
M  ISO  4   1 100  68 101  82 101  84 100
M  END
> <chiral flag>
0

> <version>
0

> <s_m_source_file>
/data/baiqing/PycharmProjects/Reinvent-master-3.2/result/LINK_invent/BTK/process_docking_weight1_custom_sum_contain_oxygen_bond_distance_aromatic_linkinvent_7_9_3/rearranged_h_0012.sdf

> <i_m_source_file_index>
55

> <r_mmod_Potential_Energy-OPLS-2005>
223.028137207031

> <r_mmod_Stretch_Energy-OPLS-2005>
136.675903320312

> <r_mmod_Bend_Energy-OPLS-2005>
193.628128051758

> <r_mmod_Torsional_Energy-OPLS-2005>
290.369445800781

> <r_mmod_Improper_Torsional_Energy-OPLS-2005>
8.79710674285889

> <r_mmod_Van_der_Waal_Energy-OPLS-2005>
149.692947387695

> <r_mmod_Electrostatic_Energy-OPLS-2005>
-383.135559082031

> <r_mmod_Solvation_Energy-OPLS-2005>
-263.043823242188

> <b_mmod_Minimization_Converged-OPLS-2005>
0

> <r_mmod_RMS_Derivative-OPLS-2005>
4.92093420028687

$$$$
56
                    3D
 Structure written by MMmdl.
155163  0  0  1  0            999 V2000
  -30.5358  -15.0158   20.4052 C   0  0  0  0  0  0
  -30.4368  -12.6340   19.5014 C   0  0  0  0  0  0
  -29.5211  -12.5354   18.2595 C   0  0  0  0  0  0
  -28.0587  -12.3078   18.6836 C   0  0  0  0  0  0
  -27.6236  -13.2555   19.8313 C   0  0  2  0  0  0
  -28.6661  -13.3275   20.9669 C   0  0  0  0  0  0
  -25.2438  -13.8226   20.5722 C   0  0  0  0  0  0
  -24.1767  -13.0439   20.9240 C   0  0  0  0  0  0
  -24.6397  -11.6929   20.8761 C   0  0  0  0  0  0
  -23.9085  -10.4293   21.0409 C   0  0  0  0  0  0
  -24.3632   -9.4205   21.9186 C   0  0  0  0  0  0
  -23.6299   -8.2244   22.0754 C   0  0  0  0  0  0
  -22.4281   -8.0282   21.3541 C   0  0  0  0  0  0
  -21.9923   -9.0259   20.4646 C   0  0  0  0  0  0
  -22.7258  -10.2135   20.3056 C   0  0  0  0  0  0
  -21.6854   -6.0737   22.5278 C   0  0  0  0  0  0
  -21.4015   -6.5640   23.8211 C   0  0  0  0  0  0
  -21.3658   -5.6791   24.9171 C   0  0  0  0  0  0
  -21.6044   -4.3055   24.7223 C   0  0  0  0  0  0
  -21.8819   -3.8146   23.4343 C   0  0  0  0  0  0
  -21.9194   -4.6964   22.3400 C   0  0  0  0  0  0
  -22.7786  -13.5203   21.1890 C   0  0  0  0  0  0
  -22.1662   -4.2153   21.0978 F   0  0  0  0  0  0
  -21.5629   -3.4536   25.7734 F   0  0  0  0  0  0
  -29.9316  -13.7531   20.3548 N   0  0  0  0  0  0
  -26.2862  -12.9474   20.3229 N   0  0  0  0  0  0
  -25.9330  -11.6598   20.5739 N   0  0  0  0  0  0
  -22.0441  -12.8185   22.0444 N   0  0  0  0  0  0
  -25.4085  -15.1955   20.4140 N   0  0  0  0  0  0
  -31.7495  -15.0314   20.1706 O   0  0  0  0  0  0
  -21.6640   -6.8881   21.4240 O   0  0  0  0  0  0
  -22.3468  -14.5508   20.6735 O   0  0  0  0  0  0
  -24.6479  -31.8395   23.1841 C   0  0  0  0  0  0
  -25.9228  -32.4673   23.8248 C   0  0  1  0  0  0
  -27.2169  -27.0890   20.1585 C   0  0  0  0  0  0
  -25.5957  -33.8480   24.2165 N   0  0  0  0  0  0
  -23.4537  -30.4572   21.5308 C   0  0  2  0  0  0
  -24.9036  -28.8738   20.1111 C   0  0  0  0  0  0
  -22.7588  -29.4526   22.4850 C   0  0  0  0  0  0
  -18.0306  -28.1397   22.8478 C   0  0  0  0  0  0
  -24.1490  -36.7239   23.2649 C   0  0  0  0  0  0
  -26.0128  -30.6986   21.3887 C   0  0  0  0  0  0
  -26.0830  -29.3048   20.7306 C   0  0  0  0  0  0
  -27.2399  -28.4303   20.7337 C   0  0  0  0  0  0
  -26.0100  -26.7690   19.4997 C   0  0  0  0  0  0
  -24.8827  -27.6209   19.4795 C   0  0  0  0  0  0
  -23.6828  -29.7823   20.1518 C   0  0  0  0  0  0
  -25.4124  -36.3019   24.0316 C   0  0  1  0  0  0
  -20.5922  -28.3727   23.1233 C   0  0  2  0  0  0
  -20.6794  -26.9427   22.5412 C   0  0  0  0  0  0
  -19.5768  -26.6381   21.5222 C   0  0  0  0  0  0
  -18.1946  -26.7934   22.1624 C   0  0  0  0  0  0
  -19.1565  -28.8880   23.2845 C   0  0  0  0  0  0
  -18.9482  -30.1475   23.8874 C   0  0  0  0  0  0
  -17.6481  -30.6596   24.0558 C   0  0  0  0  0  0
  -25.9079  -34.9396   23.5053 C   0  0  0  0  0  0
  -16.5370  -29.9089   23.6341 C   0  0  0  0  0  0
  -16.7290  -28.6505   23.0363 C   0  0  0  0  0  0
  -26.4530  -31.6559   25.0711 C   0  0  0  0  0  0
  -25.3702  -31.3755   26.1400 C   0  0  0  0  0  0
  -27.0405  -30.2954   24.6316 C   0  0  0  0  0  0
  -27.6053  -32.4335   25.7496 C   0  0  0  0  0  0
  -27.5570  -37.1777   24.8468 C   0  0  0  0  0  0
  -21.4275  -29.3045   22.3596 N   0  0  0  0  0  0
  -26.4281  -37.3741   23.9413 N   0  0  0  0  0  0
  -24.7251  -31.0207   22.0894 N   0  0  0  0  0  0
  -23.4205  -28.8083   23.3029 O   0  0  0  0  0  0
  -28.2614  -26.0803   20.2296 O   0  0  0  0  0  0
  -26.5673  -34.8900   22.4637 O   0  0  0  0  0  0
  -23.5586  -32.1290   23.7035 O   0  0  0  0  0  0
  -31.8940  -19.4247   20.8614 C   0  0  0  0  0  0
  -31.4513  -18.0926   20.7722 C   0  0  0  0  0  0
  -31.0607  -20.5588   20.7023 C   0  0  0  0  0  0
  -29.2353  -18.9809   20.3455 C   0  0  0  0  0  0
  -30.1104  -17.7584   20.5105 C   0  0  0  0  0  0
  -29.6614  -20.4325   20.4310 C   0  0  0  0  0  0
  -31.7755  -21.8952   20.8400 C   0  0  0  0  0  0
  -27.7673  -18.7251   20.0631 C   0  0  0  0  0  0
  -29.0844  -23.2335   20.3786 C   0  0  0  0  0  0
  -27.9987  -24.5275   20.0948 C   0  0  0  0  0  0
  -29.7681  -16.2358   20.4803 N   0  0  0  0  0  0
  -28.8016  -21.6691   20.2632 N   0  0  0  0  0  0
  -31.4688  -12.7931   19.1850 H   0  0  0  0  0  0
  -30.4390  -11.6953   20.0577 H   0  0  0  0  0  0
  -29.8526  -11.7283   17.6052 H   0  0  0  0  0  0
  -29.5945  -13.4545   17.6763 H   0  0  0  0  0  0
  -27.9721  -11.2713   19.0123 H   0  0  0  0  0  0
  -27.3915  -12.4121   17.8271 H   0  0  0  0  0  0
  -27.5719  -14.2472   19.3811 H   0  0  0  0  0  0
  -28.7703  -12.3662   21.4721 H   0  0  0  0  0  0
  -28.3547  -14.0465   21.7263 H   0  0  0  0  0  0
  -25.2778   -9.5680   22.4763 H   0  0  0  0  0  0
  -24.0006   -7.4634   22.7475 H   0  0  0  0  0  0
  -21.0854   -8.8779   19.8950 H   0  0  0  0  0  0
  -22.3717  -10.9674   19.6164 H   0  0  0  0  0  0
  -21.2006   -7.6148   23.9716 H   0  0  0  0  0  0
  -21.1480   -6.0519   25.9074 H   0  0  0  0  0  0
  -22.0600   -2.7610   23.2840 H   0  0  0  0  0  0
  -22.4069  -11.9851   22.4832 H   0  0  0  0  0  0
  -21.1054  -13.1196   22.2648 H   0  0  0  0  0  0
  -24.6346  -15.8423   20.5203 H   0  0  0  0  0  0
  -26.2429  -15.6348   20.0509 H   0  0  0  0  0  0
  -26.7291  -32.5257   23.0968 H   0  0  0  0  0  0
  -25.0070  -33.9587   25.0291 H   0  0  0  0  0  0
  -22.7592  -31.2846   21.3719 H   0  0  0  0  0  0
  -23.3762  -35.9564   23.3301 H   0  0  0  0  0  0
  -24.3572  -36.8883   22.2067 H   0  0  0  0  0  0
  -23.7237  -37.6429   23.6689 H   0  0  0  0  0  0
  -26.1735  -31.4509   20.6151 H   0  0  0  0  0  0
  -26.8811  -30.7507   22.0338 H   0  0  0  0  0  0
  -28.1372  -28.7565   21.2407 H   0  0  0  0  0  0
  -25.9057  -25.8111   19.0123 H   0  0  0  0  0  0
  -23.9824  -27.2851   18.9839 H   0  0  0  0  0  0
  -23.8232  -30.5553   19.3954 H   0  0  0  0  0  0
  -22.7960  -29.2285   19.8398 H   0  0  0  0  0  0
  -25.1315  -36.1843   25.0808 H   0  0  0  0  0  0
  -21.0005  -28.3319   24.1358 H   0  0  0  0  0  0
  -20.5703  -26.2337   23.3631 H   0  0  0  0  0  0
  -21.6656  -26.7437   22.1202 H   0  0  0  0  0  0
  -19.6939  -25.6291   21.1260 H   0  0  0  0  0  0
  -19.6712  -27.3182   20.6745 H   0  0  0  0  0  0
  -17.4221  -26.6685   21.4020 H   0  0  0  0  0  0
  -18.0332  -26.0080   22.9019 H   0  0  0  0  0  0
  -19.7963  -30.7292   24.2231 H   0  0  0  0  0  0
  -17.5038  -31.6275   24.5164 H   0  0  0  0  0  0
  -15.5372  -30.2986   23.7685 H   0  0  0  0  0  0
  -15.8684  -28.0816   22.7101 H   0  0  0  0  0  0
  -24.5900  -30.7082   25.7716 H   0  0  0  0  0  0
  -24.8871  -32.2939   26.4747 H   0  0  0  0  0  0
  -25.7983  -30.8983   27.0226 H   0  0  0  0  0  0
  -26.3034  -29.6667   24.1311 H   0  0  0  0  0  0
  -27.3999  -29.7263   25.4900 H   0  0  0  0  0  0
  -27.8943  -30.4189   23.9652 H   0  0  0  0  0  0
  -27.2647  -33.3668   26.1985 H   0  0  0  0  0  0
  -28.3904  -32.6842   25.0351 H   0  0  0  0  0  0
  -28.0669  -31.8518   26.5485 H   0  0  0  0  0  0
  -28.2582  -38.0078   24.7506 H   0  0  0  0  0  0
  -28.1069  -36.2605   24.6299 H   0  0  0  0  0  0
  -27.2284  -37.1427   25.8870 H   0  0  0  0  0  0
  -20.9493  -29.8737   21.6752 H   0  0  0  0  0  0
  -26.0143  -38.2808   24.1417 H   0  0  0  0  0  0
  -32.9452  -19.5702   21.0693 H   0  0  0  0  0  0
  -32.1900  -17.3210   20.9289 H   0  0  0  0  0  0
  -32.8286  -21.7667   21.0920 H   0  0  0  0  0  0
  -31.3494  -22.4916   21.6433 H   0  0  0  0  0  0
  -31.7550  -22.4465   19.9018 H   0  0  0  0  0  0
  -27.6067  -17.7329   19.6431 H   0  0  0  0  0  0
  -27.3794  -19.4480   19.3459 H   0  0  0  0  0  0
  -27.1892  -18.8071   20.9832 H   0  0  0  0  0  0
  -29.4487  -23.3944   21.3925 H   0  0  0  0  0  0
  -29.9211  -23.4432   19.7157 H   0  0  0  0  0  0
  -27.1282  -24.3310   20.7208 H   0  0  0  0  0  0
  -27.6480  -24.3869   19.0723 H   0  0  0  0  0  0
  -28.7796  -16.0444   20.5261 H   0  0  0  0  0  0
  -27.8253  -21.4647   20.0665 H   0  0  0  0  0  0
  1 25  1  0  0  0
  1 30  2  0  0  0
  1 81  1  0  0  0
  2  3  1  0  0  0
  2 25  1  0  0  0
  2 83  1  0  0  0
  2 84  1  0  0  0
  3  4  1  0  0  0
  3 85  1  0  0  0
  3 86  1  0  0  0
  4  5  1  0  0  0
  4 87  1  0  0  0
  4 88  1  0  0  0
  5  6  1  0  0  0
  5 26  1  0  0  0
  5 89  1  0  0  0
  6 25  1  0  0  0
  6 90  1  0  0  0
  6 91  1  0  0  0
  7  8  2  0  0  0
  7 26  1  0  0  0
  7 29  1  0  0  0
  8  9  1  0  0  0
  8 22  1  0  0  0
  9 10  1  0  0  0
  9 27  2  0  0  0
 10 11  2  0  0  0
 10 15  1  0  0  0
 11 12  1  0  0  0
 11 92  1  0  0  0
 12 13  2  0  0  0
 12 93  1  0  0  0
 13 14  1  0  0  0
 13 31  1  0  0  0
 14 15  2  0  0  0
 14 94  1  0  0  0
 15 95  1  0  0  0
 16 17  2  0  0  0
 16 21  1  0  0  0
 16 31  1  0  0  0
 17 18  1  0  0  0
 17 96  1  0  0  0
 18 19  2  0  0  0
 18 97  1  0  0  0
 19 20  1  0  0  0
 19 24  1  0  0  0
 20 21  2  0  0  0
 20 98  1  0  0  0
 21 23  1  0  0  0
 22 28  1  0  0  0
 22 32  2  0  0  0
 26 27  1  0  0  0
 28 99  1  0  0  0
 28100  1  0  0  0
 29101  1  0  0  0
 29102  1  0  0  0
 33 34  1  0  0  0
 33 66  1  0  0  0
 33 70  2  0  0  0
 34 36  1  0  0  0
 34 59  1  0  0  0
 34103  1  0  0  0
 35 44  2  0  0  0
 35 45  1  0  0  0
 35 68  1  0  0  0
 36 56  1  0  0  0
 36104  1  0  0  0
 37 39  1  0  0  0
 37 47  1  0  0  0
 37 66  1  0  0  0
 37105  1  0  0  0
 38 43  2  0  0  0
 38 46  1  0  0  0
 38 47  1  0  0  0
 39 64  1  0  0  0
 39 67  2  0  0  0
 40 52  1  0  0  0
 40 53  2  0  0  0
 40 58  1  0  0  0
 41106  1  0  0  0
 41107  1  0  0  0
 41108  1  0  0  0
 41 48  1  0  0  0
 42 43  1  0  0  0
 42 66  1  0  0  0
 42109  1  0  0  0
 42110  1  0  0  0
 43 44  1  0  0  0
 44111  1  0  0  0
 45 46  2  0  0  0
 45112  1  0  0  0
 46113  1  0  0  0
 47114  1  0  0  0
 47115  1  0  0  0
 48 56  1  0  0  0
 48 65  1  0  0  0
 48116  1  0  0  0
 49 50  1  0  0  0
 49 53  1  0  0  0
 49 64  1  0  0  0
 49117  1  0  0  0
 50 51  1  0  0  0
 50118  1  0  0  0
 50119  1  0  0  0
 51 52  1  0  0  0
 51120  1  0  0  0
 51121  1  0  0  0
 52122  1  0  0  0
 52123  1  0  0  0
 53 54  1  0  0  0
 54 55  2  0  0  0
 54124  1  0  0  0
 55 57  1  0  0  0
 55125  1  0  0  0
 56 69  2  0  0  0
 57 58  2  0  0  0
 57126  1  0  0  0
 58127  1  0  0  0
 59 60  1  0  0  0
 59 61  1  0  0  0
 59 62  1  0  0  0
 60128  1  0  0  0
 60129  1  0  0  0
 60130  1  0  0  0
 61131  1  0  0  0
 61132  1  0  0  0
 61133  1  0  0  0
 62134  1  0  0  0
 62135  1  0  0  0
 62136  1  0  0  0
 63 65  1  0  0  0
 63137  1  0  0  0
 63138  1  0  0  0
 63139  1  0  0  0
 64140  1  0  0  0
 65141  1  0  0  0
 68 80  1  0  0  0
 71 72  2  0  0  0
 71 73  1  0  0  0
 71142  1  0  0  0
 72 75  1  0  0  0
 72143  1  0  0  0
 73 76  2  0  0  0
 73 77  1  0  0  0
 74 75  2  0  0  0
 74 76  1  0  0  0
 74 78  1  0  0  0
 75 81  1  0  0  0
 76 82  1  0  0  0
 77144  1  0  0  0
 77145  1  0  0  0
 77146  1  0  0  0
 78147  1  0  0  0
 78148  1  0  0  0
 78149  1  0  0  0
 79 80  1  0  0  0
 79 82  1  0  0  0
 79150  1  0  0  0
 79151  1  0  0  0
 80152  1  0  0  0
 80153  1  0  0  0
 81154  1  0  0  0
 82155  1  0  0  0
M  ISO  4   1 100  68 101  80 101  81 100
M  END
> <chiral flag>
0

> <version>
0

> <s_m_source_file>
/data/baiqing/PycharmProjects/Reinvent-master-3.2/result/LINK_invent/BTK/process_docking_weight1_custom_sum_contain_oxygen_bond_distance_aromatic_linkinvent_7_9_3/rearranged_h_0012.sdf

> <i_m_source_file_index>
56

> <r_mmod_Potential_Energy-OPLS-2005>
583.668579101562

> <r_mmod_Stretch_Energy-OPLS-2005>
326.512664794922

> <r_mmod_Bend_Energy-OPLS-2005>
287.797882080078

> <r_mmod_Torsional_Energy-OPLS-2005>
202.175506591797

> <r_mmod_Improper_Torsional_Energy-OPLS-2005>
5.18010759353638

> <r_mmod_Van_der_Waal_Energy-OPLS-2005>
141.743072509766

> <r_mmod_Electrostatic_Energy-OPLS-2005>
-398.079071044922

> <r_mmod_Solvation_Energy-OPLS-2005>
-220.625366210938

> <b_mmod_Minimization_Converged-OPLS-2005>
0

> <r_mmod_RMS_Derivative-OPLS-2005>
0.845853328704834

$$$$
57
                    3D
 Structure written by MMmdl.
143150  0  0  1  0            999 V2000
  -30.3355  -15.5533   20.3377 C   0  0  0  0  0  0
  -30.4278  -13.0206   19.5356 C   0  0  0  0  0  0
  -29.5464  -12.6353   18.3151 C   0  0  0  0  0  0
  -28.1142  -12.2965   18.7563 C   0  0  0  0  0  0
  -27.5983  -13.2998   19.8136 C   0  0  2  0  0  0
  -28.6188  -13.6020   20.9348 C   0  0  0  0  0  0
  -25.2335  -13.8272   20.5783 C   0  0  0  0  0  0
  -24.1716  -13.0431   20.9280 C   0  0  0  0  0  0
  -24.6407  -11.6939   20.8763 C   0  0  0  0  0  0
  -23.9108  -10.4290   21.0398 C   0  0  0  0  0  0
  -24.3646   -9.4204   21.9179 C   0  0  0  0  0  0
  -23.6308   -8.2245   22.0753 C   0  0  0  0  0  0
  -22.4289   -8.0285   21.3544 C   0  0  0  0  0  0
  -21.9934   -9.0259   20.4644 C   0  0  0  0  0  0
  -22.7275  -10.2132   20.3050 C   0  0  0  0  0  0
  -21.6858   -6.0738   22.5278 C   0  0  0  0  0  0
  -21.4019   -6.5642   23.8212 C   0  0  0  0  0  0
  -21.3660   -5.6794   24.9173 C   0  0  0  0  0  0
  -21.6043   -4.3057   24.7224 C   0  0  0  0  0  0
  -21.8819   -3.8148   23.4345 C   0  0  0  0  0  0
  -21.9194   -4.6965   22.3402 C   0  0  0  0  0  0
  -22.7731  -13.5167   21.1917 C   0  0  0  0  0  0
  -22.1662   -4.2150   21.0979 F   0  0  0  0  0  0
  -21.5626   -3.4540   25.7737 F   0  0  0  0  0  0
  -29.8047  -14.1993   20.2827 N   0  0  0  0  0  0
  -26.2777  -12.9589   20.3227 N   0  0  0  0  0  0
  -25.9352  -11.6669   20.5705 N   0  0  0  0  0  0
  -22.0396  -12.8145   22.0471 N   0  0  0  0  0  0
  -25.3934  -15.2012   20.4226 N   0  0  0  0  0  0
  -31.5687  -15.5024   20.1771 O   0  0  0  0  0  0
  -21.6647   -6.8885   21.4242 O   0  0  0  0  0  0
  -22.3406  -14.5465   20.6752 O   0  0  0  0  0  0
  -24.6800  -31.8038   23.1543 C   0  0  0  0  0  0
  -25.9399  -32.4487   23.8074 C   0  0  1  0  0  0
  -27.2247  -26.7418   20.2123 C   0  0  0  0  0  0
  -25.5993  -33.8310   24.1966 N   0  0  0  0  0  0
  -23.5038  -30.4073   21.5074 C   0  0  2  0  0  0
  -24.9602  -28.7545   20.1181 C   0  0  0  0  0  0
  -22.7746  -29.4338   22.4723 C   0  0  0  0  0  0
  -18.0336  -28.1422   22.8456 C   0  0  0  0  0  0
  -24.1495  -36.7162   23.2653 C   0  0  0  0  0  0
  -26.0826  -30.5501   21.4119 C   0  0  0  0  0  0
  -26.1487  -29.1190   20.7619 C   0  0  0  0  0  0
  -27.2682  -28.1399   20.7756 C   0  0  0  0  0  0
  -26.0029  -26.5744   19.5148 C   0  0  0  0  0  0
  -24.9238  -27.5069   19.4714 C   0  0  0  0  0  0
  -23.7552  -29.7060   20.1417 C   0  0  0  0  0  0
  -25.4144  -36.2907   24.0285 C   0  0  1  0  0  0
  -20.5969  -28.3778   23.1151 C   0  0  2  0  0  0
  -20.6806  -26.9441   22.5404 C   0  0  0  0  0  0
  -19.5783  -26.6372   21.5218 C   0  0  0  0  0  0
  -18.1963  -26.7949   22.1618 C   0  0  0  0  0  0
  -19.1601  -28.8923   23.2785 C   0  0  0  0  0  0
  -18.9509  -30.1507   23.8830 C   0  0  0  0  0  0
  -17.6500  -30.6605   24.0552 C   0  0  0  0  0  0
  -25.9122  -34.9297   23.4960 C   0  0  0  0  0  0
  -16.5389  -29.9089   23.6351 C   0  0  0  0  0  0
  -16.7316  -28.6511   23.0366 C   0  0  0  0  0  0
  -26.4590  -31.6507   25.0681 C   0  0  0  0  0  0
  -25.3664  -31.3815   26.1302 C   0  0  0  0  0  0
  -27.0517  -30.2851   24.6551 C   0  0  0  0  0  0
  -27.6045  -32.4359   25.7497 C   0  0  0  0  0  0
  -27.5563  -37.1737   24.8467 C   0  0  0  0  0  0
  -21.4398  -29.3031   22.3473 N   0  0  0  0  0  0
  -26.4272  -37.3665   23.9408 N   0  0  0  0  0  0
  -24.7786  -30.9523   22.0774 N   0  0  0  0  0  0
  -23.4209  -28.7935   23.3052 O   0  0  0  0  0  0
  -28.2041  -25.5512   20.2801 O   0  0  0  0  0  0
  -26.5758  -34.8869   22.4574 O   0  0  0  0  0  0
  -23.5828  -32.1094   23.6523 O   0  0  0  0  0  0
  -28.7651  -20.2674   20.2904 C   0  0  0  0  0  0
  -29.0007  -22.1779   20.3080 C   0  0  0  0  0  0
  -29.8051  -18.6520   20.3467 C   0  0  0  0  0  0
  -28.0034  -23.8204   20.2032 C   0  0  0  0  0  0
  -29.5782  -16.9027   20.3825 N   0  0  0  0  0  0
  -31.4268  -13.2705   19.1767 H   0  0  0  0  0  0
  -30.5690  -12.1647   20.1980 H   0  0  0  0  0  0
  -29.9845  -11.7945   17.7757 H   0  0  0  0  0  0
  -29.5210  -13.4708   17.6137 H   0  0  0  0  0  0
  -28.1271  -11.2932   19.1840 H   0  0  0  0  0  0
  -27.4439  -12.2569   17.8969 H   0  0  0  0  0  0
  -27.4709  -14.2301   19.2582 H   0  0  0  0  0  0
  -28.8604  -12.7103   21.5153 H   0  0  0  0  0  0
  -28.2012  -14.3242   21.6380 H   0  0  0  0  0  0
  -25.2785   -9.5679   22.4764 H   0  0  0  0  0  0
  -24.0009   -7.4638   22.7481 H   0  0  0  0  0  0
  -21.0862   -8.8785   19.8952 H   0  0  0  0  0  0
  -22.3730  -10.9673   19.6163 H   0  0  0  0  0  0
  -21.2015   -7.6151   23.9715 H   0  0  0  0  0  0
  -21.1481   -6.0525   25.9076 H   0  0  0  0  0  0
  -22.0596   -2.7611   23.2846 H   0  0  0  0  0  0
  -22.4039  -11.9821   22.4865 H   0  0  0  0  0  0
  -21.1004  -13.1141   22.2671 H   0  0  0  0  0  0
  -24.6207  -15.8487   20.5359 H   0  0  0  0  0  0
  -26.2324  -15.6443   20.0726 H   0  0  0  0  0  0
  -26.7477  -32.4971   23.0784 H   0  0  0  0  0  0
  -25.0059  -33.9354   25.0062 H   0  0  0  0  0  0
  -22.8274  -31.2439   21.3201 H   0  0  0  0  0  0
  -23.3774  -35.9475   23.3272 H   0  0  0  0  0  0
  -24.3562  -36.8864   22.2076 H   0  0  0  0  0  0
  -23.7238  -37.6325   23.6753 H   0  0  0  0  0  0
  -26.2810  -31.2776   20.6238 H   0  0  0  0  0  0
  -26.9354  -30.6164   22.0750 H   0  0  0  0  0  0
  -28.1647  -28.4248   21.3080 H   0  0  0  0  0  0
  -25.8443  -25.6278   19.0182 H   0  0  0  0  0  0
  -24.0252  -27.2191   18.9430 H   0  0  0  0  0  0
  -23.9278  -30.4668   19.3796 H   0  0  0  0  0  0
  -22.8607  -29.1707   19.8189 H   0  0  0  0  0  0
  -25.1351  -36.1675   25.0775 H   0  0  0  0  0  0
  -21.0052  -28.3402   24.1277 H   0  0  0  0  0  0
  -20.5676  -26.2401   23.3662 H   0  0  0  0  0  0
  -21.6667  -26.7393   22.1218 H   0  0  0  0  0  0
  -19.6942  -25.6265   21.1292 H   0  0  0  0  0  0
  -19.6728  -27.3145   20.6718 H   0  0  0  0  0  0
  -17.4233  -26.6692   21.4021 H   0  0  0  0  0  0
  -18.0352  -26.0108   22.9031 H   0  0  0  0  0  0
  -19.7986  -30.7339   24.2170 H   0  0  0  0  0  0
  -17.5053  -31.6279   24.5166 H   0  0  0  0  0  0
  -15.5388  -30.2971   23.7716 H   0  0  0  0  0  0
  -15.8715  -28.0809   22.7122 H   0  0  0  0  0  0
  -24.5873  -30.7140   25.7600 H   0  0  0  0  0  0
  -24.8826  -32.3036   26.4537 H   0  0  0  0  0  0
  -25.7846  -30.9101   27.0204 H   0  0  0  0  0  0
  -26.3228  -29.6473   24.1543 H   0  0  0  0  0  0
  -27.3966  -29.7288   25.5278 H   0  0  0  0  0  0
  -27.9198  -30.3989   24.0055 H   0  0  0  0  0  0
  -27.2593  -33.3729   26.1879 H   0  0  0  0  0  0
  -28.3955  -32.6809   25.0396 H   0  0  0  0  0  0
  -28.0603  -31.8616   26.5574 H   0  0  0  0  0  0
  -28.2553  -38.0057   24.7511 H   0  0  0  0  0  0
  -28.1085  -36.2580   24.6299 H   0  0  0  0  0  0
  -27.2276  -37.1380   25.8868 H   0  0  0  0  0  0
  -20.9695  -29.8687   21.6544 H   0  0  0  0  0  0
  -26.0103  -38.2714   24.1421 H   0  0  0  0  0  0
  -28.1541  -20.1192   19.3998 H   0  0  0  0  0  0
  -28.0571  -20.1169   21.1057 H   0  0  0  0  0  0
  -29.7448  -22.3205   19.5244 H   0  0  0  0  0  0
  -29.5730  -22.3235   21.2244 H   0  0  0  0  0  0
  -30.4440  -18.8018   21.2176 H   0  0  0  0  0  0
  -30.4945  -18.7676   19.5099 H   0  0  0  0  0  0
  -27.2299  -23.6732   20.9571 H   0  0  0  0  0  0
  -27.4624  -23.7113   19.2633 H   0  0  0  0  0  0
  -28.5926  -16.6942   20.4591 H   0  0  0  0  0  0
  1 25  1  0  0  0
  1 30  2  0  0  0
  1 75  1  0  0  0
  2  3  1  0  0  0
  2 25  1  0  0  0
  2 76  1  0  0  0
  2 77  1  0  0  0
  3  4  1  0  0  0
  3 78  1  0  0  0
  3 79  1  0  0  0
  4  5  1  0  0  0
  4 80  1  0  0  0
  4 81  1  0  0  0
  5  6  1  0  0  0
  5 26  1  0  0  0
  5 82  1  0  0  0
  6 25  1  0  0  0
  6 83  1  0  0  0
  6 84  1  0  0  0
  7  8  2  0  0  0
  7 26  1  0  0  0
  7 29  1  0  0  0
  8  9  1  0  0  0
  8 22  1  0  0  0
  9 10  1  0  0  0
  9 27  2  0  0  0
 10 11  2  0  0  0
 10 15  1  0  0  0
 11 12  1  0  0  0
 11 85  1  0  0  0
 12 13  2  0  0  0
 12 86  1  0  0  0
 13 14  1  0  0  0
 13 31  1  0  0  0
 14 15  2  0  0  0
 14 87  1  0  0  0
 15 88  1  0  0  0
 16 17  2  0  0  0
 16 21  1  0  0  0
 16 31  1  0  0  0
 17 18  1  0  0  0
 17 89  1  0  0  0
 18 19  2  0  0  0
 18 90  1  0  0  0
 19 20  1  0  0  0
 19 24  1  0  0  0
 20 21  2  0  0  0
 20 91  1  0  0  0
 21 23  1  0  0  0
 22 28  1  0  0  0
 22 32  2  0  0  0
 26 27  1  0  0  0
 28 92  1  0  0  0
 28 93  1  0  0  0
 29 94  1  0  0  0
 29 95  1  0  0  0
 33 34  1  0  0  0
 33 66  1  0  0  0
 33 70  2  0  0  0
 34 36  1  0  0  0
 34 59  1  0  0  0
 34 96  1  0  0  0
 35 44  2  0  0  0
 35 45  1  0  0  0
 35 68  1  0  0  0
 36 56  1  0  0  0
 36 97  1  0  0  0
 37 39  1  0  0  0
 37 47  1  0  0  0
 37 66  1  0  0  0
 37 98  1  0  0  0
 38 43  2  0  0  0
 38 46  1  0  0  0
 38 47  1  0  0  0
 39 64  1  0  0  0
 39 67  2  0  0  0
 40 52  1  0  0  0
 40 53  2  0  0  0
 40 58  1  0  0  0
 41 99  1  0  0  0
 41100  1  0  0  0
 41101  1  0  0  0
 41 48  1  0  0  0
 42 43  1  0  0  0
 42 66  1  0  0  0
 42102  1  0  0  0
 42103  1  0  0  0
 43 44  1  0  0  0
 44104  1  0  0  0
 45 46  2  0  0  0
 45105  1  0  0  0
 46106  1  0  0  0
 47107  1  0  0  0
 47108  1  0  0  0
 48 56  1  0  0  0
 48 65  1  0  0  0
 48109  1  0  0  0
 49 50  1  0  0  0
 49 53  1  0  0  0
 49 64  1  0  0  0
 49110  1  0  0  0
 50 51  1  0  0  0
 50111  1  0  0  0
 50112  1  0  0  0
 51 52  1  0  0  0
 51113  1  0  0  0
 51114  1  0  0  0
 52115  1  0  0  0
 52116  1  0  0  0
 53 54  1  0  0  0
 54 55  2  0  0  0
 54117  1  0  0  0
 55 57  1  0  0  0
 55118  1  0  0  0
 56 69  2  0  0  0
 57 58  2  0  0  0
 57119  1  0  0  0
 58120  1  0  0  0
 59 60  1  0  0  0
 59 61  1  0  0  0
 59 62  1  0  0  0
 60121  1  0  0  0
 60122  1  0  0  0
 60123  1  0  0  0
 61124  1  0  0  0
 61125  1  0  0  0
 61126  1  0  0  0
 62127  1  0  0  0
 62128  1  0  0  0
 62129  1  0  0  0
 63 65  1  0  0  0
 63130  1  0  0  0
 63131  1  0  0  0
 63132  1  0  0  0
 64133  1  0  0  0
 65134  1  0  0  0
 68 74  1  0  0  0
 71 72  1  0  0  0
 71 73  1  0  0  0
 71135  1  0  0  0
 71136  1  0  0  0
 72 74  1  0  0  0
 72137  1  0  0  0
 72138  1  0  0  0
 73 75  1  0  0  0
 73139  1  0  0  0
 73140  1  0  0  0
 74141  1  0  0  0
 74142  1  0  0  0
 75143  1  0  0  0
M  ISO  4   1 100  68 101  74 101  75 100
M  END
> <chiral flag>
0

> <version>
0

> <s_m_source_file>
/data/baiqing/PycharmProjects/Reinvent-master-3.2/result/LINK_invent/BTK/process_docking_weight1_custom_sum_contain_oxygen_bond_distance_aromatic_linkinvent_7_9_3/rearranged_h_0012.sdf

> <i_m_source_file_index>
57

> <r_mmod_Potential_Energy-OPLS-2005>
2236.59155273438

> <r_mmod_Stretch_Energy-OPLS-2005>
1088.18041992188

> <r_mmod_Bend_Energy-OPLS-2005>
600.093139648438

> <r_mmod_Torsional_Energy-OPLS-2005>
206.369812011719

> <r_mmod_Improper_Torsional_Energy-OPLS-2005>
3.66827178001404

> <r_mmod_Van_der_Waal_Energy-OPLS-2005>
110.215888977051

> <r_mmod_Electrostatic_Energy-OPLS-2005>
-352.887237548828

> <r_mmod_Solvation_Energy-OPLS-2005>
-215.827575683594

> <b_mmod_Minimization_Converged-OPLS-2005>
0

> <r_mmod_RMS_Derivative-OPLS-2005>
0.268112510442734

$$$$
58
                    3D
 Structure written by MMmdl.
155163  0  0  1  0            999 V2000
  -30.5109  -15.0452   20.4011 C   0  0  0  0  0  0
  -30.4360  -12.6554   19.5024 C   0  0  0  0  0  0
  -29.5204  -12.5417   18.2611 C   0  0  0  0  0  0
  -28.0589  -12.3085   18.6844 C   0  0  0  0  0  0
  -27.6199  -13.2573   19.8294 C   0  0  2  0  0  0
  -28.6605  -13.3371   20.9661 C   0  0  0  0  0  0
  -25.2418  -13.8232   20.5713 C   0  0  0  0  0  0
  -24.1758  -13.0440   20.9252 C   0  0  0  0  0  0
  -24.6389  -11.6930   20.8772 C   0  0  0  0  0  0
  -23.9080  -10.4293   21.0416 C   0  0  0  0  0  0
  -24.3626   -9.4211   21.9192 C   0  0  0  0  0  0
  -23.6301   -8.2247   22.0759 C   0  0  0  0  0  0
  -22.4283   -8.0283   21.3549 C   0  0  0  0  0  0
  -21.9921   -9.0258   20.4649 C   0  0  0  0  0  0
  -22.7256  -10.2134   20.3061 C   0  0  0  0  0  0
  -21.6847   -6.0739   22.5278 C   0  0  0  0  0  0
  -21.4019   -6.5646   23.8214 C   0  0  0  0  0  0
  -21.3657   -5.6797   24.9176 C   0  0  0  0  0  0
  -21.6039   -4.3059   24.7223 C   0  0  0  0  0  0
  -21.8819   -3.8151   23.4348 C   0  0  0  0  0  0
  -21.9196   -4.6966   22.3406 C   0  0  0  0  0  0
  -22.7781  -13.5206   21.1902 C   0  0  0  0  0  0
  -22.1661   -4.2154   21.0981 F   0  0  0  0  0  0
  -21.5621   -3.4541   25.7737 F   0  0  0  0  0  0
  -29.9208  -13.7743   20.3521 N   0  0  0  0  0  0
  -26.2838  -12.9472   20.3218 N   0  0  0  0  0  0
  -25.9317  -11.6594   20.5740 N   0  0  0  0  0  0
  -22.0430  -12.8186   22.0447 N   0  0  0  0  0  0
  -25.4059  -15.1963   20.4095 N   0  0  0  0  0  0
  -31.7270  -15.0674   20.1757 O   0  0  0  0  0  0
  -21.6643   -6.8884   21.4242 O   0  0  0  0  0  0
  -22.3465  -14.5509   20.6742 O   0  0  0  0  0  0
  -24.6501  -31.8362   23.1816 C   0  0  0  0  0  0
  -25.9239  -32.4655   23.8222 C   0  0  1  0  0  0
  -27.2107  -27.0587   20.1623 C   0  0  0  0  0  0
  -25.5954  -33.8464   24.2123 N   0  0  0  0  0  0
  -23.4578  -30.4547   21.5280 C   0  0  2  0  0  0
  -24.9075  -28.8691   20.1089 C   0  0  0  0  0  0
  -22.7601  -29.4507   22.4813 C   0  0  0  0  0  0
  -18.0304  -28.1416   22.8451 C   0  0  0  0  0  0
  -24.1493  -36.7244   23.2643 C   0  0  0  0  0  0
  -26.0200  -30.6868   21.3908 C   0  0  0  0  0  0
  -26.0888  -29.2916   20.7316 C   0  0  0  0  0  0
  -27.2405  -28.4040   20.7377 C   0  0  0  0  0  0
  -26.0031  -26.7590   19.4948 C   0  0  0  0  0  0
  -24.8824  -27.6186   19.4727 C   0  0  0  0  0  0
  -23.6887  -29.7802   20.1492 C   0  0  0  0  0  0
  -25.4128  -36.3007   24.0302 C   0  0  1  0  0  0
  -20.5920  -28.3732   23.1218 C   0  0  2  0  0  0
  -20.6796  -26.9428   22.5398 C   0  0  0  0  0  0
  -19.5773  -26.6375   21.5207 C   0  0  0  0  0  0
  -18.1943  -26.7945   22.1605 C   0  0  0  0  0  0
  -19.1562  -28.8886   23.2822 C   0  0  0  0  0  0
  -18.9487  -30.1471   23.8861 C   0  0  0  0  0  0
  -17.6493  -30.6595   24.0548 C   0  0  0  0  0  0
  -25.9088  -34.9389   23.5022 C   0  0  0  0  0  0
  -16.5376  -29.9087   23.6353 C   0  0  0  0  0  0
  -16.7286  -28.6517   23.0346 C   0  0  0  0  0  0
  -26.4539  -31.6569   25.0703 C   0  0  0  0  0  0
  -25.3692  -31.3794   26.1368 C   0  0  0  0  0  0
  -27.0411  -30.2950   24.6344 C   0  0  0  0  0  0
  -27.6038  -32.4360   25.7511 C   0  0  0  0  0  0
  -27.5572  -37.1773   24.8458 C   0  0  0  0  0  0
  -21.4283  -29.3050   22.3578 N   0  0  0  0  0  0
  -26.4280  -37.3732   23.9414 N   0  0  0  0  0  0
  -24.7301  -31.0144   22.0889 N   0  0  0  0  0  0
  -23.4211  -28.8064   23.2998 O   0  0  0  0  0  0
  -28.2307  -26.0163   20.2434 O   0  0  0  0  0  0
  -26.5675  -34.8898   22.4604 O   0  0  0  0  0  0
  -23.5599  -32.1267   23.6991 O   0  0  0  0  0  0
  -30.9319  -20.5972   20.7170 C   0  0  0  0  0  0
  -31.3863  -18.1548   20.7834 C   0  0  0  0  0  0
  -31.8115  -19.4995   20.8848 C   0  0  0  0  0  0
  -29.5530  -20.4549   20.4380 C   0  0  0  0  0  0
  -30.0507  -17.7926   20.5113 C   0  0  0  0  0  0
  -29.1488  -18.9982   20.3487 C   0  0  0  0  0  0
  -28.9560  -23.1935   20.3988 C   0  0  0  0  0  0
  -33.2751  -19.7703   21.1803 C   0  0  0  0  0  0
  -27.0311  -18.6367   21.2425 C   0  0  0  0  0  0
  -27.8983  -24.4682   20.0672 C   0  0  0  0  0  0
  -28.7090  -21.7685   20.2501 N   0  0  0  0  0  0
  -29.7308  -16.2621   20.4676 N   0  0  0  0  0  0
  -30.0533  -23.5568   20.8280 O   0  0  0  0  0  0
  -27.8327  -18.7377   20.0751 O   0  0  0  0  0  0
  -31.4660  -12.8241   19.1842 H   0  0  0  0  0  0
  -30.4499  -11.7192   20.0625 H   0  0  0  0  0  0
  -29.8580  -11.7340   17.6104 H   0  0  0  0  0  0
  -29.5893  -13.4588   17.6734 H   0  0  0  0  0  0
  -27.9738  -11.2722   19.0129 H   0  0  0  0  0  0
  -27.3927  -12.4121   17.8271 H   0  0  0  0  0  0
  -27.5649  -14.2477   19.3762 H   0  0  0  0  0  0
  -28.7734  -12.3774   21.4717 H   0  0  0  0  0  0
  -28.3431  -14.0542   21.7253 H   0  0  0  0  0  0
  -25.2763   -9.5681   22.4775 H   0  0  0  0  0  0
  -24.0001   -7.4634   22.7473 H   0  0  0  0  0  0
  -21.0854   -8.8784   19.8946 H   0  0  0  0  0  0
  -22.3720  -10.9679   19.6172 H   0  0  0  0  0  0
  -21.2016   -7.6151   23.9720 H   0  0  0  0  0  0
  -21.1472   -6.0524   25.9077 H   0  0  0  0  0  0
  -22.0599   -2.7612   23.2846 H   0  0  0  0  0  0
  -22.4056  -11.9845   22.4819 H   0  0  0  0  0  0
  -21.1047  -13.1201   22.2666 H   0  0  0  0  0  0
  -24.6217  -15.8339   20.4920 H   0  0  0  0  0  0
  -26.2239  -15.6276   20.0009 H   0  0  0  0  0  0
  -26.7296  -32.5228   23.0932 H   0  0  0  0  0  0
  -25.0082  -33.9574   25.0261 H   0  0  0  0  0  0
  -22.7652  -31.2834   21.3653 H   0  0  0  0  0  0
  -23.3757  -35.9576   23.3278 H   0  0  0  0  0  0
  -24.3572  -36.8913   22.2065 H   0  0  0  0  0  0
  -23.7255  -37.6430   23.6708 H   0  0  0  0  0  0
  -26.1814  -31.4386   20.6173 H   0  0  0  0  0  0
  -26.8891  -30.7390   22.0352 H   0  0  0  0  0  0
  -28.1359  -28.7194   21.2530 H   0  0  0  0  0  0
  -25.8863  -25.8044   19.0046 H   0  0  0  0  0  0
  -23.9828  -27.2871   18.9735 H   0  0  0  0  0  0
  -23.8348  -30.5533   19.3937 H   0  0  0  0  0  0
  -22.8023  -29.2295   19.8304 H   0  0  0  0  0  0
  -25.1326  -36.1804   25.0794 H   0  0  0  0  0  0
  -20.9996  -28.3312   24.1349 H   0  0  0  0  0  0
  -20.5694  -26.2342   23.3620 H   0  0  0  0  0  0
  -21.6659  -26.7435   22.1197 H   0  0  0  0  0  0
  -19.6951  -25.6277   21.1258 H   0  0  0  0  0  0
  -19.6733  -27.3158   20.6722 H   0  0  0  0  0  0
  -17.4224  -26.6668   21.3997 H   0  0  0  0  0  0
  -18.0335  -26.0116   22.9031 H   0  0  0  0  0  0
  -19.7969  -30.7279   24.2223 H   0  0  0  0  0  0
  -17.5051  -31.6280   24.5141 H   0  0  0  0  0  0
  -15.5370  -30.2978   23.7717 H   0  0  0  0  0  0
  -15.8684  -28.0821   22.7097 H   0  0  0  0  0  0
  -24.5880  -30.7138   25.7676 H   0  0  0  0  0  0
  -24.8874  -32.2998   26.4682 H   0  0  0  0  0  0
  -25.7935  -30.9033   27.0212 H   0  0  0  0  0  0
  -26.3047  -29.6659   24.1328 H   0  0  0  0  0  0
  -27.3975  -29.7271   25.4949 H   0  0  0  0  0  0
  -27.8975  -30.4171   23.9708 H   0  0  0  0  0  0
  -27.2601  -33.3690   26.1983 H   0  0  0  0  0  0
  -28.3909  -32.6866   25.0392 H   0  0  0  0  0  0
  -28.0630  -31.8558   26.5520 H   0  0  0  0  0  0
  -28.2548  -38.0104   24.7511 H   0  0  0  0  0  0
  -28.1102  -36.2624   24.6267 H   0  0  0  0  0  0
  -27.2286  -37.1399   25.8859 H   0  0  0  0  0  0
  -20.9494  -29.8787   21.6770 H   0  0  0  0  0  0
  -26.0124  -38.2788   24.1433 H   0  0  0  0  0  0
  -31.3645  -21.5808   20.8036 H   0  0  0  0  0  0
  -32.1282  -17.3852   20.9363 H   0  0  0  0  0  0
  -33.4287  -20.7831   21.5551 H   0  0  0  0  0  0
  -33.8725  -19.6491   20.2762 H   0  0  0  0  0  0
  -33.6556  -19.0789   21.9337 H   0  0  0  0  0  0
  -26.0398  -18.2709   20.9743 H   0  0  0  0  0  0
  -26.9116  -19.6086   21.7224 H   0  0  0  0  0  0
  -27.4566  -17.9426   21.9689 H   0  0  0  0  0  0
  -27.0065  -24.2716   20.6626 H   0  0  0  0  0  0
  -27.5964  -24.3259   19.0297 H   0  0  0  0  0  0
  -27.7682  -21.5838   19.9281 H   0  0  0  0  0  0
  -28.7417  -16.0667   20.4873 H   0  0  0  0  0  0
  1 25  1  0  0  0
  1 30  2  0  0  0
  1 82  1  0  0  0
  2  3  1  0  0  0
  2 25  1  0  0  0
  2 85  1  0  0  0
  2 86  1  0  0  0
  3  4  1  0  0  0
  3 87  1  0  0  0
  3 88  1  0  0  0
  4  5  1  0  0  0
  4 89  1  0  0  0
  4 90  1  0  0  0
  5  6  1  0  0  0
  5 26  1  0  0  0
  5 91  1  0  0  0
  6 25  1  0  0  0
  6 92  1  0  0  0
  6 93  1  0  0  0
  7  8  2  0  0  0
  7 26  1  0  0  0
  7 29  1  0  0  0
  8  9  1  0  0  0
  8 22  1  0  0  0
  9 10  1  0  0  0
  9 27  2  0  0  0
 10 11  2  0  0  0
 10 15  1  0  0  0
 11 12  1  0  0  0
 11 94  1  0  0  0
 12 13  2  0  0  0
 12 95  1  0  0  0
 13 14  1  0  0  0
 13 31  1  0  0  0
 14 15  2  0  0  0
 14 96  1  0  0  0
 15 97  1  0  0  0
 16 17  2  0  0  0
 16 21  1  0  0  0
 16 31  1  0  0  0
 17 18  1  0  0  0
 17 98  1  0  0  0
 18 19  2  0  0  0
 18 99  1  0  0  0
 19 20  1  0  0  0
 19 24  1  0  0  0
 20 21  2  0  0  0
 20100  1  0  0  0
 21 23  1  0  0  0
 22 28  1  0  0  0
 22 32  2  0  0  0
 26 27  1  0  0  0
 28101  1  0  0  0
 28102  1  0  0  0
 29103  1  0  0  0
 29104  1  0  0  0
 33 34  1  0  0  0
 33 66  1  0  0  0
 33 70  2  0  0  0
 34 36  1  0  0  0
 34 59  1  0  0  0
 34105  1  0  0  0
 35 44  2  0  0  0
 35 45  1  0  0  0
 35 68  1  0  0  0
 36 56  1  0  0  0
 36106  1  0  0  0
 37 39  1  0  0  0
 37 47  1  0  0  0
 37 66  1  0  0  0
 37107  1  0  0  0
 38 43  2  0  0  0
 38 46  1  0  0  0
 38 47  1  0  0  0
 39 64  1  0  0  0
 39 67  2  0  0  0
 40 52  1  0  0  0
 40 53  2  0  0  0
 40 58  1  0  0  0
 41108  1  0  0  0
 41109  1  0  0  0
 41110  1  0  0  0
 41 48  1  0  0  0
 42 43  1  0  0  0
 42 66  1  0  0  0
 42111  1  0  0  0
 42112  1  0  0  0
 43 44  1  0  0  0
 44113  1  0  0  0
 45 46  2  0  0  0
 45114  1  0  0  0
 46115  1  0  0  0
 47116  1  0  0  0
 47117  1  0  0  0
 48 56  1  0  0  0
 48 65  1  0  0  0
 48118  1  0  0  0
 49 50  1  0  0  0
 49 53  1  0  0  0
 49 64  1  0  0  0
 49119  1  0  0  0
 50 51  1  0  0  0
 50120  1  0  0  0
 50121  1  0  0  0
 51 52  1  0  0  0
 51122  1  0  0  0
 51123  1  0  0  0
 52124  1  0  0  0
 52125  1  0  0  0
 53 54  1  0  0  0
 54 55  2  0  0  0
 54126  1  0  0  0
 55 57  1  0  0  0
 55127  1  0  0  0
 56 69  2  0  0  0
 57 58  2  0  0  0
 57128  1  0  0  0
 58129  1  0  0  0
 59 60  1  0  0  0
 59 61  1  0  0  0
 59 62  1  0  0  0
 60130  1  0  0  0
 60131  1  0  0  0
 60132  1  0  0  0
 61133  1  0  0  0
 61134  1  0  0  0
 61135  1  0  0  0
 62136  1  0  0  0
 62137  1  0  0  0
 62138  1  0  0  0
 63 65  1  0  0  0
 63139  1  0  0  0
 63140  1  0  0  0
 63141  1  0  0  0
 64142  1  0  0  0
 65143  1  0  0  0
 68 80  1  0  0  0
 71 73  2  0  0  0
 71 74  1  0  0  0
 71144  1  0  0  0
 72 73  1  0  0  0
 72 75  2  0  0  0
 72145  1  0  0  0
 73 78  1  0  0  0
 74 76  2  0  0  0
 74 81  1  0  0  0
 75 76  1  0  0  0
 75 82  1  0  0  0
 76 84  1  0  0  0
 77 80  1  0  0  0
 77 81  1  0  0  0
 77 83  2  0  0  0
 78146  1  0  0  0
 78147  1  0  0  0
 78148  1  0  0  0
 79 84  1  0  0  0
 79149  1  0  0  0
 79150  1  0  0  0
 79151  1  0  0  0
 80152  1  0  0  0
 80153  1  0  0  0
 81154  1  0  0  0
 82155  1  0  0  0
M  ISO  4   1 100  68 101  80 101  82 100
M  END
> <chiral flag>
0

> <version>
0

> <s_m_source_file>
/data/baiqing/PycharmProjects/Reinvent-master-3.2/result/LINK_invent/BTK/process_docking_weight1_custom_sum_contain_oxygen_bond_distance_aromatic_linkinvent_7_9_3/rearranged_h_0012.sdf

> <i_m_source_file_index>
58

> <r_mmod_Potential_Energy-OPLS-2005>
626.470458984375

> <r_mmod_Stretch_Energy-OPLS-2005>
346.889587402344

> <r_mmod_Bend_Energy-OPLS-2005>
268.184722900391

> <r_mmod_Torsional_Energy-OPLS-2005>
252.863433837891

> <r_mmod_Improper_Torsional_Energy-OPLS-2005>
5.44711971282959

> <r_mmod_Van_der_Waal_Energy-OPLS-2005>
129.343551635742

> <r_mmod_Electrostatic_Energy-OPLS-2005>
-405.661865234375

> <r_mmod_Solvation_Energy-OPLS-2005>
-240.8505859375

> <b_mmod_Minimization_Converged-OPLS-2005>
0

> <r_mmod_RMS_Derivative-OPLS-2005>
1.77930998802185

$$$$
59
                    3D
 Structure written by MMmdl.
177186  0  0  1  0            999 V2000
  -30.6787  -14.6883   20.4147 C   0  0  0  0  0  0
  -30.3920  -12.4008   19.4379 C   0  0  0  0  0  0
  -29.4728  -12.4375   18.2026 C   0  0  0  0  0  0
  -28.0005  -12.3156   18.6219 C   0  0  0  0  0  0
  -27.6239  -13.2331   19.8108 C   0  0  2  0  0  0
  -28.6842  -13.2395   20.9379 C   0  0  0  0  0  0
  -25.2437  -13.8190   20.5488 C   0  0  0  0  0  0
  -24.1661  -13.0491   20.9083 C   0  0  0  0  0  0
  -24.6268  -11.6987   20.8750 C   0  0  0  0  0  0
  -23.8947  -10.4393   21.0519 C   0  0  0  0  0  0
  -24.3500   -9.4327   21.9295 C   0  0  0  0  0  0
  -23.6233   -8.2316   22.0838 C   0  0  0  0  0  0
  -22.4250   -8.0307   21.3590 C   0  0  0  0  0  0
  -21.9879   -9.0243   20.4669 C   0  0  0  0  0  0
  -22.7177  -10.2159   20.3115 C   0  0  0  0  0  0
  -21.6896   -6.0667   22.5290 C   0  0  0  0  0  0
  -21.4015   -6.5564   23.8223 C   0  0  0  0  0  0
  -21.3615   -5.6724   24.9207 C   0  0  0  0  0  0
  -21.6056   -4.2989   24.7280 C   0  0  0  0  0  0
  -21.8808   -3.8070   23.4411 C   0  0  0  0  0  0
  -21.9216   -4.6886   22.3464 C   0  0  0  0  0  0
  -22.7785  -13.5353   21.1659 C   0  0  0  0  0  0
  -22.1687   -4.2099   21.1058 F   0  0  0  0  0  0
  -21.5631   -3.4427   25.7737 F   0  0  0  0  0  0
  -29.9891  -13.5084   20.3323 N   0  0  0  0  0  0
  -26.2876  -12.9392   20.3225 N   0  0  0  0  0  0
  -25.9188  -11.6546   20.5726 N   0  0  0  0  0  0
  -22.0371  -12.8444   22.0271 N   0  0  0  0  0  0
  -25.3961  -15.1843   20.3588 N   0  0  0  0  0  0
  -31.8352  -14.7747   19.9926 O   0  0  0  0  0  0
  -21.6686   -6.8812   21.4236 O   0  0  0  0  0  0
  -22.3489  -14.5613   20.6466 O   0  0  0  0  0  0
  -24.6275  -31.8598   23.2076 C   0  0  0  0  0  0
  -25.9181  -32.4697   23.8349 C   0  0  1  0  0  0
  -27.2046  -27.3744   20.1028 C   0  0  0  0  0  0
  -25.6003  -33.8510   24.2300 N   0  0  0  0  0  0
  -23.4161  -30.4911   21.5465 C   0  0  2  0  0  0
  -24.8549  -28.9539   20.1011 C   0  0  0  0  0  0
  -22.7466  -29.4667   22.4938 C   0  0  0  0  0  0
  -18.0309  -28.1391   22.8443 C   0  0  0  0  0  0
  -24.1574  -36.7359   23.2626 C   0  0  0  0  0  0
  -25.9538  -30.8053   21.3739 C   0  0  0  0  0  0
  -26.0181  -29.4421   20.7109 C   0  0  0  0  0  0
  -27.2014  -28.6582   20.7105 C   0  0  0  0  0  0
  -26.0382  -26.9375   19.4411 C   0  0  0  0  0  0
  -24.8635  -27.7049   19.4552 C   0  0  0  0  0  0
  -23.6237  -29.8285   20.1547 C   0  0  0  0  0  0
  -25.4153  -36.3072   24.0326 C   0  0  1  0  0  0
  -20.5894  -28.3714   23.1271 C   0  0  2  0  0  0
  -20.6804  -26.9424   22.5402 C   0  0  0  0  0  0
  -19.5814  -26.6408   21.5177 C   0  0  0  0  0  0
  -18.1995  -26.7924   22.1597 C   0  0  0  0  0  0
  -19.1547  -28.8857   23.2865 C   0  0  0  0  0  0
  -18.9456  -30.1444   23.8884 C   0  0  0  0  0  0
  -17.6441  -30.6528   24.0591 C   0  0  0  0  0  0
  -25.9087  -34.9410   23.5133 C   0  0  0  0  0  0
  -16.5343  -29.9050   23.6275 C   0  0  0  0  0  0
  -16.7293  -28.6512   23.0235 C   0  0  0  0  0  0
  -26.4547  -31.6467   25.0696 C   0  0  0  0  0  0
  -25.3765  -31.3557   26.1391 C   0  0  0  0  0  0
  -27.0421  -30.2882   24.6179 C   0  0  0  0  0  0
  -27.6199  -32.4096   25.7407 C   0  0  0  0  0  0
  -27.5632  -37.1834   24.8413 C   0  0  0  0  0  0
  -21.4196  -29.3074   22.3662 N   0  0  0  0  0  0
  -26.4354  -37.3725   23.9347 N   0  0  0  0  0  0
  -24.6837  -31.0684   22.0975 N   0  0  0  0  0  0
  -23.4209  -28.8200   23.3003 O   0  0  0  0  0  0
  -28.3213  -26.5610   20.1533 O   0  0  0  0  0  0
  -26.5633  -34.8868   22.4689 O   0  0  0  0  0  0
  -23.5464  -32.1430   23.7434 O   0  0  0  0  0  0
  -27.2417  -18.5993   19.2306 C   0  0  0  0  0  0
  -27.7103  -17.5451   18.4082 C   0  0  0  0  0  0
  -28.7652  -17.9420   21.0339 C   0  0  0  0  0  0
  -27.7966  -18.8517   20.5069 C   0  0  0  0  0  0
  -29.1412  -16.7574   20.3108 C   0  0  0  0  0  0
  -28.6492  -16.6221   18.9772 C   0  0  0  0  0  0
  -28.0421  -21.2465   21.0567 C   0  0  0  0  0  0
  -29.1296  -24.4427   21.0772 C   0  0  0  0  0  0
  -28.9695  -22.1695   23.9738 C   0  0  0  0  0  0
  -27.5434  -22.1205   23.4463 C   0  0  0  0  0  0
  -29.5446  -23.3620   23.2248 C   0  0  0  0  0  0
  -27.6739  -22.4838   21.9492 C   0  0  1  0  0  0
  -29.4767  -18.2720   22.3429 C   0  0  0  0  0  0
  -26.5059  -16.1845   16.5391 C   0  0  0  0  0  0
  -28.5386  -17.5601   16.0092 C   0  0  0  0  0  0
  -26.3680  -18.6520   16.4328 C   0  0  0  0  0  0
  -28.0947  -25.1151   20.1590 C   0  0  0  0  0  0
  -27.2792  -17.4748   16.8989 C   0  0  0  0  0  0
  -28.7808  -23.4810   21.9769 N   0  0  0  0  0  0
  -27.4147  -20.0539   21.2058 N   0  0  0  0  0  0
  -30.0776  -15.8081   20.9189 N   0  0  0  0  0  0
  -28.9127  -21.3893   20.1915 O   0  0  0  0  0  0
  -30.2864  -24.8737   21.0361 O   0  0  0  0  0  0
  -29.1274  -15.6234   18.2046 F   0  0  0  0  0  0
  -31.4335  -12.4468   19.1210 H   0  0  0  0  0  0
  -30.2782  -11.4617   19.9820 H   0  0  0  0  0  0
  -29.7154  -11.6235   17.5247 H   0  0  0  0  0  0
  -29.6160  -13.3611   17.6412 H   0  0  0  0  0  0
  -27.8233  -11.2714   18.8854 H   0  0  0  0  0  0
  -27.3478  -12.5122   17.7639 H   0  0  0  0  0  0
  -27.5761  -14.2321   19.3854 H   0  0  0  0  0  0
  -28.7105  -12.3027   21.4889 H   0  0  0  0  0  0
  -28.4450  -14.0301   21.6566 H   0  0  0  0  0  0
  -25.2589   -9.5847   22.4967 H   0  0  0  0  0  0
  -23.9922   -7.4669   22.7537 H   0  0  0  0  0  0
  -21.0878   -8.8787   19.8871 H   0  0  0  0  0  0
  -22.3660  -10.9697   19.6291 H   0  0  0  0  0  0
  -21.1976   -7.6067   23.9733 H   0  0  0  0  0  0
  -21.1470   -6.0469   25.9120 H   0  0  0  0  0  0
  -22.0602   -2.7520   23.2989 H   0  0  0  0  0  0
  -22.3932  -12.0287   22.4971 H   0  0  0  0  0  0
  -21.0955  -13.1609   22.2163 H   0  0  0  0  0  0
  -24.5691  -15.7315   20.1470 H   0  0  0  0  0  0
  -26.2322  -15.5673   19.9346 H   0  0  0  0  0  0
  -26.7269  -32.5381   23.1115 H   0  0  0  0  0  0
  -25.0077  -33.9598   25.0390 H   0  0  0  0  0  0
  -22.7127  -31.3129   21.4067 H   0  0  0  0  0  0
  -23.3749  -35.9783   23.3226 H   0  0  0  0  0  0
  -24.3729  -36.9022   22.2061 H   0  0  0  0  0  0
  -23.7410  -37.6592   23.6663 H   0  0  0  0  0  0
  -26.1068  -31.5729   20.6131 H   0  0  0  0  0  0
  -26.8258  -30.8363   22.0137 H   0  0  0  0  0  0
  -28.0955  -29.0231   21.2019 H   0  0  0  0  0  0
  -26.0140  -25.9974   18.9035 H   0  0  0  0  0  0
  -23.9813  -27.3406   18.9439 H   0  0  0  0  0  0
  -23.7314  -30.6038   19.3946 H   0  0  0  0  0  0
  -22.7480  -29.2492   19.8647 H   0  0  0  0  0  0
  -25.1348  -36.1954   25.0818 H   0  0  0  0  0  0
  -21.0016  -28.3312   24.1393 H   0  0  0  0  0  0
  -20.5705  -26.2331   23.3628 H   0  0  0  0  0  0
  -21.6701  -26.7469   22.1232 H   0  0  0  0  0  0
  -19.6993  -25.6347   21.1177 H   0  0  0  0  0  0
  -19.6711  -27.3275   20.6766 H   0  0  0  0  0  0
  -17.4258  -26.6603   21.4009 H   0  0  0  0  0  0
  -18.0414  -26.0070   22.9024 H   0  0  0  0  0  0
  -19.7913  -30.7271   24.2256 H   0  0  0  0  0  0
  -17.4963  -31.6179   24.5283 H   0  0  0  0  0  0
  -15.5344  -30.2942   23.7540 H   0  0  0  0  0  0
  -15.8734  -28.0852   22.6830 H   0  0  0  0  0  0
  -24.6042  -30.6802   25.7654 H   0  0  0  0  0  0
  -24.8816  -32.2683   26.4743 H   0  0  0  0  0  0
  -25.8065  -30.8768   27.0208 H   0  0  0  0  0  0
  -26.3071  -29.6522   24.1216 H   0  0  0  0  0  0
  -27.4152  -29.7161   25.4701 H   0  0  0  0  0  0
  -27.8914  -30.4115   23.9432 H   0  0  0  0  0  0
  -27.2985  -33.3422   26.2019 H   0  0  0  0  0  0
  -28.3977  -32.6527   25.0161 H   0  0  0  0  0  0
  -28.0913  -31.8134   26.5237 H   0  0  0  0  0  0
  -28.2566  -38.0206   24.7515 H   0  0  0  0  0  0
  -28.1220  -36.2740   24.6180 H   0  0  0  0  0  0
  -27.2374  -37.1417   25.8815 H   0  0  0  0  0  0
  -20.9395  -29.8746   21.6801 H   0  0  0  0  0  0
  -26.0252  -38.2838   24.1169 H   0  0  0  0  0  0
  -26.5004  -19.2873   18.8616 H   0  0  0  0  0  0
  -29.5101  -21.2693   23.6897 H   0  0  0  0  0  0
  -29.0435  -22.2790   25.0581 H   0  0  0  0  0  0
  -26.9632  -22.9019   23.9445 H   0  0  0  0  0  0
  -27.0437  -21.1727   23.6580 H   0  0  0  0  0  0
  -30.6217  -23.2797   23.0799 H   0  0  0  0  0  0
  -29.3566  -24.2626   23.8074 H   0  0  0  0  0  0
  -26.7426  -22.9177   21.5879 H   0  0  0  0  0  0
  -30.5445  -18.3517   22.1392 H   0  0  0  0  0  0
  -29.3157  -17.4937   23.0888 H   0  0  0  0  0  0
  -29.1887  -19.2152   22.7995 H   0  0  0  0  0  0
  -27.0076  -15.2795   16.8768 H   0  0  0  0  0  0
  -26.3942  -16.0771   15.4542 H   0  0  0  0  0  0
  -25.4920  -16.1815   16.9465 H   0  0  0  0  0  0
  -29.1500  -16.6640   16.0728 H   0  0  0  0  0  0
  -29.1646  -18.3981   16.3042 H   0  0  0  0  0  0
  -28.2990  -17.7082   14.9572 H   0  0  0  0  0  0
  -25.4449  -18.7270   17.0084 H   0  0  0  0  0  0
  -26.0528  -18.5413   15.3894 H   0  0  0  0  0  0
  -26.8757  -19.6149   16.4746 H   0  0  0  0  0  0
  -27.1014  -24.8566   20.5254 H   0  0  0  0  0  0
  -28.1853  -24.7192   19.1477 H   0  0  0  0  0  0
  -26.6737  -19.9896   21.8895 H   0  0  0  0  0  0
  -30.7523  -16.3033   21.4853 H   0  0  0  0  0  0
  1 25  1  0  0  0
  1 30  2  0  0  0
  1 91  1  0  0  0
  2  3  1  0  0  0
  2 25  1  0  0  0
  2 95  1  0  0  0
  2 96  1  0  0  0
  3  4  1  0  0  0
  3 97  1  0  0  0
  3 98  1  0  0  0
  4  5  1  0  0  0
  4 99  1  0  0  0
  4100  1  0  0  0
  5  6  1  0  0  0
  5 26  1  0  0  0
  5101  1  0  0  0
  6 25  1  0  0  0
  6102  1  0  0  0
  6103  1  0  0  0
  7  8  2  0  0  0
  7 26  1  0  0  0
  7 29  1  0  0  0
  8  9  1  0  0  0
  8 22  1  0  0  0
  9 10  1  0  0  0
  9 27  2  0  0  0
 10 11  2  0  0  0
 10 15  1  0  0  0
 11 12  1  0  0  0
 11104  1  0  0  0
 12 13  2  0  0  0
 12105  1  0  0  0
 13 14  1  0  0  0
 13 31  1  0  0  0
 14 15  2  0  0  0
 14106  1  0  0  0
 15107  1  0  0  0
 16 17  2  0  0  0
 16 21  1  0  0  0
 16 31  1  0  0  0
 17 18  1  0  0  0
 17108  1  0  0  0
 18 19  2  0  0  0
 18109  1  0  0  0
 19 20  1  0  0  0
 19 24  1  0  0  0
 20 21  2  0  0  0
 20110  1  0  0  0
 21 23  1  0  0  0
 22 28  1  0  0  0
 22 32  2  0  0  0
 26 27  1  0  0  0
 28111  1  0  0  0
 28112  1  0  0  0
 29113  1  0  0  0
 29114  1  0  0  0
 33 34  1  0  0  0
 33 66  1  0  0  0
 33 70  2  0  0  0
 34 36  1  0  0  0
 34 59  1  0  0  0
 34115  1  0  0  0
 35 44  2  0  0  0
 35 45  1  0  0  0
 35 68  1  0  0  0
 36 56  1  0  0  0
 36116  1  0  0  0
 37 39  1  0  0  0
 37 47  1  0  0  0
 37 66  1  0  0  0
 37117  1  0  0  0
 38 43  2  0  0  0
 38 46  1  0  0  0
 38 47  1  0  0  0
 39 64  1  0  0  0
 39 67  2  0  0  0
 40 52  1  0  0  0
 40 53  2  0  0  0
 40 58  1  0  0  0
 41118  1  0  0  0
 41119  1  0  0  0
 41120  1  0  0  0
 41 48  1  0  0  0
 42 43  1  0  0  0
 42 66  1  0  0  0
 42121  1  0  0  0
 42122  1  0  0  0
 43 44  1  0  0  0
 44123  1  0  0  0
 45 46  2  0  0  0
 45124  1  0  0  0
 46125  1  0  0  0
 47126  1  0  0  0
 47127  1  0  0  0
 48 56  1  0  0  0
 48 65  1  0  0  0
 48128  1  0  0  0
 49 50  1  0  0  0
 49 53  1  0  0  0
 49 64  1  0  0  0
 49129  1  0  0  0
 50 51  1  0  0  0
 50130  1  0  0  0
 50131  1  0  0  0
 51 52  1  0  0  0
 51132  1  0  0  0
 51133  1  0  0  0
 52134  1  0  0  0
 52135  1  0  0  0
 53 54  1  0  0  0
 54 55  2  0  0  0
 54136  1  0  0  0
 55 57  1  0  0  0
 55137  1  0  0  0
 56 69  2  0  0  0
 57 58  2  0  0  0
 57138  1  0  0  0
 58139  1  0  0  0
 59 60  1  0  0  0
 59 61  1  0  0  0
 59 62  1  0  0  0
 60140  1  0  0  0
 60141  1  0  0  0
 60142  1  0  0  0
 61143  1  0  0  0
 61144  1  0  0  0
 61145  1  0  0  0
 62146  1  0  0  0
 62147  1  0  0  0
 62148  1  0  0  0
 63 65  1  0  0  0
 63149  1  0  0  0
 63150  1  0  0  0
 63151  1  0  0  0
 64152  1  0  0  0
 65153  1  0  0  0
 68 87  1  0  0  0
 71 72  2  0  0  0
 71 74  1  0  0  0
 71154  1  0  0  0
 72 76  1  0  0  0
 72 88  1  0  0  0
 73 74  2  0  0  0
 73 75  1  0  0  0
 73 83  1  0  0  0
 74 90  1  0  0  0
 75 76  2  0  0  0
 75 91  1  0  0  0
 76 94  1  0  0  0
 77 90  1  0  0  0
 77 92  2  0  0  0
 77 82  1  0  0  0
 78 87  1  0  0  0
 78 89  1  0  0  0
 78 93  2  0  0  0
 79 80  1  0  0  0
 79 81  1  0  0  0
 79155  1  0  0  0
 79156  1  0  0  0
 80 82  1  0  0  0
 80157  1  0  0  0
 80158  1  0  0  0
 81 89  1  0  0  0
 81159  1  0  0  0
 81160  1  0  0  0
 82 89  1  0  0  0
 82161  1  0  0  0
 83162  1  0  0  0
 83163  1  0  0  0
 83164  1  0  0  0
 84165  1  0  0  0
 84166  1  0  0  0
 84167  1  0  0  0
 84 88  1  0  0  0
 85 88  1  0  0  0
 85168  1  0  0  0
 85169  1  0  0  0
 85170  1  0  0  0
 86 88  1  0  0  0
 86171  1  0  0  0
 86172  1  0  0  0
 86173  1  0  0  0
 87174  1  0  0  0
 87175  1  0  0  0
 90176  1  0  0  0
 91177  1  0  0  0
M  ISO  4   1 100  68 101  87 101  91 100
M  END
> <chiral flag>
0

> <version>
0

> <s_m_source_file>
/data/baiqing/PycharmProjects/Reinvent-master-3.2/result/LINK_invent/BTK/process_docking_weight1_custom_sum_contain_oxygen_bond_distance_aromatic_linkinvent_7_9_3/rearranged_h_0012.sdf

> <i_m_source_file_index>
59

> <r_mmod_Potential_Energy-OPLS-2005>
109.520805358887

> <r_mmod_Stretch_Energy-OPLS-2005>
71.6459503173828

> <r_mmod_Bend_Energy-OPLS-2005>
167.668563842773

> <r_mmod_Torsional_Energy-OPLS-2005>
337.275390625

> <r_mmod_Improper_Torsional_Energy-OPLS-2005>
9.41854763031006

> <r_mmod_Van_der_Waal_Energy-OPLS-2005>
153.886825561523

> <r_mmod_Electrostatic_Energy-OPLS-2005>
-449.017730712891

> <r_mmod_Solvation_Energy-OPLS-2005>
-244.05549621582

> <b_mmod_Minimization_Converged-OPLS-2005>
0

> <r_mmod_RMS_Derivative-OPLS-2005>
13.5299072265625

$$$$
60
                    3D
 Structure written by MMmdl.
148156  0  0  1  0            999 V2000
  -30.5225  -15.0487   20.4086 C   0  0  0  0  0  0
  -30.4376  -12.6574   19.5061 C   0  0  0  0  0  0
  -29.5235  -12.5404   18.2643 C   0  0  0  0  0  0
  -28.0618  -12.3080   18.6877 C   0  0  0  0  0  0
  -27.6223  -13.2583   19.8314 C   0  0  2  0  0  0
  -28.6639  -13.3414   20.9674 C   0  0  0  0  0  0
  -25.2431  -13.8231   20.5727 C   0  0  0  0  0  0
  -24.1765  -13.0438   20.9245 C   0  0  0  0  0  0
  -24.6397  -11.6929   20.8761 C   0  0  0  0  0  0
  -23.9087  -10.4293   21.0410 C   0  0  0  0  0  0
  -24.3632   -9.4206   21.9186 C   0  0  0  0  0  0
  -23.6302   -8.2243   22.0755 C   0  0  0  0  0  0
  -22.4284   -8.0283   21.3544 C   0  0  0  0  0  0
  -21.9924   -9.0259   20.4646 C   0  0  0  0  0  0
  -22.7258  -10.2136   20.3057 C   0  0  0  0  0  0
  -21.6855   -6.0738   22.5279 C   0  0  0  0  0  0
  -21.4016   -6.5641   23.8212 C   0  0  0  0  0  0
  -21.3659   -5.6793   24.9174 C   0  0  0  0  0  0
  -21.6044   -4.3056   24.7225 C   0  0  0  0  0  0
  -21.8818   -3.8149   23.4345 C   0  0  0  0  0  0
  -21.9194   -4.6966   22.3402 C   0  0  0  0  0  0
  -22.7782  -13.5200   21.1893 C   0  0  0  0  0  0
  -22.1662   -4.2152   21.0979 F   0  0  0  0  0  0
  -21.5628   -3.4540   25.7737 F   0  0  0  0  0  0
  -29.9245  -13.7799   20.3539 N   0  0  0  0  0  0
  -26.2857  -12.9480   20.3235 N   0  0  0  0  0  0
  -25.9331  -11.6600   20.5739 N   0  0  0  0  0  0
  -22.0437  -12.8182   22.0447 N   0  0  0  0  0  0
  -25.4065  -15.1963   20.4148 N   0  0  0  0  0  0
  -31.7322  -15.0617   20.1561 O   0  0  0  0  0  0
  -21.6644   -6.8883   21.4241 O   0  0  0  0  0  0
  -22.3460  -14.5501   20.6735 O   0  0  0  0  0  0
  -24.6503  -31.8372   23.1824 C   0  0  0  0  0  0
  -25.9245  -32.4659   23.8238 C   0  0  1  0  0  0
  -27.2144  -27.0641   20.1619 C   0  0  0  0  0  0
  -25.5964  -33.8467   24.2151 N   0  0  0  0  0  0
  -23.4575  -30.4548   21.5292 C   0  0  2  0  0  0
  -24.9080  -28.8693   20.1098 C   0  0  0  0  0  0
  -22.7603  -29.4512   22.4830 C   0  0  0  0  0  0
  -18.0310  -28.1404   22.8474 C   0  0  0  0  0  0
  -24.1491  -36.7238   23.2644 C   0  0  0  0  0  0
  -26.0186  -30.6883   21.3917 C   0  0  0  0  0  0
  -26.0886  -29.2923   20.7339 C   0  0  0  0  0  0
  -27.2415  -28.4076   20.7399 C   0  0  0  0  0  0
  -26.0071  -26.7622   19.4935 C   0  0  0  0  0  0
  -24.8846  -27.6205   19.4720 C   0  0  0  0  0  0
  -23.6884  -29.7808   20.1503 C   0  0  0  0  0  0
  -25.4127  -36.3009   24.0309 C   0  0  1  0  0  0
  -20.5927  -28.3734   23.1219 C   0  0  2  0  0  0
  -20.6791  -26.9430   22.5403 C   0  0  0  0  0  0
  -19.5764  -26.6383   21.5213 C   0  0  0  0  0  0
  -18.1946  -26.7940   22.1624 C   0  0  0  0  0  0
  -19.1569  -28.8889   23.2836 C   0  0  0  0  0  0
  -18.9483  -30.1483   23.8865 C   0  0  0  0  0  0
  -17.6478  -30.6597   24.0560 C   0  0  0  0  0  0
  -25.9083  -34.9387   23.5043 C   0  0  0  0  0  0
  -16.5369  -29.9088   23.6342 C   0  0  0  0  0  0
  -16.7293  -28.6508   23.0361 C   0  0  0  0  0  0
  -26.4542  -31.6554   25.0710 C   0  0  0  0  0  0
  -25.3706  -31.3766   26.1392 C   0  0  0  0  0  0
  -27.0419  -30.2940   24.6343 C   0  0  0  0  0  0
  -27.6056  -32.4337   25.7504 C   0  0  0  0  0  0
  -27.5571  -37.1779   24.8467 C   0  0  0  0  0  0
  -21.4286  -29.3048   22.3583 N   0  0  0  0  0  0
  -26.4284  -37.3730   23.9406 N   0  0  0  0  0  0
  -24.7291  -31.0167   22.0890 N   0  0  0  0  0  0
  -23.4214  -28.8065   23.3010 O   0  0  0  0  0  0
  -28.2381  -26.0262   20.2410 O   0  0  0  0  0  0
  -26.5675  -34.8897   22.4626 O   0  0  0  0  0  0
  -23.5606  -32.1279   23.7004 O   0  0  0  0  0  0
  -30.8700  -20.6162   21.0214 C   0  0  0  0  0  0
  -29.5593  -20.4702   20.5148 C   0  0  0  0  0  0
  -30.0656  -17.8042   20.6122 C   0  0  0  0  0  0
  -31.7078  -19.5224   21.3280 C   0  0  0  0  0  0
  -31.3254  -18.1736   21.1468 C   0  0  0  0  0  0
  -29.1958  -19.0115   20.3236 C   0  0  0  0  0  0
  -28.9751  -23.2106   20.4006 C   0  0  0  0  0  0
  -27.9142  -24.4786   20.0568 C   0  0  0  0  0  0
  -28.7340  -21.7847   20.2542 N   0  0  0  0  0  0
  -29.7504  -16.2705   20.4861 N   0  0  0  0  0  0
  -30.0728  -23.5813   20.8213 O   0  0  0  0  0  0
  -32.9357  -19.7819   21.8386 F   0  0  0  0  0  0
  -32.2035  -17.2276   21.5530 F   0  0  0  0  0  0
  -27.6139  -18.6864   19.7142 Cl  0  0  0  0  0  0
  -31.4675  -12.8229   19.1867 H   0  0  0  0  0  0
  -30.4508  -11.7226   20.0688 H   0  0  0  0  0  0
  -29.8610  -11.7289   17.6183 H   0  0  0  0  0  0
  -29.5931  -13.4543   17.6721 H   0  0  0  0  0  0
  -27.9788  -11.2726   19.0201 H   0  0  0  0  0  0
  -27.3954  -12.4074   17.8301 H   0  0  0  0  0  0
  -27.5671  -14.2476   19.3762 H   0  0  0  0  0  0
  -28.7777  -12.3818   21.4739 H   0  0  0  0  0  0
  -28.3458  -14.0585   21.7259 H   0  0  0  0  0  0
  -25.2775   -9.5681   22.4766 H   0  0  0  0  0  0
  -24.0009   -7.4633   22.7474 H   0  0  0  0  0  0
  -21.0856   -8.8781   19.8950 H   0  0  0  0  0  0
  -22.3717  -10.9676   19.6168 H   0  0  0  0  0  0
  -21.2009   -7.6149   23.9717 H   0  0  0  0  0  0
  -21.1481   -6.0524   25.9077 H   0  0  0  0  0  0
  -22.0597   -2.7611   23.2845 H   0  0  0  0  0  0
  -22.4068  -11.9850   22.4837 H   0  0  0  0  0  0
  -21.1049  -13.1189   22.2651 H   0  0  0  0  0  0
  -24.6319  -15.8413   20.5261 H   0  0  0  0  0  0
  -26.2395  -15.6424   20.0555 H   0  0  0  0  0  0
  -26.7310  -32.5241   23.0961 H   0  0  0  0  0  0
  -25.0085  -33.9569   25.0282 H   0  0  0  0  0  0
  -22.7637  -31.2830   21.3701 H   0  0  0  0  0  0
  -23.3757  -35.9564   23.3292 H   0  0  0  0  0  0
  -24.3570  -36.8889   22.2061 H   0  0  0  0  0  0
  -23.7244  -37.6426   23.6697 H   0  0  0  0  0  0
  -26.1830  -31.4385   20.6169 H   0  0  0  0  0  0
  -26.8855  -30.7407   22.0386 H   0  0  0  0  0  0
  -28.1378  -28.7258   21.2539 H   0  0  0  0  0  0
  -25.8931  -25.8085   19.0011 H   0  0  0  0  0  0
  -23.9849  -27.2921   18.9695 H   0  0  0  0  0  0
  -23.8320  -30.5539   19.3945 H   0  0  0  0  0  0
  -22.8010  -29.2282   19.8365 H   0  0  0  0  0  0
  -25.1321  -36.1823   25.0801 H   0  0  0  0  0  0
  -21.0020  -28.3329   24.1340 H   0  0  0  0  0  0
  -20.5679  -26.2350   23.3629 H   0  0  0  0  0  0
  -21.6657  -26.7425   22.1205 H   0  0  0  0  0  0
  -19.6921  -25.6285   21.1264 H   0  0  0  0  0  0
  -19.6700  -27.3176   20.6729 H   0  0  0  0  0  0
  -17.4215  -26.6683   21.4028 H   0  0  0  0  0  0
  -18.0344  -26.0089   22.9029 H   0  0  0  0  0  0
  -19.7957  -30.7310   24.2218 H   0  0  0  0  0  0
  -17.5030  -31.6273   24.5170 H   0  0  0  0  0  0
  -15.5369  -30.2982   23.7683 H   0  0  0  0  0  0
  -15.8693  -28.0818   22.7095 H   0  0  0  0  0  0
  -24.5899  -30.7098   25.7716 H   0  0  0  0  0  0
  -24.8881  -32.2955   26.4732 H   0  0  0  0  0  0
  -25.7975  -30.9001   27.0226 H   0  0  0  0  0  0
  -26.3056  -29.6646   24.1333 H   0  0  0  0  0  0
  -27.3988  -29.7263   25.4946 H   0  0  0  0  0  0
  -27.8981  -30.4158   23.9705 H   0  0  0  0  0  0
  -27.2637  -33.3667   26.1996 H   0  0  0  0  0  0
  -28.3913  -32.6851   25.0368 H   0  0  0  0  0  0
  -28.0669  -31.8518   26.5493 H   0  0  0  0  0  0
  -28.2586  -38.0079   24.7507 H   0  0  0  0  0  0
  -28.1071  -36.2607   24.6305 H   0  0  0  0  0  0
  -27.2286  -37.1438   25.8871 H   0  0  0  0  0  0
  -20.9511  -29.8758   21.6749 H   0  0  0  0  0  0
  -26.0141  -38.2793   24.1410 H   0  0  0  0  0  0
  -31.2817  -21.5923   21.2128 H   0  0  0  0  0  0
  -27.0141  -24.2739   20.6369 H   0  0  0  0  0  0
  -27.6293  -24.3394   19.0141 H   0  0  0  0  0  0
  -27.8047  -21.5985   19.9008 H   0  0  0  0  0  0
  -28.7608  -16.0818   20.4666 H   0  0  0  0  0  0
  1 25  1  0  0  0
  1 30  2  0  0  0
  1 80  1  0  0  0
  2  3  1  0  0  0
  2 25  1  0  0  0
  2 85  1  0  0  0
  2 86  1  0  0  0
  3  4  1  0  0  0
  3 87  1  0  0  0
  3 88  1  0  0  0
  4  5  1  0  0  0
  4 89  1  0  0  0
  4 90  1  0  0  0
  5  6  1  0  0  0
  5 26  1  0  0  0
  5 91  1  0  0  0
  6 25  1  0  0  0
  6 92  1  0  0  0
  6 93  1  0  0  0
  7  8  2  0  0  0
  7 26  1  0  0  0
  7 29  1  0  0  0
  8  9  1  0  0  0
  8 22  1  0  0  0
  9 10  1  0  0  0
  9 27  2  0  0  0
 10 11  2  0  0  0
 10 15  1  0  0  0
 11 12  1  0  0  0
 11 94  1  0  0  0
 12 13  2  0  0  0
 12 95  1  0  0  0
 13 14  1  0  0  0
 13 31  1  0  0  0
 14 15  2  0  0  0
 14 96  1  0  0  0
 15 97  1  0  0  0
 16 17  2  0  0  0
 16 21  1  0  0  0
 16 31  1  0  0  0
 17 18  1  0  0  0
 17 98  1  0  0  0
 18 19  2  0  0  0
 18 99  1  0  0  0
 19 20  1  0  0  0
 19 24  1  0  0  0
 20 21  2  0  0  0
 20100  1  0  0  0
 21 23  1  0  0  0
 22 28  1  0  0  0
 22 32  2  0  0  0
 26 27  1  0  0  0
 28101  1  0  0  0
 28102  1  0  0  0
 29103  1  0  0  0
 29104  1  0  0  0
 33 34  1  0  0  0
 33 66  1  0  0  0
 33 70  2  0  0  0
 34 36  1  0  0  0
 34 59  1  0  0  0
 34105  1  0  0  0
 35 44  2  0  0  0
 35 45  1  0  0  0
 35 68  1  0  0  0
 36 56  1  0  0  0
 36106  1  0  0  0
 37 39  1  0  0  0
 37 47  1  0  0  0
 37 66  1  0  0  0
 37107  1  0  0  0
 38 43  2  0  0  0
 38 46  1  0  0  0
 38 47  1  0  0  0
 39 64  1  0  0  0
 39 67  2  0  0  0
 40 52  1  0  0  0
 40 53  2  0  0  0
 40 58  1  0  0  0
 41108  1  0  0  0
 41109  1  0  0  0
 41110  1  0  0  0
 41 48  1  0  0  0
 42 43  1  0  0  0
 42 66  1  0  0  0
 42111  1  0  0  0
 42112  1  0  0  0
 43 44  1  0  0  0
 44113  1  0  0  0
 45 46  2  0  0  0
 45114  1  0  0  0
 46115  1  0  0  0
 47116  1  0  0  0
 47117  1  0  0  0
 48 56  1  0  0  0
 48 65  1  0  0  0
 48118  1  0  0  0
 49 50  1  0  0  0
 49 53  1  0  0  0
 49 64  1  0  0  0
 49119  1  0  0  0
 50 51  1  0  0  0
 50120  1  0  0  0
 50121  1  0  0  0
 51 52  1  0  0  0
 51122  1  0  0  0
 51123  1  0  0  0
 52124  1  0  0  0
 52125  1  0  0  0
 53 54  1  0  0  0
 54 55  2  0  0  0
 54126  1  0  0  0
 55 57  1  0  0  0
 55127  1  0  0  0
 56 69  2  0  0  0
 57 58  2  0  0  0
 57128  1  0  0  0
 58129  1  0  0  0
 59 60  1  0  0  0
 59 61  1  0  0  0
 59 62  1  0  0  0
 60130  1  0  0  0
 60131  1  0  0  0
 60132  1  0  0  0
 61133  1  0  0  0
 61134  1  0  0  0
 61135  1  0  0  0
 62136  1  0  0  0
 62137  1  0  0  0
 62138  1  0  0  0
 63 65  1  0  0  0
 63139  1  0  0  0
 63140  1  0  0  0
 63141  1  0  0  0
 64142  1  0  0  0
 65143  1  0  0  0
 68 78  1  0  0  0
 71 72  2  0  0  0
 71 74  1  0  0  0
 71144  1  0  0  0
 72 76  1  0  0  0
 72 79  1  0  0  0
 73 75  1  0  0  0
 73 76  2  0  0  0
 73 80  1  0  0  0
 74 75  2  0  0  0
 74 82  1  0  0  0
 75 83  1  0  0  0
 76 84  1  0  0  0
 77 78  1  0  0  0
 77 79  1  0  0  0
 77 81  2  0  0  0
 78145  1  0  0  0
 78146  1  0  0  0
 79147  1  0  0  0
 80148  1  0  0  0
M  ISO  4   1 100  68 101  78 101  80 100
M  END
> <chiral flag>
0

> <version>
0

> <s_m_source_file>
/data/baiqing/PycharmProjects/Reinvent-master-3.2/result/LINK_invent/BTK/process_docking_weight1_custom_sum_contain_oxygen_bond_distance_aromatic_linkinvent_7_9_3/rearranged_h_0012.sdf

> <i_m_source_file_index>
60

> <r_mmod_Potential_Energy-OPLS-2005>
602.855041503906

> <r_mmod_Stretch_Energy-OPLS-2005>
350.820587158203

> <r_mmod_Bend_Energy-OPLS-2005>
271.286529541016

> <r_mmod_Torsional_Energy-OPLS-2005>
221.130035400391

> <r_mmod_Improper_Torsional_Energy-OPLS-2005>
6.02100658416748

> <r_mmod_Van_der_Waal_Energy-OPLS-2005>
134.034942626953

> <r_mmod_Electrostatic_Energy-OPLS-2005>
-403.763122558594

> <r_mmod_Solvation_Energy-OPLS-2005>
-243.672180175781

> <b_mmod_Minimization_Converged-OPLS-2005>
0

> <r_mmod_RMS_Derivative-OPLS-2005>
0.24620409309864

$$$$
61
                    3D
 Structure written by MMmdl.
158166  0  0  1  0            999 V2000
  -30.5633  -14.7971   20.4799 C   0  0  0  0  0  0
  -30.4510  -12.4923   19.4836 C   0  0  0  0  0  0
  -29.5270  -12.5192   18.2448 C   0  0  0  0  0  0
  -28.0526  -12.3264   18.6536 C   0  0  0  0  0  0
  -27.6424  -13.2299   19.8468 C   0  0  2  0  0  0
  -28.6806  -13.1628   20.9874 C   0  0  0  0  0  0
  -25.2498  -13.8176   20.5643 C   0  0  0  0  0  0
  -24.1800  -13.0439   20.9195 C   0  0  0  0  0  0
  -24.6397  -11.6913   20.8758 C   0  0  0  0  0  0
  -23.9085  -10.4296   21.0436 C   0  0  0  0  0  0
  -24.3633   -9.4202   21.9217 C   0  0  0  0  0  0
  -23.6297   -8.2240   22.0769 C   0  0  0  0  0  0
  -22.4280   -8.0294   21.3557 C   0  0  0  0  0  0
  -21.9925   -9.0271   20.4659 C   0  0  0  0  0  0
  -22.7260  -10.2140   20.3079 C   0  0  0  0  0  0
  -21.6844   -6.0748   22.5296 C   0  0  0  0  0  0
  -21.4004   -6.5648   23.8229 C   0  0  0  0  0  0
  -21.3657   -5.6798   24.9186 C   0  0  0  0  0  0
  -21.6053   -4.3061   24.7239 C   0  0  0  0  0  0
  -21.8810   -3.8155   23.4354 C   0  0  0  0  0  0
  -21.9183   -4.6977   22.3411 C   0  0  0  0  0  0
  -22.7819  -13.5221   21.1877 C   0  0  0  0  0  0
  -22.1657   -4.2158   21.0990 F   0  0  0  0  0  0
  -21.5627   -3.4543   25.7747 F   0  0  0  0  0  0
  -29.9825  -13.5444   20.4178 N   0  0  0  0  0  0
  -26.2929  -12.9387   20.3208 N   0  0  0  0  0  0
  -25.9318  -11.6533   20.5712 N   0  0  0  0  0  0
  -22.0432  -12.8250   22.0421 N   0  0  0  0  0  0
  -25.4159  -15.1910   20.3995 N   0  0  0  0  0  0
  -31.7499  -14.9319   20.1628 O   0  0  0  0  0  0
  -21.6629   -6.8901   21.4263 O   0  0  0  0  0  0
  -22.3517  -14.5541   20.6714 O   0  0  0  0  0  0
  -24.6353  -31.8517   23.1957 C   0  0  0  0  0  0
  -25.9179  -32.4733   23.8317 C   0  0  1  0  0  0
  -27.2330  -27.2391   20.1643 C   0  0  0  0  0  0
  -25.5980  -33.8531   24.2240 N   0  0  0  0  0  0
  -23.4332  -30.4719   21.5348 C   0  0  2  0  0  0
  -24.8910  -28.9120   20.1090 C   0  0  0  0  0  0
  -22.7523  -29.4580   22.4873 C   0  0  0  0  0  0
  -18.0301  -28.1396   22.8501 C   0  0  0  0  0  0
  -24.1489  -36.7257   23.2634 C   0  0  0  0  0  0
  -25.9805  -30.7609   21.3789 C   0  0  0  0  0  0
  -26.0581  -29.3781   20.7291 C   0  0  0  0  0  0
  -27.2337  -28.5576   20.7380 C   0  0  0  0  0  0
  -26.0432  -26.8386   19.5207 C   0  0  0  0  0  0
  -24.8909  -27.6528   19.4861 C   0  0  0  0  0  0
  -23.6602  -29.8021   20.1509 C   0  0  0  0  0  0
  -25.4122  -36.3034   24.0318 C   0  0  1  0  0  0
  -20.5909  -28.3701   23.1290 C   0  0  2  0  0  0
  -20.6774  -26.9419   22.5422 C   0  0  0  0  0  0
  -19.5750  -26.6392   21.5224 C   0  0  0  0  0  0
  -18.1929  -26.7945   22.1632 C   0  0  0  0  0  0
  -19.1548  -28.8875   23.2894 C   0  0  0  0  0  0
  -18.9452  -30.1471   23.8922 C   0  0  0  0  0  0
  -17.6442  -30.6594   24.0571 C   0  0  0  0  0  0
  -25.9076  -34.9414   23.5069 C   0  0  0  0  0  0
  -16.5347  -29.9088   23.6328 C   0  0  0  0  0  0
  -16.7282  -28.6500   23.0371 C   0  0  0  0  0  0
  -26.4541  -31.6559   25.0713 C   0  0  0  0  0  0
  -25.3749  -31.3733   26.1417 C   0  0  0  0  0  0
  -27.0380  -30.2961   24.6218 C   0  0  0  0  0  0
  -27.6091  -32.4274   25.7523 C   0  0  0  0  0  0
  -27.5576  -37.1799   24.8476 C   0  0  0  0  0  0
  -21.4223  -29.3033   22.3657 N   0  0  0  0  0  0
  -26.4288  -37.3731   23.9413 N   0  0  0  0  0  0
  -24.7008  -31.0490   22.0926 N   0  0  0  0  0  0
  -23.4203  -28.8132   23.3004 O   0  0  0  0  0  0
  -28.3317  -26.3416   20.1769 O   0  0  0  0  0  0
  -26.5637  -34.8885   22.4626 O   0  0  0  0  0  0
  -23.5505  -32.1379   23.7241 O   0  0  0  0  0  0
  -29.6086  -18.2649   19.8206 C   0  0  0  0  0  0
  -29.5515  -19.5564   20.5037 C   0  0  0  0  0  0
  -29.8463  -17.2874   20.7979 C   0  0  0  0  0  0
  -30.9007  -18.6143   24.2415 C   0  0  0  0  0  0
  -30.7136  -16.1995   23.6077 C   0  0  0  0  0  0
  -28.8363  -23.5983   19.9563 C   0  0  0  0  0  0
  -28.8083  -22.1220   20.6763 C   0  0  0  0  0  0
  -28.1517  -24.9127   20.6557 C   0  0  0  0  0  0
  -30.0912  -17.5899   23.4074 C   0  0  0  0  0  0
  -29.7577  -19.3605   21.7910 N   0  0  0  0  0  0
  -29.9637  -18.0124   21.9993 N   0  0  0  0  0  0
  -29.3042  -20.8769   19.9393 N   0  0  0  0  0  0
  -29.7089  -15.8814   20.6903 N   0  0  0  0  0  0
  -31.4885  -12.6479   19.1837 H   0  0  0  0  0  0
  -30.4234  -11.5149   19.9662 H   0  0  0  0  0  0
  -29.8235  -11.7426   17.5392 H   0  0  0  0  0  0
  -29.6444  -13.4698   17.7215 H   0  0  0  0  0  0
  -27.9189  -11.2775   18.9236 H   0  0  0  0  0  0
  -27.3983  -12.5048   17.7999 H   0  0  0  0  0  0
  -27.6348  -14.2495   19.4601 H   0  0  0  0  0  0
  -28.7207  -12.1579   21.4100 H   0  0  0  0  0  0
  -28.3963  -13.8250   21.8068 H   0  0  0  0  0  0
  -25.2777   -9.5661   22.4787 H   0  0  0  0  0  0
  -23.9991   -7.4627   22.7489 H   0  0  0  0  0  0
  -21.0848   -8.8816   19.8962 H   0  0  0  0  0  0
  -22.3751  -10.9689   19.6181 H   0  0  0  0  0  0
  -21.1995   -7.6148   23.9743 H   0  0  0  0  0  0
  -21.1489   -6.0518   25.9093 H   0  0  0  0  0  0
  -22.0587   -2.7610   23.2855 H   0  0  0  0  0  0
  -22.4000  -11.9903   22.4832 H   0  0  0  0  0  0
  -21.1063  -13.1316   22.2620 H   0  0  0  0  0  0
  -24.6317  -15.8294   20.4821 H   0  0  0  0  0  0
  -26.2404  -15.6294   20.0106 H   0  0  0  0  0  0
  -26.7254  -32.5388   23.1072 H   0  0  0  0  0  0
  -25.0178  -33.9639   25.0423 H   0  0  0  0  0  0
  -22.7297  -31.2929   21.3854 H   0  0  0  0  0  0
  -23.3730  -35.9610   23.3307 H   0  0  0  0  0  0
  -24.3570  -36.8871   22.2046 H   0  0  0  0  0  0
  -23.7257  -37.6460   23.6656 H   0  0  0  0  0  0
  -26.1196  -31.5162   20.6041 H   0  0  0  0  0  0
  -26.8551  -30.8194   22.0147 H   0  0  0  0  0  0
  -28.1260  -28.9171   21.2303 H   0  0  0  0  0  0
  -25.9976  -25.8684   19.0475 H   0  0  0  0  0  0
  -24.0069  -27.2910   18.9785 H   0  0  0  0  0  0
  -23.7925  -30.5782   19.3958 H   0  0  0  0  0  0
  -22.7785  -29.2382   19.8387 H   0  0  0  0  0  0
  -25.1293  -36.1861   25.0806 H   0  0  0  0  0  0
  -21.0023  -28.3275   24.1409 H   0  0  0  0  0  0
  -20.5663  -26.2317   23.3625 H   0  0  0  0  0  0
  -21.6644  -26.7426   22.1234 H   0  0  0  0  0  0
  -19.6892  -25.6295   21.1267 H   0  0  0  0  0  0
  -19.6684  -27.3204   20.6757 H   0  0  0  0  0  0
  -17.4204  -26.6735   21.4025 H   0  0  0  0  0  0
  -18.0307  -26.0079   22.9017 H   0  0  0  0  0  0
  -19.7913  -30.7293   24.2319 H   0  0  0  0  0  0
  -17.4974  -31.6272   24.5161 H   0  0  0  0  0  0
  -15.5343  -30.2980   23.7611 H   0  0  0  0  0  0
  -15.8690  -28.0789   22.7104 H   0  0  0  0  0  0
  -24.5946  -30.7062   25.7748 H   0  0  0  0  0  0
  -24.8942  -32.2911   26.4773 H   0  0  0  0  0  0
  -25.8052  -30.8946   27.0224 H   0  0  0  0  0  0
  -26.2982  -29.6705   24.1211 H   0  0  0  0  0  0
  -27.4022  -29.7206   25.4736 H   0  0  0  0  0  0
  -27.8860  -30.4195   23.9491 H   0  0  0  0  0  0
  -27.2744  -33.3649   26.1952 H   0  0  0  0  0  0
  -28.4020  -32.6680   25.0445 H   0  0  0  0  0  0
  -28.0602  -31.8465   26.5569 H   0  0  0  0  0  0
  -28.2584  -38.0102   24.7492 H   0  0  0  0  0  0
  -28.1072  -36.2621   24.6327 H   0  0  0  0  0  0
  -27.2303  -37.1497   25.8882 H   0  0  0  0  0  0
  -20.9410  -29.8759   21.6863 H   0  0  0  0  0  0
  -26.0148  -38.2800   24.1358 H   0  0  0  0  0  0
  -29.4488  -18.0794   18.7685 H   0  0  0  0  0  0
  -31.0829  -18.2585   25.2573 H   0  0  0  0  0  0
  -30.3761  -19.5648   24.3407 H   0  0  0  0  0  0
  -31.8697  -18.8198   23.7818 H   0  0  0  0  0  0
  -30.8951  -16.0128   24.6662 H   0  0  0  0  0  0
  -31.6720  -16.1015   23.0955 H   0  0  0  0  0  0
  -30.0434  -15.4077   23.2788 H   0  0  0  0  0  0
  -29.8776  -23.8452   19.7486 H   0  0  0  0  0  0
  -28.3640  -23.4960   18.9791 H   0  0  0  0  0  0
  -27.7731  -21.9178   20.9520 H   0  0  0  0  0  0
  -29.3489  -22.1831   21.6222 H   0  0  0  0  0  0
  -27.0878  -24.6968   20.7483 H   0  0  0  0  0  0
  -28.5090  -24.9246   21.6878 H   0  0  0  0  0  0
  -29.0788  -17.5577   23.8163 H   0  0  0  0  0  0
  -29.2538  -20.9184   18.9235 H   0  0  0  0  0  0
  -28.7728  -15.5642   20.8865 H   0  0  0  0  0  0
  1 25  1  0  0  0
  1 30  2  0  0  0
  1 83  1  0  0  0
  2  3  1  0  0  0
  2 25  1  0  0  0
  2 84  1  0  0  0
  2 85  1  0  0  0
  3  4  1  0  0  0
  3 86  1  0  0  0
  3 87  1  0  0  0
  4  5  1  0  0  0
  4 88  1  0  0  0
  4 89  1  0  0  0
  5  6  1  0  0  0
  5 26  1  0  0  0
  5 90  1  0  0  0
  6 25  1  0  0  0
  6 91  1  0  0  0
  6 92  1  0  0  0
  7  8  2  0  0  0
  7 26  1  0  0  0
  7 29  1  0  0  0
  8  9  1  0  0  0
  8 22  1  0  0  0
  9 10  1  0  0  0
  9 27  2  0  0  0
 10 11  2  0  0  0
 10 15  1  0  0  0
 11 12  1  0  0  0
 11 93  1  0  0  0
 12 13  2  0  0  0
 12 94  1  0  0  0
 13 14  1  0  0  0
 13 31  1  0  0  0
 14 15  2  0  0  0
 14 95  1  0  0  0
 15 96  1  0  0  0
 16 17  2  0  0  0
 16 21  1  0  0  0
 16 31  1  0  0  0
 17 18  1  0  0  0
 17 97  1  0  0  0
 18 19  2  0  0  0
 18 98  1  0  0  0
 19 20  1  0  0  0
 19 24  1  0  0  0
 20 21  2  0  0  0
 20 99  1  0  0  0
 21 23  1  0  0  0
 22 28  1  0  0  0
 22 32  2  0  0  0
 26 27  1  0  0  0
 28100  1  0  0  0
 28101  1  0  0  0
 29102  1  0  0  0
 29103  1  0  0  0
 33 34  1  0  0  0
 33 66  1  0  0  0
 33 70  2  0  0  0
 34 36  1  0  0  0
 34 59  1  0  0  0
 34104  1  0  0  0
 35 44  2  0  0  0
 35 45  1  0  0  0
 35 68  1  0  0  0
 36 56  1  0  0  0
 36105  1  0  0  0
 37 39  1  0  0  0
 37 47  1  0  0  0
 37 66  1  0  0  0
 37106  1  0  0  0
 38 43  2  0  0  0
 38 46  1  0  0  0
 38 47  1  0  0  0
 39 64  1  0  0  0
 39 67  2  0  0  0
 40 52  1  0  0  0
 40 53  2  0  0  0
 40 58  1  0  0  0
 41107  1  0  0  0
 41108  1  0  0  0
 41109  1  0  0  0
 41 48  1  0  0  0
 42 43  1  0  0  0
 42 66  1  0  0  0
 42110  1  0  0  0
 42111  1  0  0  0
 43 44  1  0  0  0
 44112  1  0  0  0
 45 46  2  0  0  0
 45113  1  0  0  0
 46114  1  0  0  0
 47115  1  0  0  0
 47116  1  0  0  0
 48 56  1  0  0  0
 48 65  1  0  0  0
 48117  1  0  0  0
 49 50  1  0  0  0
 49 53  1  0  0  0
 49 64  1  0  0  0
 49118  1  0  0  0
 50 51  1  0  0  0
 50119  1  0  0  0
 50120  1  0  0  0
 51 52  1  0  0  0
 51121  1  0  0  0
 51122  1  0  0  0
 52123  1  0  0  0
 52124  1  0  0  0
 53 54  1  0  0  0
 54 55  2  0  0  0
 54125  1  0  0  0
 55 57  1  0  0  0
 55126  1  0  0  0
 56 69  2  0  0  0
 57 58  2  0  0  0
 57127  1  0  0  0
 58128  1  0  0  0
 59 60  1  0  0  0
 59 61  1  0  0  0
 59 62  1  0  0  0
 60129  1  0  0  0
 60130  1  0  0  0
 60131  1  0  0  0
 61132  1  0  0  0
 61133  1  0  0  0
 61134  1  0  0  0
 62135  1  0  0  0
 62136  1  0  0  0
 62137  1  0  0  0
 63 65  1  0  0  0
 63138  1  0  0  0
 63139  1  0  0  0
 63140  1  0  0  0
 64141  1  0  0  0
 65142  1  0  0  0
 68 78  1  0  0  0
 71 72  1  0  0  0
 71 73  2  0  0  0
 71143  1  0  0  0
 72 80  2  0  0  0
 72 82  1  0  0  0
 73 81  1  0  0  0
 73 83  1  0  0  0
 74144  1  0  0  0
 74145  1  0  0  0
 74146  1  0  0  0
 74 79  1  0  0  0
 75 79  1  0  0  0
 75147  1  0  0  0
 75148  1  0  0  0
 75149  1  0  0  0
 76 77  1  0  0  0
 76 78  1  0  0  0
 76150  1  0  0  0
 76151  1  0  0  0
 77 82  1  0  0  0
 77152  1  0  0  0
 77153  1  0  0  0
 78154  1  0  0  0
 78155  1  0  0  0
 79 81  1  0  0  0
 79156  1  0  0  0
 80 81  1  0  0  0
 82157  1  0  0  0
 83158  1  0  0  0
M  ISO  4   1 100  68 101  78 101  83 100
M  END
> <chiral flag>
0

> <version>
0

> <s_m_source_file>
/data/baiqing/PycharmProjects/Reinvent-master-3.2/result/LINK_invent/BTK/process_docking_weight1_custom_sum_contain_oxygen_bond_distance_aromatic_linkinvent_7_9_3/rearranged_h_0012.sdf

> <i_m_source_file_index>
61

> <r_mmod_Potential_Energy-OPLS-2005>
156.800735473633

> <r_mmod_Stretch_Energy-OPLS-2005>
137.940612792969

> <r_mmod_Bend_Energy-OPLS-2005>
208.261184692383

> <r_mmod_Torsional_Energy-OPLS-2005>
270.210662841797

> <r_mmod_Improper_Torsional_Energy-OPLS-2005>
8.65520763397217

> <r_mmod_Van_der_Waal_Energy-OPLS-2005>
114.198394775391

> <r_mmod_Electrostatic_Energy-OPLS-2005>
-454.737884521484

> <r_mmod_Solvation_Energy-OPLS-2005>
-231.780990600586

> <b_mmod_Minimization_Converged-OPLS-2005>
0

> <r_mmod_RMS_Derivative-OPLS-2005>
3.707927942276

$$$$
62
                    3D
 Structure written by MMmdl.
157165  0  0  1  0            999 V2000
  -30.5350  -14.9636   20.3923 C   0  0  0  0  0  0
  -30.4543  -12.5999   19.4833 C   0  0  0  0  0  0
  -29.5232  -12.5137   18.2507 C   0  0  0  0  0  0
  -28.0630  -12.2839   18.6828 C   0  0  0  0  0  0
  -27.6326  -13.2339   19.8275 C   0  0  2  0  0  0
  -28.6815  -13.2842   20.9635 C   0  0  0  0  0  0
  -25.2487  -13.8138   20.5768 C   0  0  0  0  0  0
  -24.1831  -13.0400   20.9290 C   0  0  0  0  0  0
  -24.6409  -11.6889   20.8713 C   0  0  0  0  0  0
  -23.9067  -10.4305   21.0364 C   0  0  0  0  0  0
  -24.3631   -9.4230   21.9148 C   0  0  0  0  0  0
  -23.6309   -8.2277   22.0733 C   0  0  0  0  0  0
  -22.4290   -8.0310   21.3536 C   0  0  0  0  0  0
  -21.9922   -9.0279   20.4621 C   0  0  0  0  0  0
  -22.7238  -10.2156   20.3007 C   0  0  0  0  0  0
  -21.6869   -6.0750   22.5270 C   0  0  0  0  0  0
  -21.4033   -6.5640   23.8210 C   0  0  0  0  0  0
  -21.3654   -5.6789   24.9172 C   0  0  0  0  0  0
  -21.6039   -4.3048   24.7215 C   0  0  0  0  0  0
  -21.8821   -3.8148   23.4329 C   0  0  0  0  0  0
  -21.9207   -4.6978   22.3388 C   0  0  0  0  0  0
  -22.7868  -13.5206   21.1957 C   0  0  0  0  0  0
  -22.1678   -4.2154   21.0968 F   0  0  0  0  0  0
  -21.5615   -3.4533   25.7722 F   0  0  0  0  0  0
  -29.9577  -13.6957   20.3590 N   0  0  0  0  0  0
  -26.2904  -12.9369   20.3174 N   0  0  0  0  0  0
  -25.9330  -11.6502   20.5696 N   0  0  0  0  0  0
  -22.0515  -12.8199   22.0459 N   0  0  0  0  0  0
  -25.4019  -15.1870   20.4344 N   0  0  0  0  0  0
  -31.7423  -15.0597   20.1527 O   0  0  0  0  0  0
  -21.6658   -6.8898   21.4238 O   0  0  0  0  0  0
  -22.3559  -14.5541   20.6825 O   0  0  0  0  0  0
  -24.6432  -31.8461   23.1864 C   0  0  0  0  0  0
  -25.9236  -32.4700   23.8230 C   0  0  1  0  0  0
  -27.2189  -27.1589   20.1622 C   0  0  0  0  0  0
  -25.6001  -33.8505   24.2201 N   0  0  0  0  0  0
  -23.4419  -30.4665   21.5309 C   0  0  2  0  0  0
  -24.8937  -28.8954   20.1094 C   0  0  0  0  0  0
  -22.7534  -29.4583   22.4859 C   0  0  0  0  0  0
  -18.0266  -28.1421   22.8454 C   0  0  0  0  0  0
  -24.1469  -36.7257   23.2634 C   0  0  0  0  0  0
  -25.9961  -30.7355   21.3705 C   0  0  0  0  0  0
  -26.0703  -29.3452   20.7212 C   0  0  0  0  0  0
  -27.2393  -28.4979   20.7194 C   0  0  0  0  0  0
  -26.0172  -26.8057   19.5052 C   0  0  0  0  0  0
  -24.8787  -27.6387   19.4831 C   0  0  0  0  0  0
  -23.6659  -29.7920   20.1562 C   0  0  0  0  0  0
  -25.4094  -36.3020   24.0325 C   0  0  1  0  0  0
  -20.5865  -28.3756   23.1250 C   0  0  2  0  0  0
  -20.6752  -26.9463   22.5397 C   0  0  0  0  0  0
  -19.5748  -26.6422   21.5191 C   0  0  0  0  0  0
  -18.1932  -26.7952   22.1591 C   0  0  0  0  0  0
  -19.1509  -28.8893   23.2853 C   0  0  0  0  0  0
  -18.9450  -30.1477   23.8899 C   0  0  0  0  0  0
  -17.6467  -30.6629   24.0540 C   0  0  0  0  0  0
  -25.9081  -34.9401   23.5064 C   0  0  0  0  0  0
  -16.5346  -29.9122   23.6332 C   0  0  0  0  0  0
  -16.7262  -28.6518   23.0370 C   0  0  0  0  0  0
  -26.4591  -31.6506   25.0619 C   0  0  0  0  0  0
  -25.3825  -31.3709   26.1355 C   0  0  0  0  0  0
  -27.0405  -30.2858   24.6134 C   0  0  0  0  0  0
  -27.6081  -32.4274   25.7458 C   0  0  0  0  0  0
  -27.5550  -37.1781   24.8498 C   0  0  0  0  0  0
  -21.4212  -29.3074   22.3610 N   0  0  0  0  0  0
  -26.4266  -37.3719   23.9440 N   0  0  0  0  0  0
  -24.7143  -31.0352   22.0878 N   0  0  0  0  0  0
  -23.4166  -28.8122   23.3017 O   0  0  0  0  0  0
  -28.2727  -26.1798   20.2092 O   0  0  0  0  0  0
  -26.5621  -34.8883   22.4606 O   0  0  0  0  0  0
  -23.5570  -32.1329   23.7143 O   0  0  0  0  0  0
  -30.6718  -18.5828   20.7979 C   0  0  0  0  0  0
  -30.4493  -20.0315   20.8703 C   0  0  0  0  0  0
  -28.2128  -19.7388   20.1133 C   0  0  0  0  0  0
  -29.6763  -17.6291   20.3906 C   0  0  0  0  0  0
  -29.1911  -20.6927   20.5789 C   0  0  0  0  0  0
  -28.4767  -18.3110   19.9785 C   0  0  0  0  0  0
  -28.7827  -23.3702   20.2129 C   0  0  0  0  0  0
  -31.6220  -20.8943   21.3203 C   0  0  0  0  0  0
  -26.7812  -20.2029   19.8357 C   0  0  0  0  0  0
  -28.5756  -22.3078   22.4042 C   0  0  0  0  0  0
  -27.9673  -24.7378   20.7039 C   0  0  0  0  0  0
  -29.6715  -16.0896   20.4373 N   0  0  0  0  0  0
  -28.8512  -22.1526   20.9663 N   0  0  0  0  0  0
  -29.3317  -23.4252   19.1055 O   0  0  0  0  0  0
  -27.2620  -17.3227   19.2446 Cl  0  0  0  0  0  0
  -31.4815  -12.7768   19.1657 H   0  0  0  0  0  0
  -30.4676  -11.6566   20.0283 H   0  0  0  0  0  0
  -29.8516  -11.7059   17.5952 H   0  0  0  0  0  0
  -29.5893  -13.4302   17.6654 H   0  0  0  0  0  0
  -27.9848  -11.2482   19.0225 H   0  0  0  0  0  0
  -27.3936  -12.3819   17.8249 H   0  0  0  0  0  0
  -27.5875  -14.2254   19.3749 H   0  0  0  0  0  0
  -28.7814  -12.3186   21.4612 H   0  0  0  0  0  0
  -28.3757  -13.9988   21.7302 H   0  0  0  0  0  0
  -25.2817   -9.5717   22.4676 H   0  0  0  0  0  0
  -24.0038   -7.4685   22.7448 H   0  0  0  0  0  0
  -21.0839   -8.8785   19.8923 H   0  0  0  0  0  0
  -22.3717  -10.9687   19.6086 H   0  0  0  0  0  0
  -21.2034   -7.6155   23.9720 H   0  0  0  0  0  0
  -21.1469   -6.0516   25.9072 H   0  0  0  0  0  0
  -22.0604   -2.7611   23.2831 H   0  0  0  0  0  0
  -22.4238  -11.9920   22.4872 H   0  0  0  0  0  0
  -21.1099  -13.1168   22.2571 H   0  0  0  0  0  0
  -24.6165  -15.8133   20.5619 H   0  0  0  0  0  0
  -26.2061  -15.6532   20.0310 H   0  0  0  0  0  0
  -26.7266  -32.5332   23.0923 H   0  0  0  0  0  0
  -25.0199  -33.9633   25.0390 H   0  0  0  0  0  0
  -22.7333  -31.2854   21.3728 H   0  0  0  0  0  0
  -23.3722  -35.9608   23.3326 H   0  0  0  0  0  0
  -24.3562  -36.8848   22.2042 H   0  0  0  0  0  0
  -23.7214  -37.6461   23.6645 H   0  0  0  0  0  0
  -26.1211  -31.4874   20.5890 H   0  0  0  0  0  0
  -26.8809  -30.8069   21.9929 H   0  0  0  0  0  0
  -28.1451  -28.8465   21.1932 H   0  0  0  0  0  0
  -25.9324  -25.8441   19.0179 H   0  0  0  0  0  0
  -23.9785  -27.2910   18.9959 H   0  0  0  0  0  0
  -23.7947  -30.5643   19.3986 H   0  0  0  0  0  0
  -22.7812  -29.2313   19.8527 H   0  0  0  0  0  0
  -25.1235  -36.1820   25.0805 H   0  0  0  0  0  0
  -20.9921  -28.3359   24.1387 H   0  0  0  0  0  0
  -20.5631  -26.2369   23.3609 H   0  0  0  0  0  0
  -21.6632  -26.7499   22.1185 H   0  0  0  0  0  0
  -19.6952  -25.6344   21.1236 H   0  0  0  0  0  0
  -19.6704  -27.3202   20.6702 H   0  0  0  0  0  0
  -17.4172  -26.6672   21.4028 H   0  0  0  0  0  0
  -18.0361  -26.0133   22.9017 H   0  0  0  0  0  0
  -19.7939  -30.7256   24.2308 H   0  0  0  0  0  0
  -17.5044  -31.6317   24.5134 H   0  0  0  0  0  0
  -15.5360  -30.3031   23.7721 H   0  0  0  0  0  0
  -15.8626  -28.0863   22.7135 H   0  0  0  0  0  0
  -24.6057  -30.6924   25.7801 H   0  0  0  0  0  0
  -24.8987  -32.2907   26.4627 H   0  0  0  0  0  0
  -25.8243  -30.9073   27.0181 H   0  0  0  0  0  0
  -26.2991  -29.6592   24.1141 H   0  0  0  0  0  0
  -27.4005  -29.7079   25.4667 H   0  0  0  0  0  0
  -27.8899  -30.4032   23.9397 H   0  0  0  0  0  0
  -27.2618  -33.3604   26.1894 H   0  0  0  0  0  0
  -28.4012  -32.6774   25.0408 H   0  0  0  0  0  0
  -28.0571  -31.8464   26.5507 H   0  0  0  0  0  0
  -28.2582  -38.0057   24.7440 H   0  0  0  0  0  0
  -28.0999  -36.2563   24.6398 H   0  0  0  0  0  0
  -27.2287  -37.1522   25.8914 H   0  0  0  0  0  0
  -20.9421  -29.8745   21.6747 H   0  0  0  0  0  0
  -26.0124  -38.2787   24.1412 H   0  0  0  0  0  0
  -31.6383  -18.2072   21.1061 H   0  0  0  0  0  0
  -31.6087  -21.8625   20.8149 H   0  0  0  0  0  0
  -32.5826  -20.4335   21.0827 H   0  0  0  0  0  0
  -31.5972  -21.0743   22.3973 H   0  0  0  0  0  0
  -26.4602  -19.9099   18.8344 H   0  0  0  0  0  0
  -26.6319  -21.2785   19.9383 H   0  0  0  0  0  0
  -26.1132  -19.7124   20.5469 H   0  0  0  0  0  0
  -29.2364  -23.0510   22.8582 H   0  0  0  0  0  0
  -28.7407  -21.3809   22.9600 H   0  0  0  0  0  0
  -27.5420  -22.6030   22.5914 H   0  0  0  0  0  0
  -27.9736  -24.7907   21.7934 H   0  0  0  0  0  0
  -26.9268  -24.5073   20.4727 H   0  0  0  0  0  0
  -28.7198  -15.7584   20.4473 H   0  0  0  0  0  0
  1 25  1  0  0  0
  1 30  2  0  0  0
  1 82  1  0  0  0
  2  3  1  0  0  0
  2 25  1  0  0  0
  2 86  1  0  0  0
  2 87  1  0  0  0
  3  4  1  0  0  0
  3 88  1  0  0  0
  3 89  1  0  0  0
  4  5  1  0  0  0
  4 90  1  0  0  0
  4 91  1  0  0  0
  5  6  1  0  0  0
  5 26  1  0  0  0
  5 92  1  0  0  0
  6 25  1  0  0  0
  6 93  1  0  0  0
  6 94  1  0  0  0
  7  8  2  0  0  0
  7 26  1  0  0  0
  7 29  1  0  0  0
  8  9  1  0  0  0
  8 22  1  0  0  0
  9 10  1  0  0  0
  9 27  2  0  0  0
 10 11  2  0  0  0
 10 15  1  0  0  0
 11 12  1  0  0  0
 11 95  1  0  0  0
 12 13  2  0  0  0
 12 96  1  0  0  0
 13 14  1  0  0  0
 13 31  1  0  0  0
 14 15  2  0  0  0
 14 97  1  0  0  0
 15 98  1  0  0  0
 16 17  2  0  0  0
 16 21  1  0  0  0
 16 31  1  0  0  0
 17 18  1  0  0  0
 17 99  1  0  0  0
 18 19  2  0  0  0
 18100  1  0  0  0
 19 20  1  0  0  0
 19 24  1  0  0  0
 20 21  2  0  0  0
 20101  1  0  0  0
 21 23  1  0  0  0
 22 28  1  0  0  0
 22 32  2  0  0  0
 26 27  1  0  0  0
 28102  1  0  0  0
 28103  1  0  0  0
 29104  1  0  0  0
 29105  1  0  0  0
 33 34  1  0  0  0
 33 66  1  0  0  0
 33 70  2  0  0  0
 34 36  1  0  0  0
 34 59  1  0  0  0
 34106  1  0  0  0
 35 44  2  0  0  0
 35 45  1  0  0  0
 35 68  1  0  0  0
 36 56  1  0  0  0
 36107  1  0  0  0
 37 39  1  0  0  0
 37 47  1  0  0  0
 37 66  1  0  0  0
 37108  1  0  0  0
 38 43  2  0  0  0
 38 46  1  0  0  0
 38 47  1  0  0  0
 39 64  1  0  0  0
 39 67  2  0  0  0
 40 52  1  0  0  0
 40 53  2  0  0  0
 40 58  1  0  0  0
 41109  1  0  0  0
 41110  1  0  0  0
 41111  1  0  0  0
 41 48  1  0  0  0
 42 43  1  0  0  0
 42 66  1  0  0  0
 42112  1  0  0  0
 42113  1  0  0  0
 43 44  1  0  0  0
 44114  1  0  0  0
 45 46  2  0  0  0
 45115  1  0  0  0
 46116  1  0  0  0
 47117  1  0  0  0
 47118  1  0  0  0
 48 56  1  0  0  0
 48 65  1  0  0  0
 48119  1  0  0  0
 49 50  1  0  0  0
 49 53  1  0  0  0
 49 64  1  0  0  0
 49120  1  0  0  0
 50 51  1  0  0  0
 50121  1  0  0  0
 50122  1  0  0  0
 51 52  1  0  0  0
 51123  1  0  0  0
 51124  1  0  0  0
 52125  1  0  0  0
 52126  1  0  0  0
 53 54  1  0  0  0
 54 55  2  0  0  0
 54127  1  0  0  0
 55 57  1  0  0  0
 55128  1  0  0  0
 56 69  2  0  0  0
 57 58  2  0  0  0
 57129  1  0  0  0
 58130  1  0  0  0
 59 60  1  0  0  0
 59 61  1  0  0  0
 59 62  1  0  0  0
 60131  1  0  0  0
 60132  1  0  0  0
 60133  1  0  0  0
 61134  1  0  0  0
 61135  1  0  0  0
 61136  1  0  0  0
 62137  1  0  0  0
 62138  1  0  0  0
 62139  1  0  0  0
 63 65  1  0  0  0
 63140  1  0  0  0
 63141  1  0  0  0
 63142  1  0  0  0
 64143  1  0  0  0
 65144  1  0  0  0
 68 81  1  0  0  0
 71 72  2  0  0  0
 71 74  1  0  0  0
 71145  1  0  0  0
 72 75  1  0  0  0
 72 78  1  0  0  0
 73 75  2  0  0  0
 73 76  1  0  0  0
 73 79  1  0  0  0
 74 76  2  0  0  0
 74 82  1  0  0  0
 75 83  1  0  0  0
 76 85  1  0  0  0
 77 81  1  0  0  0
 77 83  1  0  0  0
 77 84  2  0  0  0
 78146  1  0  0  0
 78147  1  0  0  0
 78148  1  0  0  0
 79149  1  0  0  0
 79150  1  0  0  0
 79151  1  0  0  0
 80 83  1  0  0  0
 80152  1  0  0  0
 80153  1  0  0  0
 80154  1  0  0  0
 81155  1  0  0  0
 81156  1  0  0  0
 82157  1  0  0  0
M  ISO  4   1 100  68 101  81 101  82 100
M  END
> <chiral flag>
0

> <version>
0

> <s_m_source_file>
/data/baiqing/PycharmProjects/Reinvent-master-3.2/result/LINK_invent/BTK/process_docking_weight1_custom_sum_contain_oxygen_bond_distance_aromatic_linkinvent_7_9_3/rearranged_h_0012.sdf

> <i_m_source_file_index>
62

> <r_mmod_Potential_Energy-OPLS-2005>
569.210510253906

> <r_mmod_Stretch_Energy-OPLS-2005>
241.270660400391

> <r_mmod_Bend_Energy-OPLS-2005>
255.884155273438

> <r_mmod_Torsional_Energy-OPLS-2005>
319.878387451172

> <r_mmod_Improper_Torsional_Energy-OPLS-2005>
8.39181900024414

> <r_mmod_Van_der_Waal_Energy-OPLS-2005>
132.930526733398

> <r_mmod_Electrostatic_Energy-OPLS-2005>
-361.247985839844

> <r_mmod_Solvation_Energy-OPLS-2005>
-221.249496459961

> <b_mmod_Minimization_Converged-OPLS-2005>
0

> <r_mmod_RMS_Derivative-OPLS-2005>
6.84520483016968

$$$$
63
                    3D
 Structure written by MMmdl.
161168  0  0  1  0            999 V2000
  -30.7157  -14.4081   20.6148 C   0  0  0  0  0  0
  -30.4259  -12.2817   19.4051 C   0  0  0  0  0  0
  -29.4911  -12.4998   18.1984 C   0  0  0  0  0  0
  -28.0108  -12.3692   18.6107 C   0  0  0  0  0  0
  -27.6665  -13.1974   19.8775 C   0  0  2  0  0  0
  -28.7060  -12.9358   20.9888 C   0  0  0  0  0  0
  -25.2632  -13.8150   20.5646 C   0  0  0  0  0  0
  -24.1864  -13.0449   20.9129 C   0  0  0  0  0  0
  -24.6411  -11.6912   20.8715 C   0  0  0  0  0  0
  -23.9066  -10.4310   21.0380 C   0  0  0  0  0  0
  -24.3620   -9.4239   21.9166 C   0  0  0  0  0  0
  -23.6299   -8.2279   22.0763 C   0  0  0  0  0  0
  -22.4291   -8.0302   21.3545 C   0  0  0  0  0  0
  -21.9913   -9.0273   20.4660 C   0  0  0  0  0  0
  -22.7227  -10.2152   20.3050 C   0  0  0  0  0  0
  -21.6889   -6.0749   22.5266 C   0  0  0  0  0  0
  -21.4042   -6.5649   23.8197 C   0  0  0  0  0  0
  -21.3642   -5.6790   24.9150 C   0  0  0  0  0  0
  -21.6051   -4.3055   24.7208 C   0  0  0  0  0  0
  -21.8826   -3.8158   23.4325 C   0  0  0  0  0  0
  -21.9218   -4.6980   22.3388 C   0  0  0  0  0  0
  -22.7893  -13.5266   21.1798 C   0  0  0  0  0  0
  -22.1676   -4.2160   21.0966 F   0  0  0  0  0  0
  -21.5625   -3.4539   25.7720 F   0  0  0  0  0  0
  -30.0366  -13.2443   20.4450 N   0  0  0  0  0  0
  -26.3061  -12.9302   20.3366 N   0  0  0  0  0  0
  -25.9331  -11.6470   20.5752 N   0  0  0  0  0  0
  -22.0552  -12.8244   22.0356 N   0  0  0  0  0  0
  -25.4407  -15.1867   20.4076 N   0  0  0  0  0  0
  -31.8714  -14.5476   20.1916 O   0  0  0  0  0  0
  -21.6671   -6.8885   21.4230 O   0  0  0  0  0  0
  -22.3565  -14.5571   20.6669 O   0  0  0  0  0  0
  -24.6093  -31.8687   23.2107 C   0  0  0  0  0  0
  -25.9002  -32.4828   23.8400 C   0  0  1  0  0  0
  -27.2576  -27.4926   20.0914 C   0  0  0  0  0  0
  -25.5886  -33.8631   24.2347 N   0  0  0  0  0  0
  -23.3984  -30.4900   21.5458 C   0  0  2  0  0  0
  -24.8533  -28.9563   20.1168 C   0  0  0  0  0  0
  -22.7377  -29.4671   22.4973 C   0  0  0  0  0  0
  -18.0269  -28.1384   22.8474 C   0  0  0  0  0  0
  -24.1496  -36.7334   23.2633 C   0  0  0  0  0  0
  -25.9175  -30.8521   21.3550 C   0  0  0  0  0  0
  -26.0039  -29.4849   20.7148 C   0  0  0  0  0  0
  -27.2074  -28.7543   20.7127 C   0  0  0  0  0  0
  -26.0957  -26.9565   19.4991 C   0  0  0  0  0  0
  -24.8895  -27.6857   19.5106 C   0  0  0  0  0  0
  -23.6090  -29.8133   20.1631 C   0  0  0  0  0  0
  -25.4098  -36.3121   24.0347 C   0  0  1  0  0  0
  -20.5857  -28.3674   23.1300 C   0  0  2  0  0  0
  -20.6769  -26.9412   22.5408 C   0  0  0  0  0  0
  -19.5757  -26.6399   21.5190 C   0  0  0  0  0  0
  -18.1928  -26.7939   22.1594 C   0  0  0  0  0  0
  -19.1519  -28.8838   23.2898 C   0  0  0  0  0  0
  -18.9462  -30.1446   23.8907 C   0  0  0  0  0  0
  -17.6469  -30.6586   24.0569 C   0  0  0  0  0  0
  -25.9015  -34.9482   23.5137 C   0  0  0  0  0  0
  -16.5355  -29.9090   23.6334 C   0  0  0  0  0  0
  -16.7262  -28.6515   23.0332 C   0  0  0  0  0  0
  -26.4474  -31.6583   25.0695 C   0  0  0  0  0  0
  -25.3789  -31.3655   26.1478 C   0  0  0  0  0  0
  -27.0291  -30.3040   24.6010 C   0  0  0  0  0  0
  -27.6069  -32.4285   25.7441 C   0  0  0  0  0  0
  -27.5588  -37.1807   24.8461 C   0  0  0  0  0  0
  -21.4113  -29.3047   22.3709 N   0  0  0  0  0  0
  -26.4290  -37.3794   23.9420 N   0  0  0  0  0  0
  -24.6587  -31.0836   22.0973 N   0  0  0  0  0  0
  -23.4151  -28.8220   23.3023 O   0  0  0  0  0  0
  -28.4253  -26.7830   20.0880 O   0  0  0  0  0  0
  -26.5571  -34.8922   22.4696 O   0  0  0  0  0  0
  -23.5296  -32.1417   23.7523 O   0  0  0  0  0  0
  -30.0653  -16.8097   20.2352 C   0  0  0  0  0  0
  -28.8277  -21.9157   18.2199 C   0  0  0  0  0  0
  -29.4498  -18.4064   22.0469 C   0  0  0  0  0  0
  -30.0101  -15.6374   21.2410 C   0  0  0  0  0  0
  -29.6651  -20.6955   17.8415 C   0  0  0  0  0  0
  -29.3328  -19.4375   18.6600 C   0  0  0  0  0  0
  -29.8269  -25.4871   18.6542 C   0  0  0  0  0  0
  -30.2698  -19.2415   19.8706 C   0  0  0  0  0  0
  -28.7981  -24.3636   18.4771 C   0  0  0  0  0  0
  -29.1520  -26.8427   18.8691 C   0  0  0  0  0  0
  -29.4584  -23.0896   18.2405 N   0  0  0  0  0  0
  -29.9166  -18.0779   20.6975 N   0  0  0  0  0  0
  -30.2543  -16.5964   19.0311 O   0  0  0  0  0  0
  -27.6234  -21.8064   18.4577 O   0  0  0  0  0  0
  -31.4667  -12.3898   19.0948 H   0  0  0  0  0  0
  -30.3342  -11.2631   19.7847 H   0  0  0  0  0  0
  -29.7213  -11.7812   17.4108 H   0  0  0  0  0  0
  -29.6648  -13.4895   17.7738 H   0  0  0  0  0  0
  -27.8107  -11.3124   18.7918 H   0  0  0  0  0  0
  -27.3610  -12.6541   17.7838 H   0  0  0  0  0  0
  -27.7241  -14.2512   19.6030 H   0  0  0  0  0  0
  -28.6745  -11.8867   21.2898 H   0  0  0  0  0  0
  -28.4700  -13.4869   21.8973 H   0  0  0  0  0  0
  -25.2778   -9.5749   22.4708 H   0  0  0  0  0  0
  -24.0044   -7.4694   22.7491 H   0  0  0  0  0  0
  -21.0850   -8.8775   19.8954 H   0  0  0  0  0  0
  -22.3678  -10.9688   19.6152 H   0  0  0  0  0  0
  -21.2028   -7.6155   23.9689 H   0  0  0  0  0  0
  -21.1457   -6.0523   25.9037 H   0  0  0  0  0  0
  -22.0629   -2.7629   23.2824 H   0  0  0  0  0  0
  -22.4218  -11.9899   22.4708 H   0  0  0  0  0  0
  -21.1184  -13.1277   22.2582 H   0  0  0  0  0  0
  -24.6858  -15.8508   20.5379 H   0  0  0  0  0  0
  -26.3001  -15.6243   20.1018 H   0  0  0  0  0  0
  -26.7076  -32.5580   23.1171 H   0  0  0  0  0  0
  -25.0087  -33.9803   25.0531 H   0  0  0  0  0  0
  -22.6862  -31.3039   21.3974 H   0  0  0  0  0  0
  -23.3751  -35.9678   23.3292 H   0  0  0  0  0  0
  -24.3605  -36.8949   22.2051 H   0  0  0  0  0  0
  -23.7258  -37.6546   23.6639 H   0  0  0  0  0  0
  -26.0104  -31.6119   20.5777 H   0  0  0  0  0  0
  -26.8122  -30.9226   21.9611 H   0  0  0  0  0  0
  -28.0987  -29.1569   21.1743 H   0  0  0  0  0  0
  -26.1313  -25.9826   19.0330 H   0  0  0  0  0  0
  -24.0062  -27.2665   19.0491 H   0  0  0  0  0  0
  -23.7094  -30.5803   19.3939 H   0  0  0  0  0  0
  -22.7414  -29.2196   19.8729 H   0  0  0  0  0  0
  -25.1270  -36.1988   25.0842 H   0  0  0  0  0  0
  -20.9957  -28.3258   24.1414 H   0  0  0  0  0  0
  -20.5657  -26.2288   23.3599 H   0  0  0  0  0  0
  -21.6645  -26.7455   22.1207 H   0  0  0  0  0  0
  -19.6936  -25.6309   21.1220 H   0  0  0  0  0  0
  -19.6721  -27.3217   20.6721 H   0  0  0  0  0  0
  -17.4210  -26.6691   21.3989 H   0  0  0  0  0  0
  -18.0340  -26.0063   22.8974 H   0  0  0  0  0  0
  -19.7933  -30.7260   24.2286 H   0  0  0  0  0  0
  -17.5018  -31.6265   24.5179 H   0  0  0  0  0  0
  -15.5358  -30.3002   23.7645 H   0  0  0  0  0  0
  -15.8660  -28.0847   22.7023 H   0  0  0  0  0  0
  -24.5969  -30.6978   25.7838 H   0  0  0  0  0  0
  -24.8972  -32.2800   26.4960 H   0  0  0  0  0  0
  -25.8204  -30.8822   27.0208 H   0  0  0  0  0  0
  -26.2786  -29.6767   24.1178 H   0  0  0  0  0  0
  -27.4223  -29.7293   25.4409 H   0  0  0  0  0  0
  -27.8555  -30.4379   23.9019 H   0  0  0  0  0  0
  -27.2702  -33.3553   26.2099 H   0  0  0  0  0  0
  -28.3837  -32.6897   25.0240 H   0  0  0  0  0  0
  -28.0794  -31.8361   26.5287 H   0  0  0  0  0  0
  -28.2588  -38.0115   24.7511 H   0  0  0  0  0  0
  -28.1097  -36.2651   24.6271 H   0  0  0  0  0  0
  -27.2318  -37.1442   25.8865 H   0  0  0  0  0  0
  -20.9272  -29.8765   21.6933 H   0  0  0  0  0  0
  -26.0193  -38.2875   24.1434 H   0  0  0  0  0  0
  -28.8075  -17.6390   22.4794 H   0  0  0  0  0  0
  -28.8535  -19.3195   22.0317 H   0  0  0  0  0  0
  -30.2957  -18.5715   22.7159 H   0  0  0  0  0  0
  -28.9634  -15.4783   21.4805 H   0  0  0  0  0  0
  -30.5226  -15.8975   22.1668 H   0  0  0  0  0  0
  -30.7324  -20.9197   17.9059 H   0  0  0  0  0  0
  -29.4718  -20.4958   16.7880 H   0  0  0  0  0  0
  -29.4070  -18.5965   17.9731 H   0  0  0  0  0  0
  -28.2954  -19.4401   18.9960 H   0  0  0  0  0  0
  -30.4674  -25.5395   17.7718 H   0  0  0  0  0  0
  -30.4772  -25.2641   19.5007 H   0  0  0  0  0  0
  -30.2803  -20.1481   20.4782 H   0  0  0  0  0  0
  -31.2971  -19.1190   19.5198 H   0  0  0  0  0  0
  -28.1366  -24.5878   17.6378 H   0  0  0  0  0  0
  -28.1679  -24.2905   19.3643 H   0  0  0  0  0  0
  -28.5188  -27.0880   18.0142 H   0  0  0  0  0  0
  -29.9034  -27.6300   18.9430 H   0  0  0  0  0  0
  -30.4478  -23.1023   18.0311 H   0  0  0  0  0  0
  1 25  1  0  0  0
  1 30  2  0  0  0
  1 74  1  0  0  0
  2  3  1  0  0  0
  2 25  1  0  0  0
  2 85  1  0  0  0
  2 86  1  0  0  0
  3  4  1  0  0  0
  3 87  1  0  0  0
  3 88  1  0  0  0
  4  5  1  0  0  0
  4 89  1  0  0  0
  4 90  1  0  0  0
  5  6  1  0  0  0
  5 26  1  0  0  0
  5 91  1  0  0  0
  6 25  1  0  0  0
  6 92  1  0  0  0
  6 93  1  0  0  0
  7  8  2  0  0  0
  7 26  1  0  0  0
  7 29  1  0  0  0
  8  9  1  0  0  0
  8 22  1  0  0  0
  9 10  1  0  0  0
  9 27  2  0  0  0
 10 11  2  0  0  0
 10 15  1  0  0  0
 11 12  1  0  0  0
 11 94  1  0  0  0
 12 13  2  0  0  0
 12 95  1  0  0  0
 13 14  1  0  0  0
 13 31  1  0  0  0
 14 15  2  0  0  0
 14 96  1  0  0  0
 15 97  1  0  0  0
 16 17  2  0  0  0
 16 21  1  0  0  0
 16 31  1  0  0  0
 17 18  1  0  0  0
 17 98  1  0  0  0
 18 19  2  0  0  0
 18 99  1  0  0  0
 19 20  1  0  0  0
 19 24  1  0  0  0
 20 21  2  0  0  0
 20100  1  0  0  0
 21 23  1  0  0  0
 22 28  1  0  0  0
 22 32  2  0  0  0
 26 27  1  0  0  0
 28101  1  0  0  0
 28102  1  0  0  0
 29103  1  0  0  0
 29104  1  0  0  0
 33 34  1  0  0  0
 33 66  1  0  0  0
 33 70  2  0  0  0
 34 36  1  0  0  0
 34 59  1  0  0  0
 34105  1  0  0  0
 35 44  2  0  0  0
 35 45  1  0  0  0
 35 68  1  0  0  0
 36 56  1  0  0  0
 36106  1  0  0  0
 37 39  1  0  0  0
 37 47  1  0  0  0
 37 66  1  0  0  0
 37107  1  0  0  0
 38 43  2  0  0  0
 38 46  1  0  0  0
 38 47  1  0  0  0
 39 64  1  0  0  0
 39 67  2  0  0  0
 40 52  1  0  0  0
 40 53  2  0  0  0
 40 58  1  0  0  0
 41108  1  0  0  0
 41109  1  0  0  0
 41110  1  0  0  0
 41 48  1  0  0  0
 42 43  1  0  0  0
 42 66  1  0  0  0
 42111  1  0  0  0
 42112  1  0  0  0
 43 44  1  0  0  0
 44113  1  0  0  0
 45 46  2  0  0  0
 45114  1  0  0  0
 46115  1  0  0  0
 47116  1  0  0  0
 47117  1  0  0  0
 48 56  1  0  0  0
 48 65  1  0  0  0
 48118  1  0  0  0
 49 50  1  0  0  0
 49 53  1  0  0  0
 49 64  1  0  0  0
 49119  1  0  0  0
 50 51  1  0  0  0
 50120  1  0  0  0
 50121  1  0  0  0
 51 52  1  0  0  0
 51122  1  0  0  0
 51123  1  0  0  0
 52124  1  0  0  0
 52125  1  0  0  0
 53 54  1  0  0  0
 54 55  2  0  0  0
 54126  1  0  0  0
 55 57  1  0  0  0
 55127  1  0  0  0
 56 69  2  0  0  0
 57 58  2  0  0  0
 57128  1  0  0  0
 58129  1  0  0  0
 59 60  1  0  0  0
 59 61  1  0  0  0
 59 62  1  0  0  0
 60130  1  0  0  0
 60131  1  0  0  0
 60132  1  0  0  0
 61133  1  0  0  0
 61134  1  0  0  0
 61135  1  0  0  0
 62136  1  0  0  0
 62137  1  0  0  0
 62138  1  0  0  0
 63 65  1  0  0  0
 63139  1  0  0  0
 63140  1  0  0  0
 63141  1  0  0  0
 64142  1  0  0  0
 65143  1  0  0  0
 68 80  1  0  0  0
 71 74  1  0  0  0
 71 82  1  0  0  0
 71 83  2  0  0  0
 72 75  1  0  0  0
 72 81  1  0  0  0
 72 84  2  0  0  0
 73 82  1  0  0  0
 73144  1  0  0  0
 73145  1  0  0  0
 73146  1  0  0  0
 74147  1  0  0  0
 74148  1  0  0  0
 75 76  1  0  0  0
 75149  1  0  0  0
 75150  1  0  0  0
 76 78  1  0  0  0
 76151  1  0  0  0
 76152  1  0  0  0
 77 79  1  0  0  0
 77 80  1  0  0  0
 77153  1  0  0  0
 77154  1  0  0  0
 78 82  1  0  0  0
 78155  1  0  0  0
 78156  1  0  0  0
 79 81  1  0  0  0
 79157  1  0  0  0
 79158  1  0  0  0
 80159  1  0  0  0
 80160  1  0  0  0
 81161  1  0  0  0
M  ISO  4   1 100  68 101  74 100  80 101
M  END
> <chiral flag>
0

> <version>
0

> <s_m_source_file>
/data/baiqing/PycharmProjects/Reinvent-master-3.2/result/LINK_invent/BTK/process_docking_weight1_custom_sum_contain_oxygen_bond_distance_aromatic_linkinvent_7_9_3/rearranged_h_0012.sdf

> <i_m_source_file_index>
63

> <r_mmod_Potential_Energy-OPLS-2005>
-106.278953552246

> <r_mmod_Stretch_Energy-OPLS-2005>
32.2880096435547

> <r_mmod_Bend_Energy-OPLS-2005>
90.6149673461914

> <r_mmod_Torsional_Energy-OPLS-2005>
219.816177368164

> <r_mmod_Improper_Torsional_Energy-OPLS-2005>
2.57462286949158

> <r_mmod_Van_der_Waal_Energy-OPLS-2005>
153.06640625

> <r_mmod_Electrostatic_Energy-OPLS-2005>
-368.398315429688

> <r_mmod_Solvation_Energy-OPLS-2005>
-247.744750976562

> <b_mmod_Minimization_Converged-OPLS-2005>
0

> <r_mmod_RMS_Derivative-OPLS-2005>
2.8794276714325

$$$$
64
                    3D
 Structure written by MMmdl.
154162  0  0  1  0            999 V2000
  -30.4121  -15.3830   20.3410 C   0  0  0  0  0  0
  -30.4319  -12.8905   19.5377 C   0  0  0  0  0  0
  -29.5409  -12.6012   18.3019 C   0  0  0  0  0  0
  -28.0963  -12.3017   18.7327 C   0  0  0  0  0  0
  -27.6062  -13.2897   19.8191 C   0  0  2  0  0  0
  -28.6335  -13.5219   20.9498 C   0  0  0  0  0  0
  -25.2366  -13.8271   20.5764 C   0  0  0  0  0  0
  -24.1735  -13.0442   20.9270 C   0  0  0  0  0  0
  -24.6412  -11.6946   20.8762 C   0  0  0  0  0  0
  -23.9111  -10.4298   21.0405 C   0  0  0  0  0  0
  -24.3649   -9.4210   21.9185 C   0  0  0  0  0  0
  -23.6309   -8.2252   22.0758 C   0  0  0  0  0  0
  -22.4286   -8.0295   21.3554 C   0  0  0  0  0  0
  -21.9932   -9.0272   20.4655 C   0  0  0  0  0  0
  -22.7278  -10.2142   20.3059 C   0  0  0  0  0  0
  -21.6854   -6.0745   22.5281 C   0  0  0  0  0  0
  -21.4021   -6.5646   23.8216 C   0  0  0  0  0  0
  -21.3660   -5.6794   24.9173 C   0  0  0  0  0  0
  -21.6043   -4.3057   24.7221 C   0  0  0  0  0  0
  -21.8819   -3.8154   23.4341 C   0  0  0  0  0  0
  -21.9192   -4.6973   22.3399 C   0  0  0  0  0  0
  -22.7750  -13.5185   21.1906 C   0  0  0  0  0  0
  -22.1662   -4.2162   21.0974 F   0  0  0  0  0  0
  -21.5622   -3.4538   25.7733 F   0  0  0  0  0  0
  -29.8521  -14.0589   20.3162 N   0  0  0  0  0  0
  -26.2802  -12.9574   20.3217 N   0  0  0  0  0  0
  -25.9350  -11.6664   20.5713 N   0  0  0  0  0  0
  -22.0403  -12.8168   22.0457 N   0  0  0  0  0  0
  -25.3982  -15.2010   20.4214 N   0  0  0  0  0  0
  -31.6367  -15.3274   20.1469 O   0  0  0  0  0  0
  -21.6645   -6.8894   21.4248 O   0  0  0  0  0  0
  -22.3432  -14.5481   20.6733 O   0  0  0  0  0  0
  -24.6692  -31.8157   23.1645 C   0  0  0  0  0  0
  -25.9341  -32.4546   23.8137 C   0  0  1  0  0  0
  -27.2220  -26.8536   20.1961 C   0  0  0  0  0  0
  -25.5979  -33.8365   24.2037 N   0  0  0  0  0  0
  -23.4883  -30.4237   21.5144 C   0  0  2  0  0  0
  -24.9447  -28.7954   20.1128 C   0  0  0  0  0  0
  -22.7696  -29.4398   22.4752 C   0  0  0  0  0  0
  -18.0328  -28.1410   22.8462 C   0  0  0  0  0  0
  -24.1500  -36.7193   23.2650 C   0  0  0  0  0  0
  -26.0611  -30.5977   21.4067 C   0  0  0  0  0  0
  -26.1291  -29.1791   20.7536 C   0  0  0  0  0  0
  -27.2582  -28.2301   20.7700 C   0  0  0  0  0  0
  -26.0102  -26.6428   19.4982 C   0  0  0  0  0  0
  -24.9155  -27.5501   19.4631 C   0  0  0  0  0  0
  -23.7340  -29.7325   20.1437 C   0  0  0  0  0  0
  -25.4144  -36.2944   24.0292 C   0  0  1  0  0  0
  -20.5954  -28.3765   23.1171 C   0  0  2  0  0  0
  -20.6803  -26.9439   22.5401 C   0  0  0  0  0  0
  -19.5779  -26.6376   21.5212 C   0  0  0  0  0  0
  -18.1961  -26.7942   22.1618 C   0  0  0  0  0  0
  -19.1589  -28.8908   23.2802 C   0  0  0  0  0  0
  -18.9499  -30.1494   23.8844 C   0  0  0  0  0  0
  -17.6491  -30.6598   24.0554 C   0  0  0  0  0  0
  -25.9109  -34.9326   23.4990 C   0  0  0  0  0  0
  -16.5382  -29.9084   23.6343 C   0  0  0  0  0  0
  -16.7308  -28.6504   23.0362 C   0  0  0  0  0  0
  -26.4571  -31.6520   25.0695 C   0  0  0  0  0  0
  -25.3680  -31.3788   26.1340 C   0  0  0  0  0  0
  -27.0478  -30.2878   24.6481 C   0  0  0  0  0  0
  -27.6051  -32.4341   25.7502 C   0  0  0  0  0  0
  -27.5571  -37.1756   24.8464 C   0  0  0  0  0  0
  -21.4358  -29.3039   22.3506 N   0  0  0  0  0  0
  -26.4283  -37.3685   23.9398 N   0  0  0  0  0  0
  -24.7613  -30.9749   22.0818 N   0  0  0  0  0  0
  -23.4210  -28.7978   23.3030 O   0  0  0  0  0  0
  -28.2019  -25.7051   20.2969 O   0  0  0  0  0  0
  -26.5731  -34.8873   22.4594 O   0  0  0  0  0  0
  -23.5743  -32.1159   23.6691 O   0  0  0  0  0  0
  -32.1658  -19.1336   20.0346 C   0  0  0  0  0  0
  -30.5501  -20.0663   21.6058 C   0  0  0  0  0  0
  -31.8915  -19.8252   21.2338 C   0  0  0  0  0  0
  -31.1390  -18.4117   19.3924 C   0  0  0  0  0  0
  -29.5353  -19.7208   20.6877 C   0  0  0  0  0  0
  -29.8976  -18.2997   20.0611 C   0  0  0  0  0  0
  -28.8942  -22.6206   20.5313 C   0  0  0  0  0  0
  -33.0255  -20.4465   22.0235 C   0  0  0  0  0  0
  -31.4616  -17.6237   18.1341 C   0  0  0  0  0  0
  -27.9631  -24.0596   20.0095 C   0  0  0  0  0  0
  -28.8237  -21.1383   20.1987 N   0  0  0  0  0  0
  -29.6726  -16.7035   20.4405 N   0  0  0  0  0  0
  -29.7733  -22.9408   21.3342 O   0  0  0  0  0  0
  -31.4471  -13.0993   19.1983 H   0  0  0  0  0  0
  -30.5185  -12.0043   20.1686 H   0  0  0  0  0  0
  -29.9435  -11.7661   17.7275 H   0  0  0  0  0  0
  -29.5531  -13.4661   17.6368 H   0  0  0  0  0  0
  -28.0743  -11.2853   19.1278 H   0  0  0  0  0  0
  -27.4281  -12.3109   17.8710 H   0  0  0  0  0  0
  -27.5035  -14.2418   19.2967 H   0  0  0  0  0  0
  -28.8278  -12.6072   21.5114 H   0  0  0  0  0  0
  -28.2501  -14.2511   21.6652 H   0  0  0  0  0  0
  -25.2796   -9.5679   22.4761 H   0  0  0  0  0  0
  -24.0016   -7.4639   22.7475 H   0  0  0  0  0  0
  -21.0864   -8.8802   19.8956 H   0  0  0  0  0  0
  -22.3745  -10.9682   19.6167 H   0  0  0  0  0  0
  -21.2026   -7.6157   23.9724 H   0  0  0  0  0  0
  -21.1477   -6.0522   25.9075 H   0  0  0  0  0  0
  -22.0596   -2.7618   23.2830 H   0  0  0  0  0  0
  -22.4030  -11.9845   22.4864 H   0  0  0  0  0  0
  -21.1017  -13.1187   22.2659 H   0  0  0  0  0  0
  -24.6263  -15.8487   20.5384 H   0  0  0  0  0  0
  -26.2372  -15.6452   20.0726 H   0  0  0  0  0  0
  -26.7410  -32.5066   23.0848 H   0  0  0  0  0  0
  -25.0059  -33.9434   25.0141 H   0  0  0  0  0  0
  -22.8053  -31.2568   21.3363 H   0  0  0  0  0  0
  -23.3769  -35.9516   23.3279 H   0  0  0  0  0  0
  -24.3578  -36.8876   22.2070 H   0  0  0  0  0  0
  -23.7256  -37.6369   23.6734 H   0  0  0  0  0  0
  -26.2474  -31.3331   20.6231 H   0  0  0  0  0  0
  -26.9185  -30.6601   22.0648 H   0  0  0  0  0  0
  -28.1497  -28.5211   21.3072 H   0  0  0  0  0  0
  -25.8709  -25.6929   19.0028 H   0  0  0  0  0  0
  -24.0177  -27.2506   18.9399 H   0  0  0  0  0  0
  -23.8976  -30.4980   19.3841 H   0  0  0  0  0  0
  -22.8422  -29.1912   19.8228 H   0  0  0  0  0  0
  -25.1348  -36.1731   25.0785 H   0  0  0  0  0  0
  -21.0043  -28.3383   24.1295 H   0  0  0  0  0  0
  -20.5676  -26.2386   23.3650 H   0  0  0  0  0  0
  -21.6667  -26.7404   22.1215 H   0  0  0  0  0  0
  -19.6941  -25.6272   21.1280 H   0  0  0  0  0  0
  -19.6718  -27.3152   20.6715 H   0  0  0  0  0  0
  -17.4229  -26.6679   21.4024 H   0  0  0  0  0  0
  -18.0357  -26.0097   22.9027 H   0  0  0  0  0  0
  -19.7974  -30.7321   24.2195 H   0  0  0  0  0  0
  -17.5042  -31.6274   24.5166 H   0  0  0  0  0  0
  -15.5380  -30.2969   23.7696 H   0  0  0  0  0  0
  -15.8710  -28.0803   22.7111 H   0  0  0  0  0  0
  -24.5871  -30.7134   25.7640 H   0  0  0  0  0  0
  -24.8863  -32.2995   26.4640 H   0  0  0  0  0  0
  -25.7894  -30.9027   27.0202 H   0  0  0  0  0  0
  -26.3159  -29.6530   24.1476 H   0  0  0  0  0  0
  -27.3967  -29.7273   25.5164 H   0  0  0  0  0  0
  -27.9118  -30.4038   23.9936 H   0  0  0  0  0  0
  -27.2616  -33.3689   26.1944 H   0  0  0  0  0  0
  -28.3938  -32.6825   25.0387 H   0  0  0  0  0  0
  -28.0639  -31.8558   26.5532 H   0  0  0  0  0  0
  -28.2567  -38.0069   24.7500 H   0  0  0  0  0  0
  -28.1086  -36.2592   24.6307 H   0  0  0  0  0  0
  -27.2280  -37.1414   25.8865 H   0  0  0  0  0  0
  -20.9627  -29.8718   21.6614 H   0  0  0  0  0  0
  -26.0123  -38.2743   24.1397 H   0  0  0  0  0  0
  -33.1760  -19.0933   19.6496 H   0  0  0  0  0  0
  -30.3840  -20.8207   22.3602 H   0  0  0  0  0  0
  -33.9007  -19.7953   22.0227 H   0  0  0  0  0  0
  -32.7362  -20.6172   23.0607 H   0  0  0  0  0  0
  -33.3109  -21.4040   21.5871 H   0  0  0  0  0  0
  -31.6723  -18.3107   17.3139 H   0  0  0  0  0  0
  -30.6285  -16.9913   17.8272 H   0  0  0  0  0  0
  -32.3425  -16.9973   18.2772 H   0  0  0  0  0  0
  -26.9517  -23.8610   20.3636 H   0  0  0  0  0  0
  -27.8934  -23.9683   18.9257 H   0  0  0  0  0  0
  -28.1327  -20.9797   19.4778 H   0  0  0  0  0  0
  -28.7318  -16.5353   20.7654 H   0  0  0  0  0  0
  1 25  1  0  0  0
  1 30  2  0  0  0
  1 82  1  0  0  0
  2  3  1  0  0  0
  2 25  1  0  0  0
  2 84  1  0  0  0
  2 85  1  0  0  0
  3  4  1  0  0  0
  3 86  1  0  0  0
  3 87  1  0  0  0
  4  5  1  0  0  0
  4 88  1  0  0  0
  4 89  1  0  0  0
  5  6  1  0  0  0
  5 26  1  0  0  0
  5 90  1  0  0  0
  6 25  1  0  0  0
  6 91  1  0  0  0
  6 92  1  0  0  0
  7  8  2  0  0  0
  7 26  1  0  0  0
  7 29  1  0  0  0
  8  9  1  0  0  0
  8 22  1  0  0  0
  9 10  1  0  0  0
  9 27  2  0  0  0
 10 11  2  0  0  0
 10 15  1  0  0  0
 11 12  1  0  0  0
 11 93  1  0  0  0
 12 13  2  0  0  0
 12 94  1  0  0  0
 13 14  1  0  0  0
 13 31  1  0  0  0
 14 15  2  0  0  0
 14 95  1  0  0  0
 15 96  1  0  0  0
 16 17  2  0  0  0
 16 21  1  0  0  0
 16 31  1  0  0  0
 17 18  1  0  0  0
 17 97  1  0  0  0
 18 19  2  0  0  0
 18 98  1  0  0  0
 19 20  1  0  0  0
 19 24  1  0  0  0
 20 21  2  0  0  0
 20 99  1  0  0  0
 21 23  1  0  0  0
 22 28  1  0  0  0
 22 32  2  0  0  0
 26 27  1  0  0  0
 28100  1  0  0  0
 28101  1  0  0  0
 29102  1  0  0  0
 29103  1  0  0  0
 33 34  1  0  0  0
 33 66  1  0  0  0
 33 70  2  0  0  0
 34 36  1  0  0  0
 34 59  1  0  0  0
 34104  1  0  0  0
 35 44  2  0  0  0
 35 45  1  0  0  0
 35 68  1  0  0  0
 36 56  1  0  0  0
 36105  1  0  0  0
 37 39  1  0  0  0
 37 47  1  0  0  0
 37 66  1  0  0  0
 37106  1  0  0  0
 38 43  2  0  0  0
 38 46  1  0  0  0
 38 47  1  0  0  0
 39 64  1  0  0  0
 39 67  2  0  0  0
 40 52  1  0  0  0
 40 53  2  0  0  0
 40 58  1  0  0  0
 41107  1  0  0  0
 41108  1  0  0  0
 41109  1  0  0  0
 41 48  1  0  0  0
 42 43  1  0  0  0
 42 66  1  0  0  0
 42110  1  0  0  0
 42111  1  0  0  0
 43 44  1  0  0  0
 44112  1  0  0  0
 45 46  2  0  0  0
 45113  1  0  0  0
 46114  1  0  0  0
 47115  1  0  0  0
 47116  1  0  0  0
 48 56  1  0  0  0
 48 65  1  0  0  0
 48117  1  0  0  0
 49 50  1  0  0  0
 49 53  1  0  0  0
 49 64  1  0  0  0
 49118  1  0  0  0
 50 51  1  0  0  0
 50119  1  0  0  0
 50120  1  0  0  0
 51 52  1  0  0  0
 51121  1  0  0  0
 51122  1  0  0  0
 52123  1  0  0  0
 52124  1  0  0  0
 53 54  1  0  0  0
 54 55  2  0  0  0
 54125  1  0  0  0
 55 57  1  0  0  0
 55126  1  0  0  0
 56 69  2  0  0  0
 57 58  2  0  0  0
 57127  1  0  0  0
 58128  1  0  0  0
 59 60  1  0  0  0
 59 61  1  0  0  0
 59 62  1  0  0  0
 60129  1  0  0  0
 60130  1  0  0  0
 60131  1  0  0  0
 61132  1  0  0  0
 61133  1  0  0  0
 61134  1  0  0  0
 62135  1  0  0  0
 62136  1  0  0  0
 62137  1  0  0  0
 63 65  1  0  0  0
 63138  1  0  0  0
 63139  1  0  0  0
 63140  1  0  0  0
 64141  1  0  0  0
 65142  1  0  0  0
 68 80  1  0  0  0
 71 73  2  0  0  0
 71 74  1  0  0  0
 71143  1  0  0  0
 72 73  1  0  0  0
 72 75  2  0  0  0
 72144  1  0  0  0
 73 78  1  0  0  0
 74 76  2  0  0  0
 74 79  1  0  0  0
 75 76  1  0  0  0
 75 81  1  0  0  0
 76 82  1  0  0  0
 77 80  1  0  0  0
 77 81  1  0  0  0
 77 83  2  0  0  0
 78145  1  0  0  0
 78146  1  0  0  0
 78147  1  0  0  0
 79148  1  0  0  0
 79149  1  0  0  0
 79150  1  0  0  0
 80151  1  0  0  0
 80152  1  0  0  0
 81153  1  0  0  0
 82154  1  0  0  0
M  ISO  4   1 100  68 101  80 101  82 100
M  END
> <chiral flag>
0

> <version>
0

> <s_m_source_file>
/data/baiqing/PycharmProjects/Reinvent-master-3.2/result/LINK_invent/BTK/process_docking_weight1_custom_sum_contain_oxygen_bond_distance_aromatic_linkinvent_7_9_3/rearranged_h_0012.sdf

> <i_m_source_file_index>
64

> <r_mmod_Potential_Energy-OPLS-2005>
1770.24645996094

> <r_mmod_Stretch_Energy-OPLS-2005>
745.354248046875

> <r_mmod_Bend_Energy-OPLS-2005>
482.441253662109

> <r_mmod_Torsional_Energy-OPLS-2005>
473.418975830078

> <r_mmod_Improper_Torsional_Energy-OPLS-2005>
26.6417942047119

> <r_mmod_Van_der_Waal_Energy-OPLS-2005>
134.817749023438

> <r_mmod_Electrostatic_Energy-OPLS-2005>
-429.272338867188

> <r_mmod_Solvation_Energy-OPLS-2005>
-245.919372558594

> <b_mmod_Minimization_Converged-OPLS-2005>
0

> <r_mmod_RMS_Derivative-OPLS-2005>
0.821981906890869

$$$$
65
                    3D
 Structure written by MMmdl.
149157  0  0  1  0            999 V2000
  -30.5088  -14.8930   20.4436 C   0  0  0  0  0  0
  -30.4565  -12.5493   19.4910 C   0  0  0  0  0  0
  -29.5264  -12.5203   18.2531 C   0  0  0  0  0  0
  -28.0565  -12.3105   18.6701 C   0  0  0  0  0  0
  -27.6406  -13.2289   19.8481 C   0  0  2  0  0  0
  -28.6835  -13.1956   20.9869 C   0  0  0  0  0  0
  -25.2516  -13.8175   20.5678 C   0  0  0  0  0  0
  -24.1810  -13.0437   20.9224 C   0  0  0  0  0  0
  -24.6389  -11.6913   20.8758 C   0  0  0  0  0  0
  -23.9058  -10.4293   21.0415 C   0  0  0  0  0  0
  -24.3616   -9.4207   21.9185 C   0  0  0  0  0  0
  -23.6296   -8.2241   22.0754 C   0  0  0  0  0  0
  -22.4275   -8.0278   21.3546 C   0  0  0  0  0  0
  -21.9905   -9.0252   20.4648 C   0  0  0  0  0  0
  -22.7232  -10.2135   20.3062 C   0  0  0  0  0  0
  -21.6849   -6.0732   22.5279 C   0  0  0  0  0  0
  -21.4008   -6.5638   23.8213 C   0  0  0  0  0  0
  -21.3662   -5.6790   24.9173 C   0  0  0  0  0  0
  -21.6045   -4.3053   24.7224 C   0  0  0  0  0  0
  -21.8820   -3.8144   23.4347 C   0  0  0  0  0  0
  -21.9192   -4.6958   22.3402 C   0  0  0  0  0  0
  -22.7837  -13.5230   21.1882 C   0  0  0  0  0  0
  -22.1661   -4.2149   21.0980 F   0  0  0  0  0  0
  -21.5635   -3.4533   25.7736 F   0  0  0  0  0  0
  -29.9701  -13.6126   20.4088 N   0  0  0  0  0  0
  -26.2927  -12.9367   20.3244 N   0  0  0  0  0  0
  -25.9316  -11.6520   20.5743 N   0  0  0  0  0  0
  -22.0471  -12.8224   22.0434 N   0  0  0  0  0  0
  -25.4209  -15.1893   20.4050 N   0  0  0  0  0  0
  -31.6907  -15.0460   20.1128 O   0  0  0  0  0  0
  -21.6644   -6.8876   21.4242 O   0  0  0  0  0  0
  -22.3532  -14.5534   20.6722 O   0  0  0  0  0  0
  -24.6427  -31.8454   23.1908 C   0  0  0  0  0  0
  -25.9212  -32.4691   23.8281 C   0  0  1  0  0  0
  -27.2161  -27.1572   20.1413 C   0  0  0  0  0  0
  -25.5979  -33.8502   24.2199 N   0  0  0  0  0  0
  -23.4443  -30.4672   21.5366 C   0  0  2  0  0  0
  -24.8916  -28.8990   20.1103 C   0  0  0  0  0  0
  -22.7570  -29.4549   22.4868 C   0  0  0  0  0  0
  -18.0315  -28.1385   22.8480 C   0  0  0  0  0  0
  -24.1492  -36.7247   23.2638 C   0  0  0  0  0  0
  -26.0008  -30.7252   21.3871 C   0  0  0  0  0  0
  -26.0709  -29.3408   20.7238 C   0  0  0  0  0  0
  -27.2355  -28.4876   20.7196 C   0  0  0  0  0  0
  -26.0071  -26.8116   19.4955 C   0  0  0  0  0  0
  -24.8712  -27.6466   19.4817 C   0  0  0  0  0  0
  -23.6690  -29.8002   20.1547 C   0  0  0  0  0  0
  -25.4123  -36.3025   24.0316 C   0  0  1  0  0  0
  -20.5927  -28.3699   23.1245 C   0  0  2  0  0  0
  -20.6788  -26.9400   22.5412 C   0  0  0  0  0  0
  -19.5763  -26.6372   21.5214 C   0  0  0  0  0  0
  -18.1944  -26.7930   22.1615 C   0  0  0  0  0  0
  -19.1571  -28.8864   23.2852 C   0  0  0  0  0  0
  -18.9482  -30.1469   23.8858 C   0  0  0  0  0  0
  -17.6474  -30.6576   24.0564 C   0  0  0  0  0  0
  -25.9079  -34.9402   23.5060 C   0  0  0  0  0  0
  -16.5367  -29.9066   23.6340 C   0  0  0  0  0  0
  -16.7299  -28.6496   23.0346 C   0  0  0  0  0  0
  -26.4540  -31.6561   25.0719 C   0  0  0  0  0  0
  -25.3736  -31.3781   26.1429 C   0  0  0  0  0  0
  -27.0390  -30.2947   24.6309 C   0  0  0  0  0  0
  -27.6071  -32.4339   25.7486 C   0  0  0  0  0  0
  -27.5581  -37.1773   24.8464 C   0  0  0  0  0  0
  -21.4267  -29.3032   22.3619 N   0  0  0  0  0  0
  -26.4282  -37.3741   23.9415 N   0  0  0  0  0  0
  -24.7154  -31.0335   22.0928 N   0  0  0  0  0  0
  -23.4228  -28.8096   23.3007 O   0  0  0  0  0  0
  -28.2748  -26.1832   20.2028 O   0  0  0  0  0  0
  -26.5649  -34.8897   22.4628 O   0  0  0  0  0  0
  -23.5553  -32.1320   23.7151 O   0  0  0  0  0  0
  -30.4795  -18.4941   20.2537 C   0  0  0  0  0  0
  -28.2370  -18.0773   20.8445 C   0  0  0  0  0  0
  -29.5090  -17.4807   20.5850 C   0  0  0  0  0  0
  -28.8868  -20.5081   20.4354 C   0  0  0  0  0  0
  -30.1899  -19.9313   20.1868 C   0  0  0  0  0  0
  -27.9376  -19.4859   20.7708 C   0  0  0  0  0  0
  -28.9933  -23.3504   20.3055 C   0  0  0  0  0  0
  -27.9681  -24.6668   20.1034 C   0  0  0  0  0  0
  -29.6221  -15.9588   20.7038 N   0  0  0  0  0  0
  -28.4062  -21.9173   20.3628 N   0  0  0  0  0  0
  -31.2044  -20.7670   19.8541 F   0  0  0  0  0  0
  -26.3069  -19.9576   21.1128 Cl  0  0  0  0  0  0
  -31.4874  -12.7267   19.1803 H   0  0  0  0  0  0
  -30.4595  -11.5828   19.9970 H   0  0  0  0  0  0
  -29.8371  -11.7288   17.5694 H   0  0  0  0  0  0
  -29.6190  -13.4563   17.7011 H   0  0  0  0  0  0
  -27.9465  -11.2665   18.9666 H   0  0  0  0  0  0
  -27.3925  -12.4560   17.8174 H   0  0  0  0  0  0
  -27.6224  -14.2408   19.4437 H   0  0  0  0  0  0
  -28.7583  -12.1958   21.4175 H   0  0  0  0  0  0
  -28.3868  -13.8545   21.8045 H   0  0  0  0  0  0
  -25.2760   -9.5687   22.4759 H   0  0  0  0  0  0
  -24.0008   -7.4628   22.7465 H   0  0  0  0  0  0
  -21.0837   -8.8769   19.8953 H   0  0  0  0  0  0
  -22.3684  -10.9677   19.6178 H   0  0  0  0  0  0
  -21.1994   -7.6146   23.9714 H   0  0  0  0  0  0
  -21.1487   -6.0520   25.9079 H   0  0  0  0  0  0
  -22.0597   -2.7607   23.2842 H   0  0  0  0  0  0
  -22.4095  -11.9898   22.4837 H   0  0  0  0  0  0
  -21.1090  -13.1259   22.2637 H   0  0  0  0  0  0
  -24.6383  -15.8289   20.4874 H   0  0  0  0  0  0
  -26.2298  -15.6097   19.9686 H   0  0  0  0  0  0
  -26.7277  -32.5291   23.1007 H   0  0  0  0  0  0
  -25.0145  -33.9613   25.0359 H   0  0  0  0  0  0
  -22.7460  -31.2929   21.3857 H   0  0  0  0  0  0
  -23.3762  -35.9571   23.3284 H   0  0  0  0  0  0
  -24.3589  -36.8892   22.2057 H   0  0  0  0  0  0
  -23.7234  -37.6434   23.6685 H   0  0  0  0  0  0
  -26.1635  -31.4848   20.6213 H   0  0  0  0  0  0
  -26.8688  -30.7654   22.0337 H   0  0  0  0  0  0
  -28.1355  -28.8249   21.2138 H   0  0  0  0  0  0
  -25.8979  -25.8561   19.0071 H   0  0  0  0  0  0
  -23.9703  -27.3014   18.9923 H   0  0  0  0  0  0
  -23.8057  -30.5767   19.4013 H   0  0  0  0  0  0
  -22.7830  -29.2441   19.8432 H   0  0  0  0  0  0
  -25.1312  -36.1842   25.0809 H   0  0  0  0  0  0
  -21.0026  -28.3276   24.1363 H   0  0  0  0  0  0
  -20.5654  -26.2314   23.3632 H   0  0  0  0  0  0
  -21.6654  -26.7386   22.1220 H   0  0  0  0  0  0
  -19.6913  -25.6278   21.1247 H   0  0  0  0  0  0
  -19.6701  -27.3179   20.6744 H   0  0  0  0  0  0
  -17.4223  -26.6703   21.4006 H   0  0  0  0  0  0
  -18.0316  -26.0068   22.9003 H   0  0  0  0  0  0
  -19.7958  -30.7316   24.2177 H   0  0  0  0  0  0
  -17.5022  -31.6242   24.5188 H   0  0  0  0  0  0
  -15.5360  -30.2946   23.7684 H   0  0  0  0  0  0
  -15.8712  -28.0810   22.7044 H   0  0  0  0  0  0
  -24.5924  -30.7096   25.7791 H   0  0  0  0  0  0
  -24.8907  -32.2971   26.4762 H   0  0  0  0  0  0
  -25.8034  -30.9043   27.0261 H   0  0  0  0  0  0
  -26.3000  -29.6673   24.1310 H   0  0  0  0  0  0
  -27.3984  -29.7251   25.4887 H   0  0  0  0  0  0
  -27.8924  -30.4171   23.9638 H   0  0  0  0  0  0
  -27.2661  -33.3657   26.2012 H   0  0  0  0  0  0
  -28.3894  -32.6878   25.0321 H   0  0  0  0  0  0
  -28.0727  -31.8506   26.5437 H   0  0  0  0  0  0
  -28.2592  -38.0074   24.7516 H   0  0  0  0  0  0
  -28.1081  -36.2611   24.6276 H   0  0  0  0  0  0
  -27.2316  -37.1403   25.8870 H   0  0  0  0  0  0
  -20.9466  -29.8759   21.6818 H   0  0  0  0  0  0
  -26.0150  -38.2803   24.1434 H   0  0  0  0  0  0
  -31.4897  -18.1779   20.0381 H   0  0  0  0  0  0
  -27.4188  -17.4257   21.1155 H   0  0  0  0  0  0
  -29.5492  -23.5001   21.2314 H   0  0  0  0  0  0
  -29.7401  -23.3711   19.5111 H   0  0  0  0  0  0
  -27.1413  -24.5055   20.7961 H   0  0  0  0  0  0
  -27.5434  -24.5161   19.1113 H   0  0  0  0  0  0
  -28.7451  -15.5518   20.9910 H   0  0  0  0  0  0
  -27.4028  -21.9403   20.5285 H   0  0  0  0  0  0
  1 25  1  0  0  0
  1 30  2  0  0  0
  1 79  1  0  0  0
  2  3  1  0  0  0
  2 25  1  0  0  0
  2 83  1  0  0  0
  2 84  1  0  0  0
  3  4  1  0  0  0
  3 85  1  0  0  0
  3 86  1  0  0  0
  4  5  1  0  0  0
  4 87  1  0  0  0
  4 88  1  0  0  0
  5  6  1  0  0  0
  5 26  1  0  0  0
  5 89  1  0  0  0
  6 25  1  0  0  0
  6 90  1  0  0  0
  6 91  1  0  0  0
  7  8  2  0  0  0
  7 26  1  0  0  0
  7 29  1  0  0  0
  8  9  1  0  0  0
  8 22  1  0  0  0
  9 10  1  0  0  0
  9 27  2  0  0  0
 10 11  2  0  0  0
 10 15  1  0  0  0
 11 12  1  0  0  0
 11 92  1  0  0  0
 12 13  2  0  0  0
 12 93  1  0  0  0
 13 14  1  0  0  0
 13 31  1  0  0  0
 14 15  2  0  0  0
 14 94  1  0  0  0
 15 95  1  0  0  0
 16 17  2  0  0  0
 16 21  1  0  0  0
 16 31  1  0  0  0
 17 18  1  0  0  0
 17 96  1  0  0  0
 18 19  2  0  0  0
 18 97  1  0  0  0
 19 20  1  0  0  0
 19 24  1  0  0  0
 20 21  2  0  0  0
 20 98  1  0  0  0
 21 23  1  0  0  0
 22 28  1  0  0  0
 22 32  2  0  0  0
 26 27  1  0  0  0
 28 99  1  0  0  0
 28100  1  0  0  0
 29101  1  0  0  0
 29102  1  0  0  0
 33 34  1  0  0  0
 33 66  1  0  0  0
 33 70  2  0  0  0
 34 36  1  0  0  0
 34 59  1  0  0  0
 34103  1  0  0  0
 35 44  2  0  0  0
 35 45  1  0  0  0
 35 68  1  0  0  0
 36 56  1  0  0  0
 36104  1  0  0  0
 37 39  1  0  0  0
 37 47  1  0  0  0
 37 66  1  0  0  0
 37105  1  0  0  0
 38 43  2  0  0  0
 38 46  1  0  0  0
 38 47  1  0  0  0
 39 64  1  0  0  0
 39 67  2  0  0  0
 40 52  1  0  0  0
 40 53  2  0  0  0
 40 58  1  0  0  0
 41106  1  0  0  0
 41107  1  0  0  0
 41108  1  0  0  0
 41 48  1  0  0  0
 42 43  1  0  0  0
 42 66  1  0  0  0
 42109  1  0  0  0
 42110  1  0  0  0
 43 44  1  0  0  0
 44111  1  0  0  0
 45 46  2  0  0  0
 45112  1  0  0  0
 46113  1  0  0  0
 47114  1  0  0  0
 47115  1  0  0  0
 48 56  1  0  0  0
 48 65  1  0  0  0
 48116  1  0  0  0
 49 50  1  0  0  0
 49 53  1  0  0  0
 49 64  1  0  0  0
 49117  1  0  0  0
 50 51  1  0  0  0
 50118  1  0  0  0
 50119  1  0  0  0
 51 52  1  0  0  0
 51120  1  0  0  0
 51121  1  0  0  0
 52122  1  0  0  0
 52123  1  0  0  0
 53 54  1  0  0  0
 54 55  2  0  0  0
 54124  1  0  0  0
 55 57  1  0  0  0
 55125  1  0  0  0
 56 69  2  0  0  0
 57 58  2  0  0  0
 57126  1  0  0  0
 58127  1  0  0  0
 59 60  1  0  0  0
 59 61  1  0  0  0
 59 62  1  0  0  0
 60128  1  0  0  0
 60129  1  0  0  0
 60130  1  0  0  0
 61131  1  0  0  0
 61132  1  0  0  0
 61133  1  0  0  0
 62134  1  0  0  0
 62135  1  0  0  0
 62136  1  0  0  0
 63 65  1  0  0  0
 63137  1  0  0  0
 63138  1  0  0  0
 63139  1  0  0  0
 64140  1  0  0  0
 65141  1  0  0  0
 68 78  1  0  0  0
 71 73  2  0  0  0
 71 75  1  0  0  0
 71142  1  0  0  0
 72 73  1  0  0  0
 72 76  2  0  0  0
 72143  1  0  0  0
 73 79  1  0  0  0
 74 75  2  0  0  0
 74 76  1  0  0  0
 74 80  1  0  0  0
 75 81  1  0  0  0
 76 82  1  0  0  0
 77 78  1  0  0  0
 77 80  1  0  0  0
 77144  1  0  0  0
 77145  1  0  0  0
 78146  1  0  0  0
 78147  1  0  0  0
 79148  1  0  0  0
 80149  1  0  0  0
M  ISO  4   1 100  68 101  78 101  79 100
M  END
> <chiral flag>
0

> <version>
0

> <s_m_source_file>
/data/baiqing/PycharmProjects/Reinvent-master-3.2/result/LINK_invent/BTK/process_docking_weight1_custom_sum_contain_oxygen_bond_distance_aromatic_linkinvent_7_9_3/rearranged_h_0012.sdf

> <i_m_source_file_index>
65

> <r_mmod_Potential_Energy-OPLS-2005>
476.901550292969

> <r_mmod_Stretch_Energy-OPLS-2005>
206.063522338867

> <r_mmod_Bend_Energy-OPLS-2005>
287.508850097656

> <r_mmod_Torsional_Energy-OPLS-2005>
202.933029174805

> <r_mmod_Improper_Torsional_Energy-OPLS-2005>
4.5659966468811

> <r_mmod_Van_der_Waal_Energy-OPLS-2005>
132.731674194336

> <r_mmod_Electrostatic_Energy-OPLS-2005>
-302.921691894531

> <r_mmod_Solvation_Energy-OPLS-2005>
-219.890029907227

> <b_mmod_Minimization_Converged-OPLS-2005>
0

> <r_mmod_RMS_Derivative-OPLS-2005>
1.11468017101288

$$$$
66
                    3D
 Structure written by MMmdl.
160168  0  0  1  0            999 V2000
  -30.5896  -14.7181   20.4934 C   0  0  0  0  0  0
  -30.4470  -12.4390   19.4694 C   0  0  0  0  0  0
  -29.5159  -12.5114   18.2369 C   0  0  0  0  0  0
  -28.0399  -12.3399   18.6459 C   0  0  0  0  0  0
  -27.6519  -13.2236   19.8606 C   0  0  2  0  0  0
  -28.6953  -13.1023   20.9942 C   0  0  0  0  0  0
  -25.2559  -13.8187   20.5694 C   0  0  0  0  0  0
  -24.1831  -13.0448   20.9192 C   0  0  0  0  0  0
  -24.6401  -11.6917   20.8723 C   0  0  0  0  0  0
  -23.9067  -10.4302   21.0395 C   0  0  0  0  0  0
  -24.3632   -9.4220   21.9166 C   0  0  0  0  0  0
  -23.6308   -8.2253   22.0744 C   0  0  0  0  0  0
  -22.4282   -8.0292   21.3545 C   0  0  0  0  0  0
  -21.9911   -9.0263   20.4644 C   0  0  0  0  0  0
  -22.7239  -10.2142   20.3049 C   0  0  0  0  0  0
  -21.6859   -6.0735   22.5270 C   0  0  0  0  0  0
  -21.4003   -6.5635   23.8201 C   0  0  0  0  0  0
  -21.3650   -5.6788   24.9164 C   0  0  0  0  0  0
  -21.6052   -4.3051   24.7217 C   0  0  0  0  0  0
  -21.8825   -3.8147   23.4335 C   0  0  0  0  0  0
  -21.9197   -4.6963   22.3390 C   0  0  0  0  0  0
  -22.7857  -13.5233   21.1854 C   0  0  0  0  0  0
  -22.1672   -4.2155   21.0965 F   0  0  0  0  0  0
  -21.5633   -3.4530   25.7724 F   0  0  0  0  0  0
  -30.0065  -13.4704   20.4356 N   0  0  0  0  0  0
  -26.2983  -12.9378   20.3298 N   0  0  0  0  0  0
  -25.9327  -11.6527   20.5739 N   0  0  0  0  0  0
  -22.0526  -12.8223   22.0423 N   0  0  0  0  0  0
  -25.4258  -15.1904   20.4123 N   0  0  0  0  0  0
  -31.7419  -14.8880   20.0828 O   0  0  0  0  0  0
  -21.6656   -6.8882   21.4234 O   0  0  0  0  0  0
  -22.3533  -14.5522   20.6682 O   0  0  0  0  0  0
  -24.6308  -31.8555   23.1972 C   0  0  0  0  0  0
  -25.9139  -32.4747   23.8310 C   0  0  1  0  0  0
  -27.2214  -27.2615   20.1347 C   0  0  0  0  0  0
  -25.5946  -33.8546   24.2249 N   0  0  0  0  0  0
  -23.4286  -30.4782   21.5400 C   0  0  2  0  0  0
  -24.8783  -28.9254   20.1113 C   0  0  0  0  0  0
  -22.7508  -29.4596   22.4888 C   0  0  0  0  0  0
  -18.0305  -28.1386   22.8468 C   0  0  0  0  0  0
  -24.1497  -36.7268   23.2629 C   0  0  0  0  0  0
  -25.9750  -30.7674   21.3809 C   0  0  0  0  0  0
  -26.0493  -29.3895   20.7244 C   0  0  0  0  0  0
  -27.2252  -28.5700   20.7257 C   0  0  0  0  0  0
  -26.0332  -26.8742   19.4770 C   0  0  0  0  0  0
  -24.8750  -27.6751   19.4756 C   0  0  0  0  0  0
  -23.6501  -29.8144   20.1561 C   0  0  0  0  0  0
  -25.4125  -36.3059   24.0319 C   0  0  1  0  0  0
  -20.5906  -28.3696   23.1261 C   0  0  2  0  0  0
  -20.6794  -26.9409   22.5415 C   0  0  0  0  0  0
  -19.5778  -26.6386   21.5204 C   0  0  0  0  0  0
  -18.1956  -26.7928   22.1614 C   0  0  0  0  0  0
  -19.1556  -28.8860   23.2864 C   0  0  0  0  0  0
  -18.9473  -30.1458   23.8885 C   0  0  0  0  0  0
  -17.6471  -30.6578   24.0568 C   0  0  0  0  0  0
  -25.9073  -34.9433   23.5094 C   0  0  0  0  0  0
  -16.5365  -29.9077   23.6318 C   0  0  0  0  0  0
  -16.7295  -28.6504   23.0322 C   0  0  0  0  0  0
  -26.4501  -31.6552   25.0688 C   0  0  0  0  0  0
  -25.3733  -31.3761   26.1428 C   0  0  0  0  0  0
  -27.0276  -30.2931   24.6185 C   0  0  0  0  0  0
  -27.6102  -32.4248   25.7427 C   0  0  0  0  0  0
  -27.5589  -37.1789   24.8461 C   0  0  0  0  0  0
  -21.4217  -29.3025   22.3628 N   0  0  0  0  0  0
  -26.4293  -37.3763   23.9411 N   0  0  0  0  0  0
  -24.6963  -31.0519   22.0951 N   0  0  0  0  0  0
  -23.4210  -28.8146   23.3001 O   0  0  0  0  0  0
  -28.3032  -26.3488   20.1740 O   0  0  0  0  0  0
  -26.5644  -34.8913   22.4660 O   0  0  0  0  0  0
  -23.5457  -32.1380   23.7256 O   0  0  0  0  0  0
  -30.5902  -17.9894   19.8854 C   0  0  0  0  0  0
  -28.3817  -19.3454   20.9248 C   0  0  0  0  0  0
  -30.3553  -19.3749   19.5686 C   0  0  0  0  0  0
  -28.6144  -17.9659   21.2449 C   0  0  0  0  0  0
  -29.7030  -17.2172   20.6903 C   0  0  0  0  0  0
  -29.2101  -20.0949   20.0465 C   0  0  0  0  0  0
  -28.6901  -22.6382   19.3110 C   0  0  0  0  0  0
  -31.3129  -20.0523   18.6032 C   0  0  0  0  0  0
  -27.6170  -17.2936   22.1785 C   0  0  0  0  0  0
  -27.9421  -20.7092   18.0879 C   0  0  0  0  0  0
  -28.9520  -23.6245   20.5118 C   0  0  0  0  0  0
  -27.9995  -24.9431   20.6295 C   0  0  0  0  0  0
  -29.7851  -15.7529   20.9308 N   0  0  0  0  0  0
  -28.6383  -21.2292   19.2810 N   0  0  0  0  0  0
  -28.5009  -23.2546   18.2542 O   0  0  0  0  0  0
  -31.4861  -12.5769   19.1655 H   0  0  0  0  0  0
  -30.4014  -11.4497   19.9284 H   0  0  0  0  0  0
  -29.7892  -11.7453   17.5103 H   0  0  0  0  0  0
  -29.6492  -13.4693   17.7326 H   0  0  0  0  0  0
  -27.8861  -11.2894   18.8943 H   0  0  0  0  0  0
  -27.3872  -12.5519   17.7981 H   0  0  0  0  0  0
  -27.6610  -14.2547   19.5055 H   0  0  0  0  0  0
  -28.7222  -12.0814   21.3783 H   0  0  0  0  0  0
  -28.4249  -13.7309   21.8429 H   0  0  0  0  0  0
  -25.2787   -9.5707   22.4723 H   0  0  0  0  0  0
  -24.0031   -7.4641   22.7454 H   0  0  0  0  0  0
  -21.0841   -8.8772   19.8952 H   0  0  0  0  0  0
  -22.3690  -10.9673   19.6159 H   0  0  0  0  0  0
  -21.1978   -7.6136   23.9695 H   0  0  0  0  0  0
  -21.1466   -6.0519   25.9061 H   0  0  0  0  0  0
  -22.0609   -2.7609   23.2834 H   0  0  0  0  0  0
  -22.4183  -11.9902   22.4802 H   0  0  0  0  0  0
  -21.1128  -13.1208   22.2613 H   0  0  0  0  0  0
  -24.6670  -15.8471   20.5547 H   0  0  0  0  0  0
  -26.2682  -15.6301   20.0661 H   0  0  0  0  0  0
  -26.7196  -32.5399   23.1040 H   0  0  0  0  0  0
  -25.0072  -33.9678   25.0379 H   0  0  0  0  0  0
  -22.7239  -31.2990   21.3927 H   0  0  0  0  0  0
  -23.3765  -35.9594   23.3279 H   0  0  0  0  0  0
  -24.3596  -36.8902   22.2045 H   0  0  0  0  0  0
  -23.7245  -37.6466   23.6657 H   0  0  0  0  0  0
  -26.1186  -31.5296   20.6136 H   0  0  0  0  0  0
  -26.8502  -30.8122   22.0172 H   0  0  0  0  0  0
  -28.1197  -28.9172   21.2234 H   0  0  0  0  0  0
  -25.9806  -25.9279   18.9592 H   0  0  0  0  0  0
  -23.9829  -27.3178   18.9797 H   0  0  0  0  0  0
  -23.7795  -30.5918   19.4021 H   0  0  0  0  0  0
  -22.7677  -29.2522   19.8456 H   0  0  0  0  0  0
  -25.1300  -36.1895   25.0810 H   0  0  0  0  0  0
  -21.0004  -28.3293   24.1380 H   0  0  0  0  0  0
  -20.5670  -26.2308   23.3626 H   0  0  0  0  0  0
  -21.6669  -26.7421   22.1227 H   0  0  0  0  0  0
  -19.6946  -25.6296   21.1233 H   0  0  0  0  0  0
  -19.6719  -27.3196   20.6734 H   0  0  0  0  0  0
  -17.4222  -26.6652   21.4026 H   0  0  0  0  0  0
  -18.0367  -26.0079   22.9020 H   0  0  0  0  0  0
  -19.7951  -30.7280   24.2247 H   0  0  0  0  0  0
  -17.5023  -31.6253   24.5181 H   0  0  0  0  0  0
  -15.5363  -30.2973   23.7653 H   0  0  0  0  0  0
  -15.8699  -28.0836   22.7008 H   0  0  0  0  0  0
  -24.5900  -30.7095   25.7800 H   0  0  0  0  0  0
  -24.8928  -32.2949   26.4798 H   0  0  0  0  0  0
  -25.8055  -30.8993   27.0235 H   0  0  0  0  0  0
  -26.2823  -29.6720   24.1196 H   0  0  0  0  0  0
  -27.3890  -29.7162   25.4711 H   0  0  0  0  0  0
  -27.8759  -30.4133   23.9443 H   0  0  0  0  0  0
  -27.2767  -33.3562   26.2015 H   0  0  0  0  0  0
  -28.3900  -32.6772   25.0225 H   0  0  0  0  0  0
  -28.0774  -31.8340   26.5321 H   0  0  0  0  0  0
  -28.2611  -38.0078   24.7494 H   0  0  0  0  0  0
  -28.1077  -36.2613   24.6283 H   0  0  0  0  0  0
  -27.2318  -37.1444   25.8867 H   0  0  0  0  0  0
  -20.9401  -29.8722   21.6809 H   0  0  0  0  0  0
  -26.0166  -38.2837   24.1417 H   0  0  0  0  0  0
  -31.4452  -17.4977   19.4421 H   0  0  0  0  0  0
  -27.4727  -19.8081   21.2825 H   0  0  0  0  0  0
  -32.3200  -19.6474   18.7051 H   0  0  0  0  0  0
  -31.3742  -21.1251   18.7881 H   0  0  0  0  0  0
  -30.9880  -19.8962   17.5746 H   0  0  0  0  0  0
  -27.9499  -17.3906   23.2122 H   0  0  0  0  0  0
  -27.4792  -16.2349   21.9654 H   0  0  0  0  0  0
  -26.6335  -17.7583   22.0988 H   0  0  0  0  0  0
  -27.7243  -19.6422   18.1620 H   0  0  0  0  0  0
  -28.5525  -20.8466   17.1944 H   0  0  0  0  0  0
  -26.9821  -21.2035   17.9276 H   0  0  0  0  0  0
  -29.9998  -23.9226   20.5020 H   0  0  0  0  0  0
  -28.8206  -23.0281   21.4153 H   0  0  0  0  0  0
  -27.8289  -25.0646   21.7003 H   0  0  0  0  0  0
  -27.0262  -24.6289   20.2602 H   0  0  0  0  0  0
  -28.9597  -15.3877   21.3791 H   0  0  0  0  0  0
  1 25  1  0  0  0
  1 30  2  0  0  0
  1 83  1  0  0  0
  2  3  1  0  0  0
  2 25  1  0  0  0
  2 86  1  0  0  0
  2 87  1  0  0  0
  3  4  1  0  0  0
  3 88  1  0  0  0
  3 89  1  0  0  0
  4  5  1  0  0  0
  4 90  1  0  0  0
  4 91  1  0  0  0
  5  6  1  0  0  0
  5 26  1  0  0  0
  5 92  1  0  0  0
  6 25  1  0  0  0
  6 93  1  0  0  0
  6 94  1  0  0  0
  7  8  2  0  0  0
  7 26  1  0  0  0
  7 29  1  0  0  0
  8  9  1  0  0  0
  8 22  1  0  0  0
  9 10  1  0  0  0
  9 27  2  0  0  0
 10 11  2  0  0  0
 10 15  1  0  0  0
 11 12  1  0  0  0
 11 95  1  0  0  0
 12 13  2  0  0  0
 12 96  1  0  0  0
 13 14  1  0  0  0
 13 31  1  0  0  0
 14 15  2  0  0  0
 14 97  1  0  0  0
 15 98  1  0  0  0
 16 17  2  0  0  0
 16 21  1  0  0  0
 16 31  1  0  0  0
 17 18  1  0  0  0
 17 99  1  0  0  0
 18 19  2  0  0  0
 18100  1  0  0  0
 19 20  1  0  0  0
 19 24  1  0  0  0
 20 21  2  0  0  0
 20101  1  0  0  0
 21 23  1  0  0  0
 22 28  1  0  0  0
 22 32  2  0  0  0
 26 27  1  0  0  0
 28102  1  0  0  0
 28103  1  0  0  0
 29104  1  0  0  0
 29105  1  0  0  0
 33 34  1  0  0  0
 33 66  1  0  0  0
 33 70  2  0  0  0
 34 36  1  0  0  0
 34 59  1  0  0  0
 34106  1  0  0  0
 35 44  2  0  0  0
 35 45  1  0  0  0
 35 68  1  0  0  0
 36 56  1  0  0  0
 36107  1  0  0  0
 37 39  1  0  0  0
 37 47  1  0  0  0
 37 66  1  0  0  0
 37108  1  0  0  0
 38 43  2  0  0  0
 38 46  1  0  0  0
 38 47  1  0  0  0
 39 64  1  0  0  0
 39 67  2  0  0  0
 40 52  1  0  0  0
 40 53  2  0  0  0
 40 58  1  0  0  0
 41109  1  0  0  0
 41110  1  0  0  0
 41111  1  0  0  0
 41 48  1  0  0  0
 42 43  1  0  0  0
 42 66  1  0  0  0
 42112  1  0  0  0
 42113  1  0  0  0
 43 44  1  0  0  0
 44114  1  0  0  0
 45 46  2  0  0  0
 45115  1  0  0  0
 46116  1  0  0  0
 47117  1  0  0  0
 47118  1  0  0  0
 48 56  1  0  0  0
 48 65  1  0  0  0
 48119  1  0  0  0
 49 50  1  0  0  0
 49 53  1  0  0  0
 49 64  1  0  0  0
 49120  1  0  0  0
 50 51  1  0  0  0
 50121  1  0  0  0
 50122  1  0  0  0
 51 52  1  0  0  0
 51123  1  0  0  0
 51124  1  0  0  0
 52125  1  0  0  0
 52126  1  0  0  0
 53 54  1  0  0  0
 54 55  2  0  0  0
 54127  1  0  0  0
 55 57  1  0  0  0
 55128  1  0  0  0
 56 69  2  0  0  0
 57 58  2  0  0  0
 57129  1  0  0  0
 58130  1  0  0  0
 59 60  1  0  0  0
 59 61  1  0  0  0
 59 62  1  0  0  0
 60131  1  0  0  0
 60132  1  0  0  0
 60133  1  0  0  0
 61134  1  0  0  0
 61135  1  0  0  0
 61136  1  0  0  0
 62137  1  0  0  0
 62138  1  0  0  0
 62139  1  0  0  0
 63 65  1  0  0  0
 63140  1  0  0  0
 63141  1  0  0  0
 63142  1  0  0  0
 64143  1  0  0  0
 65144  1  0  0  0
 68 82  1  0  0  0
 71 73  2  0  0  0
 71 75  1  0  0  0
 71145  1  0  0  0
 72 74  1  0  0  0
 72 76  2  0  0  0
 72146  1  0  0  0
 73 76  1  0  0  0
 73 78  1  0  0  0
 74 75  2  0  0  0
 74 79  1  0  0  0
 75 83  1  0  0  0
 76 84  1  0  0  0
 77 81  1  0  0  0
 77 84  1  0  0  0
 77 85  2  0  0  0
 78147  1  0  0  0
 78148  1  0  0  0
 78149  1  0  0  0
 79150  1  0  0  0
 79151  1  0  0  0
 79152  1  0  0  0
 80 84  1  0  0  0
 80153  1  0  0  0
 80154  1  0  0  0
 80155  1  0  0  0
 81 82  1  0  0  0
 81156  1  0  0  0
 81157  1  0  0  0
 82158  1  0  0  0
 82159  1  0  0  0
 83160  1  0  0  0
M  ISO  4   1 100  68 101  82 101  83 100
M  END
> <chiral flag>
0

> <version>
0

> <s_m_source_file>
/data/baiqing/PycharmProjects/Reinvent-master-3.2/result/LINK_invent/BTK/process_docking_weight1_custom_sum_contain_oxygen_bond_distance_aromatic_linkinvent_7_9_3/rearranged_h_0012.sdf

> <i_m_source_file_index>
66

> <r_mmod_Potential_Energy-OPLS-2005>
284.064453125

> <r_mmod_Stretch_Energy-OPLS-2005>
121.185523986816

> <r_mmod_Bend_Energy-OPLS-2005>
223.819213867188

> <r_mmod_Torsional_Energy-OPLS-2005>
318.031860351562

> <r_mmod_Improper_Torsional_Energy-OPLS-2005>
10.333441734314

> <r_mmod_Van_der_Waal_Energy-OPLS-2005>
146.548355102539

> <r_mmod_Electrostatic_Energy-OPLS-2005>
-398.333251953125

> <r_mmod_Solvation_Energy-OPLS-2005>
-216.71955871582

> <b_mmod_Minimization_Converged-OPLS-2005>
0

> <r_mmod_RMS_Derivative-OPLS-2005>
1.74693071842194

$$$$
67
                    3D
 Structure written by MMmdl.
155163  0  0  1  0            999 V2000
  -30.6331  -14.6315   20.5109 C   0  0  0  0  0  0
  -30.4378  -12.3887   19.4545 C   0  0  0  0  0  0
  -29.5080  -12.5091   18.2263 C   0  0  0  0  0  0
  -28.0306  -12.3480   18.6368 C   0  0  0  0  0  0
  -27.6545  -13.2170   19.8663 C   0  0  2  0  0  0
  -28.6990  -13.0676   20.9962 C   0  0  0  0  0  0
  -25.2527  -13.8135   20.5619 C   0  0  0  0  0  0
  -24.1817  -13.0413   20.9192 C   0  0  0  0  0  0
  -24.6401  -11.6892   20.8759 C   0  0  0  0  0  0
  -23.9069  -10.4280   21.0417 C   0  0  0  0  0  0
  -24.3617   -9.4193   21.9192 C   0  0  0  0  0  0
  -23.6289   -8.2232   22.0757 C   0  0  0  0  0  0
  -22.4272   -8.0276   21.3546 C   0  0  0  0  0  0
  -21.9910   -9.0252   20.4648 C   0  0  0  0  0  0
  -22.7243  -10.2128   20.3061 C   0  0  0  0  0  0
  -21.6849   -6.0734   22.5280 C   0  0  0  0  0  0
  -21.4011   -6.5638   23.8213 C   0  0  0  0  0  0
  -21.3658   -5.6791   24.9176 C   0  0  0  0  0  0
  -21.6044   -4.3054   24.7226 C   0  0  0  0  0  0
  -21.8820   -3.8146   23.4347 C   0  0  0  0  0  0
  -21.9191   -4.6962   22.3403 C   0  0  0  0  0  0
  -22.7840  -13.5212   21.1852 C   0  0  0  0  0  0
  -22.1660   -4.2148   21.0981 F   0  0  0  0  0  0
  -21.5629   -3.4538   25.7739 F   0  0  0  0  0  0
  -30.0175  -13.4085   20.4366 N   0  0  0  0  0  0
  -26.2991  -12.9342   20.3326 N   0  0  0  0  0  0
  -25.9336  -11.6499   20.5790 N   0  0  0  0  0  0
  -22.0483  -12.8214   22.0417 N   0  0  0  0  0  0
  -25.4156  -15.1828   20.3866 N   0  0  0  0  0  0
  -31.7889  -14.7890   20.1068 O   0  0  0  0  0  0
  -21.6634   -6.8876   21.4241 O   0  0  0  0  0  0
  -22.3527  -14.5519   20.6699 O   0  0  0  0  0  0
  -24.6258  -31.8612   23.2040 C   0  0  0  0  0  0
  -25.9109  -32.4787   23.8364 C   0  0  1  0  0  0
  -27.2250  -27.3282   20.1112 C   0  0  0  0  0  0
  -25.5930  -33.8586   24.2291 N   0  0  0  0  0  0
  -23.4185  -30.4862   21.5472 C   0  0  2  0  0  0
  -24.8641  -28.9450   20.1124 C   0  0  0  0  0  0
  -22.7471  -29.4634   22.4945 C   0  0  0  0  0  0
  -18.0284  -28.1381   22.8485 C   0  0  0  0  0  0
  -24.1490  -36.7296   23.2639 C   0  0  0  0  0  0
  -25.9598  -30.7954   21.3735 C   0  0  0  0  0  0
  -26.0344  -29.4242   20.7141 C   0  0  0  0  0  0
  -27.2183  -28.6286   20.7025 C   0  0  0  0  0  0
  -26.0266  -26.9013   19.4897 C   0  0  0  0  0  0
  -24.8618  -27.6881   19.4923 C   0  0  0  0  0  0
  -23.6322  -29.8240   20.1617 C   0  0  0  0  0  0
  -25.4115  -36.3089   24.0332 C   0  0  1  0  0  0
  -20.5884  -28.3686   23.1283 C   0  0  2  0  0  0
  -20.6775  -26.9412   22.5406 C   0  0  0  0  0  0
  -19.5752  -26.6384   21.5208 C   0  0  0  0  0  0
  -18.1931  -26.7924   22.1621 C   0  0  0  0  0  0
  -19.1537  -28.8849   23.2879 C   0  0  0  0  0  0
  -18.9462  -30.1451   23.8896 C   0  0  0  0  0  0
  -17.6463  -30.6586   24.0561 C   0  0  0  0  0  0
  -25.9052  -34.9457   23.5110 C   0  0  0  0  0  0
  -16.5353  -29.9085   23.6328 C   0  0  0  0  0  0
  -16.7272  -28.6501   23.0351 C   0  0  0  0  0  0
  -26.4496  -31.6590   25.0727 C   0  0  0  0  0  0
  -25.3733  -31.3719   26.1456 C   0  0  0  0  0  0
  -27.0337  -30.3018   24.6165 C   0  0  0  0  0  0
  -27.6060  -32.4320   25.7497 C   0  0  0  0  0  0
  -27.5580  -37.1805   24.8466 C   0  0  0  0  0  0
  -21.4186  -29.3046   22.3684 N   0  0  0  0  0  0
  -26.4293  -37.3782   23.9409 N   0  0  0  0  0  0
  -24.6870  -31.0634   22.0987 N   0  0  0  0  0  0
  -23.4199  -28.8170   23.3018 O   0  0  0  0  0  0
  -28.3469  -26.4835   20.1550 O   0  0  0  0  0  0
  -26.5617  -34.8922   22.4674 O   0  0  0  0  0  0
  -23.5424  -32.1407   23.7374 O   0  0  0  0  0  0
  -30.9702  -19.2269   19.9283 C   0  0  0  0  0  0
  -30.9647  -17.8083   20.0712 C   0  0  0  0  0  0
  -28.9175  -19.3839   21.1605 C   0  0  0  0  0  0
  -28.9164  -17.9643   21.3328 C   0  0  0  0  0  0
  -29.9471  -20.0566   20.4587 C   0  0  0  0  0  0
  -29.9350  -17.1300   20.7757 C   0  0  0  0  0  0
  -27.7822  -17.3569   22.1406 C   0  0  0  0  0  0
  -29.2841  -23.9933   20.3168 C   0  0  0  0  0  0
  -28.8914  -22.4463   20.3544 C   0  0  0  0  0  0
  -28.1046  -25.0258   20.0729 C   0  0  0  0  0  0
  -29.8448  -15.6735   20.9242 N   0  0  0  0  0  0
  -30.0268  -21.4789   20.2973 N   0  0  0  0  0  0
  -31.4795  -12.5100   19.1526 H   0  0  0  0  0  0
  -30.3696  -11.3921   19.8936 H   0  0  0  0  0  0
  -29.7716  -11.7592   17.4792 H   0  0  0  0  0  0
  -29.6519  -13.4797   17.7490 H   0  0  0  0  0  0
  -27.8659  -11.2947   18.8664 H   0  0  0  0  0  0
  -27.3767  -12.5805   17.7955 H   0  0  0  0  0  0
  -27.6746  -14.2536   19.5294 H   0  0  0  0  0  0
  -28.7083  -12.0445   21.3749 H   0  0  0  0  0  0
  -28.4429  -13.6953   21.8509 H   0  0  0  0  0  0
  -25.2762   -9.5666   22.4769 H   0  0  0  0  0  0
  -23.9996   -7.4621   22.7475 H   0  0  0  0  0  0
  -21.0843   -8.8773   19.8952 H   0  0  0  0  0  0
  -22.3706  -10.9669   19.6171 H   0  0  0  0  0  0
  -21.2003   -7.6146   23.9717 H   0  0  0  0  0  0
  -21.1480   -6.0522   25.9079 H   0  0  0  0  0  0
  -22.0600   -2.7608   23.2848 H   0  0  0  0  0  0
  -22.4095  -11.9875   22.4807 H   0  0  0  0  0  0
  -21.1105  -13.1248   22.2626 H   0  0  0  0  0  0
  -24.6351  -15.8256   20.4634 H   0  0  0  0  0  0
  -26.2431  -15.6101   19.9917 H   0  0  0  0  0  0
  -26.7178  -32.5462   23.1115 H   0  0  0  0  0  0
  -25.0082  -33.9732   25.0439 H   0  0  0  0  0  0
  -22.7120  -31.3068   21.4061 H   0  0  0  0  0  0
  -23.3753  -35.9628   23.3307 H   0  0  0  0  0  0
  -24.3582  -36.8909   22.2052 H   0  0  0  0  0  0
  -23.7241  -37.6500   23.6656 H   0  0  0  0  0  0
  -26.0896  -31.5602   20.6065 H   0  0  0  0  0  0
  -26.8410  -30.8434   22.0017 H   0  0  0  0  0  0
  -28.1167  -28.9935   21.1807 H   0  0  0  0  0  0
  -25.9522  -25.9444   18.9974 H   0  0  0  0  0  0
  -23.9648  -27.3145   19.0177 H   0  0  0  0  0  0
  -23.7514  -30.6020   19.4065 H   0  0  0  0  0  0
  -22.7520  -29.2540   19.8587 H   0  0  0  0  0  0
  -25.1293  -36.1946   25.0824 H   0  0  0  0  0  0
  -20.9972  -28.3258   24.1405 H   0  0  0  0  0  0
  -20.5676  -26.2297   23.3604 H   0  0  0  0  0  0
  -21.6645  -26.7443   22.1200 H   0  0  0  0  0  0
  -19.6917  -25.6296   21.1236 H   0  0  0  0  0  0
  -19.6688  -27.3195   20.6739 H   0  0  0  0  0  0
  -17.4199  -26.6666   21.4026 H   0  0  0  0  0  0
  -18.0338  -26.0064   22.9017 H   0  0  0  0  0  0
  -19.7940  -30.7261   24.2269 H   0  0  0  0  0  0
  -17.5021  -31.6266   24.5162 H   0  0  0  0  0  0
  -15.5355  -30.2989   23.7654 H   0  0  0  0  0  0
  -15.8670  -28.0821   22.7069 H   0  0  0  0  0  0
  -24.5915  -30.7058   25.7786 H   0  0  0  0  0  0
  -24.8914  -32.2879   26.4882 H   0  0  0  0  0  0
  -25.8063  -30.8899   27.0230 H   0  0  0  0  0  0
  -26.2903  -29.6772   24.1197 H   0  0  0  0  0  0
  -27.4054  -29.7269   25.4657 H   0  0  0  0  0  0
  -27.8767  -30.4314   23.9374 H   0  0  0  0  0  0
  -27.2677  -33.3622   26.2074 H   0  0  0  0  0  0
  -28.3872  -32.6875   25.0325 H   0  0  0  0  0  0
  -28.0727  -31.8442   26.5412 H   0  0  0  0  0  0
  -28.2602  -38.0098   24.7511 H   0  0  0  0  0  0
  -28.1071  -36.2628   24.6296 H   0  0  0  0  0  0
  -27.2295  -37.1459   25.8869 H   0  0  0  0  0  0
  -20.9361  -29.8777   21.6903 H   0  0  0  0  0  0
  -26.0177  -38.2859   24.1407 H   0  0  0  0  0  0
  -31.7897  -19.6763   19.3853 H   0  0  0  0  0  0
  -31.7731  -17.2524   19.6202 H   0  0  0  0  0  0
  -28.1174  -19.9618   21.6002 H   0  0  0  0  0  0
  -27.3573  -18.0879   22.8292 H   0  0  0  0  0  0
  -28.1137  -16.5090   22.7397 H   0  0  0  0  0  0
  -26.9871  -17.0274   21.4761 H   0  0  0  0  0  0
  -30.0264  -24.1524   19.5340 H   0  0  0  0  0  0
  -29.7813  -24.2484   21.2531 H   0  0  0  0  0  0
  -28.2356  -22.2310   19.5091 H   0  0  0  0  0  0
  -28.2988  -22.2555   21.2501 H   0  0  0  0  0  0
  -27.7246  -24.7994   19.0769 H   0  0  0  0  0  0
  -27.3056  -24.7811   20.7750 H   0  0  0  0  0  0
  -28.9664  -15.3547   21.3014 H   0  0  0  0  0  0
  -30.8531  -21.8171   19.8089 H   0  0  0  0  0  0
  1 25  1  0  0  0
  1 30  2  0  0  0
  1 81  1  0  0  0
  2  3  1  0  0  0
  2 25  1  0  0  0
  2 83  1  0  0  0
  2 84  1  0  0  0
  3  4  1  0  0  0
  3 85  1  0  0  0
  3 86  1  0  0  0
  4  5  1  0  0  0
  4 87  1  0  0  0
  4 88  1  0  0  0
  5  6  1  0  0  0
  5 26  1  0  0  0
  5 89  1  0  0  0
  6 25  1  0  0  0
  6 90  1  0  0  0
  6 91  1  0  0  0
  7  8  2  0  0  0
  7 26  1  0  0  0
  7 29  1  0  0  0
  8  9  1  0  0  0
  8 22  1  0  0  0
  9 10  1  0  0  0
  9 27  2  0  0  0
 10 11  2  0  0  0
 10 15  1  0  0  0
 11 12  1  0  0  0
 11 92  1  0  0  0
 12 13  2  0  0  0
 12 93  1  0  0  0
 13 14  1  0  0  0
 13 31  1  0  0  0
 14 15  2  0  0  0
 14 94  1  0  0  0
 15 95  1  0  0  0
 16 17  2  0  0  0
 16 21  1  0  0  0
 16 31  1  0  0  0
 17 18  1  0  0  0
 17 96  1  0  0  0
 18 19  2  0  0  0
 18 97  1  0  0  0
 19 20  1  0  0  0
 19 24  1  0  0  0
 20 21  2  0  0  0
 20 98  1  0  0  0
 21 23  1  0  0  0
 22 28  1  0  0  0
 22 32  2  0  0  0
 26 27  1  0  0  0
 28 99  1  0  0  0
 28100  1  0  0  0
 29101  1  0  0  0
 29102  1  0  0  0
 33 34  1  0  0  0
 33 66  1  0  0  0
 33 70  2  0  0  0
 34 36  1  0  0  0
 34 59  1  0  0  0
 34103  1  0  0  0
 35 44  2  0  0  0
 35 45  1  0  0  0
 35 68  1  0  0  0
 36 56  1  0  0  0
 36104  1  0  0  0
 37 39  1  0  0  0
 37 47  1  0  0  0
 37 66  1  0  0  0
 37105  1  0  0  0
 38 43  2  0  0  0
 38 46  1  0  0  0
 38 47  1  0  0  0
 39 64  1  0  0  0
 39 67  2  0  0  0
 40 52  1  0  0  0
 40 53  2  0  0  0
 40 58  1  0  0  0
 41106  1  0  0  0
 41107  1  0  0  0
 41108  1  0  0  0
 41 48  1  0  0  0
 42 43  1  0  0  0
 42 66  1  0  0  0
 42109  1  0  0  0
 42110  1  0  0  0
 43 44  1  0  0  0
 44111  1  0  0  0
 45 46  2  0  0  0
 45112  1  0  0  0
 46113  1  0  0  0
 47114  1  0  0  0
 47115  1  0  0  0
 48 56  1  0  0  0
 48 65  1  0  0  0
 48116  1  0  0  0
 49 50  1  0  0  0
 49 53  1  0  0  0
 49 64  1  0  0  0
 49117  1  0  0  0
 50 51  1  0  0  0
 50118  1  0  0  0
 50119  1  0  0  0
 51 52  1  0  0  0
 51120  1  0  0  0
 51121  1  0  0  0
 52122  1  0  0  0
 52123  1  0  0  0
 53 54  1  0  0  0
 54 55  2  0  0  0
 54124  1  0  0  0
 55 57  1  0  0  0
 55125  1  0  0  0
 56 69  2  0  0  0
 57 58  2  0  0  0
 57126  1  0  0  0
 58127  1  0  0  0
 59 60  1  0  0  0
 59 61  1  0  0  0
 59 62  1  0  0  0
 60128  1  0  0  0
 60129  1  0  0  0
 60130  1  0  0  0
 61131  1  0  0  0
 61132  1  0  0  0
 61133  1  0  0  0
 62134  1  0  0  0
 62135  1  0  0  0
 62136  1  0  0  0
 63 65  1  0  0  0
 63137  1  0  0  0
 63138  1  0  0  0
 63139  1  0  0  0
 64140  1  0  0  0
 65141  1  0  0  0
 68 80  1  0  0  0
 71 72  2  0  0  0
 71 75  1  0  0  0
 71142  1  0  0  0
 72 76  1  0  0  0
 72143  1  0  0  0
 73 74  1  0  0  0
 73 75  2  0  0  0
 73144  1  0  0  0
 74 76  2  0  0  0
 74 77  1  0  0  0
 75 82  1  0  0  0
 76 81  1  0  0  0
 77145  1  0  0  0
 77146  1  0  0  0
 77147  1  0  0  0
 78 79  1  0  0  0
 78 80  1  0  0  0
 78148  1  0  0  0
 78149  1  0  0  0
 79 82  1  0  0  0
 79150  1  0  0  0
 79151  1  0  0  0
 80152  1  0  0  0
 80153  1  0  0  0
 81154  1  0  0  0
 82155  1  0  0  0
M  ISO  4   1 100  68 101  80 101  81 100
M  END
> <chiral flag>
0

> <version>
0

> <s_m_source_file>
/data/baiqing/PycharmProjects/Reinvent-master-3.2/result/LINK_invent/BTK/process_docking_weight1_custom_sum_contain_oxygen_bond_distance_aromatic_linkinvent_7_9_3/rearranged_h_0012.sdf

> <i_m_source_file_index>
67

> <r_mmod_Potential_Energy-OPLS-2005>
4.65967035293579

> <r_mmod_Stretch_Energy-OPLS-2005>
74.9499893188477

> <r_mmod_Bend_Energy-OPLS-2005>
142.368103027344

> <r_mmod_Torsional_Energy-OPLS-2005>
203.637466430664

> <r_mmod_Improper_Torsional_Energy-OPLS-2005>
4.94267749786377

> <r_mmod_Van_der_Waal_Energy-OPLS-2005>
147.184677124023

> <r_mmod_Electrostatic_Energy-OPLS-2005>
-395.989440917969

> <r_mmod_Solvation_Energy-OPLS-2005>
-217.109039306641

> <b_mmod_Minimization_Converged-OPLS-2005>
0

> <r_mmod_RMS_Derivative-OPLS-2005>
0.237685292959213

$$$$
68
                    3D
 Structure written by MMmdl.
151159  0  0  1  0            999 V2000
  -30.5762  -14.9282   20.4923 C   0  0  0  0  0  0
  -30.4372  -12.5831   19.5111 C   0  0  0  0  0  0
  -29.5240  -12.5471   18.2633 C   0  0  0  0  0  0
  -28.0563  -12.3270   18.6712 C   0  0  0  0  0  0
  -27.6335  -13.2481   19.8422 C   0  0  2  0  0  0
  -28.6673  -13.2550   20.9856 C   0  0  0  0  0  0
  -25.2482  -13.8227   20.5697 C   0  0  0  0  0  0
  -24.1785  -13.0450   20.9200 C   0  0  0  0  0  0
  -24.6400  -11.6932   20.8739 C   0  0  0  0  0  0
  -23.9085  -10.4300   21.0407 C   0  0  0  0  0  0
  -24.3634   -9.4214   21.9184 C   0  0  0  0  0  0
  -23.6304   -8.2248   22.0753 C   0  0  0  0  0  0
  -22.4289   -8.0288   21.3539 C   0  0  0  0  0  0
  -21.9926   -9.0264   20.4646 C   0  0  0  0  0  0
  -22.7256  -10.2141   20.3056 C   0  0  0  0  0  0
  -21.6858   -6.0742   22.5278 C   0  0  0  0  0  0
  -21.4018   -6.5644   23.8215 C   0  0  0  0  0  0
  -21.3662   -5.6795   24.9172 C   0  0  0  0  0  0
  -21.6042   -4.3056   24.7221 C   0  0  0  0  0  0
  -21.8820   -3.8151   23.4342 C   0  0  0  0  0  0
  -21.9194   -4.6969   22.3398 C   0  0  0  0  0  0
  -22.7809  -13.5218   21.1874 C   0  0  0  0  0  0
  -22.1660   -4.2159   21.0974 F   0  0  0  0  0  0
  -21.5630   -3.4537   25.7731 F   0  0  0  0  0  0
  -29.9609  -13.6722   20.4190 N   0  0  0  0  0  0
  -26.2899  -12.9453   20.3227 N   0  0  0  0  0  0
  -25.9329  -11.6583   20.5716 N   0  0  0  0  0  0
  -22.0472  -12.8198   22.0437 N   0  0  0  0  0  0
  -25.4180  -15.1953   20.4151 N   0  0  0  0  0  0
  -31.7140  -15.0192   20.0181 O   0  0  0  0  0  0
  -21.6648   -6.8887   21.4239 O   0  0  0  0  0  0
  -22.3478  -14.5519   20.6724 O   0  0  0  0  0  0
  -24.6448  -31.8426   23.1879 C   0  0  0  0  0  0
  -25.9217  -32.4687   23.8271 C   0  0  1  0  0  0
  -27.2156  -27.1272   20.1422 C   0  0  0  0  0  0
  -25.5966  -33.8494   24.2184 N   0  0  0  0  0  0
  -23.4491  -30.4629   21.5333 C   0  0  2  0  0  0
  -24.8989  -28.8922   20.1060 C   0  0  0  0  0  0
  -22.7572  -29.4543   22.4846 C   0  0  0  0  0  0
  -18.0306  -28.1408   22.8479 C   0  0  0  0  0  0
  -24.1491  -36.7255   23.2642 C   0  0  0  0  0  0
  -26.0063  -30.7116   21.3908 C   0  0  0  0  0  0
  -26.0760  -29.3230   20.7305 C   0  0  0  0  0  0
  -27.2336  -28.4553   20.7356 C   0  0  0  0  0  0
  -26.0151  -26.8101   19.4660 C   0  0  0  0  0  0
  -24.8816  -27.6495   19.4588 C   0  0  0  0  0  0
  -23.6762  -29.7942   20.1518 C   0  0  0  0  0  0
  -25.4126  -36.3023   24.0308 C   0  0  1  0  0  0
  -20.5918  -28.3734   23.1232 C   0  0  2  0  0  0
  -20.6792  -26.9435   22.5406 C   0  0  0  0  0  0
  -19.5764  -26.6387   21.5219 C   0  0  0  0  0  0
  -18.1945  -26.7948   22.1626 C   0  0  0  0  0  0
  -19.1562  -28.8889   23.2848 C   0  0  0  0  0  0
  -18.9479  -30.1485   23.8875 C   0  0  0  0  0  0
  -17.6473  -30.6601   24.0563 C   0  0  0  0  0  0
  -25.9073  -34.9400   23.5049 C   0  0  0  0  0  0
  -16.5365  -29.9092   23.6343 C   0  0  0  0  0  0
  -16.7290  -28.6514   23.0359 C   0  0  0  0  0  0
  -26.4533  -31.6566   25.0721 C   0  0  0  0  0  0
  -25.3718  -31.3770   26.1421 C   0  0  0  0  0  0
  -27.0401  -30.2957   24.6324 C   0  0  0  0  0  0
  -27.6052  -32.4348   25.7516 C   0  0  0  0  0  0
  -27.5565  -37.1794   24.8471 C   0  0  0  0  0  0
  -21.4262  -29.3054   22.3599 N   0  0  0  0  0  0
  -26.4293  -37.3732   23.9392 N   0  0  0  0  0  0
  -24.7199  -31.0270   22.0925 N   0  0  0  0  0  0
  -23.4204  -28.8086   23.3001 O   0  0  0  0  0  0
  -28.2521  -26.1214   20.2303 O   0  0  0  0  0  0
  -26.5649  -34.8896   22.4624 O   0  0  0  0  0  0
  -23.5565  -32.1314   23.7089 O   0  0  0  0  0  0
  -30.1282  -18.6485   21.5921 C   0  0  0  0  0  0
  -28.7809  -19.4586   19.3589 C   0  0  0  0  0  0
  -29.7848  -17.5413   20.7223 C   0  0  0  0  0  0
  -29.1010  -20.5558   20.2451 C   0  0  0  0  0  0
  -29.8201  -20.0570   21.3817 C   0  0  0  0  0  0
  -29.0969  -18.0466   19.5667 C   0  0  0  0  0  0
  -28.8561  -23.3271   20.4143 C   0  0  0  0  0  0
  -30.0154  -15.8837   22.5887 C   0  0  0  0  0  0
  -27.9610  -24.6249   19.8856 C   0  0  0  0  0  0
  -28.6182  -21.9970   19.9658 N   0  0  0  0  0  0
  -29.9671  -16.0535   21.1270 N   0  0  0  0  0  0
  -29.7603  -23.5551   21.2207 O   0  0  0  0  0  0
  -30.2003  -20.9310   22.3424 F   0  0  0  0  0  0
  -28.5360  -16.9134   18.3899 Cl  0  0  0  0  0  0
  -31.4751  -12.7245   19.2053 H   0  0  0  0  0  0
  -30.4166  -11.6224   20.0291 H   0  0  0  0  0  0
  -29.8440  -11.7591   17.5804 H   0  0  0  0  0  0
  -29.6163  -13.4861   17.7150 H   0  0  0  0  0  0
  -27.9472  -11.2821   18.9642 H   0  0  0  0  0  0
  -27.3969  -12.4728   17.8150 H   0  0  0  0  0  0
  -27.6063  -14.2566   19.4288 H   0  0  0  0  0  0
  -28.7454  -12.2728   21.4537 H   0  0  0  0  0  0
  -28.3270  -13.9384   21.7618 H   0  0  0  0  0  0
  -25.2781   -9.5687   22.4757 H   0  0  0  0  0  0
  -24.0015   -7.4640   22.7468 H   0  0  0  0  0  0
  -21.0860   -8.8785   19.8950 H   0  0  0  0  0  0
  -22.3719  -10.9680   19.6164 H   0  0  0  0  0  0
  -21.2011   -7.6155   23.9720 H   0  0  0  0  0  0
  -21.1480   -6.0522   25.9076 H   0  0  0  0  0  0
  -22.0596   -2.7615   23.2838 H   0  0  0  0  0  0
  -22.4109  -11.9867   22.4816 H   0  0  0  0  0  0
  -21.1084  -13.1201   22.2657 H   0  0  0  0  0  0
  -24.6536  -15.8517   20.5308 H   0  0  0  0  0  0
  -26.2743  -15.6343   20.1011 H   0  0  0  0  0  0
  -26.7283  -32.5280   23.1000 H   0  0  0  0  0  0
  -25.0124  -33.9611   25.0338 H   0  0  0  0  0  0
  -22.7526  -31.2894   21.3781 H   0  0  0  0  0  0
  -23.3737  -35.9605   23.3332 H   0  0  0  0  0  0
  -24.3567  -36.8857   22.2051 H   0  0  0  0  0  0
  -23.7272  -37.6469   23.6666 H   0  0  0  0  0  0
  -26.1643  -31.4655   20.6182 H   0  0  0  0  0  0
  -26.8767  -30.7606   22.0340 H   0  0  0  0  0  0
  -28.1264  -28.7760   21.2538 H   0  0  0  0  0  0
  -25.9098  -25.8682   18.9504 H   0  0  0  0  0  0
  -23.9857  -27.3183   18.9519 H   0  0  0  0  0  0
  -23.8131  -30.5700   19.3975 H   0  0  0  0  0  0
  -22.7911  -29.2365   19.8403 H   0  0  0  0  0  0
  -25.1323  -36.1850   25.0801 H   0  0  0  0  0  0
  -21.0014  -28.3328   24.1351 H   0  0  0  0  0  0
  -20.5698  -26.2344   23.3629 H   0  0  0  0  0  0
  -21.6655  -26.7445   22.1193 H   0  0  0  0  0  0
  -19.6922  -25.6290   21.1270 H   0  0  0  0  0  0
  -19.6704  -27.3182   20.6738 H   0  0  0  0  0  0
  -17.4214  -26.6703   21.4029 H   0  0  0  0  0  0
  -18.0335  -26.0101   22.9029 H   0  0  0  0  0  0
  -19.7951  -30.7317   24.2230 H   0  0  0  0  0  0
  -17.5022  -31.6281   24.5169 H   0  0  0  0  0  0
  -15.5363  -30.2984   23.7684 H   0  0  0  0  0  0
  -15.8694  -28.0827   22.7083 H   0  0  0  0  0  0
  -24.5900  -30.7114   25.7750 H   0  0  0  0  0  0
  -24.8914  -32.2959   26.4787 H   0  0  0  0  0  0
  -25.8007  -30.8986   27.0235 H   0  0  0  0  0  0
  -26.3025  -29.6680   24.1315 H   0  0  0  0  0  0
  -27.3978  -29.7264   25.4909 H   0  0  0  0  0  0
  -27.8947  -30.4183   23.9671 H   0  0  0  0  0  0
  -27.2632  -33.3671   26.2028 H   0  0  0  0  0  0
  -28.3906  -32.6878   25.0379 H   0  0  0  0  0  0
  -28.0681  -31.8523   26.5493 H   0  0  0  0  0  0
  -28.2602  -38.0065   24.7454 H   0  0  0  0  0  0
  -28.1037  -36.2589   24.6384 H   0  0  0  0  0  0
  -27.2273  -37.1549   25.8872 H   0  0  0  0  0  0
  -20.9476  -29.8764   21.6776 H   0  0  0  0  0  0
  -26.0154  -38.2802   24.1366 H   0  0  0  0  0  0
  -30.6433  -18.4331   22.5145 H   0  0  0  0  0  0
  -28.2282  -19.6973   18.4625 H   0  0  0  0  0  0
  -30.9578  -16.2668   22.9834 H   0  0  0  0  0  0
  -29.9464  -14.8500   22.9302 H   0  0  0  0  0  0
  -29.1981  -16.4254   23.0661 H   0  0  0  0  0  0
  -26.9517  -24.3982   20.2285 H   0  0  0  0  0  0
  -27.9285  -24.5535   18.7979 H   0  0  0  0  0  0
  -27.9116  -22.0158   19.2438 H   0  0  0  0  0  0
  1 25  1  0  0  0
  1 30  2  0  0  0
  1 81  1  0  0  0
  2  3  1  0  0  0
  2 25  1  0  0  0
  2 85  1  0  0  0
  2 86  1  0  0  0
  3  4  1  0  0  0
  3 87  1  0  0  0
  3 88  1  0  0  0
  4  5  1  0  0  0
  4 89  1  0  0  0
  4 90  1  0  0  0
  5  6  1  0  0  0
  5 26  1  0  0  0
  5 91  1  0  0  0
  6 25  1  0  0  0
  6 92  1  0  0  0
  6 93  1  0  0  0
  7  8  2  0  0  0
  7 26  1  0  0  0
  7 29  1  0  0  0
  8  9  1  0  0  0
  8 22  1  0  0  0
  9 10  1  0  0  0
  9 27  2  0  0  0
 10 11  2  0  0  0
 10 15  1  0  0  0
 11 12  1  0  0  0
 11 94  1  0  0  0
 12 13  2  0  0  0
 12 95  1  0  0  0
 13 14  1  0  0  0
 13 31  1  0  0  0
 14 15  2  0  0  0
 14 96  1  0  0  0
 15 97  1  0  0  0
 16 17  2  0  0  0
 16 21  1  0  0  0
 16 31  1  0  0  0
 17 18  1  0  0  0
 17 98  1  0  0  0
 18 19  2  0  0  0
 18 99  1  0  0  0
 19 20  1  0  0  0
 19 24  1  0  0  0
 20 21  2  0  0  0
 20100  1  0  0  0
 21 23  1  0  0  0
 22 28  1  0  0  0
 22 32  2  0  0  0
 26 27  1  0  0  0
 28101  1  0  0  0
 28102  1  0  0  0
 29103  1  0  0  0
 29104  1  0  0  0
 33 34  1  0  0  0
 33 66  1  0  0  0
 33 70  2  0  0  0
 34 36  1  0  0  0
 34 59  1  0  0  0
 34105  1  0  0  0
 35 44  2  0  0  0
 35 45  1  0  0  0
 35 68  1  0  0  0
 36 56  1  0  0  0
 36106  1  0  0  0
 37 39  1  0  0  0
 37 47  1  0  0  0
 37 66  1  0  0  0
 37107  1  0  0  0
 38 43  2  0  0  0
 38 46  1  0  0  0
 38 47  1  0  0  0
 39 64  1  0  0  0
 39 67  2  0  0  0
 40 52  1  0  0  0
 40 53  2  0  0  0
 40 58  1  0  0  0
 41108  1  0  0  0
 41109  1  0  0  0
 41110  1  0  0  0
 41 48  1  0  0  0
 42 43  1  0  0  0
 42 66  1  0  0  0
 42111  1  0  0  0
 42112  1  0  0  0
 43 44  1  0  0  0
 44113  1  0  0  0
 45 46  2  0  0  0
 45114  1  0  0  0
 46115  1  0  0  0
 47116  1  0  0  0
 47117  1  0  0  0
 48 56  1  0  0  0
 48 65  1  0  0  0
 48118  1  0  0  0
 49 50  1  0  0  0
 49 53  1  0  0  0
 49 64  1  0  0  0
 49119  1  0  0  0
 50 51  1  0  0  0
 50120  1  0  0  0
 50121  1  0  0  0
 51 52  1  0  0  0
 51122  1  0  0  0
 51123  1  0  0  0
 52124  1  0  0  0
 52125  1  0  0  0
 53 54  1  0  0  0
 54 55  2  0  0  0
 54126  1  0  0  0
 55 57  1  0  0  0
 55127  1  0  0  0
 56 69  2  0  0  0
 57 58  2  0  0  0
 57128  1  0  0  0
 58129  1  0  0  0
 59 60  1  0  0  0
 59 61  1  0  0  0
 59 62  1  0  0  0
 60130  1  0  0  0
 60131  1  0  0  0
 60132  1  0  0  0
 61133  1  0  0  0
 61134  1  0  0  0
 61135  1  0  0  0
 62136  1  0  0  0
 62137  1  0  0  0
 62138  1  0  0  0
 63 65  1  0  0  0
 63139  1  0  0  0
 63140  1  0  0  0
 63141  1  0  0  0
 64142  1  0  0  0
 65143  1  0  0  0
 68 79  1  0  0  0
 71 73  2  0  0  0
 71 75  1  0  0  0
 71144  1  0  0  0
 72 74  1  0  0  0
 72 76  2  0  0  0
 72145  1  0  0  0
 73 76  1  0  0  0
 73 81  1  0  0  0
 74 75  2  0  0  0
 74 80  1  0  0  0
 75 83  1  0  0  0
 76 84  1  0  0  0
 77 79  1  0  0  0
 77 80  1  0  0  0
 77 82  2  0  0  0
 78 81  1  0  0  0
 78146  1  0  0  0
 78147  1  0  0  0
 78148  1  0  0  0
 79149  1  0  0  0
 79150  1  0  0  0
 80151  1  0  0  0
M  ISO  4   1 100  68 101  79 101  81 100
M  END
> <chiral flag>
0

> <version>
0

> <s_m_source_file>
/data/baiqing/PycharmProjects/Reinvent-master-3.2/result/LINK_invent/BTK/process_docking_weight1_custom_sum_contain_oxygen_bond_distance_aromatic_linkinvent_7_9_3/rearranged_h_0012.sdf

> <i_m_source_file_index>
68

> <r_mmod_Potential_Energy-OPLS-2005>
568.348754882812

> <r_mmod_Stretch_Energy-OPLS-2005>
249.150146484375

> <r_mmod_Bend_Energy-OPLS-2005>
271.417388916016

> <r_mmod_Torsional_Energy-OPLS-2005>
293.266143798828

> <r_mmod_Improper_Torsional_Energy-OPLS-2005>
4.88132810592651

> <r_mmod_Van_der_Waal_Energy-OPLS-2005>
134.725982666016

> <r_mmod_Electrostatic_Energy-OPLS-2005>
-332.737152099609

> <r_mmod_Solvation_Energy-OPLS-2005>
-241.123153686523

> <b_mmod_Minimization_Converged-OPLS-2005>
0

> <r_mmod_RMS_Derivative-OPLS-2005>
1.07773613929749

$$$$
69
                    3D
 Structure written by MMmdl.
164172  0  0  1  0            999 V2000
  -30.4537  -15.3634   20.5226 C   0  0  0  0  0  0
  -30.4162  -12.8784   19.6192 C   0  0  0  0  0  0
  -29.5878  -12.6313   18.3328 C   0  0  0  0  0  0
  -28.1052  -12.3965   18.6613 C   0  0  0  0  0  0
  -27.5986  -13.3234   19.8014 C   0  0  2  0  0  0
  -28.5939  -13.5339   20.9644 C   0  0  0  0  0  0
  -25.2244  -13.8306   20.5652 C   0  0  0  0  0  0
  -24.1680  -13.0448   20.9203 C   0  0  0  0  0  0
  -24.6406  -11.6949   20.8632 C   0  0  0  0  0  0
  -23.9101  -10.4296   21.0336 C   0  0  0  0  0  0
  -24.3682   -9.4219   21.9095 C   0  0  0  0  0  0
  -23.6319   -8.2274   22.0734 C   0  0  0  0  0  0
  -22.4265   -8.0331   21.3584 C   0  0  0  0  0  0
  -21.9893   -9.0287   20.4663 C   0  0  0  0  0  0
  -22.7277  -10.2113   20.2996 C   0  0  0  0  0  0
  -21.6876   -6.0722   22.5266 C   0  0  0  0  0  0
  -21.4083   -6.5621   23.8206 C   0  0  0  0  0  0
  -21.3693   -5.6752   24.9175 C   0  0  0  0  0  0
  -21.6058   -4.3026   24.7197 C   0  0  0  0  0  0
  -21.8810   -3.8117   23.4307 C   0  0  0  0  0  0
  -21.9186   -4.6937   22.3378 C   0  0  0  0  0  0
  -22.7667  -13.5115   21.1886 C   0  0  0  0  0  0
  -22.1644   -4.2150   21.0938 F   0  0  0  0  0  0
  -21.5657   -3.4495   25.7686 F   0  0  0  0  0  0
  -29.8410  -14.0622   20.3967 N   0  0  0  0  0  0
  -26.2702  -12.9683   20.2929 N   0  0  0  0  0  0
  -25.9333  -11.6734   20.5466 N   0  0  0  0  0  0
  -22.0340  -12.8132   22.0461 N   0  0  0  0  0  0
  -25.3753  -15.2074   20.4179 N   0  0  0  0  0  0
  -31.6370  -15.2381   20.1981 O   0  0  0  0  0  0
  -21.6680   -6.8877   21.4234 O   0  0  0  0  0  0
  -22.3244  -14.5367   20.6681 O   0  0  0  0  0  0
  -24.6668  -31.8167   23.1626 C   0  0  0  0  0  0
  -25.9308  -32.4559   23.8167 C   0  0  1  0  0  0
  -27.2392  -26.8724   20.2484 C   0  0  0  0  0  0
  -25.5913  -33.8374   24.2017 N   0  0  0  0  0  0
  -23.4889  -30.4241   21.5090 C   0  0  2  0  0  0
  -24.9508  -28.7992   20.1067 C   0  0  0  0  0  0
  -22.7731  -29.4376   22.4717 C   0  0  0  0  0  0
  -18.0340  -28.1344   22.8467 C   0  0  0  0  0  0
  -24.1510  -36.7244   23.2670 C   0  0  0  0  0  0
  -26.0611  -30.6131   21.4023 C   0  0  0  0  0  0
  -26.1295  -29.2002   20.7467 C   0  0  0  0  0  0
  -27.2653  -28.2643   20.7709 C   0  0  0  0  0  0
  -26.0338  -26.6388   19.5379 C   0  0  0  0  0  0
  -24.9362  -27.5478   19.4692 C   0  0  0  0  0  0
  -23.7359  -29.7327   20.1355 C   0  0  0  0  0  0
  -25.4153  -36.2978   24.0311 C   0  0  1  0  0  0
  -20.5973  -28.3688   23.1148 C   0  0  2  0  0  0
  -20.6811  -26.9347   22.5407 C   0  0  0  0  0  0
  -19.5784  -26.6304   21.5218 C   0  0  0  0  0  0
  -18.1974  -26.7881   22.1613 C   0  0  0  0  0  0
  -19.1604  -28.8845   23.2805 C   0  0  0  0  0  0
  -18.9496  -30.1447   23.8844 C   0  0  0  0  0  0
  -17.6488  -30.6575   24.0501 C   0  0  0  0  0  0
  -25.9100  -34.9357   23.5019 C   0  0  0  0  0  0
  -16.5383  -29.9042   23.6305 C   0  0  0  0  0  0
  -16.7315  -28.6427   23.0372 C   0  0  0  0  0  0
  -26.4493  -31.6532   25.0750 C   0  0  0  0  0  0
  -25.3549  -31.3844   26.1354 C   0  0  0  0  0  0
  -27.0411  -30.2875   24.6611 C   0  0  0  0  0  0
  -27.5971  -32.4358   25.7554 C   0  0  0  0  0  0
  -27.5608  -37.1800   24.8434 C   0  0  0  0  0  0
  -21.4384  -29.3001   22.3521 N   0  0  0  0  0  0
  -26.4306  -37.3708   23.9386 N   0  0  0  0  0  0
  -24.7613  -30.9771   22.0796 N   0  0  0  0  0  0
  -23.4243  -28.8007   23.3023 O   0  0  0  0  0  0
  -28.2429  -25.7512   20.4118 O   0  0  0  0  0  0
  -26.5745  -34.8889   22.4643 O   0  0  0  0  0  0
  -23.5701  -32.1166   23.6668 O   0  0  0  0  0  0
  -31.3592  -18.4058   23.5294 C   0  0  0  0  0  0
  -29.7797  -20.1328   22.9263 C   0  0  0  0  0  0
  -30.5021  -19.4449   23.9267 C   0  0  0  0  0  0
  -31.3928  -18.0153   22.1699 C   0  0  0  0  0  0
  -29.6347  -19.7097   21.5495 C   0  0  0  0  0  0
  -30.2257  -18.2157   21.3389 C   0  0  0  0  0  0
  -30.5095  -19.9397   25.3843 C   0  0  0  0  0  0
  -33.8184  -18.7732   22.1420 C   0  0  0  0  0  0
  -32.8266  -18.0297   20.0481 C   0  0  0  0  0  0
  -33.4317  -16.3632   21.9723 C   0  0  0  0  0  0
  -28.9474  -22.5976   21.0332 C   0  0  0  0  0  0
  -28.1409  -24.0734   20.2424 C   0  0  0  0  0  0
  -32.8106  -17.7402   21.5759 C   0  0  0  0  0  0
  -29.8169  -16.7360   20.7265 N   0  0  0  0  0  0
  -28.9760  -20.9224   20.7796 N   0  0  0  0  0  0
  -31.4659  -13.0255   19.3586 H   0  0  0  0  0  0
  -30.4257  -11.9785   20.2326 H   0  0  0  0  0  0
  -29.9906  -11.7775   17.7803 H   0  0  0  0  0  0
  -29.6864  -13.5003   17.6758 H   0  0  0  0  0  0
  -27.9668  -11.3485   18.9268 H   0  0  0  0  0  0
  -27.5277  -12.5711   17.7527 H   0  0  0  0  0  0
  -27.4957  -14.3001   19.3247 H   0  0  0  0  0  0
  -28.7273  -12.6145   21.5285 H   0  0  0  0  0  0
  -28.1795  -14.2604   21.6655 H   0  0  0  0  0  0
  -25.2899   -9.5665   22.4563 H   0  0  0  0  0  0
  -24.0102   -7.4612   22.7380 H   0  0  0  0  0  0
  -21.0857   -8.8777   19.8895 H   0  0  0  0  0  0
  -22.3826  -10.9618   19.6024 H   0  0  0  0  0  0
  -21.2129   -7.6147   23.9716 H   0  0  0  0  0  0
  -21.1555   -6.0510   25.9090 H   0  0  0  0  0  0
  -22.0550   -2.7586   23.2783 H   0  0  0  0  0  0
  -22.4033  -11.9950   22.5057 H   0  0  0  0  0  0
  -21.0868  -13.1041   22.2378 H   0  0  0  0  0  0
  -24.5897  -15.8372   20.5470 H   0  0  0  0  0  0
  -26.2028  -15.6593   20.0583 H   0  0  0  0  0  0
  -26.7422  -32.5037   23.0914 H   0  0  0  0  0  0
  -24.9840  -33.9375   25.0010 H   0  0  0  0  0  0
  -22.8041  -31.2609   21.3379 H   0  0  0  0  0  0
  -23.3780  -35.9552   23.3238 H   0  0  0  0  0  0
  -24.3610  -36.8983   22.2106 H   0  0  0  0  0  0
  -23.7238  -37.6416   23.6762 H   0  0  0  0  0  0
  -26.2588  -31.3667   20.6384 H   0  0  0  0  0  0
  -26.9098  -30.6552   22.0754 H   0  0  0  0  0  0
  -28.1644  -28.5880   21.2737 H   0  0  0  0  0  0
  -25.9041  -25.6781   19.0591 H   0  0  0  0  0  0
  -24.0486  -27.2449   18.9272 H   0  0  0  0  0  0
  -23.8901  -30.5067   19.3840 H   0  0  0  0  0  0
  -22.8425  -29.1948   19.8116 H   0  0  0  0  0  0
  -25.1362  -36.1820   25.0806 H   0  0  0  0  0  0
  -21.0036  -28.3310   24.1271 H   0  0  0  0  0  0
  -20.5626  -26.2326   23.3673 H   0  0  0  0  0  0
  -21.6677  -26.7286   22.1244 H   0  0  0  0  0  0
  -19.6922  -25.6184   21.1332 H   0  0  0  0  0  0
  -19.6739  -27.3053   20.6706 H   0  0  0  0  0  0
  -17.4247  -26.6584   21.4042 H   0  0  0  0  0  0
  -18.0360  -26.0039   22.9015 H   0  0  0  0  0  0
  -19.7993  -30.7258   24.2190 H   0  0  0  0  0  0
  -17.5048  -31.6249   24.5116 H   0  0  0  0  0  0
  -15.5372  -30.2908   23.7664 H   0  0  0  0  0  0
  -15.8710  -28.0715   22.7096 H   0  0  0  0  0  0
  -24.5590  -30.7392   25.7607 H   0  0  0  0  0  0
  -24.8884  -32.3079   26.4801 H   0  0  0  0  0  0
  -25.7661  -30.8897   27.0154 H   0  0  0  0  0  0
  -26.3098  -29.6499   24.1628 H   0  0  0  0  0  0
  -27.3856  -29.7349   25.5376 H   0  0  0  0  0  0
  -27.9092  -30.4035   24.0112 H   0  0  0  0  0  0
  -27.2482  -33.3630   26.2117 H   0  0  0  0  0  0
  -28.3785  -32.6961   25.0397 H   0  0  0  0  0  0
  -28.0631  -31.8504   26.5481 H   0  0  0  0  0  0
  -28.2561  -38.0166   24.7524 H   0  0  0  0  0  0
  -28.1178  -36.2691   24.6201 H   0  0  0  0  0  0
  -27.2314  -37.1374   25.8830 H   0  0  0  0  0  0
  -20.9635  -29.8712   21.6685 H   0  0  0  0  0  0
  -26.0179  -38.2805   24.1294 H   0  0  0  0  0  0
  -32.1260  -18.0625   24.2166 H   0  0  0  0  0  0
  -29.2921  -21.0365   23.2782 H   0  0  0  0  0  0
  -30.8199  -19.1705   26.0989 H   0  0  0  0  0  0
  -29.5020  -20.2322   25.6841 H   0  0  0  0  0  0
  -31.1553  -20.8130   25.5395 H   0  0  0  0  0  0
  -33.4672  -19.7884   21.9784 H   0  0  0  0  0  0
  -34.7950  -18.6637   21.6667 H   0  0  0  0  0  0
  -33.9996  -18.6558   23.2101 H   0  0  0  0  0  0
  -32.4473  -19.0313   19.8388 H   0  0  0  0  0  0
  -32.2235  -17.3667   19.4420 H   0  0  0  0  0  0
  -33.8307  -17.9730   19.6382 H   0  0  0  0  0  0
  -34.2538  -16.4345   22.6877 H   0  0  0  0  0  0
  -33.8811  -15.8714   21.1095 H   0  0  0  0  0  0
  -32.7069  -15.6799   22.4074 H   0  0  0  0  0  0
  -28.7041  -22.7188   22.0959 H   0  0  0  0  0  0
  -30.0066  -22.8728   20.9826 H   0  0  0  0  0  0
  -27.0671  -23.8725   20.2723 H   0  0  0  0  0  0
  -28.3895  -23.9456   19.1804 H   0  0  0  0  0  0
  -28.8224  -16.7056   20.5652 H   0  0  0  0  0  0
  -28.4341  -20.6426   19.9572 H   0  0  0  0  0  0
  1 25  1  0  0  0
  1 30  2  0  0  0
  1 84  1  0  0  0
  2  3  1  0  0  0
  2 25  1  0  0  0
  2 86  1  0  0  0
  2 87  1  0  0  0
  3  4  1  0  0  0
  3 88  1  0  0  0
  3 89  1  0  0  0
  4  5  1  0  0  0
  4 90  1  0  0  0
  4 91  1  0  0  0
  5  6  1  0  0  0
  5 26  1  0  0  0
  5 92  1  0  0  0
  6 25  1  0  0  0
  6 93  1  0  0  0
  6 94  1  0  0  0
  7  8  2  0  0  0
  7 26  1  0  0  0
  7 29  1  0  0  0
  8  9  1  0  0  0
  8 22  1  0  0  0
  9 10  1  0  0  0
  9 27  2  0  0  0
 10 11  2  0  0  0
 10 15  1  0  0  0
 11 12  1  0  0  0
 11 95  1  0  0  0
 12 13  2  0  0  0
 12 96  1  0  0  0
 13 14  1  0  0  0
 13 31  1  0  0  0
 14 15  2  0  0  0
 14 97  1  0  0  0
 15 98  1  0  0  0
 16 17  2  0  0  0
 16 21  1  0  0  0
 16 31  1  0  0  0
 17 18  1  0  0  0
 17 99  1  0  0  0
 18 19  2  0  0  0
 18100  1  0  0  0
 19 20  1  0  0  0
 19 24  1  0  0  0
 20 21  2  0  0  0
 20101  1  0  0  0
 21 23  1  0  0  0
 22 28  1  0  0  0
 22 32  2  0  0  0
 26 27  1  0  0  0
 28102  1  0  0  0
 28103  1  0  0  0
 29104  1  0  0  0
 29105  1  0  0  0
 33 34  1  0  0  0
 33 66  1  0  0  0
 33 70  2  0  0  0
 34 36  1  0  0  0
 34 59  1  0  0  0
 34106  1  0  0  0
 35 44  2  0  0  0
 35 45  1  0  0  0
 35 68  1  0  0  0
 36 56  1  0  0  0
 36107  1  0  0  0
 37 39  1  0  0  0
 37 47  1  0  0  0
 37 66  1  0  0  0
 37108  1  0  0  0
 38 43  2  0  0  0
 38 46  1  0  0  0
 38 47  1  0  0  0
 39 64  1  0  0  0
 39 67  2  0  0  0
 40 52  1  0  0  0
 40 53  2  0  0  0
 40 58  1  0  0  0
 41109  1  0  0  0
 41110  1  0  0  0
 41111  1  0  0  0
 41 48  1  0  0  0
 42 43  1  0  0  0
 42 66  1  0  0  0
 42112  1  0  0  0
 42113  1  0  0  0
 43 44  1  0  0  0
 44114  1  0  0  0
 45 46  2  0  0  0
 45115  1  0  0  0
 46116  1  0  0  0
 47117  1  0  0  0
 47118  1  0  0  0
 48 56  1  0  0  0
 48 65  1  0  0  0
 48119  1  0  0  0
 49 50  1  0  0  0
 49 53  1  0  0  0
 49 64  1  0  0  0
 49120  1  0  0  0
 50 51  1  0  0  0
 50121  1  0  0  0
 50122  1  0  0  0
 51 52  1  0  0  0
 51123  1  0  0  0
 51124  1  0  0  0
 52125  1  0  0  0
 52126  1  0  0  0
 53 54  1  0  0  0
 54 55  2  0  0  0
 54127  1  0  0  0
 55 57  1  0  0  0
 55128  1  0  0  0
 56 69  2  0  0  0
 57 58  2  0  0  0
 57129  1  0  0  0
 58130  1  0  0  0
 59 60  1  0  0  0
 59 61  1  0  0  0
 59 62  1  0  0  0
 60131  1  0  0  0
 60132  1  0  0  0
 60133  1  0  0  0
 61134  1  0  0  0
 61135  1  0  0  0
 61136  1  0  0  0
 62137  1  0  0  0
 62138  1  0  0  0
 62139  1  0  0  0
 63 65  1  0  0  0
 63140  1  0  0  0
 63141  1  0  0  0
 63142  1  0  0  0
 64143  1  0  0  0
 65144  1  0  0  0
 68 82  1  0  0  0
 71 73  2  0  0  0
 71 74  1  0  0  0
 71145  1  0  0  0
 72 73  1  0  0  0
 72 75  2  0  0  0
 72146  1  0  0  0
 73 77  1  0  0  0
 74 76  2  0  0  0
 74 83  1  0  0  0
 75 76  1  0  0  0
 75 85  1  0  0  0
 76 84  1  0  0  0
 77147  1  0  0  0
 77148  1  0  0  0
 77149  1  0  0  0
 78150  1  0  0  0
 78151  1  0  0  0
 78152  1  0  0  0
 78 83  1  0  0  0
 79 83  1  0  0  0
 79153  1  0  0  0
 79154  1  0  0  0
 79155  1  0  0  0
 80 83  1  0  0  0
 80156  1  0  0  0
 80157  1  0  0  0
 80158  1  0  0  0
 81 82  1  0  0  0
 81 85  1  0  0  0
 81159  1  0  0  0
 81160  1  0  0  0
 82161  1  0  0  0
 82162  1  0  0  0
 84163  1  0  0  0
 85164  1  0  0  0
M  ISO  4   1 100  68 101  82 101  84 100
M  END
> <chiral flag>
0

> <version>
0

> <s_m_source_file>
/data/baiqing/PycharmProjects/Reinvent-master-3.2/result/LINK_invent/BTK/process_docking_weight1_custom_sum_contain_oxygen_bond_distance_aromatic_linkinvent_7_9_3/rearranged_h_0012.sdf

> <i_m_source_file_index>
69

> <r_mmod_Potential_Energy-OPLS-2005>
1920.26513671875

> <r_mmod_Stretch_Energy-OPLS-2005>
816.160034179688

> <r_mmod_Bend_Energy-OPLS-2005>
592.744567871094

> <r_mmod_Torsional_Energy-OPLS-2005>
428.082305908203

> <r_mmod_Improper_Torsional_Energy-OPLS-2005>
12.7772312164307

> <r_mmod_Van_der_Waal_Energy-OPLS-2005>
155.727600097656

> <r_mmod_Electrostatic_Energy-OPLS-2005>
-427.947875976562

> <r_mmod_Solvation_Energy-OPLS-2005>
-210.599090576172

> <b_mmod_Minimization_Converged-OPLS-2005>
0

> <r_mmod_RMS_Derivative-OPLS-2005>
12.3070411682129

$$$$
70
                    3D
 Structure written by MMmdl.
151159  0  0  1  0            999 V2000
  -30.5960  -14.7387   20.4722 C   0  0  0  0  0  0
  -30.4449  -12.4475   19.4792 C   0  0  0  0  0  0
  -29.5287  -12.4858   18.2373 C   0  0  0  0  0  0
  -28.0491  -12.3167   18.6408 C   0  0  0  0  0  0
  -27.6411  -13.2214   19.8358 C   0  0  2  0  0  0
  -28.6792  -13.1616   20.9745 C   0  0  0  0  0  0
  -25.2524  -13.8167   20.5645 C   0  0  0  0  0  0
  -24.1798  -13.0449   20.9162 C   0  0  0  0  0  0
  -24.6358  -11.6915   20.8698 C   0  0  0  0  0  0
  -23.9022  -10.4311   21.0401 C   0  0  0  0  0  0
  -24.3590   -9.4234   21.9186 C   0  0  0  0  0  0
  -23.6262   -8.2275   22.0774 C   0  0  0  0  0  0
  -22.4248   -8.0298   21.3562 C   0  0  0  0  0  0
  -21.9870   -9.0265   20.4665 C   0  0  0  0  0  0
  -22.7189  -10.2149   20.3055 C   0  0  0  0  0  0
  -21.6862   -6.0729   22.5273 C   0  0  0  0  0  0
  -21.4021   -6.5621   23.8209 C   0  0  0  0  0  0
  -21.3664   -5.6766   24.9167 C   0  0  0  0  0  0
  -21.6049   -4.3030   24.7209 C   0  0  0  0  0  0
  -21.8827   -3.8133   23.4327 C   0  0  0  0  0  0
  -21.9193   -4.6958   22.3392 C   0  0  0  0  0  0
  -22.7827  -13.5280   21.1809 C   0  0  0  0  0  0
  -22.1664   -4.2148   21.0966 F   0  0  0  0  0  0
  -21.5636   -3.4511   25.7722 F   0  0  0  0  0  0
  -29.9807  -13.5112   20.3921 N   0  0  0  0  0  0
  -26.2916  -12.9343   20.3134 N   0  0  0  0  0  0
  -25.9274  -11.6501   20.5636 N   0  0  0  0  0  0
  -22.0425  -12.8344   22.0379 N   0  0  0  0  0  0
  -25.4205  -15.1899   20.4156 N   0  0  0  0  0  0
  -31.7944  -14.8525   20.1956 O   0  0  0  0  0  0
  -21.6633   -6.8881   21.4238 O   0  0  0  0  0  0
  -22.3561  -14.5607   20.6646 O   0  0  0  0  0  0
  -24.6311  -31.8554   23.1930 C   0  0  0  0  0  0
  -25.9150  -32.4739   23.8271 C   0  0  1  0  0  0
  -27.2234  -27.2683   20.1319 C   0  0  0  0  0  0
  -25.5958  -33.8537   24.2219 N   0  0  0  0  0  0
  -23.4277  -30.4754   21.5352 C   0  0  2  0  0  0
  -24.8775  -28.9172   20.1121 C   0  0  0  0  0  0
  -22.7516  -29.4591   22.4879 C   0  0  0  0  0  0
  -18.0306  -28.1395   22.8472 C   0  0  0  0  0  0
  -24.1496  -36.7274   23.2629 C   0  0  0  0  0  0
  -25.9710  -30.7719   21.3712 C   0  0  0  0  0  0
  -26.0469  -29.3915   20.7199 C   0  0  0  0  0  0
  -27.2264  -28.5787   20.7154 C   0  0  0  0  0  0
  -26.0314  -26.8546   19.5010 C   0  0  0  0  0  0
  -24.8738  -27.6569   19.4938 C   0  0  0  0  0  0
  -23.6464  -29.8025   20.1545 C   0  0  0  0  0  0
  -25.4128  -36.3057   24.0309 C   0  0  1  0  0  0
  -20.5903  -28.3726   23.1288 C   0  0  2  0  0  0
  -20.6798  -26.9437   22.5436 C   0  0  0  0  0  0
  -19.5802  -26.6415   21.5206 C   0  0  0  0  0  0
  -18.1969  -26.7948   22.1606 C   0  0  0  0  0  0
  -19.1543  -28.8877   23.2873 C   0  0  0  0  0  0
  -18.9446  -30.1478   23.8901 C   0  0  0  0  0  0
  -17.6421  -30.6595   24.0561 C   0  0  0  0  0  0
  -25.9066  -34.9428   23.5070 C   0  0  0  0  0  0
  -16.5329  -29.9086   23.6308 C   0  0  0  0  0  0
  -16.7283  -28.6514   23.0320 C   0  0  0  0  0  0
  -26.4528  -31.6562   25.0653 C   0  0  0  0  0  0
  -25.3738  -31.3722   26.1357 C   0  0  0  0  0  0
  -27.0353  -30.2975   24.6127 C   0  0  0  0  0  0
  -27.6078  -32.4288   25.7439 C   0  0  0  0  0  0
  -27.5582  -37.1792   24.8467 C   0  0  0  0  0  0
  -21.4212  -29.3068   22.3670 N   0  0  0  0  0  0
  -26.4298  -37.3760   23.9396 N   0  0  0  0  0  0
  -24.6953  -31.0531   22.0898 N   0  0  0  0  0  0
  -23.4227  -28.8139   23.2978 O   0  0  0  0  0  0
  -28.3224  -26.3837   20.1347 O   0  0  0  0  0  0
  -26.5631  -34.8921   22.4633 O   0  0  0  0  0  0
  -23.5465  -32.1364   23.7239 O   0  0  0  0  0  0
  -30.4180  -19.8902   22.1092 C   0  0  0  0  0  0
  -30.9359  -18.7518   22.7505 C   0  0  0  0  0  0
  -29.6551  -19.7954   20.9233 C   0  0  0  0  0  0
  -30.0362  -17.2440   21.0308 C   0  0  0  0  0  0
  -30.7427  -17.4536   22.2459 C   0  0  0  0  0  0
  -29.4829  -18.4426   20.3944 C   0  0  0  0  0  0
  -28.9482  -22.3184   20.8388 C   0  0  0  0  0  0
  -28.7927  -23.6605   19.9716 C   0  0  0  0  0  0
  -28.1260  -24.9813   20.6490 C   0  0  0  0  0  0
  -29.1646  -21.0568   20.2879 N   0  0  0  0  0  0
  -29.7757  -15.8526   20.5753 N   0  0  0  0  0  0
  -28.8485  -22.4473   22.0615 O   0  0  0  0  0  0
  -31.3314  -16.1501   23.2243 Cl  0  0  0  0  0  0
  -28.5629  -18.2408   18.9438 Cl  0  0  0  0  0  0
  -31.4885  -12.5846   19.1869 H   0  0  0  0  0  0
  -30.3950  -11.4767   19.9766 H   0  0  0  0  0  0
  -29.8189  -11.7020   17.5348 H   0  0  0  0  0  0
  -29.6642  -13.4328   17.7112 H   0  0  0  0  0  0
  -27.9022  -11.2691   18.9077 H   0  0  0  0  0  0
  -27.4043  -12.5053   17.7817 H   0  0  0  0  0  0
  -27.6319  -14.2372   19.4428 H   0  0  0  0  0  0
  -28.7063  -12.1698   21.4273 H   0  0  0  0  0  0
  -28.4068  -13.8542   21.7713 H   0  0  0  0  0  0
  -25.2743   -9.5727   22.4745 H   0  0  0  0  0  0
  -23.9974   -7.4680   22.7512 H   0  0  0  0  0  0
  -21.0795   -8.8784   19.8979 H   0  0  0  0  0  0
  -22.3640  -10.9684   19.6169 H   0  0  0  0  0  0
  -21.2025   -7.6130   23.9715 H   0  0  0  0  0  0
  -21.1464   -6.0488   25.9069 H   0  0  0  0  0  0
  -22.0595   -2.7588   23.2818 H   0  0  0  0  0  0
  -22.3982  -12.0036   22.4874 H   0  0  0  0  0  0
  -21.1068  -13.1476   22.2537 H   0  0  0  0  0  0
  -24.6526  -15.8364   20.5560 H   0  0  0  0  0  0
  -26.2603  -15.6423   20.0824 H   0  0  0  0  0  0
  -26.7213  -32.5401   23.1004 H   0  0  0  0  0  0
  -25.0108  -33.9670   25.0374 H   0  0  0  0  0  0
  -22.7206  -31.2942   21.3854 H   0  0  0  0  0  0
  -23.3744  -35.9618   23.3295 H   0  0  0  0  0  0
  -24.3585  -36.8903   22.2046 H   0  0  0  0  0  0
  -23.7274  -37.6485   23.6653 H   0  0  0  0  0  0
  -26.1054  -31.5326   20.6004 H   0  0  0  0  0  0
  -26.8480  -30.8224   22.0031 H   0  0  0  0  0  0
  -28.1248  -28.9383   21.1968 H   0  0  0  0  0  0
  -25.9876  -25.8892   19.0171 H   0  0  0  0  0  0
  -23.9774  -27.2866   19.0154 H   0  0  0  0  0  0
  -23.7680  -30.5710   19.3908 H   0  0  0  0  0  0
  -22.7659  -29.2295   19.8546 H   0  0  0  0  0  0
  -25.1311  -36.1884   25.0797 H   0  0  0  0  0  0
  -21.0001  -28.3334   24.1410 H   0  0  0  0  0  0
  -20.5642  -26.2339   23.3641 H   0  0  0  0  0  0
  -21.6677  -26.7445   22.1261 H   0  0  0  0  0  0
  -19.6981  -25.6326   21.1235 H   0  0  0  0  0  0
  -19.6756  -27.3236   20.6742 H   0  0  0  0  0  0
  -17.4237  -26.6697   21.4015 H   0  0  0  0  0  0
  -18.0378  -26.0105   22.9010 H   0  0  0  0  0  0
  -19.7905  -30.7311   24.2286 H   0  0  0  0  0  0
  -17.4966  -31.6263   24.5181 H   0  0  0  0  0  0
  -15.5321  -30.2963   23.7628 H   0  0  0  0  0  0
  -15.8703  -28.0820   22.6999 H   0  0  0  0  0  0
  -24.5908  -30.7098   25.7656 H   0  0  0  0  0  0
  -24.8938  -32.2896   26.4769 H   0  0  0  0  0  0
  -25.8039  -30.8887   27.0141 H   0  0  0  0  0  0
  -26.2918  -29.6714   24.1173 H   0  0  0  0  0  0
  -27.4061  -29.7249   25.4645 H   0  0  0  0  0  0
  -27.8800  -30.4221   23.9337 H   0  0  0  0  0  0
  -27.2690  -33.3580   26.2037 H   0  0  0  0  0  0
  -28.3896  -32.6870   25.0274 H   0  0  0  0  0  0
  -28.0739  -31.8388   26.5349 H   0  0  0  0  0  0
  -28.2596  -38.0090   24.7490 H   0  0  0  0  0  0
  -28.1080  -36.2613   24.6311 H   0  0  0  0  0  0
  -27.2282  -37.1463   25.8867 H   0  0  0  0  0  0
  -20.9375  -29.8836   21.6925 H   0  0  0  0  0  0
  -26.0166  -38.2829   24.1398 H   0  0  0  0  0  0
  -30.6240  -20.8469   22.5645 H   0  0  0  0  0  0
  -31.4812  -18.8782   23.6748 H   0  0  0  0  0  0
  -28.2654  -23.4209   19.0479 H   0  0  0  0  0  0
  -29.8054  -23.9269   19.6676 H   0  0  0  0  0  0
  -28.4875  -25.0260   21.6761 H   0  0  0  0  0  0
  -27.0622  -24.7739   20.7623 H   0  0  0  0  0  0
  -29.0090  -20.9936   19.2900 H   0  0  0  0  0  0
  -28.8048  -15.6607   20.3944 H   0  0  0  0  0  0
  1 25  1  0  0  0
  1 30  2  0  0  0
  1 81  1  0  0  0
  2  3  1  0  0  0
  2 25  1  0  0  0
  2 85  1  0  0  0
  2 86  1  0  0  0
  3  4  1  0  0  0
  3 87  1  0  0  0
  3 88  1  0  0  0
  4  5  1  0  0  0
  4 89  1  0  0  0
  4 90  1  0  0  0
  5  6  1  0  0  0
  5 26  1  0  0  0
  5 91  1  0  0  0
  6 25  1  0  0  0
  6 92  1  0  0  0
  6 93  1  0  0  0
  7  8  2  0  0  0
  7 26  1  0  0  0
  7 29  1  0  0  0
  8  9  1  0  0  0
  8 22  1  0  0  0
  9 10  1  0  0  0
  9 27  2  0  0  0
 10 11  2  0  0  0
 10 15  1  0  0  0
 11 12  1  0  0  0
 11 94  1  0  0  0
 12 13  2  0  0  0
 12 95  1  0  0  0
 13 14  1  0  0  0
 13 31  1  0  0  0
 14 15  2  0  0  0
 14 96  1  0  0  0
 15 97  1  0  0  0
 16 17  2  0  0  0
 16 21  1  0  0  0
 16 31  1  0  0  0
 17 18  1  0  0  0
 17 98  1  0  0  0
 18 19  2  0  0  0
 18 99  1  0  0  0
 19 20  1  0  0  0
 19 24  1  0  0  0
 20 21  2  0  0  0
 20100  1  0  0  0
 21 23  1  0  0  0
 22 28  1  0  0  0
 22 32  2  0  0  0
 26 27  1  0  0  0
 28101  1  0  0  0
 28102  1  0  0  0
 29103  1  0  0  0
 29104  1  0  0  0
 33 34  1  0  0  0
 33 66  1  0  0  0
 33 70  2  0  0  0
 34 36  1  0  0  0
 34 59  1  0  0  0
 34105  1  0  0  0
 35 44  2  0  0  0
 35 45  1  0  0  0
 35 68  1  0  0  0
 36 56  1  0  0  0
 36106  1  0  0  0
 37 39  1  0  0  0
 37 47  1  0  0  0
 37 66  1  0  0  0
 37107  1  0  0  0
 38 43  2  0  0  0
 38 46  1  0  0  0
 38 47  1  0  0  0
 39 64  1  0  0  0
 39 67  2  0  0  0
 40 52  1  0  0  0
 40 53  2  0  0  0
 40 58  1  0  0  0
 41108  1  0  0  0
 41109  1  0  0  0
 41110  1  0  0  0
 41 48  1  0  0  0
 42 43  1  0  0  0
 42 66  1  0  0  0
 42111  1  0  0  0
 42112  1  0  0  0
 43 44  1  0  0  0
 44113  1  0  0  0
 45 46  2  0  0  0
 45114  1  0  0  0
 46115  1  0  0  0
 47116  1  0  0  0
 47117  1  0  0  0
 48 56  1  0  0  0
 48 65  1  0  0  0
 48118  1  0  0  0
 49 50  1  0  0  0
 49 53  1  0  0  0
 49 64  1  0  0  0
 49119  1  0  0  0
 50 51  1  0  0  0
 50120  1  0  0  0
 50121  1  0  0  0
 51 52  1  0  0  0
 51122  1  0  0  0
 51123  1  0  0  0
 52124  1  0  0  0
 52125  1  0  0  0
 53 54  1  0  0  0
 54 55  2  0  0  0
 54126  1  0  0  0
 55 57  1  0  0  0
 55127  1  0  0  0
 56 69  2  0  0  0
 57 58  2  0  0  0
 57128  1  0  0  0
 58129  1  0  0  0
 59 60  1  0  0  0
 59 61  1  0  0  0
 59 62  1  0  0  0
 60130  1  0  0  0
 60131  1  0  0  0
 60132  1  0  0  0
 61133  1  0  0  0
 61134  1  0  0  0
 61135  1  0  0  0
 62136  1  0  0  0
 62137  1  0  0  0
 62138  1  0  0  0
 63 65  1  0  0  0
 63139  1  0  0  0
 63140  1  0  0  0
 63141  1  0  0  0
 64142  1  0  0  0
 65143  1  0  0  0
 68 79  1  0  0  0
 71 72  2  0  0  0
 71 73  1  0  0  0
 71144  1  0  0  0
 72 75  1  0  0  0
 72145  1  0  0  0
 73 76  2  0  0  0
 73 80  1  0  0  0
 74 75  2  0  0  0
 74 76  1  0  0  0
 74 81  1  0  0  0
 75 83  1  0  0  0
 76 84  1  0  0  0
 77 78  1  0  0  0
 77 80  1  0  0  0
 77 82  2  0  0  0
 78 79  1  0  0  0
 78146  1  0  0  0
 78147  1  0  0  0
 79148  1  0  0  0
 79149  1  0  0  0
 80150  1  0  0  0
 81151  1  0  0  0
M  ISO  4   1 100  68 101  79 101  81 100
M  END
> <chiral flag>
0

> <version>
0

> <s_m_source_file>
/data/baiqing/PycharmProjects/Reinvent-master-3.2/result/LINK_invent/BTK/process_docking_weight1_custom_sum_contain_oxygen_bond_distance_aromatic_linkinvent_7_9_3/rearranged_h_0012.sdf

> <i_m_source_file_index>
70

> <r_mmod_Potential_Energy-OPLS-2005>
82.6053009033203

> <r_mmod_Stretch_Energy-OPLS-2005>
126.810997009277

> <r_mmod_Bend_Energy-OPLS-2005>
155.672454833984

> <r_mmod_Torsional_Energy-OPLS-2005>
266.557708740234

> <r_mmod_Improper_Torsional_Energy-OPLS-2005>
7.79507827758789

> <r_mmod_Van_der_Waal_Energy-OPLS-2005>
141.281005859375

> <r_mmod_Electrostatic_Energy-OPLS-2005>
-470.591064453125

> <r_mmod_Solvation_Energy-OPLS-2005>
-228.478744506836

> <b_mmod_Minimization_Converged-OPLS-2005>
0

> <r_mmod_RMS_Derivative-OPLS-2005>
3.26555514335632

$$$$
71
                    3D
 Structure written by MMmdl.
168176  0  0  1  0            999 V2000
  -30.5569  -14.9316   20.5193 C   0  0  0  0  0  0
  -30.4433  -12.5912   19.5179 C   0  0  0  0  0  0
  -29.5286  -12.5318   18.2704 C   0  0  0  0  0  0
  -28.0599  -12.3102   18.6736 C   0  0  0  0  0  0
  -27.6295  -13.2395   19.8356 C   0  0  2  0  0  0
  -28.6560  -13.2321   20.9814 C   0  0  0  0  0  0
  -25.2434  -13.8206   20.5688 C   0  0  0  0  0  0
  -24.1737  -13.0432   20.9204 C   0  0  0  0  0  0
  -24.6340  -11.6930   20.8711 C   0  0  0  0  0  0
  -23.9036  -10.4299   21.0397 C   0  0  0  0  0  0
  -24.3611   -9.4220   21.9174 C   0  0  0  0  0  0
  -23.6292   -8.2260   22.0749 C   0  0  0  0  0  0
  -22.4275   -8.0287   21.3540 C   0  0  0  0  0  0
  -21.9898   -9.0242   20.4637 C   0  0  0  0  0  0
  -22.7218  -10.2126   20.3040 C   0  0  0  0  0  0
  -21.6852   -6.0747   22.5298 C   0  0  0  0  0  0
  -21.4007   -6.5647   23.8233 C   0  0  0  0  0  0
  -21.3652   -5.6798   24.9186 C   0  0  0  0  0  0
  -21.6042   -4.3060   24.7238 C   0  0  0  0  0  0
  -21.8820   -3.8158   23.4360 C   0  0  0  0  0  0
  -21.9184   -4.6974   22.3415 C   0  0  0  0  0  0
  -22.7765  -13.5209   21.1883 C   0  0  0  0  0  0
  -22.1643   -4.2161   21.0991 F   0  0  0  0  0  0
  -21.5630   -3.4537   25.7749 F   0  0  0  0  0  0
  -29.9536  -13.6684   20.4331 N   0  0  0  0  0  0
  -26.2842  -12.9414   20.3170 N   0  0  0  0  0  0
  -25.9264  -11.6555   20.5676 N   0  0  0  0  0  0
  -22.0428  -12.8199   22.0463 N   0  0  0  0  0  0
  -25.4146  -15.1940   20.4178 N   0  0  0  0  0  0
  -31.6883  -15.0404   20.0297 O   0  0  0  0  0  0
  -21.6634   -6.8891   21.4260 O   0  0  0  0  0  0
  -22.3432  -14.5499   20.6723 O   0  0  0  0  0  0
  -24.6430  -31.8413   23.1901 C   0  0  0  0  0  0
  -25.9208  -32.4676   23.8283 C   0  0  1  0  0  0
  -27.2213  -27.1317   20.1541 C   0  0  0  0  0  0
  -25.5948  -33.8490   24.2178 N   0  0  0  0  0  0
  -23.4474  -30.4650   21.5295 C   0  0  2  0  0  0
  -24.9020  -28.8979   20.1028 C   0  0  0  0  0  0
  -22.7540  -29.4556   22.4788 C   0  0  0  0  0  0
  -18.0290  -28.1391   22.8446 C   0  0  0  0  0  0
  -24.1488  -36.7264   23.2638 C   0  0  0  0  0  0
  -26.0042  -30.7153   21.3917 C   0  0  0  0  0  0
  -26.0752  -29.3273   20.7332 C   0  0  0  0  0  0
  -27.2297  -28.4576   20.7501 C   0  0  0  0  0  0
  -26.0259  -26.8185   19.4638 C   0  0  0  0  0  0
  -24.8926  -27.6583   19.4504 C   0  0  0  0  0  0
  -23.6761  -29.7974   20.1470 C   0  0  0  0  0  0
  -25.4116  -36.3020   24.0300 C   0  0  1  0  0  0
  -20.5900  -28.3731   23.1174 C   0  0  2  0  0  0
  -20.6764  -26.9417   22.5374 C   0  0  0  0  0  0
  -19.5764  -26.6364   21.5162 C   0  0  0  0  0  0
  -18.1942  -26.7927   22.1587 C   0  0  0  0  0  0
  -19.1546  -28.8871   23.2814 C   0  0  0  0  0  0
  -18.9481  -30.1454   23.8869 C   0  0  0  0  0  0
  -17.6488  -30.6587   24.0552 C   0  0  0  0  0  0
  -25.9067  -34.9391   23.5041 C   0  0  0  0  0  0
  -16.5372  -29.9089   23.6332 C   0  0  0  0  0  0
  -16.7277  -28.6501   23.0356 C   0  0  0  0  0  0
  -26.4539  -31.6570   25.0738 C   0  0  0  0  0  0
  -25.3734  -31.3776   26.1439 C   0  0  0  0  0  0
  -27.0399  -30.2951   24.6358 C   0  0  0  0  0  0
  -27.6046  -32.4355   25.7544 C   0  0  0  0  0  0
  -27.5565  -37.1776   24.8447 C   0  0  0  0  0  0
  -21.4229  -29.3073   22.3539 N   0  0  0  0  0  0
  -26.4272  -37.3736   23.9400 N   0  0  0  0  0  0
  -24.7175  -31.0289   22.0919 N   0  0  0  0  0  0
  -23.4183  -28.8058   23.2900 O   0  0  0  0  0  0
  -28.2671  -26.1389   20.2826 O   0  0  0  0  0  0
  -26.5659  -34.8893   22.4627 O   0  0  0  0  0  0
  -23.5548  -32.1269   23.7136 O   0  0  0  0  0  0
  -29.0858  -18.0694   19.6241 C   0  0  0  0  0  0
  -30.1275  -18.6413   21.6354 C   0  0  0  0  0  0
  -28.8091  -19.4832   19.3827 C   0  0  0  0  0  0
  -29.7759  -17.5461   20.7614 C   0  0  0  0  0  0
  -29.8527  -20.0657   21.4298 C   0  0  0  0  0  0
  -29.2168  -20.5880   20.2431 C   0  0  0  0  0  0
  -28.7090  -23.3021   20.5046 C   0  0  0  0  0  0
  -27.9569  -19.7555   18.1510 C   0  0  0  0  0  0
  -28.7254  -21.3979   24.3270 C   0  0  0  0  0  0
  -31.1838  -20.9582   24.6811 C   0  0  0  0  0  0
  -29.5044  -22.3514   18.4510 C   0  0  0  0  0  0
  -29.7838  -15.8436   22.6006 C   0  0  0  0  0  0
  -28.1647  -24.6805   19.7330 C   0  0  0  0  0  0
  -29.9596  -20.6457   23.8174 C   0  0  0  0  0  0
  -30.2343  -20.9838   22.4217 N   0  0  0  0  0  0
  -29.0689  -22.0872   19.8291 N   0  0  0  0  0  0
  -29.9223  -16.0514   21.1465 N   0  0  0  0  0  0
  -28.7521  -23.3538   21.7357 O   0  0  0  0  0  0
  -31.4753  -12.7558   19.2077 H   0  0  0  0  0  0
  -30.4504  -11.6324   20.0375 H   0  0  0  0  0  0
  -29.8541  -11.7324   17.6037 H   0  0  0  0  0  0
  -29.6161  -13.4589   17.7032 H   0  0  0  0  0  0
  -27.9570  -11.2679   18.9812 H   0  0  0  0  0  0
  -27.4054  -12.4387   17.8109 H   0  0  0  0  0  0
  -27.6085  -14.2484   19.4211 H   0  0  0  0  0  0
  -28.7309  -12.2415   21.4320 H   0  0  0  0  0  0
  -28.2885  -13.8921   21.7628 H   0  0  0  0  0  0
  -25.2762   -9.5711   22.4730 H   0  0  0  0  0  0
  -24.0014   -7.4642   22.7455 H   0  0  0  0  0  0
  -21.0830   -8.8741   19.8939 H   0  0  0  0  0  0
  -22.3660  -10.9648   19.6143 H   0  0  0  0  0  0
  -21.2005   -7.6154   23.9735 H   0  0  0  0  0  0
  -21.1462   -6.0527   25.9088 H   0  0  0  0  0  0
  -22.0600   -2.7620   23.2860 H   0  0  0  0  0  0
  -22.4045  -11.9893   22.4903 H   0  0  0  0  0  0
  -21.1030  -13.1198   22.2634 H   0  0  0  0  0  0
  -24.6630  -15.8603   20.5636 H   0  0  0  0  0  0
  -26.2813  -15.6321   20.1333 H   0  0  0  0  0  0
  -26.7277  -32.5279   23.1017 H   0  0  0  0  0  0
  -25.0070  -33.9603   25.0307 H   0  0  0  0  0  0
  -22.7526  -31.2926   21.3748 H   0  0  0  0  0  0
  -23.3739  -35.9604   23.3265 H   0  0  0  0  0  0
  -24.3584  -36.8944   22.2062 H   0  0  0  0  0  0
  -23.7252  -37.6449   23.6714 H   0  0  0  0  0  0
  -26.1582  -31.4675   20.6173 H   0  0  0  0  0  0
  -26.8752  -30.7683   22.0328 H   0  0  0  0  0  0
  -28.1142  -28.7792   21.2825 H   0  0  0  0  0  0
  -25.9084  -25.8863   18.9389 H   0  0  0  0  0  0
  -24.0023  -27.3312   18.9321 H   0  0  0  0  0  0
  -23.8075  -30.5723   19.3901 H   0  0  0  0  0  0
  -22.7937  -29.2338   19.8398 H   0  0  0  0  0  0
  -25.1307  -36.1840   25.0789 H   0  0  0  0  0  0
  -21.0016  -28.3337   24.1285 H   0  0  0  0  0  0
  -20.5566  -26.2354   23.3600 H   0  0  0  0  0  0
  -21.6637  -26.7350   22.1231 H   0  0  0  0  0  0
  -19.6921  -25.6253   21.1232 H   0  0  0  0  0  0
  -19.6724  -27.3127   20.6651 H   0  0  0  0  0  0
  -17.4184  -26.6613   21.4020 H   0  0  0  0  0  0
  -18.0405  -26.0080   22.9009 H   0  0  0  0  0  0
  -19.7963  -30.7250   24.2240 H   0  0  0  0  0  0
  -17.5056  -31.6274   24.5153 H   0  0  0  0  0  0
  -15.5379  -30.3008   23.7667 H   0  0  0  0  0  0
  -15.8664  -28.0819   22.7120 H   0  0  0  0  0  0
  -24.5909  -30.7127   25.7773 H   0  0  0  0  0  0
  -24.8949  -32.2973   26.4813 H   0  0  0  0  0  0
  -25.8036  -30.8988   27.0245 H   0  0  0  0  0  0
  -26.3027  -29.6672   24.1345 H   0  0  0  0  0  0
  -27.3939  -29.7270   25.4970 H   0  0  0  0  0  0
  -27.8967  -30.4137   23.9724 H   0  0  0  0  0  0
  -27.2601  -33.3654   26.2080 H   0  0  0  0  0  0
  -28.3908  -32.6920   25.0433 H   0  0  0  0  0  0
  -28.0666  -31.8521   26.5518 H   0  0  0  0  0  0
  -28.2538  -38.0111   24.7515 H   0  0  0  0  0  0
  -28.1103  -36.2634   24.6246 H   0  0  0  0  0  0
  -27.2282  -37.1389   25.8849 H   0  0  0  0  0  0
  -20.9397  -29.8873   21.6816 H   0  0  0  0  0  0
  -26.0123  -38.2783   24.1468 H   0  0  0  0  0  0
  -28.6985  -17.3504   18.9166 H   0  0  0  0  0  0
  -30.6562  -18.3772   22.5356 H   0  0  0  0  0  0
  -27.2521  -18.9397   17.9869 H   0  0  0  0  0  0
  -28.5766  -19.8421   17.2591 H   0  0  0  0  0  0
  -27.3593  -20.6600   18.2570 H   0  0  0  0  0  0
  -28.4887  -21.1038   25.3504 H   0  0  0  0  0  0
  -27.8466  -21.1855   23.7169 H   0  0  0  0  0  0
  -28.8807  -22.4774   24.3316 H   0  0  0  0  0  0
  -30.9926  -20.7104   25.7258 H   0  0  0  0  0  0
  -31.4486  -22.0159   24.6353 H   0  0  0  0  0  0
  -32.0518  -20.3793   24.3661 H   0  0  0  0  0  0
  -30.0366  -21.5050   18.0153 H   0  0  0  0  0  0
  -30.2236  -23.1716   18.4162 H   0  0  0  0  0  0
  -28.6643  -22.5995   17.8006 H   0  0  0  0  0  0
  -30.5769  -16.3430   23.1558 H   0  0  0  0  0  0
  -29.8424  -14.8013   22.9219 H   0  0  0  0  0  0
  -28.8230  -16.2300   22.9455 H   0  0  0  0  0  0
  -27.1224  -24.4197   19.5874 H   0  0  0  0  0  0
  -28.5804  -24.7322   18.7298 H   0  0  0  0  0  0
  -29.7314  -19.5861   23.9361 H   0  0  0  0  0  0
  -29.9317  -21.9349   22.1957 H   0  0  0  0  0  0
  1 25  1  0  0  0
  1 30  2  0  0  0
  1 87  1  0  0  0
  2  3  1  0  0  0
  2 25  1  0  0  0
  2 89  1  0  0  0
  2 90  1  0  0  0
  3  4  1  0  0  0
  3 91  1  0  0  0
  3 92  1  0  0  0
  4  5  1  0  0  0
  4 93  1  0  0  0
  4 94  1  0  0  0
  5  6  1  0  0  0
  5 26  1  0  0  0
  5 95  1  0  0  0
  6 25  1  0  0  0
  6 96  1  0  0  0
  6 97  1  0  0  0
  7  8  2  0  0  0
  7 26  1  0  0  0
  7 29  1  0  0  0
  8  9  1  0  0  0
  8 22  1  0  0  0
  9 10  1  0  0  0
  9 27  2  0  0  0
 10 11  2  0  0  0
 10 15  1  0  0  0
 11 12  1  0  0  0
 11 98  1  0  0  0
 12 13  2  0  0  0
 12 99  1  0  0  0
 13 14  1  0  0  0
 13 31  1  0  0  0
 14 15  2  0  0  0
 14100  1  0  0  0
 15101  1  0  0  0
 16 17  2  0  0  0
 16 21  1  0  0  0
 16 31  1  0  0  0
 17 18  1  0  0  0
 17102  1  0  0  0
 18 19  2  0  0  0
 18103  1  0  0  0
 19 20  1  0  0  0
 19 24  1  0  0  0
 20 21  2  0  0  0
 20104  1  0  0  0
 21 23  1  0  0  0
 22 28  1  0  0  0
 22 32  2  0  0  0
 26 27  1  0  0  0
 28105  1  0  0  0
 28106  1  0  0  0
 29107  1  0  0  0
 29108  1  0  0  0
 33 34  1  0  0  0
 33 66  1  0  0  0
 33 70  2  0  0  0
 34 36  1  0  0  0
 34 59  1  0  0  0
 34109  1  0  0  0
 35 44  2  0  0  0
 35 45  1  0  0  0
 35 68  1  0  0  0
 36 56  1  0  0  0
 36110  1  0  0  0
 37 39  1  0  0  0
 37 47  1  0  0  0
 37 66  1  0  0  0
 37111  1  0  0  0
 38 43  2  0  0  0
 38 46  1  0  0  0
 38 47  1  0  0  0
 39 64  1  0  0  0
 39 67  2  0  0  0
 40 52  1  0  0  0
 40 53  2  0  0  0
 40 58  1  0  0  0
 41112  1  0  0  0
 41113  1  0  0  0
 41114  1  0  0  0
 41 48  1  0  0  0
 42 43  1  0  0  0
 42 66  1  0  0  0
 42115  1  0  0  0
 42116  1  0  0  0
 43 44  1  0  0  0
 44117  1  0  0  0
 45 46  2  0  0  0
 45118  1  0  0  0
 46119  1  0  0  0
 47120  1  0  0  0
 47121  1  0  0  0
 48 56  1  0  0  0
 48 65  1  0  0  0
 48122  1  0  0  0
 49 50  1  0  0  0
 49 53  1  0  0  0
 49 64  1  0  0  0
 49123  1  0  0  0
 50 51  1  0  0  0
 50124  1  0  0  0
 50125  1  0  0  0
 51 52  1  0  0  0
 51126  1  0  0  0
 51127  1  0  0  0
 52128  1  0  0  0
 52129  1  0  0  0
 53 54  1  0  0  0
 54 55  2  0  0  0
 54130  1  0  0  0
 55 57  1  0  0  0
 55131  1  0  0  0
 56 69  2  0  0  0
 57 58  2  0  0  0
 57132  1  0  0  0
 58133  1  0  0  0
 59 60  1  0  0  0
 59 61  1  0  0  0
 59 62  1  0  0  0
 60134  1  0  0  0
 60135  1  0  0  0
 60136  1  0  0  0
 61137  1  0  0  0
 61138  1  0  0  0
 61139  1  0  0  0
 62140  1  0  0  0
 62141  1  0  0  0
 62142  1  0  0  0
 63 65  1  0  0  0
 63143  1  0  0  0
 63144  1  0  0  0
 63145  1  0  0  0
 64146  1  0  0  0
 65147  1  0  0  0
 68 83  1  0  0  0
 71 73  2  0  0  0
 71 74  1  0  0  0
 71148  1  0  0  0
 72 74  2  0  0  0
 72 75  1  0  0  0
 72149  1  0  0  0
 73 76  1  0  0  0
 73 78  1  0  0  0
 74 87  1  0  0  0
 75 76  2  0  0  0
 75 85  1  0  0  0
 76 86  1  0  0  0
 77 83  1  0  0  0
 77 86  1  0  0  0
 77 88  2  0  0  0
 78150  1  0  0  0
 78151  1  0  0  0
 78152  1  0  0  0
 79153  1  0  0  0
 79154  1  0  0  0
 79155  1  0  0  0
 79 84  1  0  0  0
 80 84  1  0  0  0
 80156  1  0  0  0
 80157  1  0  0  0
 80158  1  0  0  0
 81 86  1  0  0  0
 81159  1  0  0  0
 81160  1  0  0  0
 81161  1  0  0  0
 82 87  1  0  0  0
 82162  1  0  0  0
 82163  1  0  0  0
 82164  1  0  0  0
 83165  1  0  0  0
 83166  1  0  0  0
 84 85  1  0  0  0
 84167  1  0  0  0
 85168  1  0  0  0
M  ISO  4   1 100  68 101  83 101  87 100
M  END
> <chiral flag>
0

> <version>
0

> <s_m_source_file>
/data/baiqing/PycharmProjects/Reinvent-master-3.2/result/LINK_invent/BTK/process_docking_weight1_custom_sum_contain_oxygen_bond_distance_aromatic_linkinvent_7_9_3/rearranged_h_0012.sdf

> <i_m_source_file_index>
71

> <r_mmod_Potential_Energy-OPLS-2005>
757.67333984375

> <r_mmod_Stretch_Energy-OPLS-2005>
271.090972900391

> <r_mmod_Bend_Energy-OPLS-2005>
287.149353027344

> <r_mmod_Torsional_Energy-OPLS-2005>
350.945251464844

> <r_mmod_Improper_Torsional_Energy-OPLS-2005>
9.61846923828125

> <r_mmod_Van_der_Waal_Energy-OPLS-2005>
160.62109375

> <r_mmod_Electrostatic_Energy-OPLS-2005>
-294.715362548828

> <r_mmod_Solvation_Energy-OPLS-2005>
-216.530975341797

> <b_mmod_Minimization_Converged-OPLS-2005>
0

> <r_mmod_RMS_Derivative-OPLS-2005>
2.68643403053284

$$$$
72
                    3D
 Structure written by MMmdl.
152160  0  0  1  0            999 V2000
  -30.5316  -14.9123   20.4310 C   0  0  0  0  0  0
  -30.4488  -12.5605   19.5017 C   0  0  0  0  0  0
  -29.5284  -12.5432   18.2586 C   0  0  0  0  0  0
  -28.0556  -12.3417   18.6645 C   0  0  0  0  0  0
  -27.6386  -13.2483   19.8525 C   0  0  2  0  0  0
  -28.6825  -13.2273   20.9905 C   0  0  0  0  0  0
  -25.2465  -13.8220   20.5705 C   0  0  0  0  0  0
  -24.1777  -13.0436   20.9205 C   0  0  0  0  0  0
  -24.6403  -11.6917   20.8742 C   0  0  0  0  0  0
  -23.9088  -10.4289   21.0406 C   0  0  0  0  0  0
  -24.3634   -9.4196   21.9190 C   0  0  0  0  0  0
  -23.6293   -8.2242   22.0757 C   0  0  0  0  0  0
  -22.4281   -8.0293   21.3548 C   0  0  0  0  0  0
  -21.9916   -9.0272   20.4651 C   0  0  0  0  0  0
  -22.7256  -10.2137   20.3061 C   0  0  0  0  0  0
  -21.6860   -6.0742   22.5281 C   0  0  0  0  0  0
  -21.4020   -6.5646   23.8212 C   0  0  0  0  0  0
  -21.3655   -5.6794   24.9174 C   0  0  0  0  0  0
  -21.6042   -4.3060   24.7212 C   0  0  0  0  0  0
  -21.8816   -3.8151   23.4333 C   0  0  0  0  0  0
  -21.9186   -4.6972   22.3389 C   0  0  0  0  0  0
  -22.7793  -13.5214   21.1860 C   0  0  0  0  0  0
  -22.1654   -4.2156   21.0967 F   0  0  0  0  0  0
  -21.5617   -3.4539   25.7727 F   0  0  0  0  0  0
  -29.9699  -13.6382   20.4106 N   0  0  0  0  0  0
  -26.2927  -12.9455   20.3299 N   0  0  0  0  0  0
  -25.9346  -11.6581   20.5755 N   0  0  0  0  0  0
  -22.0419  -12.8236   22.0427 N   0  0  0  0  0  0
  -25.4091  -15.1959   20.4152 N   0  0  0  0  0  0
  -31.7117  -15.0330   20.0843 O   0  0  0  0  0  0
  -21.6641   -6.8897   21.4251 O   0  0  0  0  0  0
  -22.3476  -14.5496   20.6672 O   0  0  0  0  0  0
  -24.6430  -31.8440   23.1885 C   0  0  0  0  0  0
  -25.9196  -32.4700   23.8297 C   0  0  1  0  0  0
  -27.2308  -27.1506   20.1359 C   0  0  0  0  0  0
  -25.5932  -33.8509   24.2209 N   0  0  0  0  0  0
  -23.4478  -30.4620   21.5322 C   0  0  2  0  0  0
  -24.8981  -28.8907   20.1060 C   0  0  0  0  0  0
  -22.7575  -29.4532   22.4842 C   0  0  0  0  0  0
  -18.0304  -28.1389   22.8472 C   0  0  0  0  0  0
  -24.1473  -36.7269   23.2649 C   0  0  0  0  0  0
  -26.0028  -30.7199   21.3854 C   0  0  0  0  0  0
  -26.0727  -29.3326   20.7263 C   0  0  0  0  0  0
  -27.2341  -28.4767   20.7275 C   0  0  0  0  0  0
  -26.0270  -26.8056   19.4787 C   0  0  0  0  0  0
  -24.8872  -27.6405   19.4685 C   0  0  0  0  0  0
  -23.6749  -29.7927   20.1502 C   0  0  0  0  0  0
  -25.4102  -36.3037   24.0325 C   0  0  1  0  0  0
  -20.5917  -28.3714   23.1219 C   0  0  2  0  0  0
  -20.6768  -26.9408   22.5400 C   0  0  0  0  0  0
  -19.5745  -26.6369   21.5204 C   0  0  0  0  0  0
  -18.1933  -26.7928   22.1623 C   0  0  0  0  0  0
  -19.1562  -28.8868   23.2843 C   0  0  0  0  0  0
  -18.9482  -30.1461   23.8877 C   0  0  0  0  0  0
  -17.6474  -30.6578   24.0560 C   0  0  0  0  0  0
  -25.9054  -34.9409   23.5080 C   0  0  0  0  0  0
  -16.5368  -29.9076   23.6324 C   0  0  0  0  0  0
  -16.7288  -28.6495   23.0351 C   0  0  0  0  0  0
  -26.4505  -31.6577   25.0747 C   0  0  0  0  0  0
  -25.3704  -31.3786   26.1461 C   0  0  0  0  0  0
  -27.0371  -30.2974   24.6333 C   0  0  0  0  0  0
  -27.6024  -32.4356   25.7534 C   0  0  0  0  0  0
  -27.5564  -37.1787   24.8464 C   0  0  0  0  0  0
  -21.4264  -29.3045   22.3599 N   0  0  0  0  0  0
  -26.4272  -37.3743   23.9411 N   0  0  0  0  0  0
  -24.7178  -31.0300   22.0908 N   0  0  0  0  0  0
  -23.4210  -28.8076   23.2991 O   0  0  0  0  0  0
  -28.3160  -26.2080   20.2396 O   0  0  0  0  0  0
  -26.5650  -34.8901   22.4662 O   0  0  0  0  0  0
  -23.5545  -32.1316   23.7085 O   0  0  0  0  0  0
  -30.5673  -18.3774   19.7809 C   0  0  0  0  0  0
  -28.4619  -19.7547   20.9836 C   0  0  0  0  0  0
  -29.6879  -17.5405   20.5417 C   0  0  0  0  0  0
  -29.3128  -20.5930   20.1913 C   0  0  0  0  0  0
  -28.6362  -18.3191   21.1386 C   0  0  0  0  0  0
  -30.3798  -19.8117   19.6089 C   0  0  0  0  0  0
  -27.5094  -23.0568   21.5280 C   0  0  0  0  0  0
  -28.3506  -24.7431   19.7230 C   0  0  0  0  0  0
  -28.6837  -23.3355   20.5860 C   0  0  2  0  0  0
  -29.6987  -16.0187   20.7115 N   0  0  0  0  0  0
  -29.1312  -22.0346   19.8506 N   0  0  0  0  0  0
  -27.7246  -17.6485   21.8818 F   0  0  0  0  0  0
  -31.2656  -20.4663   18.8180 F   0  0  0  0  0  0
  -31.4834  -12.7186   19.1944 H   0  0  0  0  0  0
  -30.4331  -11.5964   20.0121 H   0  0  0  0  0  0
  -29.8371  -11.7568   17.5677 H   0  0  0  0  0  0
  -29.6351  -13.4859   17.7199 H   0  0  0  0  0  0
  -27.9295  -11.2941   18.9388 H   0  0  0  0  0  0
  -27.4013  -12.5141   17.8087 H   0  0  0  0  0  0
  -27.6157  -14.2643   19.4578 H   0  0  0  0  0  0
  -28.7543  -12.2322   21.4334 H   0  0  0  0  0  0
  -28.3854  -13.9003   21.7963 H   0  0  0  0  0  0
  -25.2776   -9.5663   22.4783 H   0  0  0  0  0  0
  -23.9981   -7.4638   22.7494 H   0  0  0  0  0  0
  -21.0833   -8.8816   19.8981 H   0  0  0  0  0  0
  -22.3720  -10.9691   19.6186 H   0  0  0  0  0  0
  -21.2032   -7.6157   23.9719 H   0  0  0  0  0  0
  -21.1478   -6.0529   25.9084 H   0  0  0  0  0  0
  -22.0595   -2.7614   23.2836 H   0  0  0  0  0  0
  -22.4036  -11.9930   22.4880 H   0  0  0  0  0  0
  -21.1044  -13.1308   22.2601 H   0  0  0  0  0  0
  -24.6379  -15.8423   20.5434 H   0  0  0  0  0  0
  -26.2558  -15.6524   20.1012 H   0  0  0  0  0  0
  -26.7287  -32.5302   23.1053 H   0  0  0  0  0  0
  -25.0038  -33.9627   25.0328 H   0  0  0  0  0  0
  -22.7507  -31.2878   21.3770 H   0  0  0  0  0  0
  -23.3723  -35.9613   23.3305 H   0  0  0  0  0  0
  -24.3562  -36.8907   22.2067 H   0  0  0  0  0  0
  -23.7237  -37.6470   23.6686 H   0  0  0  0  0  0
  -26.1592  -31.4717   20.6101 H   0  0  0  0  0  0
  -26.8749  -30.7709   22.0265 H   0  0  0  0  0  0
  -28.1291  -28.8110   21.2340 H   0  0  0  0  0  0
  -25.9159  -25.8548   18.9846 H   0  0  0  0  0  0
  -23.9905  -27.2983   18.9699 H   0  0  0  0  0  0
  -23.8146  -30.5711   19.3996 H   0  0  0  0  0  0
  -22.7905  -29.2369   19.8335 H   0  0  0  0  0  0
  -25.1277  -36.1883   25.0818 H   0  0  0  0  0  0
  -21.0013  -28.3309   24.1339 H   0  0  0  0  0  0
  -20.5621  -26.2334   23.3627 H   0  0  0  0  0  0
  -21.6636  -26.7367   22.1220 H   0  0  0  0  0  0
  -19.6890  -25.6273   21.1250 H   0  0  0  0  0  0
  -19.6686  -27.3166   20.6727 H   0  0  0  0  0  0
  -17.4188  -26.6666   21.4045 H   0  0  0  0  0  0
  -18.0344  -26.0083   22.9034 H   0  0  0  0  0  0
  -19.7956  -30.7284   24.2245 H   0  0  0  0  0  0
  -17.5023  -31.6250   24.5172 H   0  0  0  0  0  0
  -15.5367  -30.2974   23.7638 H   0  0  0  0  0  0
  -15.8696  -28.0802   22.7075 H   0  0  0  0  0  0
  -24.5845  -30.7169   25.7805 H   0  0  0  0  0  0
  -24.8944  -32.2984   26.4874 H   0  0  0  0  0  0
  -25.7995  -30.8970   27.0260 H   0  0  0  0  0  0
  -26.2999  -29.6711   24.1301 H   0  0  0  0  0  0
  -27.3938  -29.7259   25.4914 H   0  0  0  0  0  0
  -27.8920  -30.4215   23.9685 H   0  0  0  0  0  0
  -27.2588  -33.3655   26.2084 H   0  0  0  0  0  0
  -28.3846  -32.6938   25.0384 H   0  0  0  0  0  0
  -28.0687  -31.8528   26.5490 H   0  0  0  0  0  0
  -28.2569  -38.0089   24.7474 H   0  0  0  0  0  0
  -28.1062  -36.2614   24.6306 H   0  0  0  0  0  0
  -27.2290  -37.1455   25.8870 H   0  0  0  0  0  0
  -20.9469  -29.8817   21.6835 H   0  0  0  0  0  0
  -26.0141  -38.2815   24.1405 H   0  0  0  0  0  0
  -31.4039  -17.9163   19.2773 H   0  0  0  0  0  0
  -27.5988  -20.1953   21.4552 H   0  0  0  0  0  0
  -27.2340  -23.9618   22.0704 H   0  0  0  0  0  0
  -27.7624  -22.3085   22.2783 H   0  0  0  0  0  0
  -26.6262  -22.7247   20.9812 H   0  0  0  0  0  0
  -27.4638  -24.5322   19.1331 H   0  0  0  0  0  0
  -29.1386  -24.7913   18.9716 H   0  0  0  0  0  0
  -29.5417  -23.5857   21.2111 H   0  0  0  0  0  0
  -28.8219  -15.6960   21.0922 H   0  0  0  0  0  0
  -29.7454  -22.2686   19.0723 H   0  0  0  0  0  0
  1 25  1  0  0  0
  1 30  2  0  0  0
  1 80  1  0  0  0
  2  3  1  0  0  0
  2 25  1  0  0  0
  2 84  1  0  0  0
  2 85  1  0  0  0
  3  4  1  0  0  0
  3 86  1  0  0  0
  3 87  1  0  0  0
  4  5  1  0  0  0
  4 88  1  0  0  0
  4 89  1  0  0  0
  5  6  1  0  0  0
  5 26  1  0  0  0
  5 90  1  0  0  0
  6 25  1  0  0  0
  6 91  1  0  0  0
  6 92  1  0  0  0
  7  8  2  0  0  0
  7 26  1  0  0  0
  7 29  1  0  0  0
  8  9  1  0  0  0
  8 22  1  0  0  0
  9 10  1  0  0  0
  9 27  2  0  0  0
 10 11  2  0  0  0
 10 15  1  0  0  0
 11 12  1  0  0  0
 11 93  1  0  0  0
 12 13  2  0  0  0
 12 94  1  0  0  0
 13 14  1  0  0  0
 13 31  1  0  0  0
 14 15  2  0  0  0
 14 95  1  0  0  0
 15 96  1  0  0  0
 16 17  2  0  0  0
 16 21  1  0  0  0
 16 31  1  0  0  0
 17 18  1  0  0  0
 17 97  1  0  0  0
 18 19  2  0  0  0
 18 98  1  0  0  0
 19 20  1  0  0  0
 19 24  1  0  0  0
 20 21  2  0  0  0
 20 99  1  0  0  0
 21 23  1  0  0  0
 22 28  1  0  0  0
 22 32  2  0  0  0
 26 27  1  0  0  0
 28100  1  0  0  0
 28101  1  0  0  0
 29102  1  0  0  0
 29103  1  0  0  0
 33 34  1  0  0  0
 33 66  1  0  0  0
 33 70  2  0  0  0
 34 36  1  0  0  0
 34 59  1  0  0  0
 34104  1  0  0  0
 35 44  2  0  0  0
 35 45  1  0  0  0
 35 68  1  0  0  0
 36 56  1  0  0  0
 36105  1  0  0  0
 37 39  1  0  0  0
 37 47  1  0  0  0
 37 66  1  0  0  0
 37106  1  0  0  0
 38 43  2  0  0  0
 38 46  1  0  0  0
 38 47  1  0  0  0
 39 64  1  0  0  0
 39 67  2  0  0  0
 40 52  1  0  0  0
 40 53  2  0  0  0
 40 58  1  0  0  0
 41107  1  0  0  0
 41108  1  0  0  0
 41109  1  0  0  0
 41 48  1  0  0  0
 42 43  1  0  0  0
 42 66  1  0  0  0
 42110  1  0  0  0
 42111  1  0  0  0
 43 44  1  0  0  0
 44112  1  0  0  0
 45 46  2  0  0  0
 45113  1  0  0  0
 46114  1  0  0  0
 47115  1  0  0  0
 47116  1  0  0  0
 48 56  1  0  0  0
 48 65  1  0  0  0
 48117  1  0  0  0
 49 50  1  0  0  0
 49 53  1  0  0  0
 49 64  1  0  0  0
 49118  1  0  0  0
 50 51  1  0  0  0
 50119  1  0  0  0
 50120  1  0  0  0
 51 52  1  0  0  0
 51121  1  0  0  0
 51122  1  0  0  0
 52123  1  0  0  0
 52124  1  0  0  0
 53 54  1  0  0  0
 54 55  2  0  0  0
 54125  1  0  0  0
 55 57  1  0  0  0
 55126  1  0  0  0
 56 69  2  0  0  0
 57 58  2  0  0  0
 57127  1  0  0  0
 58128  1  0  0  0
 59 60  1  0  0  0
 59 61  1  0  0  0
 59 62  1  0  0  0
 60129  1  0  0  0
 60130  1  0  0  0
 60131  1  0  0  0
 61132  1  0  0  0
 61133  1  0  0  0
 61134  1  0  0  0
 62135  1  0  0  0
 62136  1  0  0  0
 62137  1  0  0  0
 63 65  1  0  0  0
 63138  1  0  0  0
 63139  1  0  0  0
 63140  1  0  0  0
 64141  1  0  0  0
 65142  1  0  0  0
 68 78  1  0  0  0
 71 73  2  0  0  0
 71 76  1  0  0  0
 71143  1  0  0  0
 72 74  1  0  0  0
 72 75  2  0  0  0
 72144  1  0  0  0
 73 75  1  0  0  0
 73 80  1  0  0  0
 74 76  2  0  0  0
 74 81  1  0  0  0
 75 82  1  0  0  0
 76 83  1  0  0  0
 77145  1  0  0  0
 77146  1  0  0  0
 77147  1  0  0  0
 77 79  1  0  0  0
 78 79  1  0  0  0
 78148  1  0  0  0
 78149  1  0  0  0
 79 81  1  0  0  0
 79150  1  0  0  0
 80151  1  0  0  0
 81152  1  0  0  0
M  ISO  4   1 100  68 101  78 101  80 100
M  END
> <chiral flag>
0

> <version>
0

> <s_m_source_file>
/data/baiqing/PycharmProjects/Reinvent-master-3.2/result/LINK_invent/BTK/process_docking_weight1_custom_sum_contain_oxygen_bond_distance_aromatic_linkinvent_7_9_3/rearranged_h_0012.sdf

> <i_m_source_file_index>
72

> <r_mmod_Potential_Energy-OPLS-2005>
413.297546386719

> <r_mmod_Stretch_Energy-OPLS-2005>
215.085372924805

> <r_mmod_Bend_Energy-OPLS-2005>
287.837951660156

> <r_mmod_Torsional_Energy-OPLS-2005>
210.662551879883

> <r_mmod_Improper_Torsional_Energy-OPLS-2005>
5.33845376968384

> <r_mmod_Van_der_Waal_Energy-OPLS-2005>
128.125839233398

> <r_mmod_Electrostatic_Energy-OPLS-2005>
-398.311798095703

> <r_mmod_Solvation_Energy-OPLS-2005>
-205.795547485352

> <b_mmod_Minimization_Converged-OPLS-2005>
0

> <r_mmod_RMS_Derivative-OPLS-2005>
2.18533611297607

$$$$
73
                    3D
 Structure written by MMmdl.
162170  0  0  1  0            999 V2000
  -30.6817  -14.4624   20.5236 C   0  0  0  0  0  0
  -30.4241  -12.2795   19.4242 C   0  0  0  0  0  0
  -29.5001  -12.4890   18.2034 C   0  0  0  0  0  0
  -28.0187  -12.3489   18.6012 C   0  0  0  0  0  0
  -27.6569  -13.1889   19.8575 C   0  0  2  0  0  0
  -28.6983  -12.9923   20.9856 C   0  0  0  0  0  0
  -25.2617  -13.8127   20.5686 C   0  0  0  0  0  0
  -24.1823  -13.0476   20.9107 C   0  0  0  0  0  0
  -24.6292  -11.6910   20.8693 C   0  0  0  0  0  0
  -23.8942  -10.4333   21.0384 C   0  0  0  0  0  0
  -24.3557   -9.4275   21.9191 C   0  0  0  0  0  0
  -23.6280   -8.2274   22.0744 C   0  0  0  0  0  0
  -22.4281   -8.0277   21.3482 C   0  0  0  0  0  0
  -21.9837   -9.0237   20.4602 C   0  0  0  0  0  0
  -22.7103  -10.2157   20.3021 C   0  0  0  0  0  0
  -21.6835   -6.0707   22.5251 C   0  0  0  0  0  0
  -21.4012   -6.5611   23.8200 C   0  0  0  0  0  0
  -21.3696   -5.6741   24.9154 C   0  0  0  0  0  0
  -21.6042   -4.3007   24.7175 C   0  0  0  0  0  0
  -21.8830   -3.8096   23.4310 C   0  0  0  0  0  0
  -21.9222   -4.6929   22.3378 C   0  0  0  0  0  0
  -22.7884  -13.5333   21.1770 C   0  0  0  0  0  0
  -22.1672   -4.2147   21.0949 F   0  0  0  0  0  0
  -21.5688   -3.4503   25.7695 F   0  0  0  0  0  0
  -30.0295  -13.2754   20.4268 N   0  0  0  0  0  0
  -26.2970  -12.9230   20.3229 N   0  0  0  0  0  0
  -25.9192  -11.6412   20.5666 N   0  0  0  0  0  0
  -22.0452  -12.8387   22.0312 N   0  0  0  0  0  0
  -25.4398  -15.1866   20.4317 N   0  0  0  0  0  0
  -31.8461  -14.6386   20.1588 O   0  0  0  0  0  0
  -21.6625   -6.8877   21.4218 O   0  0  0  0  0  0
  -22.3650  -14.5680   20.6645 O   0  0  0  0  0  0
  -24.6172  -31.8729   23.2105 C   0  0  0  0  0  0
  -25.9114  -32.4825   23.8386 C   0  0  1  0  0  0
  -27.2100  -27.4260   20.0877 C   0  0  0  0  0  0
  -25.6030  -33.8625   24.2361 N   0  0  0  0  0  0
  -23.4004  -30.4997   21.5526 C   0  0  2  0  0  0
  -24.8391  -28.9687   20.1116 C   0  0  0  0  0  0
  -22.7363  -29.4742   22.4961 C   0  0  0  0  0  0
  -18.0287  -28.1339   22.8417 C   0  0  0  0  0  0
  -24.1467  -36.7293   23.2631 C   0  0  0  0  0  0
  -25.9321  -30.8270   21.3702 C   0  0  0  0  0  0
  -25.9985  -29.4623   20.7209 C   0  0  0  0  0  0
  -27.1865  -28.6921   20.7206 C   0  0  0  0  0  0
  -26.0445  -26.9792   19.4238 C   0  0  0  0  0  0
  -24.8537  -27.7263   19.4633 C   0  0  0  0  0  0
  -23.6092  -29.8423   20.1649 C   0  0  0  0  0  0
  -25.4083  -36.3119   24.0375 C   0  0  1  0  0  0
  -20.5868  -28.3677   23.1272 C   0  0  2  0  0  0
  -20.6829  -26.9415   22.5425 C   0  0  0  0  0  0
  -19.5890  -26.6349   21.5173 C   0  0  0  0  0  0
  -18.1989  -26.7899   22.1463 C   0  0  0  0  0  0
  -19.1506  -28.8809   23.2871 C   0  0  0  0  0  0
  -18.9448  -30.1399   23.8942 C   0  0  0  0  0  0
  -17.6459  -30.6527   24.0616 C   0  0  0  0  0  0
  -25.9045  -34.9493   23.5139 C   0  0  0  0  0  0
  -16.5349  -29.9054   23.6272 C   0  0  0  0  0  0
  -16.7268  -28.6477   23.0237 C   0  0  0  0  0  0
  -26.4537  -31.6586   25.0670 C   0  0  0  0  0  0
  -25.3815  -31.3681   26.1416 C   0  0  0  0  0  0
  -27.0366  -30.3048   24.6017 C   0  0  0  0  0  0
  -27.6136  -32.4241   25.7439 C   0  0  0  0  0  0
  -27.5585  -37.1813   24.8478 C   0  0  0  0  0  0
  -21.4087  -29.3098   22.3687 N   0  0  0  0  0  0
  -26.4289  -37.3791   23.9418 N   0  0  0  0  0  0
  -24.6669  -31.0878   22.0997 N   0  0  0  0  0  0
  -23.4094  -28.8260   23.3017 O   0  0  0  0  0  0
  -28.3623  -26.6697   20.1418 O   0  0  0  0  0  0
  -26.5525  -34.8970   22.4655 O   0  0  0  0  0  0
  -23.5388  -32.1432   23.7563 O   0  0  0  0  0  0
  -29.4149  -18.4484   23.6189 C   0  0  0  0  0  0
  -29.1566  -18.7454   22.2623 C   0  0  0  0  0  0
  -29.7217  -16.4389   21.6399 C   0  0  0  0  0  0
  -29.7999  -17.1400   23.9821 C   0  0  0  0  0  0
  -29.3204  -17.7386   21.2877 C   0  0  0  0  0  0
  -29.9405  -16.1299   23.0042 C   0  0  0  0  0  0
  -28.6607  -22.4140   21.5639 C   0  0  0  0  0  0
  -26.1081  -24.0433   21.0387 C   0  0  0  0  0  0
  -28.6081  -23.9804   23.4817 C   0  0  0  0  0  0
  -29.0095  -21.2440   22.5119 C   0  0  0  0  0  0
  -28.2374  -25.2321   20.0916 C   0  0  0  0  0  0
  -27.5147  -24.6250   21.3407 C   0  0  2  0  0  0
  -29.8554  -15.5135   20.5718 N   0  0  0  0  0  0
  -28.7205  -19.9928   21.8132 N   0  0  0  0  0  0
  -28.3299  -23.6266   22.0818 N   0  0  0  0  0  0
  -28.6390  -22.1877   20.3464 O   0  0  0  0  0  0
  -30.0263  -16.8431   25.2838 F   0  0  0  0  0  0
  -29.0756  -18.0339   19.9835 F   0  0  0  0  0  0
  -30.2669  -14.8738   23.3838 F   0  0  0  0  0  0
  -31.4768  -12.3615   19.1423 H   0  0  0  0  0  0
  -30.3066  -11.2736   19.8321 H   0  0  0  0  0  0
  -29.7431  -11.7845   17.4062 H   0  0  0  0  0  0
  -29.6676  -13.4810   17.7822 H   0  0  0  0  0  0
  -27.8174  -11.2954   18.7938 H   0  0  0  0  0  0
  -27.3922  -12.6262   17.7548 H   0  0  0  0  0  0
  -27.6856  -14.2330   19.5500 H   0  0  0  0  0  0
  -28.6705  -11.9675   21.3632 H   0  0  0  0  0  0
  -28.4783  -13.6391   21.8348 H   0  0  0  0  0  0
  -25.2738   -9.5810   22.4714 H   0  0  0  0  0  0
  -24.0009   -7.4693   22.7499 H   0  0  0  0  0  0
  -21.0737   -8.8712   19.8948 H   0  0  0  0  0  0
  -22.3527  -10.9672   19.6110 H   0  0  0  0  0  0
  -21.1955   -7.6114   23.9707 H   0  0  0  0  0  0
  -21.1511   -6.0460   25.9081 H   0  0  0  0  0  0
  -22.0583   -2.7555   23.2771 H   0  0  0  0  0  0
  -22.3959  -12.0106   22.4863 H   0  0  0  0  0  0
  -21.1083  -13.1512   22.2393 H   0  0  0  0  0  0
  -24.6831  -15.8473   20.5763 H   0  0  0  0  0  0
  -26.3106  -15.6335   20.1744 H   0  0  0  0  0  0
  -26.7150  -32.5450   23.1116 H   0  0  0  0  0  0
  -25.0483  -33.9736   25.0712 H   0  0  0  0  0  0
  -22.6815  -31.3101   21.4207 H   0  0  0  0  0  0
  -23.3740  -35.9616   23.3266 H   0  0  0  0  0  0
  -24.3605  -36.8885   22.2053 H   0  0  0  0  0  0
  -23.7173  -37.6499   23.6587 H   0  0  0  0  0  0
  -26.0311  -31.5881   20.5946 H   0  0  0  0  0  0
  -26.8295  -30.8826   21.9764 H   0  0  0  0  0  0
  -28.0724  -29.0462   21.2298 H   0  0  0  0  0  0
  -26.0244  -26.0524   18.8703 H   0  0  0  0  0  0
  -23.9683  -27.3458   18.9714 H   0  0  0  0  0  0
  -23.7393  -30.6145   19.4081 H   0  0  0  0  0  0
  -22.7280  -29.2765   19.8573 H   0  0  0  0  0  0
  -25.1202  -36.2044   25.0868 H   0  0  0  0  0  0
  -20.9933  -28.3261   24.1407 H   0  0  0  0  0  0
  -20.5832  -26.2256   23.3620 H   0  0  0  0  0  0
  -21.6684  -26.7577   22.1156 H   0  0  0  0  0  0
  -19.7224  -25.6236   21.1261 H   0  0  0  0  0  0
  -19.6981  -27.3089   20.6677 H   0  0  0  0  0  0
  -17.4378  -26.6749   21.3742 H   0  0  0  0  0  0
  -18.0423  -25.9991   22.8775 H   0  0  0  0  0  0
  -19.7924  -30.7204   24.2342 H   0  0  0  0  0  0
  -17.4965  -31.6161   24.5267 H   0  0  0  0  0  0
  -15.5337  -30.2962   23.7487 H   0  0  0  0  0  0
  -15.8698  -28.0788   22.6883 H   0  0  0  0  0  0
  -24.6036  -30.6981   25.7730 H   0  0  0  0  0  0
  -24.8975  -32.2824   26.4845 H   0  0  0  0  0  0
  -25.8233  -30.8875   27.0171 H   0  0  0  0  0  0
  -26.2944  -29.6777   24.1100 H   0  0  0  0  0  0
  -27.4154  -29.7292   25.4480 H   0  0  0  0  0  0
  -27.8729  -30.4288   23.9144 H   0  0  0  0  0  0
  -27.2851  -33.3547   26.2054 H   0  0  0  0  0  0
  -28.4012  -32.6784   25.0332 H   0  0  0  0  0  0
  -28.0740  -31.8323   26.5350 H   0  0  0  0  0  0
  -28.2602  -38.0100   24.7518 H   0  0  0  0  0  0
  -28.1089  -36.2663   24.6293 H   0  0  0  0  0  0
  -27.2331  -37.1437   25.8885 H   0  0  0  0  0  0
  -20.9247  -29.8718   21.6834 H   0  0  0  0  0  0
  -26.0215  -38.2893   24.1397 H   0  0  0  0  0  0
  -29.2995  -19.1917   24.3941 H   0  0  0  0  0  0
  -25.4196  -24.7939   20.6599 H   0  0  0  0  0  0
  -25.6422  -23.6489   21.9449 H   0  0  0  0  0  0
  -26.1479  -23.2441   20.2940 H   0  0  0  0  0  0
  -29.5119  -23.5092   23.8694 H   0  0  0  0  0  0
  -27.7768  -23.6938   24.1251 H   0  0  0  0  0  0
  -28.7747  -25.0531   23.5838 H   0  0  0  0  0  0
  -28.3896  -21.2951   23.4100 H   0  0  0  0  0  0
  -30.0571  -21.3016   22.8161 H   0  0  0  0  0  0
  -27.7945  -24.9002   19.1521 H   0  0  0  0  0  0
  -29.2619  -24.8647   20.0379 H   0  0  0  0  0  0
  -27.3243  -25.4544   22.0208 H   0  0  0  0  0  0
  -29.8355  -16.0038   19.6833 H   0  0  0  0  0  0
  -28.6110  -20.0939   20.8011 H   0  0  0  0  0  0
  1 25  1  0  0  0
  1 30  2  0  0  0
  1 83  1  0  0  0
  2  3  1  0  0  0
  2 25  1  0  0  0
  2 90  1  0  0  0
  2 91  1  0  0  0
  3  4  1  0  0  0
  3 92  1  0  0  0
  3 93  1  0  0  0
  4  5  1  0  0  0
  4 94  1  0  0  0
  4 95  1  0  0  0
  5  6  1  0  0  0
  5 26  1  0  0  0
  5 96  1  0  0  0
  6 25  1  0  0  0
  6 97  1  0  0  0
  6 98  1  0  0  0
  7  8  2  0  0  0
  7 26  1  0  0  0
  7 29  1  0  0  0
  8  9  1  0  0  0
  8 22  1  0  0  0
  9 10  1  0  0  0
  9 27  2  0  0  0
 10 11  2  0  0  0
 10 15  1  0  0  0
 11 12  1  0  0  0
 11 99  1  0  0  0
 12 13  2  0  0  0
 12100  1  0  0  0
 13 14  1  0  0  0
 13 31  1  0  0  0
 14 15  2  0  0  0
 14101  1  0  0  0
 15102  1  0  0  0
 16 17  2  0  0  0
 16 21  1  0  0  0
 16 31  1  0  0  0
 17 18  1  0  0  0
 17103  1  0  0  0
 18 19  2  0  0  0
 18104  1  0  0  0
 19 20  1  0  0  0
 19 24  1  0  0  0
 20 21  2  0  0  0
 20105  1  0  0  0
 21 23  1  0  0  0
 22 28  1  0  0  0
 22 32  2  0  0  0
 26 27  1  0  0  0
 28106  1  0  0  0
 28107  1  0  0  0
 29108  1  0  0  0
 29109  1  0  0  0
 33 34  1  0  0  0
 33 66  1  0  0  0
 33 70  2  0  0  0
 34 36  1  0  0  0
 34 59  1  0  0  0
 34110  1  0  0  0
 35 44  2  0  0  0
 35 45  1  0  0  0
 35 68  1  0  0  0
 36 56  1  0  0  0
 36111  1  0  0  0
 37 39  1  0  0  0
 37 47  1  0  0  0
 37 66  1  0  0  0
 37112  1  0  0  0
 38 43  2  0  0  0
 38 46  1  0  0  0
 38 47  1  0  0  0
 39 64  1  0  0  0
 39 67  2  0  0  0
 40 52  1  0  0  0
 40 53  2  0  0  0
 40 58  1  0  0  0
 41113  1  0  0  0
 41114  1  0  0  0
 41115  1  0  0  0
 41 48  1  0  0  0
 42 43  1  0  0  0
 42 66  1  0  0  0
 42116  1  0  0  0
 42117  1  0  0  0
 43 44  1  0  0  0
 44118  1  0  0  0
 45 46  2  0  0  0
 45119  1  0  0  0
 46120  1  0  0  0
 47121  1  0  0  0
 47122  1  0  0  0
 48 56  1  0  0  0
 48 65  1  0  0  0
 48123  1  0  0  0
 49 50  1  0  0  0
 49 53  1  0  0  0
 49 64  1  0  0  0
 49124  1  0  0  0
 50 51  1  0  0  0
 50125  1  0  0  0
 50126  1  0  0  0
 51 52  1  0  0  0
 51127  1  0  0  0
 51128  1  0  0  0
 52129  1  0  0  0
 52130  1  0  0  0
 53 54  1  0  0  0
 54 55  2  0  0  0
 54131  1  0  0  0
 55 57  1  0  0  0
 55132  1  0  0  0
 56 69  2  0  0  0
 57 58  2  0  0  0
 57133  1  0  0  0
 58134  1  0  0  0
 59 60  1  0  0  0
 59 61  1  0  0  0
 59 62  1  0  0  0
 60135  1  0  0  0
 60136  1  0  0  0
 60137  1  0  0  0
 61138  1  0  0  0
 61139  1  0  0  0
 61140  1  0  0  0
 62141  1  0  0  0
 62142  1  0  0  0
 62143  1  0  0  0
 63 65  1  0  0  0
 63144  1  0  0  0
 63145  1  0  0  0
 63146  1  0  0  0
 64147  1  0  0  0
 65148  1  0  0  0
 68 81  1  0  0  0
 71 72  2  0  0  0
 71 74  1  0  0  0
 71149  1  0  0  0
 72 75  1  0  0  0
 72 84  1  0  0  0
 73 75  2  0  0  0
 73 76  1  0  0  0
 73 83  1  0  0  0
 74 76  2  0  0  0
 74 87  1  0  0  0
 75 88  1  0  0  0
 76 89  1  0  0  0
 77 80  1  0  0  0
 77 85  1  0  0  0
 77 86  2  0  0  0
 78150  1  0  0  0
 78151  1  0  0  0
 78152  1  0  0  0
 78 82  1  0  0  0
 79 85  1  0  0  0
 79153  1  0  0  0
 79154  1  0  0  0
 79155  1  0  0  0
 80 84  1  0  0  0
 80156  1  0  0  0
 80157  1  0  0  0
 81 82  1  0  0  0
 81158  1  0  0  0
 81159  1  0  0  0
 82 85  1  0  0  0
 82160  1  0  0  0
 83161  1  0  0  0
 84162  1  0  0  0
M  ISO  4   1 100  68 101  81 101  83 100
M  END
> <chiral flag>
0

> <version>
0

> <s_m_source_file>
/data/baiqing/PycharmProjects/Reinvent-master-3.2/result/LINK_invent/BTK/process_docking_weight1_custom_sum_contain_oxygen_bond_distance_aromatic_linkinvent_7_9_3/rearranged_h_0012.sdf

> <i_m_source_file_index>
73

> <r_mmod_Potential_Energy-OPLS-2005>
54.992504119873

> <r_mmod_Stretch_Energy-OPLS-2005>
40.8389282226562

> <r_mmod_Bend_Energy-OPLS-2005>
121.712387084961

> <r_mmod_Torsional_Energy-OPLS-2005>
293.911071777344

> <r_mmod_Improper_Torsional_Energy-OPLS-2005>
20.46169090271

> <r_mmod_Van_der_Waal_Energy-OPLS-2005>
167.225860595703

> <r_mmod_Electrostatic_Energy-OPLS-2005>
-398.750396728516

> <r_mmod_Solvation_Energy-OPLS-2005>
-209.281066894531

> <b_mmod_Minimization_Converged-OPLS-2005>
0

> <r_mmod_RMS_Derivative-OPLS-2005>
8.18093776702881

$$$$
74
                    3D
 Structure written by MMmdl.
155163  0  0  1  0            999 V2000
  -30.5234  -15.0158   20.4287 C   0  0  0  0  0  0
  -30.4435  -12.6370   19.5097 C   0  0  0  0  0  0
  -29.5312  -12.5511   18.2624 C   0  0  0  0  0  0
  -28.0645  -12.3213   18.6774 C   0  0  0  0  0  0
  -27.6267  -13.2550   19.8364 C   0  0  2  0  0  0
  -28.6665  -13.3118   20.9765 C   0  0  0  0  0  0
  -25.2436  -13.8235   20.5699 C   0  0  0  0  0  0
  -24.1758  -13.0453   20.9226 C   0  0  0  0  0  0
  -24.6381  -11.6935   20.8738 C   0  0  0  0  0  0
  -23.9084  -10.4295   21.0400 C   0  0  0  0  0  0
  -24.3635   -9.4219   21.9190 C   0  0  0  0  0  0
  -23.6294   -8.2256   22.0762 C   0  0  0  0  0  0
  -22.4268   -8.0293   21.3555 C   0  0  0  0  0  0
  -21.9902   -9.0267   20.4654 C   0  0  0  0  0  0
  -22.7246  -10.2139   20.3062 C   0  0  0  0  0  0
  -21.6842   -6.0736   22.5270 C   0  0  0  0  0  0
  -21.4026   -6.5639   23.8212 C   0  0  0  0  0  0
  -21.3664   -5.6790   24.9171 C   0  0  0  0  0  0
  -21.6039   -4.3050   24.7215 C   0  0  0  0  0  0
  -21.8817   -3.8144   23.4332 C   0  0  0  0  0  0
  -21.9189   -4.6963   22.3391 C   0  0  0  0  0  0
  -22.7779  -13.5225   21.1865 C   0  0  0  0  0  0
  -22.1651   -4.2152   21.0965 F   0  0  0  0  0  0
  -21.5636   -3.4531   25.7729 F   0  0  0  0  0  0
  -29.9338  -13.7461   20.3724 N   0  0  0  0  0  0
  -26.2862  -12.9475   20.3211 N   0  0  0  0  0  0
  -25.9315  -11.6605   20.5725 N   0  0  0  0  0  0
  -22.0408  -12.8234   22.0422 N   0  0  0  0  0  0
  -25.4069  -15.1968   20.4116 N   0  0  0  0  0  0
  -31.7350  -15.0584   20.1858 O   0  0  0  0  0  0
  -21.6640   -6.8876   21.4236 O   0  0  0  0  0  0
  -22.3459  -14.5524   20.6700 O   0  0  0  0  0  0
  -24.6479  -31.8396   23.1836 C   0  0  0  0  0  0
  -25.9223  -32.4679   23.8256 C   0  0  1  0  0  0
  -27.2098  -27.0799   20.1614 C   0  0  0  0  0  0
  -25.5944  -33.8490   24.2171 N   0  0  0  0  0  0
  -23.4549  -30.4567   21.5328 C   0  0  2  0  0  0
  -24.9024  -28.8734   20.1121 C   0  0  0  0  0  0
  -22.7598  -29.4500   22.4849 C   0  0  0  0  0  0
  -18.0301  -28.1392   22.8458 C   0  0  0  0  0  0
  -24.1484  -36.7245   23.2643 C   0  0  0  0  0  0
  -26.0163  -30.6933   21.3916 C   0  0  0  0  0  0
  -26.0835  -29.3004   20.7318 C   0  0  0  0  0  0
  -27.2390  -28.4226   20.7328 C   0  0  0  0  0  0
  -25.9987  -26.7630   19.5084 C   0  0  0  0  0  0
  -24.8753  -27.6193   19.4851 C   0  0  0  0  0  0
  -23.6825  -29.7827   20.1544 C   0  0  0  0  0  0
  -25.4122  -36.3024   24.0311 C   0  0  1  0  0  0
  -20.5917  -28.3718   23.1219 C   0  0  2  0  0  0
  -20.6781  -26.9411   22.5405 C   0  0  0  0  0  0
  -19.5761  -26.6367   21.5207 C   0  0  0  0  0  0
  -18.1941  -26.7929   22.1612 C   0  0  0  0  0  0
  -19.1559  -28.8877   23.2828 C   0  0  0  0  0  0
  -18.9477  -30.1475   23.8854 C   0  0  0  0  0  0
  -17.6470  -30.6588   24.0552 C   0  0  0  0  0  0
  -25.9076  -34.9401   23.5061 C   0  0  0  0  0  0
  -16.5357  -29.9075   23.6338 C   0  0  0  0  0  0
  -16.7285  -28.6495   23.0355 C   0  0  0  0  0  0
  -26.4514  -31.6580   25.0737 C   0  0  0  0  0  0
  -25.3671  -31.3798   26.1417 C   0  0  0  0  0  0
  -27.0390  -30.2961   24.6387 C   0  0  0  0  0  0
  -27.6028  -32.4367   25.7535 C   0  0  0  0  0  0
  -27.5579  -37.1766   24.8456 C   0  0  0  0  0  0
  -21.4286  -29.3040   22.3597 N   0  0  0  0  0  0
  -26.4282  -37.3745   23.9409 N   0  0  0  0  0  0
  -24.7273  -31.0188   22.0907 N   0  0  0  0  0  0
  -23.4218  -28.8047   23.3015 O   0  0  0  0  0  0
  -28.2477  -26.0624   20.2324 O   0  0  0  0  0  0
  -26.5687  -34.8900   22.4653 O   0  0  0  0  0  0
  -23.5579  -32.1299   23.7013 O   0  0  0  0  0  0
  -31.3334  -18.1598   20.9348 C   0  0  0  0  0  0
  -30.7735  -20.5843   20.8470 C   0  0  0  0  0  0
  -31.6892  -19.5253   21.0738 C   0  0  0  0  0  0
  -30.0303  -17.7437   20.5797 C   0  0  0  0  0  0
  -29.4303  -20.3730   20.4720 C   0  0  0  0  0  0
  -29.0961  -18.9008   20.3611 C   0  0  0  0  0  0
  -33.1050  -19.8834   21.4864 C   0  0  0  0  0  0
  -27.2590  -21.3204   19.7449 C   0  0  0  0  0  0
  -28.9930  -23.1571   20.3536 C   0  0  0  0  0  0
  -27.9542  -24.5105   20.1226 C   0  0  0  0  0  0
  -29.7335  -16.2149   20.5218 N   0  0  0  0  0  0
  -28.5926  -21.6188   20.2593 N   0  0  0  0  0  0
  -27.8263  -18.5615   20.0306 F   0  0  0  0  0  0
  -31.4773  -12.8029   19.2009 H   0  0  0  0  0  0
  -30.4452  -11.6927   20.0574 H   0  0  0  0  0  0
  -29.8674  -11.7544   17.5988 H   0  0  0  0  0  0
  -29.6111  -13.4769   17.6893 H   0  0  0  0  0  0
  -27.9677  -11.2805   18.9891 H   0  0  0  0  0  0
  -27.4040  -12.4492   17.8192 H   0  0  0  0  0  0
  -27.5826  -14.2518   19.3981 H   0  0  0  0  0  0
  -28.7678  -12.3449   21.4723 H   0  0  0  0  0  0
  -28.3526  -14.0198   21.7449 H   0  0  0  0  0  0
  -25.2783   -9.5709   22.4764 H   0  0  0  0  0  0
  -24.0008   -7.4648   22.7481 H   0  0  0  0  0  0
  -21.0830   -8.8782   19.8956 H   0  0  0  0  0  0
  -22.3700  -10.9676   19.6169 H   0  0  0  0  0  0
  -21.2035   -7.6153   23.9717 H   0  0  0  0  0  0
  -21.1484   -6.0519   25.9075 H   0  0  0  0  0  0
  -22.0592   -2.7611   23.2820 H   0  0  0  0  0  0
  -22.4015  -11.9919   22.4867 H   0  0  0  0  0  0
  -21.1031  -13.1278   22.2615 H   0  0  0  0  0  0
  -24.6356  -15.8448   20.5270 H   0  0  0  0  0  0
  -26.2416  -15.6390   20.0499 H   0  0  0  0  0  0
  -26.7299  -32.5246   23.0987 H   0  0  0  0  0  0
  -25.0034  -33.9587   25.0282 H   0  0  0  0  0  0
  -22.7593  -31.2834   21.3759 H   0  0  0  0  0  0
  -23.3765  -35.9554   23.3285 H   0  0  0  0  0  0
  -24.3560  -36.8909   22.2062 H   0  0  0  0  0  0
  -23.7214  -37.6418   23.6709 H   0  0  0  0  0  0
  -26.1832  -31.4421   20.6161 H   0  0  0  0  0  0
  -26.8833  -30.7422   22.0394 H   0  0  0  0  0  0
  -28.1395  -28.7436   21.2357 H   0  0  0  0  0  0
  -25.8784  -25.8011   19.0340 H   0  0  0  0  0  0
  -23.9707  -27.2857   18.9954 H   0  0  0  0  0  0
  -23.8212  -30.5554   19.3983 H   0  0  0  0  0  0
  -22.7949  -29.2290   19.8447 H   0  0  0  0  0  0
  -25.1302  -36.1856   25.0800 H   0  0  0  0  0  0
  -21.0000  -28.3316   24.1341 H   0  0  0  0  0  0
  -20.5662  -26.2325   23.3627 H   0  0  0  0  0  0
  -21.6647  -26.7400   22.1207 H   0  0  0  0  0  0
  -19.6924  -25.6271   21.1260 H   0  0  0  0  0  0
  -19.6709  -27.3153   20.6720 H   0  0  0  0  0  0
  -17.4201  -26.6658   21.4022 H   0  0  0  0  0  0
  -18.0343  -26.0088   22.9026 H   0  0  0  0  0  0
  -19.7950  -30.7310   24.2200 H   0  0  0  0  0  0
  -17.5018  -31.6258   24.5174 H   0  0  0  0  0  0
  -15.5358  -30.2965   23.7700 H   0  0  0  0  0  0
  -15.8675  -28.0813   22.7098 H   0  0  0  0  0  0
  -24.5818  -30.7194   25.7726 H   0  0  0  0  0  0
  -24.8883  -32.2989   26.4800 H   0  0  0  0  0  0
  -25.7896  -30.8975   27.0238 H   0  0  0  0  0  0
  -26.3028  -29.6679   24.1362 H   0  0  0  0  0  0
  -27.3931  -29.7279   25.5001 H   0  0  0  0  0  0
  -27.8968  -30.4183   23.9774 H   0  0  0  0  0  0
  -27.2601  -33.3674   26.2075 H   0  0  0  0  0  0
  -28.3852  -32.6933   25.0384 H   0  0  0  0  0  0
  -28.0698  -31.8538   26.5484 H   0  0  0  0  0  0
  -28.2565  -38.0094   24.7527 H   0  0  0  0  0  0
  -28.1096  -36.2613   24.6246 H   0  0  0  0  0  0
  -27.2288  -37.1380   25.8855 H   0  0  0  0  0  0
  -20.9511  -29.8744   21.6757 H   0  0  0  0  0  0
  -26.0147  -38.2805   24.1432 H   0  0  0  0  0  0
  -32.0911  -17.4150   21.1329 H   0  0  0  0  0  0
  -31.1319  -21.5956   20.9726 H   0  0  0  0  0  0
  -33.6689  -19.0040   21.8000 H   0  0  0  0  0  0
  -33.0971  -20.5883   22.3182 H   0  0  0  0  0  0
  -33.6359  -20.3513   20.6572 H   0  0  0  0  0  0
  -26.6960  -20.7088   20.4524 H   0  0  0  0  0  0
  -27.3227  -20.7709   18.8048 H   0  0  0  0  0  0
  -26.6710  -22.2192   19.5592 H   0  0  0  0  0  0
  -29.4419  -23.2814   21.3404 H   0  0  0  0  0  0
  -29.8221  -23.2855   19.6573 H   0  0  0  0  0  0
  -27.1071  -24.3476   20.7899 H   0  0  0  0  0  0
  -27.5513  -24.3799   19.1182 H   0  0  0  0  0  0
  -28.7467  -16.0102   20.5593 H   0  0  0  0  0  0
  1 25  1  0  0  0
  1 30  2  0  0  0
  1 81  1  0  0  0
  2  3  1  0  0  0
  2 25  1  0  0  0
  2 84  1  0  0  0
  2 85  1  0  0  0
  3  4  1  0  0  0
  3 86  1  0  0  0
  3 87  1  0  0  0
  4  5  1  0  0  0
  4 88  1  0  0  0
  4 89  1  0  0  0
  5  6  1  0  0  0
  5 26  1  0  0  0
  5 90  1  0  0  0
  6 25  1  0  0  0
  6 91  1  0  0  0
  6 92  1  0  0  0
  7  8  2  0  0  0
  7 26  1  0  0  0
  7 29  1  0  0  0
  8  9  1  0  0  0
  8 22  1  0  0  0
  9 10  1  0  0  0
  9 27  2  0  0  0
 10 11  2  0  0  0
 10 15  1  0  0  0
 11 12  1  0  0  0
 11 93  1  0  0  0
 12 13  2  0  0  0
 12 94  1  0  0  0
 13 14  1  0  0  0
 13 31  1  0  0  0
 14 15  2  0  0  0
 14 95  1  0  0  0
 15 96  1  0  0  0
 16 17  2  0  0  0
 16 21  1  0  0  0
 16 31  1  0  0  0
 17 18  1  0  0  0
 17 97  1  0  0  0
 18 19  2  0  0  0
 18 98  1  0  0  0
 19 20  1  0  0  0
 19 24  1  0  0  0
 20 21  2  0  0  0
 20 99  1  0  0  0
 21 23  1  0  0  0
 22 28  1  0  0  0
 22 32  2  0  0  0
 26 27  1  0  0  0
 28100  1  0  0  0
 28101  1  0  0  0
 29102  1  0  0  0
 29103  1  0  0  0
 33 34  1  0  0  0
 33 66  1  0  0  0
 33 70  2  0  0  0
 34 36  1  0  0  0
 34 59  1  0  0  0
 34104  1  0  0  0
 35 44  2  0  0  0
 35 45  1  0  0  0
 35 68  1  0  0  0
 36 56  1  0  0  0
 36105  1  0  0  0
 37 39  1  0  0  0
 37 47  1  0  0  0
 37 66  1  0  0  0
 37106  1  0  0  0
 38 43  2  0  0  0
 38 46  1  0  0  0
 38 47  1  0  0  0
 39 64  1  0  0  0
 39 67  2  0  0  0
 40 52  1  0  0  0
 40 53  2  0  0  0
 40 58  1  0  0  0
 41107  1  0  0  0
 41108  1  0  0  0
 41109  1  0  0  0
 41 48  1  0  0  0
 42 43  1  0  0  0
 42 66  1  0  0  0
 42110  1  0  0  0
 42111  1  0  0  0
 43 44  1  0  0  0
 44112  1  0  0  0
 45 46  2  0  0  0
 45113  1  0  0  0
 46114  1  0  0  0
 47115  1  0  0  0
 47116  1  0  0  0
 48 56  1  0  0  0
 48 65  1  0  0  0
 48117  1  0  0  0
 49 50  1  0  0  0
 49 53  1  0  0  0
 49 64  1  0  0  0
 49118  1  0  0  0
 50 51  1  0  0  0
 50119  1  0  0  0
 50120  1  0  0  0
 51 52  1  0  0  0
 51121  1  0  0  0
 51122  1  0  0  0
 52123  1  0  0  0
 52124  1  0  0  0
 53 54  1  0  0  0
 54 55  2  0  0  0
 54125  1  0  0  0
 55 57  1  0  0  0
 55126  1  0  0  0
 56 69  2  0  0  0
 57 58  2  0  0  0
 57127  1  0  0  0
 58128  1  0  0  0
 59 60  1  0  0  0
 59 61  1  0  0  0
 59 62  1  0  0  0
 60129  1  0  0  0
 60130  1  0  0  0
 60131  1  0  0  0
 61132  1  0  0  0
 61133  1  0  0  0
 61134  1  0  0  0
 62135  1  0  0  0
 62136  1  0  0  0
 62137  1  0  0  0
 63 65  1  0  0  0
 63138  1  0  0  0
 63139  1  0  0  0
 63140  1  0  0  0
 64141  1  0  0  0
 65142  1  0  0  0
 68 80  1  0  0  0
 71 73  2  0  0  0
 71 74  1  0  0  0
 71143  1  0  0  0
 72 73  1  0  0  0
 72 75  2  0  0  0
 72144  1  0  0  0
 73 77  1  0  0  0
 74 76  2  0  0  0
 74 81  1  0  0  0
 75 76  1  0  0  0
 75 82  1  0  0  0
 76 83  1  0  0  0
 77145  1  0  0  0
 77146  1  0  0  0
 77147  1  0  0  0
 78 82  1  0  0  0
 78148  1  0  0  0
 78149  1  0  0  0
 78150  1  0  0  0
 79 80  1  0  0  0
 79 82  1  0  0  0
 79151  1  0  0  0
 79152  1  0  0  0
 80153  1  0  0  0
 80154  1  0  0  0
 81155  1  0  0  0
M  ISO  4   1 100  68 101  80 101  81 100
M  END
> <chiral flag>
0

> <version>
0

> <s_m_source_file>
/data/baiqing/PycharmProjects/Reinvent-master-3.2/result/LINK_invent/BTK/process_docking_weight1_custom_sum_contain_oxygen_bond_distance_aromatic_linkinvent_7_9_3/rearranged_h_0012.sdf

> <i_m_source_file_index>
74

> <r_mmod_Potential_Energy-OPLS-2005>
665.698913574219

> <r_mmod_Stretch_Energy-OPLS-2005>
323.906524658203

> <r_mmod_Bend_Energy-OPLS-2005>
276.238433837891

> <r_mmod_Torsional_Energy-OPLS-2005>
206.71403503418

> <r_mmod_Improper_Torsional_Energy-OPLS-2005>
5.28707408905029

> <r_mmod_Van_der_Waal_Energy-OPLS-2005>
132.843673706055

> <r_mmod_Electrostatic_Energy-OPLS-2005>
-303.124725341797

> <r_mmod_Solvation_Energy-OPLS-2005>
-220.419082641602

> <b_mmod_Minimization_Converged-OPLS-2005>
0

> <r_mmod_RMS_Derivative-OPLS-2005>
2.38167190551758

$$$$
75
                    3D
 Structure written by MMmdl.
154162  0  0  1  0            999 V2000
  -30.5866  -14.7938   20.4419 C   0  0  0  0  0  0
  -30.4388  -12.4811   19.4901 C   0  0  0  0  0  0
  -29.5190  -12.5144   18.2486 C   0  0  0  0  0  0
  -28.0452  -12.3327   18.6582 C   0  0  0  0  0  0
  -27.6432  -13.2361   19.8537 C   0  0  2  0  0  0
  -28.6856  -13.1824   20.9928 C   0  0  0  0  0  0
  -25.2521  -13.8205   20.5719 C   0  0  0  0  0  0
  -24.1808  -13.0445   20.9209 C   0  0  0  0  0  0
  -24.6400  -11.6922   20.8750 C   0  0  0  0  0  0
  -23.9074  -10.4297   21.0411 C   0  0  0  0  0  0
  -24.3622   -9.4205   21.9182 C   0  0  0  0  0  0
  -23.6296   -8.2243   22.0752 C   0  0  0  0  0  0
  -22.4277   -8.0287   21.3545 C   0  0  0  0  0  0
  -21.9916   -9.0262   20.4646 C   0  0  0  0  0  0
  -22.7250  -10.2139   20.3056 C   0  0  0  0  0  0
  -21.6854   -6.0740   22.5282 C   0  0  0  0  0  0
  -21.4019   -6.5643   23.8217 C   0  0  0  0  0  0
  -21.3661   -5.6791   24.9176 C   0  0  0  0  0  0
  -21.6043   -4.3053   24.7222 C   0  0  0  0  0  0
  -21.8820   -3.8147   23.4344 C   0  0  0  0  0  0
  -21.9195   -4.6967   22.3403 C   0  0  0  0  0  0
  -22.7828  -13.5225   21.1862 C   0  0  0  0  0  0
  -22.1663   -4.2153   21.0980 F   0  0  0  0  0  0
  -21.5621   -3.4534   25.7732 F   0  0  0  0  0  0
  -29.9867  -13.5486   20.4177 N   0  0  0  0  0  0
  -26.2949  -12.9415   20.3299 N   0  0  0  0  0  0
  -25.9335  -11.6553   20.5755 N   0  0  0  0  0  0
  -22.0472  -12.8222   22.0422 N   0  0  0  0  0  0
  -25.4211  -15.1936   20.4166 N   0  0  0  0  0  0
  -31.7680  -14.8919   20.0924 O   0  0  0  0  0  0
  -21.6641   -6.8886   21.4245 O   0  0  0  0  0  0
  -22.3515  -14.5530   20.6704 O   0  0  0  0  0  0
  -24.6362  -31.8519   23.1971 C   0  0  0  0  0  0
  -25.9168  -32.4740   23.8330 C   0  0  1  0  0  0
  -27.2132  -27.2171   20.1290 C   0  0  0  0  0  0
  -25.5951  -33.8544   24.2250 N   0  0  0  0  0  0
  -23.4352  -30.4759   21.5412 C   0  0  2  0  0  0
  -24.8819  -28.9211   20.1084 C   0  0  0  0  0  0
  -22.7532  -29.4586   22.4885 C   0  0  0  0  0  0
  -18.0301  -28.1391   22.8478 C   0  0  0  0  0  0
  -24.1489  -36.7270   23.2640 C   0  0  0  0  0  0
  -25.9865  -30.7492   21.3871 C   0  0  0  0  0  0
  -26.0565  -29.3695   20.7257 C   0  0  0  0  0  0
  -27.2229  -28.5295   20.7278 C   0  0  0  0  0  0
  -26.0180  -26.8629   19.4594 C   0  0  0  0  0  0
  -24.8703  -27.6774   19.4642 C   0  0  0  0  0  0
  -23.6569  -29.8145   20.1563 C   0  0  0  0  0  0
  -25.4118  -36.3058   24.0323 C   0  0  1  0  0  0
  -20.5908  -28.3710   23.1247 C   0  0  2  0  0  0
  -20.6786  -26.9420   22.5403 C   0  0  0  0  0  0
  -19.5760  -26.6380   21.5210 C   0  0  0  0  0  0
  -18.1942  -26.7930   22.1623 C   0  0  0  0  0  0
  -19.1555  -28.8867   23.2859 C   0  0  0  0  0  0
  -18.9476  -30.1465   23.8883 C   0  0  0  0  0  0
  -17.6473  -30.6589   24.0560 C   0  0  0  0  0  0
  -25.9062  -34.9430   23.5088 C   0  0  0  0  0  0
  -16.5364  -29.9084   23.6331 C   0  0  0  0  0  0
  -16.7288  -28.6503   23.0351 C   0  0  0  0  0  0
  -26.4520  -31.6580   25.0736 C   0  0  0  0  0  0
  -25.3728  -31.3748   26.1446 C   0  0  0  0  0  0
  -27.0379  -30.2987   24.6265 C   0  0  0  0  0  0
  -27.6064  -32.4333   25.7513 C   0  0  0  0  0  0
  -27.5577  -37.1791   24.8466 C   0  0  0  0  0  0
  -21.4233  -29.3051   22.3631 N   0  0  0  0  0  0
  -26.4289  -37.3762   23.9409 N   0  0  0  0  0  0
  -24.7054  -31.0441   22.0976 N   0  0  0  0  0  0
  -23.4208  -28.8118   23.2997 O   0  0  0  0  0  0
  -28.2775  -26.2705   20.2165 O   0  0  0  0  0  0
  -26.5631  -34.8906   22.4655 O   0  0  0  0  0  0
  -23.5496  -32.1368   23.7230 O   0  0  0  0  0  0
  -30.0034  -19.1590   19.0624 C   0  0  0  0  0  0
  -30.1794  -17.7246   19.0502 C   0  0  0  0  0  0
  -29.5822  -19.5865   20.2981 C   0  0  0  0  0  0
  -29.8913  -17.2729   20.3194 C   0  0  0  0  0  0
  -28.8973  -23.6077   20.5244 C   0  0  0  0  0  0
  -30.5722  -16.9116   17.8422 C   0  0  0  0  0  0
  -27.8346  -21.8842   19.0827 C   0  0  0  0  0  0
  -29.3073  -21.0252   20.9408 C   0  0  0  0  0  0
  -28.0095  -24.8045   19.8823 C   0  0  0  0  0  0
  -29.8106  -15.9200   20.7302 N   0  0  0  0  0  0
  -28.7359  -22.2481   20.1788 N   0  0  0  0  0  0
  -29.7102  -23.9242   21.3983 O   0  0  0  0  0  0
  -29.4888  -18.4014   21.0773 O   0  0  0  0  0  0
  -31.4787  -12.6115   19.1867 H   0  0  0  0  0  0
  -30.3940  -11.5068   19.9801 H   0  0  0  0  0  0
  -29.8087  -11.7353   17.5425 H   0  0  0  0  0  0
  -29.6414  -13.4640   17.7252 H   0  0  0  0  0  0
  -27.9100  -11.2849   18.9291 H   0  0  0  0  0  0
  -27.3888  -12.5137   17.8065 H   0  0  0  0  0  0
  -27.6325  -14.2562   19.4686 H   0  0  0  0  0  0
  -28.7284  -12.1853   21.4332 H   0  0  0  0  0  0
  -28.4096  -13.8602   21.8015 H   0  0  0  0  0  0
  -25.2768   -9.5669   22.4757 H   0  0  0  0  0  0
  -23.9999   -7.4630   22.7473 H   0  0  0  0  0  0
  -21.0843   -8.8784   19.8955 H   0  0  0  0  0  0
  -22.3710  -10.9678   19.6162 H   0  0  0  0  0  0
  -21.2017   -7.6152   23.9721 H   0  0  0  0  0  0
  -21.1483   -6.0520   25.9078 H   0  0  0  0  0  0
  -22.0598   -2.7609   23.2842 H   0  0  0  0  0  0
  -22.4083  -11.9889   22.4825 H   0  0  0  0  0  0
  -21.1086  -13.1246   22.2619 H   0  0  0  0  0  0
  -24.6510  -15.8446   20.5268 H   0  0  0  0  0  0
  -26.2668  -15.6365   20.0810 H   0  0  0  0  0  0
  -26.7231  -32.5368   23.1062 H   0  0  0  0  0  0
  -25.0103  -33.9686   25.0399 H   0  0  0  0  0  0
  -22.7346  -31.3004   21.3948 H   0  0  0  0  0  0
  -23.3756  -35.9596   23.3298 H   0  0  0  0  0  0
  -24.3577  -36.8900   22.2055 H   0  0  0  0  0  0
  -23.7235  -37.6465   23.6668 H   0  0  0  0  0  0
  -26.1357  -31.5090   20.6186 H   0  0  0  0  0  0
  -26.8598  -30.7939   22.0263 H   0  0  0  0  0  0
  -28.1163  -28.8628   21.2374 H   0  0  0  0  0  0
  -25.9260  -25.9245   18.9339 H   0  0  0  0  0  0
  -23.9739  -27.3336   18.9667 H   0  0  0  0  0  0
  -23.7910  -30.5943   19.4055 H   0  0  0  0  0  0
  -22.7730  -29.2561   19.8435 H   0  0  0  0  0  0
  -25.1301  -36.1904   25.0816 H   0  0  0  0  0  0
  -21.0006  -28.3295   24.1364 H   0  0  0  0  0  0
  -20.5680  -26.2326   23.3618 H   0  0  0  0  0  0
  -21.6654  -26.7431   22.1201 H   0  0  0  0  0  0
  -19.6921  -25.6286   21.1251 H   0  0  0  0  0  0
  -19.6694  -27.3178   20.6730 H   0  0  0  0  0  0
  -17.4211  -26.6675   21.4028 H   0  0  0  0  0  0
  -18.0345  -26.0079   22.9026 H   0  0  0  0  0  0
  -19.7953  -30.7284   24.2249 H   0  0  0  0  0  0
  -17.5027  -31.6266   24.5167 H   0  0  0  0  0  0
  -15.5364  -30.2981   23.7661 H   0  0  0  0  0  0
  -15.8691  -28.0817   22.7070 H   0  0  0  0  0  0
  -24.5905  -30.7097   25.7773 H   0  0  0  0  0  0
  -24.8920  -32.2924   26.4845 H   0  0  0  0  0  0
  -25.8033  -30.8943   27.0241 H   0  0  0  0  0  0
  -26.2983  -29.6719   24.1269 H   0  0  0  0  0  0
  -27.4019  -29.7269   25.4812 H   0  0  0  0  0  0
  -27.8878  -30.4247   23.9554 H   0  0  0  0  0  0
  -27.2668  -33.3641   26.2067 H   0  0  0  0  0  0
  -28.3888  -32.6885   25.0352 H   0  0  0  0  0  0
  -28.0718  -31.8476   26.5450 H   0  0  0  0  0  0
  -28.2594  -38.0091   24.7512 H   0  0  0  0  0  0
  -28.1076  -36.2620   24.6294 H   0  0  0  0  0  0
  -27.2294  -37.1440   25.8870 H   0  0  0  0  0  0
  -20.9427  -29.8785   21.6839 H   0  0  0  0  0  0
  -26.0164  -38.2830   24.1419 H   0  0  0  0  0  0
  -30.1733  -19.8240   18.2264 H   0  0  0  0  0  0
  -30.4655  -17.5003   16.9307 H   0  0  0  0  0  0
  -29.9398  -16.0287   17.7476 H   0  0  0  0  0  0
  -31.6102  -16.5883   17.9191 H   0  0  0  0  0  0
  -26.9227  -22.4808   19.0769 H   0  0  0  0  0  0
  -27.5106  -20.8458   19.1500 H   0  0  0  0  0  0
  -28.3350  -22.0141   18.1227 H   0  0  0  0  0  0
  -30.2488  -21.3508   21.3838 H   0  0  0  0  0  0
  -28.6455  -20.8798   21.7950 H   0  0  0  0  0  0
  -26.9979  -24.5573   20.2037 H   0  0  0  0  0  0
  -28.0355  -24.6999   18.7974 H   0  0  0  0  0  0
  -28.9575  -15.6941   21.2180 H   0  0  0  0  0  0
  1 25  1  0  0  0
  1 30  2  0  0  0
  1 80  1  0  0  0
  2  3  1  0  0  0
  2 25  1  0  0  0
  2 84  1  0  0  0
  2 85  1  0  0  0
  3  4  1  0  0  0
  3 86  1  0  0  0
  3 87  1  0  0  0
  4  5  1  0  0  0
  4 88  1  0  0  0
  4 89  1  0  0  0
  5  6  1  0  0  0
  5 26  1  0  0  0
  5 90  1  0  0  0
  6 25  1  0  0  0
  6 91  1  0  0  0
  6 92  1  0  0  0
  7  8  2  0  0  0
  7 26  1  0  0  0
  7 29  1  0  0  0
  8  9  1  0  0  0
  8 22  1  0  0  0
  9 10  1  0  0  0
  9 27  2  0  0  0
 10 11  2  0  0  0
 10 15  1  0  0  0
 11 12  1  0  0  0
 11 93  1  0  0  0
 12 13  2  0  0  0
 12 94  1  0  0  0
 13 14  1  0  0  0
 13 31  1  0  0  0
 14 15  2  0  0  0
 14 95  1  0  0  0
 15 96  1  0  0  0
 16 17  2  0  0  0
 16 21  1  0  0  0
 16 31  1  0  0  0
 17 18  1  0  0  0
 17 97  1  0  0  0
 18 19  2  0  0  0
 18 98  1  0  0  0
 19 20  1  0  0  0
 19 24  1  0  0  0
 20 21  2  0  0  0
 20 99  1  0  0  0
 21 23  1  0  0  0
 22 28  1  0  0  0
 22 32  2  0  0  0
 26 27  1  0  0  0
 28100  1  0  0  0
 28101  1  0  0  0
 29102  1  0  0  0
 29103  1  0  0  0
 33 34  1  0  0  0
 33 66  1  0  0  0
 33 70  2  0  0  0
 34 36  1  0  0  0
 34 59  1  0  0  0
 34104  1  0  0  0
 35 44  2  0  0  0
 35 45  1  0  0  0
 35 68  1  0  0  0
 36 56  1  0  0  0
 36105  1  0  0  0
 37 39  1  0  0  0
 37 47  1  0  0  0
 37 66  1  0  0  0
 37106  1  0  0  0
 38 43  2  0  0  0
 38 46  1  0  0  0
 38 47  1  0  0  0
 39 64  1  0  0  0
 39 67  2  0  0  0
 40 52  1  0  0  0
 40 53  2  0  0  0
 40 58  1  0  0  0
 41107  1  0  0  0
 41108  1  0  0  0
 41109  1  0  0  0
 41 48  1  0  0  0
 42 43  1  0  0  0
 42 66  1  0  0  0
 42110  1  0  0  0
 42111  1  0  0  0
 43 44  1  0  0  0
 44112  1  0  0  0
 45 46  2  0  0  0
 45113  1  0  0  0
 46114  1  0  0  0
 47115  1  0  0  0
 47116  1  0  0  0
 48 56  1  0  0  0
 48 65  1  0  0  0
 48117  1  0  0  0
 49 50  1  0  0  0
 49 53  1  0  0  0
 49 64  1  0  0  0
 49118  1  0  0  0
 50 51  1  0  0  0
 50119  1  0  0  0
 50120  1  0  0  0
 51 52  1  0  0  0
 51121  1  0  0  0
 51122  1  0  0  0
 52123  1  0  0  0
 52124  1  0  0  0
 53 54  1  0  0  0
 54 55  2  0  0  0
 54125  1  0  0  0
 55 57  1  0  0  0
 55126  1  0  0  0
 56 69  2  0  0  0
 57 58  2  0  0  0
 57127  1  0  0  0
 58128  1  0  0  0
 59 60  1  0  0  0
 59 61  1  0  0  0
 59 62  1  0  0  0
 60129  1  0  0  0
 60130  1  0  0  0
 60131  1  0  0  0
 61132  1  0  0  0
 61133  1  0  0  0
 61134  1  0  0  0
 62135  1  0  0  0
 62136  1  0  0  0
 62137  1  0  0  0
 63 65  1  0  0  0
 63138  1  0  0  0
 63139  1  0  0  0
 63140  1  0  0  0
 64141  1  0  0  0
 65142  1  0  0  0
 68 79  1  0  0  0
 71 72  1  0  0  0
 71 73  2  0  0  0
 71143  1  0  0  0
 72 74  2  0  0  0
 72 76  1  0  0  0
 73 78  1  0  0  0
 73 83  1  0  0  0
 74 80  1  0  0  0
 74 83  1  0  0  0
 75 79  1  0  0  0
 75 81  1  0  0  0
 75 82  2  0  0  0
 76144  1  0  0  0
 76145  1  0  0  0
 76146  1  0  0  0
 77 81  1  0  0  0
 77147  1  0  0  0
 77148  1  0  0  0
 77149  1  0  0  0
 78 81  1  0  0  0
 78150  1  0  0  0
 78151  1  0  0  0
 79152  1  0  0  0
 79153  1  0  0  0
 80154  1  0  0  0
M  ISO  4   1 100  68 101  79 101  80 100
M  END
> <chiral flag>
0

> <version>
0

> <s_m_source_file>
/data/baiqing/PycharmProjects/Reinvent-master-3.2/result/LINK_invent/BTK/process_docking_weight1_custom_sum_contain_oxygen_bond_distance_aromatic_linkinvent_7_9_3/rearranged_h_0012.sdf

> <i_m_source_file_index>
75

> <r_mmod_Potential_Energy-OPLS-2005>
192.432647705078

> <r_mmod_Stretch_Energy-OPLS-2005>
152.530868530273

> <r_mmod_Bend_Energy-OPLS-2005>
188.279663085938

> <r_mmod_Torsional_Energy-OPLS-2005>
240.562805175781

> <r_mmod_Improper_Torsional_Energy-OPLS-2005>
4.71327829360962

> <r_mmod_Van_der_Waal_Energy-OPLS-2005>
121.52522277832

> <r_mmod_Electrostatic_Energy-OPLS-2005>
-381.363616943359

> <r_mmod_Solvation_Energy-OPLS-2005>
-247.272491455078

> <b_mmod_Minimization_Converged-OPLS-2005>
0

> <r_mmod_RMS_Derivative-OPLS-2005>
0.943976640701294

$$$$
76
                    3D
 Structure written by MMmdl.
153161  0  0  1  0            999 V2000
  -30.6210  -14.8038   20.4681 C   0  0  0  0  0  0
  -30.4174  -12.4967   19.4907 C   0  0  0  0  0  0
  -29.5044  -12.5350   18.2456 C   0  0  0  0  0  0
  -28.0371  -12.3362   18.6626 C   0  0  0  0  0  0
  -27.6335  -13.2461   19.8542 C   0  0  2  0  0  0
  -28.6758  -13.2259   20.9918 C   0  0  0  0  0  0
  -25.2463  -13.8231   20.5707 C   0  0  0  0  0  0
  -24.1767  -13.0426   20.9193 C   0  0  0  0  0  0
  -24.6404  -11.6920   20.8758 C   0  0  0  0  0  0
  -23.9094  -10.4282   21.0415 C   0  0  0  0  0  0
  -24.3656   -9.4174   21.9171 C   0  0  0  0  0  0
  -23.6324   -8.2208   22.0723 C   0  0  0  0  0  0
  -22.4288   -8.0280   21.3522 C   0  0  0  0  0  0
  -21.9937   -9.0255   20.4614 C   0  0  0  0  0  0
  -22.7279  -10.2133   20.3039 C   0  0  0  0  0  0
  -21.6853   -6.0755   22.5276 C   0  0  0  0  0  0
  -21.4018   -6.5653   23.8216 C   0  0  0  0  0  0
  -21.3644   -5.6798   24.9171 C   0  0  0  0  0  0
  -21.6040   -4.3063   24.7215 C   0  0  0  0  0  0
  -21.8819   -3.8164   23.4334 C   0  0  0  0  0  0
  -21.9196   -4.6987   22.3396 C   0  0  0  0  0  0
  -22.7787  -13.5174   21.1898 C   0  0  0  0  0  0
  -22.1679   -4.2174   21.0974 F   0  0  0  0  0  0
  -21.5611   -3.4538   25.7717 F   0  0  0  0  0  0
  -29.9712  -13.5824   20.4023 N   0  0  0  0  0  0
  -26.2898  -12.9454   20.3320 N   0  0  0  0  0  0
  -25.9346  -11.6575   20.5810 N   0  0  0  0  0  0
  -22.0530  -12.8072   22.0469 N   0  0  0  0  0  0
  -25.4183  -15.1948   20.4161 N   0  0  0  0  0  0
  -31.7965  -14.8652   20.1012 O   0  0  0  0  0  0
  -21.6631   -6.8891   21.4233 O   0  0  0  0  0  0
  -22.3425  -14.5491   20.6811 O   0  0  0  0  0  0
  -24.6373  -31.8507   23.1928 C   0  0  0  0  0  0
  -25.9189  -32.4725   23.8292 C   0  0  1  0  0  0
  -27.2112  -27.2069   20.1419 C   0  0  0  0  0  0
  -25.5937  -33.8526   24.2198 N   0  0  0  0  0  0
  -23.4340  -30.4778   21.5330 C   0  0  2  0  0  0
  -24.8842  -28.9220   20.1007 C   0  0  0  0  0  0
  -22.7467  -29.4667   22.4843 C   0  0  0  0  0  0
  -18.0267  -28.1452   22.8616 C   0  0  0  0  0  0
  -24.1493  -36.7262   23.2630 C   0  0  0  0  0  0
  -25.9860  -30.7501   21.3810 C   0  0  0  0  0  0
  -26.0556  -29.3686   20.7228 C   0  0  0  0  0  0
  -27.2189  -28.5253   20.7305 C   0  0  0  0  0  0
  -26.0211  -26.8554   19.4637 C   0  0  0  0  0  0
  -24.8777  -27.6789   19.4530 C   0  0  0  0  0  0
  -23.6572  -29.8131   20.1488 C   0  0  0  0  0  0
  -25.4127  -36.3037   24.0296 C   0  0  1  0  0  0
  -20.5891  -28.3875   23.1381 C   0  0  2  0  0  0
  -20.6754  -26.9524   22.5726 C   0  0  0  0  0  0
  -19.5845  -26.6618   21.5351 C   0  0  0  0  0  0
  -18.2006  -26.7986   22.1790 C   0  0  0  0  0  0
  -19.1508  -28.8983   23.2986 C   0  0  0  0  0  0
  -18.9375  -30.1606   23.8950 C   0  0  0  0  0  0
  -17.6355  -30.6702   24.0525 C   0  0  0  0  0  0
  -25.9066  -34.9415   23.5049 C   0  0  0  0  0  0
  -16.5268  -29.9162   23.6307 C   0  0  0  0  0  0
  -16.7230  -28.6527   23.0443 C   0  0  0  0  0  0
  -26.4540  -31.6574   25.0712 C   0  0  0  0  0  0
  -25.3742  -31.3745   26.1411 C   0  0  0  0  0  0
  -27.0397  -30.2972   24.6262 C   0  0  0  0  0  0
  -27.6089  -32.4310   25.7512 C   0  0  0  0  0  0
  -27.5571  -37.1781   24.8451 C   0  0  0  0  0  0
  -21.4171  -29.3076   22.3536 N   0  0  0  0  0  0
  -26.4293  -37.3752   23.9381 N   0  0  0  0  0  0
  -24.7042  -31.0476   22.0894 N   0  0  0  0  0  0
  -23.4120  -28.8289   23.3055 O   0  0  0  0  0  0
  -28.2835  -26.2691   20.2456 O   0  0  0  0  0  0
  -26.5670  -34.8891   22.4640 O   0  0  0  0  0  0
  -23.5522  -32.1332   23.7209 O   0  0  0  0  0  0
  -28.4322  -19.1704   18.3144 C   0  0  0  0  0  0
  -28.9953  -16.8318   18.7580 C   0  0  0  0  0  0
  -28.9200  -19.6387   19.5558 C   0  0  0  0  0  0
  -29.5020  -17.1462   20.0351 C   0  0  0  0  0  0
  -28.4579  -17.8215   17.9225 C   0  0  0  0  0  0
  -29.4530  -18.5764   20.4311 C   0  0  0  0  0  0
  -28.8126  -23.6921   20.8749 C   0  0  0  0  0  0
  -28.7504  -21.2642   19.6214 C   0  0  0  0  0  0
  -28.1192  -24.7741   19.9368 C   0  0  0  0  0  0
  -29.2537  -24.2321   22.0188 N   0  0  0  0  0  0
  -29.9623  -15.9775   20.8536 N   0  0  0  0  0  0
  -29.0069  -22.2941   20.7252 N   0  3  0  0  0  0
  -27.8036  -17.3707   16.3926 Cl  0  0  0  0  0  0
  -30.0486  -19.0185   21.9874 Cl  0  0  0  0  0  0
  -31.4624  -12.5998   19.1963 H   0  0  0  0  0  0
  -30.3439  -11.5280   19.9903 H   0  0  0  0  0  0
  -29.8001  -11.7733   17.5231 H   0  0  0  0  0  0
  -29.6103  -13.4942   17.7383 H   0  0  0  0  0  0
  -27.9163  -11.2896   18.9460 H   0  0  0  0  0  0
  -27.3775  -12.5033   17.8093 H   0  0  0  0  0  0
  -27.6145  -14.2628   19.4661 H   0  0  0  0  0  0
  -28.7173  -12.2468   21.4692 H   0  0  0  0  0  0
  -28.4002  -13.9359   21.7723 H   0  0  0  0  0  0
  -25.2840   -9.5607   22.4703 H   0  0  0  0  0  0
  -24.0047   -7.4564   22.7405 H   0  0  0  0  0  0
  -21.0883   -8.8772   19.8899 H   0  0  0  0  0  0
  -22.3782  -10.9659   19.6114 H   0  0  0  0  0  0
  -21.2023   -7.6168   23.9725 H   0  0  0  0  0  0
  -21.1472   -6.0531   25.9077 H   0  0  0  0  0  0
  -22.0626   -2.7630   23.2821 H   0  0  0  0  0  0
  -22.4263  -11.9692   22.4669 H   0  0  0  0  0  0
  -21.1141  -13.0963   22.2813 H   0  0  0  0  0  0
  -24.6678  -15.8647   20.5401 H   0  0  0  0  0  0
  -26.2959  -15.6259   20.1516 H   0  0  0  0  0  0
  -26.7270  -32.5373   23.1045 H   0  0  0  0  0  0
  -25.0034  -33.9662   25.0307 H   0  0  0  0  0  0
  -22.7344  -31.3018   21.3832 H   0  0  0  0  0  0
  -23.3748  -35.9604   23.3298 H   0  0  0  0  0  0
  -24.3551  -36.8913   22.2041 H   0  0  0  0  0  0
  -23.7283  -37.6463   23.6682 H   0  0  0  0  0  0
  -26.1417  -31.5079   20.6116 H   0  0  0  0  0  0
  -26.8577  -30.7947   22.0222 H   0  0  0  0  0  0
  -28.1099  -28.8640   21.2419 H   0  0  0  0  0  0
  -25.9343  -25.9185   18.9382 H   0  0  0  0  0  0
  -23.9880  -27.3448   18.9363 H   0  0  0  0  0  0
  -23.7759  -30.5908   19.3939 H   0  0  0  0  0  0
  -22.7794  -29.2419   19.8416 H   0  0  0  0  0  0
  -25.1336  -36.1865   25.0798 H   0  0  0  0  0  0
  -21.0055  -28.3660   24.1485 H   0  0  0  0  0  0
  -20.5376  -26.2529   23.3996 H   0  0  0  0  0  0
  -21.6748  -26.7406   22.1891 H   0  0  0  0  0  0
  -19.7077  -25.6641   21.1126 H   0  0  0  0  0  0
  -19.6769  -27.3679   20.7083 H   0  0  0  0  0  0
  -17.4246  -26.6559   21.4284 H   0  0  0  0  0  0
  -18.0570  -26.0166   22.9260 H   0  0  0  0  0  0
  -19.7803  -30.7499   24.2302 H   0  0  0  0  0  0
  -17.4836  -31.6426   24.5014 H   0  0  0  0  0  0
  -15.5268  -30.3121   23.7524 H   0  0  0  0  0  0
  -15.8614  -28.0813   22.7230 H   0  0  0  0  0  0
  -24.5949  -30.7066   25.7719 H   0  0  0  0  0  0
  -24.8907  -32.2923   26.4759 H   0  0  0  0  0  0
  -25.8038  -30.8977   27.0235 H   0  0  0  0  0  0
  -26.2997  -29.6706   24.1266 H   0  0  0  0  0  0
  -27.4010  -29.7264   25.4829 H   0  0  0  0  0  0
  -27.8909  -30.4190   23.9563 H   0  0  0  0  0  0
  -27.2695  -33.3620   26.2060 H   0  0  0  0  0  0
  -28.3939  -32.6852   25.0377 H   0  0  0  0  0  0
  -28.0712  -31.8452   26.5472 H   0  0  0  0  0  0
  -28.2595  -38.0071   24.7499 H   0  0  0  0  0  0
  -28.1071  -36.2605   24.6302 H   0  0  0  0  0  0
  -27.2259  -37.1445   25.8845 H   0  0  0  0  0  0
  -20.9425  -29.8396   21.6365 H   0  0  0  0  0  0
  -26.0153  -38.2821   24.1391 H   0  0  0  0  0  0
  -28.0134  -19.8802   17.6148 H   0  0  0  0  0  0
  -28.9942  -15.8143   18.3979 H   0  0  0  0  0  0
  -27.7239  -21.4599   19.3085 H   0  0  0  0  0  0
  -29.3622  -21.6298   18.7957 H   0  0  0  0  0  0
  -28.4534  -24.6029   18.9146 H   0  0  0  0  0  0
  -27.0671  -24.5022   19.9631 H   0  0  0  0  0  0
  -29.7293  -23.7170   22.7427 H   0  0  0  0  0  0
  -29.1101  -25.2223   22.1612 H   0  0  0  0  0  0
  -30.2725  -16.2689   21.7703 H   0  0  0  0  0  0
  -29.4037  -21.8356   21.5287 H   0  0  0  0  0  0
  1 25  1  0  0  0
  1 30  2  0  0  0
  1 81  1  0  0  0
  2  3  1  0  0  0
  2 25  1  0  0  0
  2 85  1  0  0  0
  2 86  1  0  0  0
  3  4  1  0  0  0
  3 87  1  0  0  0
  3 88  1  0  0  0
  4  5  1  0  0  0
  4 89  1  0  0  0
  4 90  1  0  0  0
  5  6  1  0  0  0
  5 26  1  0  0  0
  5 91  1  0  0  0
  6 25  1  0  0  0
  6 92  1  0  0  0
  6 93  1  0  0  0
  7  8  2  0  0  0
  7 26  1  0  0  0
  7 29  1  0  0  0
  8  9  1  0  0  0
  8 22  1  0  0  0
  9 10  1  0  0  0
  9 27  2  0  0  0
 10 11  2  0  0  0
 10 15  1  0  0  0
 11 12  1  0  0  0
 11 94  1  0  0  0
 12 13  2  0  0  0
 12 95  1  0  0  0
 13 14  1  0  0  0
 13 31  1  0  0  0
 14 15  2  0  0  0
 14 96  1  0  0  0
 15 97  1  0  0  0
 16 17  2  0  0  0
 16 21  1  0  0  0
 16 31  1  0  0  0
 17 18  1  0  0  0
 17 98  1  0  0  0
 18 19  2  0  0  0
 18 99  1  0  0  0
 19 20  1  0  0  0
 19 24  1  0  0  0
 20 21  2  0  0  0
 20100  1  0  0  0
 21 23  1  0  0  0
 22 28  1  0  0  0
 22 32  2  0  0  0
 26 27  1  0  0  0
 28101  1  0  0  0
 28102  1  0  0  0
 29103  1  0  0  0
 29104  1  0  0  0
 33 34  1  0  0  0
 33 66  1  0  0  0
 33 70  2  0  0  0
 34 36  1  0  0  0
 34 59  1  0  0  0
 34105  1  0  0  0
 35 44  2  0  0  0
 35 45  1  0  0  0
 35 68  1  0  0  0
 36 56  1  0  0  0
 36106  1  0  0  0
 37 39  1  0  0  0
 37 47  1  0  0  0
 37 66  1  0  0  0
 37107  1  0  0  0
 38 43  2  0  0  0
 38 46  1  0  0  0
 38 47  1  0  0  0
 39 64  1  0  0  0
 39 67  2  0  0  0
 40 52  1  0  0  0
 40 53  2  0  0  0
 40 58  1  0  0  0
 41108  1  0  0  0
 41109  1  0  0  0
 41110  1  0  0  0
 41 48  1  0  0  0
 42 43  1  0  0  0
 42 66  1  0  0  0
 42111  1  0  0  0
 42112  1  0  0  0
 43 44  1  0  0  0
 44113  1  0  0  0
 45 46  2  0  0  0
 45114  1  0  0  0
 46115  1  0  0  0
 47116  1  0  0  0
 47117  1  0  0  0
 48 56  1  0  0  0
 48 65  1  0  0  0
 48118  1  0  0  0
 49 50  1  0  0  0
 49 53  1  0  0  0
 49 64  1  0  0  0
 49119  1  0  0  0
 50 51  1  0  0  0
 50120  1  0  0  0
 50121  1  0  0  0
 51 52  1  0  0  0
 51122  1  0  0  0
 51123  1  0  0  0
 52124  1  0  0  0
 52125  1  0  0  0
 53 54  1  0  0  0
 54 55  2  0  0  0
 54126  1  0  0  0
 55 57  1  0  0  0
 55127  1  0  0  0
 56 69  2  0  0  0
 57 58  2  0  0  0
 57128  1  0  0  0
 58129  1  0  0  0
 59 60  1  0  0  0
 59 61  1  0  0  0
 59 62  1  0  0  0
 60130  1  0  0  0
 60131  1  0  0  0
 60132  1  0  0  0
 61133  1  0  0  0
 61134  1  0  0  0
 61135  1  0  0  0
 62136  1  0  0  0
 62137  1  0  0  0
 62138  1  0  0  0
 63 65  1  0  0  0
 63139  1  0  0  0
 63140  1  0  0  0
 63141  1  0  0  0
 64142  1  0  0  0
 65143  1  0  0  0
 68 79  1  0  0  0
 71 73  2  0  0  0
 71 75  1  0  0  0
 71144  1  0  0  0
 72 74  1  0  0  0
 72 75  2  0  0  0
 72145  1  0  0  0
 73 76  1  0  0  0
 73 78  1  0  0  0
 74 76  2  0  0  0
 74 81  1  0  0  0
 75 83  1  0  0  0
 76 84  1  0  0  0
 77 79  1  0  0  0
 77 80  1  0  0  0
 77 82  2  0  0  0
 78 82  1  0  0  0
 78146  1  0  0  0
 78147  1  0  0  0
 79148  1  0  0  0
 79149  1  0  0  0
 80150  1  0  0  0
 80151  1  0  0  0
 81152  1  0  0  0
 82153  1  0  0  0
M  CHG  1  82   1
M  ISO  4   1 100  68 101  79 101  81 100
M  END
> <chiral flag>
0

> <version>
0

> <s_m_source_file>
/data/baiqing/PycharmProjects/Reinvent-master-3.2/result/LINK_invent/BTK/process_docking_weight1_custom_sum_contain_oxygen_bond_distance_aromatic_linkinvent_7_9_3/rearranged_h_0012.sdf

> <i_m_source_file_index>
76

> <r_mmod_Potential_Energy-OPLS-2005>
139.271270751953

> <r_mmod_Stretch_Energy-OPLS-2005>
173.146499633789

> <r_mmod_Bend_Energy-OPLS-2005>
268.410369873047

> <r_mmod_Torsional_Energy-OPLS-2005>
262.493072509766

> <r_mmod_Improper_Torsional_Energy-OPLS-2005>
4.80968332290649

> <r_mmod_Van_der_Waal_Energy-OPLS-2005>
128.578903198242

> <r_mmod_Electrostatic_Energy-OPLS-2005>
-347.502258300781

> <r_mmod_Solvation_Energy-OPLS-2005>
-470.283264160156

> <b_mmod_Minimization_Converged-OPLS-2005>
0

> <r_mmod_RMS_Derivative-OPLS-2005>
3.64883160591125

$$$$
77
                    3D
 Structure written by MMmdl.
157165  0  0  1  0            999 V2000
  -30.4971  -14.7874   20.5306 C   0  0  0  0  0  0
  -30.4825  -12.5167   19.4325 C   0  0  0  0  0  0
  -29.5260  -12.5233   18.2152 C   0  0  0  0  0  0
  -28.0502  -12.3193   18.6291 C   0  0  0  0  0  0
  -27.6492  -13.1977   19.8412 C   0  0  2  0  0  0
  -28.7006  -13.0641   20.9608 C   0  0  0  0  0  0
  -25.2526  -13.8087   20.5495 C   0  0  0  0  0  0
  -24.1832  -13.0377   20.9168 C   0  0  0  0  0  0
  -24.6402  -11.6869   20.8766 C   0  0  0  0  0  0
  -23.9058  -10.4262   21.0444 C   0  0  0  0  0  0
  -24.3605   -9.4176   21.9207 C   0  0  0  0  0  0
  -23.6281   -8.2203   22.0761 C   0  0  0  0  0  0
  -22.4261   -8.0267   21.3558 C   0  0  0  0  0  0
  -21.9901   -9.0256   20.4660 C   0  0  0  0  0  0
  -22.7224  -10.2131   20.3086 C   0  0  0  0  0  0
  -21.6851   -6.0726   22.5314 C   0  0  0  0  0  0
  -21.3998   -6.5634   23.8242 C   0  0  0  0  0  0
  -21.3637   -5.6787   24.9197 C   0  0  0  0  0  0
  -21.6046   -4.3059   24.7261 C   0  0  0  0  0  0
  -21.8793   -3.8151   23.4383 C   0  0  0  0  0  0
  -21.9179   -4.6955   22.3434 C   0  0  0  0  0  0
  -22.7856  -13.5218   21.1807 C   0  0  0  0  0  0
  -22.1654   -4.2136   21.1011 F   0  0  0  0  0  0
  -21.5621   -3.4538   25.7772 F   0  0  0  0  0  0
  -29.9801  -13.5152   20.4011 N   0  0  0  0  0  0
  -26.2952  -12.9238   20.3180 N   0  0  0  0  0  0
  -25.9332  -11.6432   20.5756 N   0  0  0  0  0  0
  -22.0497  -12.8298   22.0441 N   0  0  0  0  0  0
  -25.4067  -15.1766   20.3541 N   0  0  0  0  0  0
  -31.6918  -14.9883   20.2802 O   0  0  0  0  0  0
  -21.6620   -6.8874   21.4279 O   0  0  0  0  0  0
  -22.3564  -14.5507   20.6626 O   0  0  0  0  0  0
  -24.6284  -31.8596   23.2053 C   0  0  0  0  0  0
  -25.9125  -32.4806   23.8400 C   0  0  1  0  0  0
  -27.2226  -27.2781   20.1475 C   0  0  0  0  0  0
  -25.5948  -33.8612   24.2310 N   0  0  0  0  0  0
  -23.4248  -30.4836   21.5470 C   0  0  2  0  0  0
  -24.8766  -28.9304   20.1167 C   0  0  0  0  0  0
  -22.7478  -29.4618   22.4930 C   0  0  0  0  0  0
  -18.0245  -28.1385   22.8516 C   0  0  0  0  0  0
  -24.1466  -36.7227   23.2627 C   0  0  0  0  0  0
  -25.9672  -30.7830   21.3748 C   0  0  0  0  0  0
  -26.0441  -29.4007   20.7296 C   0  0  0  0  0  0
  -27.2203  -28.5870   20.7336 C   0  0  0  0  0  0
  -26.0368  -26.8820   19.4872 C   0  0  0  0  0  0
  -24.8760  -27.6788   19.4840 C   0  0  0  0  0  0
  -23.6472  -29.8209   20.1623 C   0  0  0  0  0  0
  -25.4100  -36.3071   24.0333 C   0  0  1  0  0  0
  -20.5895  -28.3678   23.1292 C   0  0  2  0  0  0
  -20.6752  -26.9388   22.5435 C   0  0  0  0  0  0
  -19.5707  -26.6373   21.5248 C   0  0  0  0  0  0
  -18.1888  -26.7938   22.1654 C   0  0  0  0  0  0
  -19.1520  -28.8826   23.2910 C   0  0  0  0  0  0
  -18.9458  -30.1445   23.8914 C   0  0  0  0  0  0
  -17.6460  -30.6598   24.0573 C   0  0  0  0  0  0
  -25.9045  -34.9467   23.5100 C   0  0  0  0  0  0
  -16.5338  -29.9119   23.6339 C   0  0  0  0  0  0
  -16.7246  -28.6533   23.0381 C   0  0  0  0  0  0
  -26.4512  -31.6609   25.0754 C   0  0  0  0  0  0
  -25.3755  -31.3782   26.1474 C   0  0  0  0  0  0
  -27.0302  -30.3037   24.6141 C   0  0  0  0  0  0
  -27.6057  -32.4318   25.7545 C   0  0  0  0  0  0
  -27.5543  -37.1774   24.8473 C   0  0  0  0  0  0
  -21.4191  -29.3036   22.3678 N   0  0  0  0  0  0
  -26.4255  -37.3805   23.9434 N   0  0  0  0  0  0
  -24.6925  -31.0615   22.0989 N   0  0  0  0  0  0
  -23.4195  -28.8132   23.2976 O   0  0  0  0  0  0
  -28.3201  -26.3895   20.1919 O   0  0  0  0  0  0
  -26.5594  -34.8942   22.4649 O   0  0  0  0  0  0
  -23.5431  -32.1366   23.7365 O   0  0  0  0  0  0
  -27.8151  -18.3538   22.7117 C   0  0  0  0  0  0
  -28.0725  -19.5767   22.0926 C   0  0  0  0  0  0
  -28.4696  -17.1753   22.3176 C   0  0  0  0  0  0
  -29.6724  -18.4752   20.6248 C   0  0  0  0  0  0
  -29.0643  -19.7351   21.1017 C   0  0  0  0  0  0
  -29.3504  -17.1571   21.1981 C   0  0  0  0  0  0
  -28.9044  -22.3744   21.1122 C   0  0  0  0  0  0
  -28.1262  -15.9417   23.1293 C   0  0  0  0  0  0
  -30.6609  -18.5333   19.4726 C   0  0  0  0  0  0
  -29.1919  -23.7930   20.4363 C   0  0  0  0  0  0
  -28.0664  -24.9577   20.5801 C   0  0  0  0  0  0
  -29.3367  -21.1315   20.6153 N   0  0  0  0  0  0
  -29.5395  -15.7982   20.5924 N   0  0  0  0  0  0
  -28.3019  -22.4608   22.1832 O   0  0  0  0  0  0
  -31.4931  -12.7579   19.0970 H   0  0  0  0  0  0
  -30.5457  -11.5265   19.8864 H   0  0  0  0  0  0
  -29.8227  -11.7541   17.4985 H   0  0  0  0  0  0
  -29.6238  -13.4785   17.6942 H   0  0  0  0  0  0
  -27.9079  -11.2648   18.8738 H   0  0  0  0  0  0
  -27.3960  -12.5254   17.7795 H   0  0  0  0  0  0
  -27.6561  -14.2248   19.4792 H   0  0  0  0  0  0
  -28.7758  -12.0248   21.2911 H   0  0  0  0  0  0
  -28.4242  -13.6310   21.8431 H   0  0  0  0  0  0
  -25.2740   -9.5662   22.4783 H   0  0  0  0  0  0
  -23.9963   -7.4598   22.7490 H   0  0  0  0  0  0
  -21.0808   -8.8798   19.9004 H   0  0  0  0  0  0
  -22.3665  -10.9686   19.6216 H   0  0  0  0  0  0
  -21.1995   -7.6148   23.9746 H   0  0  0  0  0  0
  -21.1478   -6.0524   25.9094 H   0  0  0  0  0  0
  -22.0583   -2.7613   23.2914 H   0  0  0  0  0  0
  -22.4076  -12.0051   22.5002 H   0  0  0  0  0  0
  -21.1093  -13.1373   22.2482 H   0  0  0  0  0  0
  -24.5630  -15.7367   20.2948 H   0  0  0  0  0  0
  -26.1632  -15.5714   19.8107 H   0  0  0  0  0  0
  -26.7167  -32.5500   23.1145 H   0  0  0  0  0  0
  -25.0273  -33.9801   25.0560 H   0  0  0  0  0  0
  -22.7182  -31.3035   21.4051 H   0  0  0  0  0  0
  -23.3784  -35.9499   23.3293 H   0  0  0  0  0  0
  -24.3557  -36.8823   22.2035 H   0  0  0  0  0  0
  -23.7162  -37.6413   23.6622 H   0  0  0  0  0  0
  -26.0840  -31.5375   20.5966 H   0  0  0  0  0  0
  -26.8542  -30.8552   21.9921 H   0  0  0  0  0  0
  -28.1105  -28.9405   21.2312 H   0  0  0  0  0  0
  -25.9910  -25.9426   18.9558 H   0  0  0  0  0  0
  -23.9798  -27.3210   18.9956 H   0  0  0  0  0  0
  -23.7801  -30.6011   19.4106 H   0  0  0  0  0  0
  -22.7663  -29.2575   19.8494 H   0  0  0  0  0  0
  -25.1291  -36.1907   25.0827 H   0  0  0  0  0  0
  -20.9977  -28.3249   24.1432 H   0  0  0  0  0  0
  -20.5667  -26.2287   23.3666 H   0  0  0  0  0  0
  -21.6622  -26.7431   22.1221 H   0  0  0  0  0  0
  -19.6878  -25.6296   21.1257 H   0  0  0  0  0  0
  -19.6646  -27.3207   20.6806 H   0  0  0  0  0  0
  -17.4188  -26.6705   21.4033 H   0  0  0  0  0  0
  -18.0237  -26.0071   22.9030 H   0  0  0  0  0  0
  -19.7921  -30.7252   24.2309 H   0  0  0  0  0  0
  -17.5016  -31.6297   24.5144 H   0  0  0  0  0  0
  -15.5351  -30.3042   23.7631 H   0  0  0  0  0  0
  -15.8651  -28.0854   22.7113 H   0  0  0  0  0  0
  -24.5979  -30.7049   25.7871 H   0  0  0  0  0  0
  -24.8904  -32.2965   26.4759 H   0  0  0  0  0  0
  -25.8129  -30.9133   27.0312 H   0  0  0  0  0  0
  -26.2856  -29.6885   24.1078 H   0  0  0  0  0  0
  -27.3938  -29.7209   25.4605 H   0  0  0  0  0  0
  -27.8772  -30.4360   23.9417 H   0  0  0  0  0  0
  -27.2668  -33.3653   26.2042 H   0  0  0  0  0  0
  -28.3966  -32.6752   25.0452 H   0  0  0  0  0  0
  -28.0603  -31.8484   26.5543 H   0  0  0  0  0  0
  -28.2594  -38.0036   24.7548 H   0  0  0  0  0  0
  -28.1002  -36.2585   24.6281 H   0  0  0  0  0  0
  -27.2274  -37.1430   25.8880 H   0  0  0  0  0  0
  -20.9327  -29.8768   21.6937 H   0  0  0  0  0  0
  -26.0108  -38.2850   24.1539 H   0  0  0  0  0  0
  -27.0708  -18.3346   23.4970 H   0  0  0  0  0  0
  -27.4580  -20.3880   22.4421 H   0  0  0  0  0  0
  -27.2648  -15.4375   22.6929 H   0  0  0  0  0  0
  -27.8528  -16.2218   24.1524 H   0  0  0  0  0  0
  -28.9736  -15.2611   23.2106 H   0  0  0  0  0  0
  -31.5786  -19.0195   19.8005 H   0  0  0  0  0  0
  -30.2496  -19.0924   18.6290 H   0  0  0  0  0  0
  -30.9301  -17.5359   19.1227 H   0  0  0  0  0  0
  -29.4827  -23.6614   19.3962 H   0  0  0  0  0  0
  -30.0856  -24.1657   20.9375 H   0  0  0  0  0  0
  -27.7775  -25.0037   21.6304 H   0  0  0  0  0  0
  -27.1716  -24.5784   20.0901 H   0  0  0  0  0  0
  -29.9400  -21.1985   19.8083 H   0  0  0  0  0  0
  -28.6408  -15.3436   20.5077 H   0  0  0  0  0  0
  1 25  1  0  0  0
  1 30  2  0  0  0
  1 83  1  0  0  0
  2  3  1  0  0  0
  2 25  1  0  0  0
  2 85  1  0  0  0
  2 86  1  0  0  0
  3  4  1  0  0  0
  3 87  1  0  0  0
  3 88  1  0  0  0
  4  5  1  0  0  0
  4 89  1  0  0  0
  4 90  1  0  0  0
  5  6  1  0  0  0
  5 26  1  0  0  0
  5 91  1  0  0  0
  6 25  1  0  0  0
  6 92  1  0  0  0
  6 93  1  0  0  0
  7  8  2  0  0  0
  7 26  1  0  0  0
  7 29  1  0  0  0
  8  9  1  0  0  0
  8 22  1  0  0  0
  9 10  1  0  0  0
  9 27  2  0  0  0
 10 11  2  0  0  0
 10 15  1  0  0  0
 11 12  1  0  0  0
 11 94  1  0  0  0
 12 13  2  0  0  0
 12 95  1  0  0  0
 13 14  1  0  0  0
 13 31  1  0  0  0
 14 15  2  0  0  0
 14 96  1  0  0  0
 15 97  1  0  0  0
 16 17  2  0  0  0
 16 21  1  0  0  0
 16 31  1  0  0  0
 17 18  1  0  0  0
 17 98  1  0  0  0
 18 19  2  0  0  0
 18 99  1  0  0  0
 19 20  1  0  0  0
 19 24  1  0  0  0
 20 21  2  0  0  0
 20100  1  0  0  0
 21 23  1  0  0  0
 22 28  1  0  0  0
 22 32  2  0  0  0
 26 27  1  0  0  0
 28101  1  0  0  0
 28102  1  0  0  0
 29103  1  0  0  0
 29104  1  0  0  0
 33 34  1  0  0  0
 33 66  1  0  0  0
 33 70  2  0  0  0
 34 36  1  0  0  0
 34 59  1  0  0  0
 34105  1  0  0  0
 35 44  2  0  0  0
 35 45  1  0  0  0
 35 68  1  0  0  0
 36 56  1  0  0  0
 36106  1  0  0  0
 37 39  1  0  0  0
 37 47  1  0  0  0
 37 66  1  0  0  0
 37107  1  0  0  0
 38 43  2  0  0  0
 38 46  1  0  0  0
 38 47  1  0  0  0
 39 64  1  0  0  0
 39 67  2  0  0  0
 40 52  1  0  0  0
 40 53  2  0  0  0
 40 58  1  0  0  0
 41108  1  0  0  0
 41109  1  0  0  0
 41110  1  0  0  0
 41 48  1  0  0  0
 42 43  1  0  0  0
 42 66  1  0  0  0
 42111  1  0  0  0
 42112  1  0  0  0
 43 44  1  0  0  0
 44113  1  0  0  0
 45 46  2  0  0  0
 45114  1  0  0  0
 46115  1  0  0  0
 47116  1  0  0  0
 47117  1  0  0  0
 48 56  1  0  0  0
 48 65  1  0  0  0
 48118  1  0  0  0
 49 50  1  0  0  0
 49 53  1  0  0  0
 49 64  1  0  0  0
 49119  1  0  0  0
 50 51  1  0  0  0
 50120  1  0  0  0
 50121  1  0  0  0
 51 52  1  0  0  0
 51122  1  0  0  0
 51123  1  0  0  0
 52124  1  0  0  0
 52125  1  0  0  0
 53 54  1  0  0  0
 54 55  2  0  0  0
 54126  1  0  0  0
 55 57  1  0  0  0
 55127  1  0  0  0
 56 69  2  0  0  0
 57 58  2  0  0  0
 57128  1  0  0  0
 58129  1  0  0  0
 59 60  1  0  0  0
 59 61  1  0  0  0
 59 62  1  0  0  0
 60130  1  0  0  0
 60131  1  0  0  0
 60132  1  0  0  0
 61133  1  0  0  0
 61134  1  0  0  0
 61135  1  0  0  0
 62136  1  0  0  0
 62137  1  0  0  0
 62138  1  0  0  0
 63 65  1  0  0  0
 63139  1  0  0  0
 63140  1  0  0  0
 63141  1  0  0  0
 64142  1  0  0  0
 65143  1  0  0  0
 68 81  1  0  0  0
 71 72  2  0  0  0
 71 73  1  0  0  0
 71144  1  0  0  0
 72 75  1  0  0  0
 72145  1  0  0  0
 73 76  2  0  0  0
 73 78  1  0  0  0
 74 75  2  0  0  0
 74 76  1  0  0  0
 74 79  1  0  0  0
 75 82  1  0  0  0
 76 83  1  0  0  0
 77 80  1  0  0  0
 77 82  1  0  0  0
 77 84  2  0  0  0
 78146  1  0  0  0
 78147  1  0  0  0
 78148  1  0  0  0
 79149  1  0  0  0
 79150  1  0  0  0
 79151  1  0  0  0
 80 81  1  0  0  0
 80152  1  0  0  0
 80153  1  0  0  0
 81154  1  0  0  0
 81155  1  0  0  0
 82156  1  0  0  0
 83157  1  0  0  0
M  ISO  4   1 100  68 101  81 101  83 100
M  END
> <chiral flag>
0

> <version>
0

> <s_m_source_file>
/data/baiqing/PycharmProjects/Reinvent-master-3.2/result/LINK_invent/BTK/process_docking_weight1_custom_sum_contain_oxygen_bond_distance_aromatic_linkinvent_7_9_3/rearranged_h_0012.sdf

> <i_m_source_file_index>
77

> <r_mmod_Potential_Energy-OPLS-2005>
212.571899414062

> <r_mmod_Stretch_Energy-OPLS-2005>
142.836456298828

> <r_mmod_Bend_Energy-OPLS-2005>
195.277236938477

> <r_mmod_Torsional_Energy-OPLS-2005>
284.415466308594

> <r_mmod_Improper_Torsional_Energy-OPLS-2005>
17.0027465820312

> <r_mmod_Van_der_Waal_Energy-OPLS-2005>
145.602233886719

> <r_mmod_Electrostatic_Energy-OPLS-2005>
-448.248199462891

> <r_mmod_Solvation_Energy-OPLS-2005>
-223.830718994141

> <b_mmod_Minimization_Converged-OPLS-2005>
0

> <r_mmod_RMS_Derivative-OPLS-2005>
6.51257085800171

$$$$
78
                    3D
 Structure written by MMmdl.
172180  0  0  1  0            999 V2000
  -30.7730  -14.3669   20.6383 C   0  0  0  0  0  0
  -30.4091  -12.2605   19.4233 C   0  0  0  0  0  0
  -29.4950  -12.5076   18.2093 C   0  0  0  0  0  0
  -28.0142  -12.3794   18.6161 C   0  0  0  0  0  0
  -27.6675  -13.2045   19.8839 C   0  0  2  0  0  0
  -28.7021  -12.9655   21.0069 C   0  0  0  0  0  0
  -25.2599  -13.8165   20.5674 C   0  0  0  0  0  0
  -24.1829  -13.0455   20.9161 C   0  0  0  0  0  0
  -24.6377  -11.6917   20.8720 C   0  0  0  0  0  0
  -23.9044  -10.4312   21.0404 C   0  0  0  0  0  0
  -24.3593   -9.4223   21.9184 C   0  0  0  0  0  0
  -23.6275   -8.2258   22.0767 C   0  0  0  0  0  0
  -22.4253   -8.0296   21.3558 C   0  0  0  0  0  0
  -21.9882   -9.0272   20.4657 C   0  0  0  0  0  0
  -22.7213  -10.2149   20.3059 C   0  0  0  0  0  0
  -21.6849   -6.0736   22.5278 C   0  0  0  0  0  0
  -21.4021   -6.5639   23.8214 C   0  0  0  0  0  0
  -21.3665   -5.6787   24.9171 C   0  0  0  0  0  0
  -21.6039   -4.3052   24.7217 C   0  0  0  0  0  0
  -21.8818   -3.8150   23.4340 C   0  0  0  0  0  0
  -21.9191   -4.6964   22.3398 C   0  0  0  0  0  0
  -22.7854  -13.5274   21.1806 C   0  0  0  0  0  0
  -22.1655   -4.2157   21.0974 F   0  0  0  0  0  0
  -21.5629   -3.4539   25.7734 F   0  0  0  0  0  0
  -30.0489  -13.2311   20.4671 N   0  0  0  0  0  0
  -26.3038  -12.9328   20.3373 N   0  0  0  0  0  0
  -25.9300  -11.6491   20.5739 N   0  0  0  0  0  0
  -22.0454  -12.8307   22.0356 N   0  0  0  0  0  0
  -25.4342  -15.1879   20.4108 N   0  0  0  0  0  0
  -31.8313  -14.5740   20.0353 O   0  0  0  0  0  0
  -21.6637   -6.8880   21.4242 O   0  0  0  0  0  0
  -22.3563  -14.5592   20.6663 O   0  0  0  0  0  0
  -24.6110  -31.8680   23.2102 C   0  0  0  0  0  0
  -25.9012  -32.4822   23.8409 C   0  0  1  0  0  0
  -27.2575  -27.4718   20.0919 C   0  0  0  0  0  0
  -25.5854  -33.8619   24.2323 N   0  0  0  0  0  0
  -23.4009  -30.4885   21.5487 C   0  0  2  0  0  0
  -24.8509  -28.9505   20.1212 C   0  0  0  0  0  0
  -22.7408  -29.4659   22.5005 C   0  0  0  0  0  0
  -18.0269  -28.1400   22.8512 C   0  0  0  0  0  0
  -24.1468  -36.7341   23.2648 C   0  0  0  0  0  0
  -25.9239  -30.8426   21.3607 C   0  0  0  0  0  0
  -26.0036  -29.4776   20.7125 C   0  0  0  0  0  0
  -27.2066  -28.7448   20.6939 C   0  0  0  0  0  0
  -26.0867  -26.9417   19.5039 C   0  0  0  0  0  0
  -24.8834  -27.6787   19.5172 C   0  0  0  0  0  0
  -23.6091  -29.8121   20.1663 C   0  0  0  0  0  0
  -25.4082  -36.3115   24.0343 C   0  0  1  0  0  0
  -20.5859  -28.3679   23.1335 C   0  0  2  0  0  0
  -20.6746  -26.9412   22.5434 C   0  0  0  0  0  0
  -19.5714  -26.6406   21.5232 C   0  0  0  0  0  0
  -18.1900  -26.7954   22.1643 C   0  0  0  0  0  0
  -19.1523  -28.8862   23.2923 C   0  0  0  0  0  0
  -18.9446  -30.1466   23.8924 C   0  0  0  0  0  0
  -17.6445  -30.6596   24.0595 C   0  0  0  0  0  0
  -25.9018  -34.9477   23.5141 C   0  0  0  0  0  0
  -16.5338  -29.9103   23.6332 C   0  0  0  0  0  0
  -16.7263  -28.6530   23.0347 C   0  0  0  0  0  0
  -26.4454  -31.6615   25.0743 C   0  0  0  0  0  0
  -25.3739  -31.3724   26.1518 C   0  0  0  0  0  0
  -27.0296  -30.3051   24.6149 C   0  0  0  0  0  0
  -27.6037  -32.4353   25.7468 C   0  0  0  0  0  0
  -27.5566  -37.1817   24.8458 C   0  0  0  0  0  0
  -21.4133  -29.3040   22.3741 N   0  0  0  0  0  0
  -26.4272  -37.3793   23.9413 N   0  0  0  0  0  0
  -24.6629  -31.0815   22.0988 N   0  0  0  0  0  0
  -23.4180  -28.8210   23.3052 O   0  0  0  0  0  0
  -28.4743  -26.8311   20.0696 O   0  0  0  0  0  0
  -26.5603  -34.8928   22.4713 O   0  0  0  0  0  0
  -23.5304  -32.1425   23.7510 O   0  0  0  0  0  0
  -31.1510  -18.4620   23.2366 C   0  0  0  0  0  0
  -31.2732  -17.3576   20.6693 C   0  0  0  0  0  0
  -30.6627  -17.1561   23.0257 C   0  0  0  0  0  0
  -31.7131  -19.2136   22.1854 C   0  0  0  0  0  0
  -30.7458  -16.5832   21.7337 C   0  0  0  0  0  0
  -31.7693  -18.6642   20.8818 C   0  0  0  0  0  0
  -32.3574  -19.2992   18.5221 C   0  0  0  0  0  0
  -29.6559  -25.0126   21.0948 C   0  0  0  0  0  0
  -30.0964  -16.3900   24.2130 C   0  0  0  0  0  0
  -33.3072  -20.1999   17.7438 C   0  0  0  0  0  0
  -33.5748  -20.8116   22.2723 C   0  0  0  0  0  0
  -28.5163  -25.4078   20.1411 C   0  0  0  0  0  0
  -31.3957  -22.8329   22.9782 C   0  0  0  0  0  0
  -30.1515  -23.7198   23.1751 C   0  0  0  0  0  0
  -31.1378  -21.5354   22.1968 C   0  0  0  0  0  0
  -32.3778  -19.4431   19.8557 N   0  0  0  0  0  0
  -30.2789  -15.2549   21.5151 N   0  0  0  0  0  0
  -29.3994  -24.0210   21.9576 N   0  0  0  0  0  0
  -32.1542  -20.5186   22.4659 N   0  0  0  0  0  0
  -31.6171  -18.5264   17.9107 O   0  0  0  0  0  0
  -30.7234  -25.6319   21.0967 O   0  0  0  0  0  0
  -31.4606  -12.3221   19.1325 H   0  0  0  0  0  0
  -30.2740  -11.2458   19.8033 H   0  0  0  0  0  0
  -29.7258  -11.7950   17.4163 H   0  0  0  0  0  0
  -29.6884  -13.4998   17.7963 H   0  0  0  0  0  0
  -27.8071  -11.3234   18.7929 H   0  0  0  0  0  0
  -27.3739  -12.6832   17.7877 H   0  0  0  0  0  0
  -27.7225  -14.2560   19.6018 H   0  0  0  0  0  0
  -28.6518  -11.9325   21.3556 H   0  0  0  0  0  0
  -28.4573  -13.5722   21.8792 H   0  0  0  0  0  0
  -25.2734   -9.5715   22.4756 H   0  0  0  0  0  0
  -23.9996   -7.4648   22.7485 H   0  0  0  0  0  0
  -21.0814   -8.8789   19.8955 H   0  0  0  0  0  0
  -22.3672  -10.9690   19.6175 H   0  0  0  0  0  0
  -21.2023   -7.6148   23.9723 H   0  0  0  0  0  0
  -21.1479   -6.0512   25.9073 H   0  0  0  0  0  0
  -22.0588   -2.7612   23.2829 H   0  0  0  0  0  0
  -22.4024  -11.9997   22.4827 H   0  0  0  0  0  0
  -21.1081  -13.1405   22.2517 H   0  0  0  0  0  0
  -24.6742  -15.8487   20.5279 H   0  0  0  0  0  0
  -26.2958  -15.6249   20.1099 H   0  0  0  0  0  0
  -26.7101  -32.5540   23.1196 H   0  0  0  0  0  0
  -24.9939  -33.9779   25.0424 H   0  0  0  0  0  0
  -22.6891  -31.3036   21.4043 H   0  0  0  0  0  0
  -23.3698  -35.9709   23.3322 H   0  0  0  0  0  0
  -24.3572  -36.8951   22.2066 H   0  0  0  0  0  0
  -23.7261  -37.6563   23.6662 H   0  0  0  0  0  0
  -26.0363  -31.6065   20.5907 H   0  0  0  0  0  0
  -26.8110  -30.8981   21.9794 H   0  0  0  0  0  0
  -28.1014  -29.1540   21.1403 H   0  0  0  0  0  0
  -26.0997  -25.9777   19.0152 H   0  0  0  0  0  0
  -23.9954  -27.2675   19.0565 H   0  0  0  0  0  0
  -23.7145  -30.5798   19.3991 H   0  0  0  0  0  0
  -22.7367  -29.2251   19.8760 H   0  0  0  0  0  0
  -25.1252  -36.1983   25.0836 H   0  0  0  0  0  0
  -20.9969  -28.3243   24.1450 H   0  0  0  0  0  0
  -20.5662  -26.2282   23.3623 H   0  0  0  0  0  0
  -21.6611  -26.7456   22.1210 H   0  0  0  0  0  0
  -19.6861  -25.6328   21.1230 H   0  0  0  0  0  0
  -19.6631  -27.3247   20.6786 H   0  0  0  0  0  0
  -17.4167  -26.6745   21.4036 H   0  0  0  0  0  0
  -18.0262  -26.0087   22.9021 H   0  0  0  0  0  0
  -19.7920  -30.7298   24.2278 H   0  0  0  0  0  0
  -17.4994  -31.6267   24.5215 H   0  0  0  0  0  0
  -15.5341  -30.3013   23.7639 H   0  0  0  0  0  0
  -15.8667  -28.0868   22.7021 H   0  0  0  0  0  0
  -24.5875  -30.7111   25.7865 H   0  0  0  0  0  0
  -24.8974  -32.2880   26.5034 H   0  0  0  0  0  0
  -25.8106  -30.8840   27.0245 H   0  0  0  0  0  0
  -26.2852  -29.6794   24.1214 H   0  0  0  0  0  0
  -27.4060  -29.7318   25.4638 H   0  0  0  0  0  0
  -27.8689  -30.4358   23.9316 H   0  0  0  0  0  0
  -27.2661  -33.3637   26.2097 H   0  0  0  0  0  0
  -28.3793  -32.6967   25.0250 H   0  0  0  0  0  0
  -28.0791  -31.8475   26.5338 H   0  0  0  0  0  0
  -28.2588  -38.0106   24.7483 H   0  0  0  0  0  0
  -28.1049  -36.2639   24.6275 H   0  0  0  0  0  0
  -27.2309  -37.1489   25.8870 H   0  0  0  0  0  0
  -20.9305  -29.8771   21.6960 H   0  0  0  0  0  0
  -26.0155  -38.2873   24.1389 H   0  0  0  0  0  0
  -31.1006  -18.8959   24.2251 H   0  0  0  0  0  0
  -31.3173  -16.9290   19.6809 H   0  0  0  0  0  0
  -29.6229  -17.0720   24.9208 H   0  0  0  0  0  0
  -30.8990  -15.8730   24.7395 H   0  0  0  0  0  0
  -29.3475  -15.6540   23.9210 H   0  0  0  0  0  0
  -34.3430  -19.9449   17.9724 H   0  0  0  0  0  0
  -33.1436  -21.2485   17.9919 H   0  0  0  0  0  0
  -33.1683  -20.0800   16.6695 H   0  0  0  0  0  0
  -34.1552  -19.9165   22.0382 H   0  0  0  0  0  0
  -33.9906  -21.2400   23.1855 H   0  0  0  0  0  0
  -33.7277  -21.5376   21.4715 H   0  0  0  0  0  0
  -27.5805  -24.9878   20.5135 H   0  0  0  0  0  0
  -28.7012  -24.9905   19.1511 H   0  0  0  0  0  0
  -31.7644  -22.5833   23.9736 H   0  0  0  0  0  0
  -32.1944  -23.4024   22.5003 H   0  0  0  0  0  0
  -30.4412  -24.6450   23.6760 H   0  0  0  0  0  0
  -29.4682  -23.2153   23.8595 H   0  0  0  0  0  0
  -31.0935  -21.7434   21.1263 H   0  0  0  0  0  0
  -30.1552  -21.1441   22.4718 H   0  0  0  0  0  0
  -32.9151  -20.2225   20.2083 H   0  0  0  0  0  0
  -29.5020  -14.9415   22.0766 H   0  0  0  0  0  0
  -28.5020  -23.5645   21.8559 H   0  0  0  0  0  0
  1 25  1  0  0  0
  1 30  2  0  0  0
  1 87  1  0  0  0
  2  3  1  0  0  0
  2 25  1  0  0  0
  2 92  1  0  0  0
  2 93  1  0  0  0
  3  4  1  0  0  0
  3 94  1  0  0  0
  3 95  1  0  0  0
  4  5  1  0  0  0
  4 96  1  0  0  0
  4 97  1  0  0  0
  5  6  1  0  0  0
  5 26  1  0  0  0
  5 98  1  0  0  0
  6 25  1  0  0  0
  6 99  1  0  0  0
  6100  1  0  0  0
  7  8  2  0  0  0
  7 26  1  0  0  0
  7 29  1  0  0  0
  8  9  1  0  0  0
  8 22  1  0  0  0
  9 10  1  0  0  0
  9 27  2  0  0  0
 10 11  2  0  0  0
 10 15  1  0  0  0
 11 12  1  0  0  0
 11101  1  0  0  0
 12 13  2  0  0  0
 12102  1  0  0  0
 13 14  1  0  0  0
 13 31  1  0  0  0
 14 15  2  0  0  0
 14103  1  0  0  0
 15104  1  0  0  0
 16 17  2  0  0  0
 16 21  1  0  0  0
 16 31  1  0  0  0
 17 18  1  0  0  0
 17105  1  0  0  0
 18 19  2  0  0  0
 18106  1  0  0  0
 19 20  1  0  0  0
 19 24  1  0  0  0
 20 21  2  0  0  0
 20107  1  0  0  0
 21 23  1  0  0  0
 22 28  1  0  0  0
 22 32  2  0  0  0
 26 27  1  0  0  0
 28108  1  0  0  0
 28109  1  0  0  0
 29110  1  0  0  0
 29111  1  0  0  0
 33 34  1  0  0  0
 33 66  1  0  0  0
 33 70  2  0  0  0
 34 36  1  0  0  0
 34 59  1  0  0  0
 34112  1  0  0  0
 35 44  2  0  0  0
 35 45  1  0  0  0
 35 68  1  0  0  0
 36 56  1  0  0  0
 36113  1  0  0  0
 37 39  1  0  0  0
 37 47  1  0  0  0
 37 66  1  0  0  0
 37114  1  0  0  0
 38 43  2  0  0  0
 38 46  1  0  0  0
 38 47  1  0  0  0
 39 64  1  0  0  0
 39 67  2  0  0  0
 40 52  1  0  0  0
 40 53  2  0  0  0
 40 58  1  0  0  0
 41115  1  0  0  0
 41116  1  0  0  0
 41117  1  0  0  0
 41 48  1  0  0  0
 42 43  1  0  0  0
 42 66  1  0  0  0
 42118  1  0  0  0
 42119  1  0  0  0
 43 44  1  0  0  0
 44120  1  0  0  0
 45 46  2  0  0  0
 45121  1  0  0  0
 46122  1  0  0  0
 47123  1  0  0  0
 47124  1  0  0  0
 48 56  1  0  0  0
 48 65  1  0  0  0
 48125  1  0  0  0
 49 50  1  0  0  0
 49 53  1  0  0  0
 49 64  1  0  0  0
 49126  1  0  0  0
 50 51  1  0  0  0
 50127  1  0  0  0
 50128  1  0  0  0
 51 52  1  0  0  0
 51129  1  0  0  0
 51130  1  0  0  0
 52131  1  0  0  0
 52132  1  0  0  0
 53 54  1  0  0  0
 54 55  2  0  0  0
 54133  1  0  0  0
 55 57  1  0  0  0
 55134  1  0  0  0
 56 69  2  0  0  0
 57 58  2  0  0  0
 57135  1  0  0  0
 58136  1  0  0  0
 59 60  1  0  0  0
 59 61  1  0  0  0
 59 62  1  0  0  0
 60137  1  0  0  0
 60138  1  0  0  0
 60139  1  0  0  0
 61140  1  0  0  0
 61141  1  0  0  0
 61142  1  0  0  0
 62143  1  0  0  0
 62144  1  0  0  0
 62145  1  0  0  0
 63 65  1  0  0  0
 63146  1  0  0  0
 63147  1  0  0  0
 63148  1  0  0  0
 64149  1  0  0  0
 65150  1  0  0  0
 68 82  1  0  0  0
 71 73  2  0  0  0
 71 74  1  0  0  0
 71151  1  0  0  0
 72 75  2  0  0  0
 72 76  1  0  0  0
 72152  1  0  0  0
 73 75  1  0  0  0
 73 79  1  0  0  0
 74 76  2  0  0  0
 74 89  1  0  0  0
 75 87  1  0  0  0
 76 86  1  0  0  0
 77 80  1  0  0  0
 77 86  1  0  0  0
 77 90  2  0  0  0
 78 82  1  0  0  0
 78 88  1  0  0  0
 78 91  2  0  0  0
 79153  1  0  0  0
 79154  1  0  0  0
 79155  1  0  0  0
 80156  1  0  0  0
 80157  1  0  0  0
 80158  1  0  0  0
 81 89  1  0  0  0
 81159  1  0  0  0
 81160  1  0  0  0
 81161  1  0  0  0
 82162  1  0  0  0
 82163  1  0  0  0
 83 84  1  0  0  0
 83 85  1  0  0  0
 83164  1  0  0  0
 83165  1  0  0  0
 84 88  1  0  0  0
 84166  1  0  0  0
 84167  1  0  0  0
 85 89  1  0  0  0
 85168  1  0  0  0
 85169  1  0  0  0
 86170  1  0  0  0
 87171  1  0  0  0
 88172  1  0  0  0
M  ISO  4   1 100  68 101  82 101  87 100
M  END
> <chiral flag>
0

> <version>
0

> <s_m_source_file>
/data/baiqing/PycharmProjects/Reinvent-master-3.2/result/LINK_invent/BTK/process_docking_weight1_custom_sum_contain_oxygen_bond_distance_aromatic_linkinvent_7_9_3/rearranged_h_0012.sdf

> <i_m_source_file_index>
78

> <r_mmod_Potential_Energy-OPLS-2005>
-164.850860595703

> <r_mmod_Stretch_Energy-OPLS-2005>
35.1668319702148

> <r_mmod_Bend_Energy-OPLS-2005>
114.874885559082

> <r_mmod_Torsional_Energy-OPLS-2005>
261.625823974609

> <r_mmod_Improper_Torsional_Energy-OPLS-2005>
5.21730327606201

> <r_mmod_Van_der_Waal_Energy-OPLS-2005>
168.794677734375

> <r_mmod_Electrostatic_Energy-OPLS-2005>
-484.254455566406

> <r_mmod_Solvation_Energy-OPLS-2005>
-275.695648193359

> <b_mmod_Minimization_Converged-OPLS-2005>
0

> <r_mmod_RMS_Derivative-OPLS-2005>
2.48312664031982

$$$$
79
                    3D
 Structure written by MMmdl.
152160  0  0  1  0            999 V2000
  -30.5258  -15.0214   20.4032 C   0  0  0  0  0  0
  -30.4381  -12.6369   19.5037 C   0  0  0  0  0  0
  -29.5227  -12.5363   18.2613 C   0  0  0  0  0  0
  -28.0591  -12.3101   18.6828 C   0  0  0  0  0  0
  -27.6239  -13.2555   19.8326 C   0  0  2  0  0  0
  -28.6659  -13.3236   20.9688 C   0  0  0  0  0  0
  -25.2437  -13.8226   20.5721 C   0  0  0  0  0  0
  -24.1765  -13.0438   20.9238 C   0  0  0  0  0  0
  -24.6394  -11.6928   20.8758 C   0  0  0  0  0  0
  -23.9082  -10.4294   21.0408 C   0  0  0  0  0  0
  -24.3629   -9.4207   21.9185 C   0  0  0  0  0  0
  -23.6300   -8.2243   22.0754 C   0  0  0  0  0  0
  -22.4282   -8.0282   21.3544 C   0  0  0  0  0  0
  -21.9921   -9.0257   20.4646 C   0  0  0  0  0  0
  -22.7254  -10.2134   20.3056 C   0  0  0  0  0  0
  -21.6855   -6.0736   22.5279 C   0  0  0  0  0  0
  -21.4016   -6.5640   23.8212 C   0  0  0  0  0  0
  -21.3660   -5.6792   24.9174 C   0  0  0  0  0  0
  -21.6044   -4.3055   24.7224 C   0  0  0  0  0  0
  -21.8819   -3.8147   23.4345 C   0  0  0  0  0  0
  -21.9193   -4.6964   22.3402 C   0  0  0  0  0  0
  -22.7784  -13.5202   21.1890 C   0  0  0  0  0  0
  -22.1661   -4.2149   21.0979 F   0  0  0  0  0  0
  -21.5629   -3.4539   25.7737 F   0  0  0  0  0  0
  -29.9306  -13.7539   20.3588 N   0  0  0  0  0  0
  -26.2862  -12.9471   20.3235 N   0  0  0  0  0  0
  -25.9327  -11.6593   20.5737 N   0  0  0  0  0  0
  -22.0438  -12.8187   22.0446 N   0  0  0  0  0  0
  -25.4076  -15.1959   20.4148 N   0  0  0  0  0  0
  -31.7384  -15.0451   20.1634 O   0  0  0  0  0  0
  -21.6643   -6.8880   21.4241 O   0  0  0  0  0  0
  -22.3463  -14.5503   20.6732 O   0  0  0  0  0  0
  -24.6485  -31.8388   23.1834 C   0  0  0  0  0  0
  -25.9234  -32.4667   23.8243 C   0  0  1  0  0  0
  -27.2161  -27.0830   20.1597 C   0  0  0  0  0  0
  -25.5961  -33.8476   24.2157 N   0  0  0  0  0  0
  -23.4547  -30.4564   21.5300 C   0  0  2  0  0  0
  -24.9047  -28.8727   20.1108 C   0  0  0  0  0  0
  -22.7593  -29.4521   22.4839 C   0  0  0  0  0  0
  -18.0310  -28.1399   22.8475 C   0  0  0  0  0  0
  -24.1492  -36.7242   23.2643 C   0  0  0  0  0  0
  -26.0144  -30.6960   21.3896 C   0  0  0  0  0  0
  -26.0846  -29.3019   20.7314 C   0  0  0  0  0  0
  -27.2407  -28.4251   20.7345 C   0  0  0  0  0  0
  -26.0080  -26.7668   19.5005 C   0  0  0  0  0  0
  -24.8824  -27.6207   19.4783 C   0  0  0  0  0  0
  -23.6842  -29.7819   20.1513 C   0  0  0  0  0  0
  -25.4127  -36.3016   24.0310 C   0  0  1  0  0  0
  -20.5925  -28.3730   23.1223 C   0  0  2  0  0  0
  -20.6792  -26.9428   22.5403 C   0  0  0  0  0  0
  -19.5766  -26.6380   21.5212 C   0  0  0  0  0  0
  -18.1948  -26.7936   22.1623 C   0  0  0  0  0  0
  -19.1567  -28.8883   23.2839 C   0  0  0  0  0  0
  -18.9482  -30.1478   23.8867 C   0  0  0  0  0  0
  -17.6478  -30.6594   24.0558 C   0  0  0  0  0  0
  -25.9082  -34.9393   23.5046 C   0  0  0  0  0  0
  -16.5369  -29.9084   23.6338 C   0  0  0  0  0  0
  -16.7293  -28.6504   23.0358 C   0  0  0  0  0  0
  -26.4537  -31.6557   25.0709 C   0  0  0  0  0  0
  -25.3704  -31.3762   26.1392 C   0  0  0  0  0  0
  -27.0414  -30.2946   24.6333 C   0  0  0  0  0  0
  -27.6052  -32.4338   25.7503 C   0  0  0  0  0  0
  -27.5574  -37.1778   24.8466 C   0  0  0  0  0  0
  -21.4279  -29.3047   22.3588 N   0  0  0  0  0  0
  -26.4285  -37.3735   23.9408 N   0  0  0  0  0  0
  -24.7261  -31.0198   22.0891 N   0  0  0  0  0  0
  -23.4212  -28.8076   23.3014 O   0  0  0  0  0  0
  -28.2566  -26.0680   20.2293 O   0  0  0  0  0  0
  -26.5675  -34.8901   22.4630 O   0  0  0  0  0  0
  -23.5592  -32.1287   23.7024 O   0  0  0  0  0  0
  -31.4169  -18.1607   20.5449 C   0  0  0  0  0  0
  -30.9014  -20.5935   20.4662 C   0  0  0  0  0  0
  -31.8213  -19.5193   20.5504 C   0  0  0  0  0  0
  -30.0633  -17.7616   20.4599 C   0  0  0  0  0  0
  -29.5080  -20.3990   20.3716 C   0  0  0  0  0  0
  -29.1259  -18.9377   20.3760 C   0  0  0  0  0  0
  -33.3010  -19.8406   20.6446 C   0  0  0  0  0  0
  -29.0360  -23.1810   20.3517 C   0  0  0  0  0  0
  -27.9768  -24.5140   20.1151 C   0  0  0  0  0  0
  -29.7494  -16.2329   20.4906 N   0  0  0  0  0  0
  -28.6556  -21.6394   20.2783 N   0  0  0  0  0  0
  -27.8035  -18.6511   20.2945 F   0  0  0  0  0  0
  -31.4693  -12.7999   19.1870 H   0  0  0  0  0  0
  -30.4445  -11.6976   20.0590 H   0  0  0  0  0  0
  -29.8547  -11.7278   17.6086 H   0  0  0  0  0  0
  -29.5981  -13.4542   17.6763 H   0  0  0  0  0  0
  -27.9691  -11.2728   19.0075 H   0  0  0  0  0  0
  -27.3940  -12.4196   17.8254 H   0  0  0  0  0  0
  -27.5736  -14.2485   19.3849 H   0  0  0  0  0  0
  -28.7721  -12.3595   21.4683 H   0  0  0  0  0  0
  -28.3535  -14.0372   21.7329 H   0  0  0  0  0  0
  -25.2772   -9.5683   22.4763 H   0  0  0  0  0  0
  -24.0007   -7.4635   22.7474 H   0  0  0  0  0  0
  -21.0852   -8.8779   19.8951 H   0  0  0  0  0  0
  -22.3711  -10.9674   19.6167 H   0  0  0  0  0  0
  -21.2009   -7.6148   23.9716 H   0  0  0  0  0  0
  -21.1483   -6.0522   25.9077 H   0  0  0  0  0  0
  -22.0597   -2.7609   23.2846 H   0  0  0  0  0  0
  -22.4068  -11.9857   22.4840 H   0  0  0  0  0  0
  -21.1051  -13.1197   22.2648 H   0  0  0  0  0  0
  -24.6352  -15.8431   20.5302 H   0  0  0  0  0  0
  -26.2449  -15.6434   20.0663 H   0  0  0  0  0  0
  -26.7300  -32.5255   23.0966 H   0  0  0  0  0  0
  -25.0079  -33.9580   25.0286 H   0  0  0  0  0  0
  -22.7599  -31.2838   21.3715 H   0  0  0  0  0  0
  -23.3762  -35.9565   23.3288 H   0  0  0  0  0  0
  -24.3572  -36.8896   22.2061 H   0  0  0  0  0  0
  -23.7240  -37.6428   23.6698 H   0  0  0  0  0  0
  -26.1769  -31.4476   20.6159 H   0  0  0  0  0  0
  -26.8819  -30.7470   22.0360 H   0  0  0  0  0  0
  -28.1387  -28.7499   21.2410 H   0  0  0  0  0  0
  -25.8986  -25.8094   19.0143 H   0  0  0  0  0  0
  -23.9823  -27.2865   18.9808 H   0  0  0  0  0  0
  -23.8260  -30.5547   19.3949 H   0  0  0  0  0  0
  -22.7974  -29.2275   19.8388 H   0  0  0  0  0  0
  -25.1319  -36.1833   25.0802 H   0  0  0  0  0  0
  -21.0016  -28.3325   24.1345 H   0  0  0  0  0  0
  -20.5683  -26.2345   23.3628 H   0  0  0  0  0  0
  -21.6657  -26.7426   22.1203 H   0  0  0  0  0  0
  -19.6927  -25.6283   21.1262 H   0  0  0  0  0  0
  -19.6703  -27.3174   20.6729 H   0  0  0  0  0  0
  -17.4216  -26.6679   21.4027 H   0  0  0  0  0  0
  -18.0347  -26.0085   22.9027 H   0  0  0  0  0  0
  -19.7958  -30.7303   24.2222 H   0  0  0  0  0  0
  -17.5030  -31.6270   24.5166 H   0  0  0  0  0  0
  -15.5367  -30.2977   23.7680 H   0  0  0  0  0  0
  -15.8694  -28.0812   22.7091 H   0  0  0  0  0  0
  -24.5895  -30.7099   25.7709 H   0  0  0  0  0  0
  -24.8881  -32.2949   26.4741 H   0  0  0  0  0  0
  -25.7972  -30.8984   27.0220 H   0  0  0  0  0  0
  -26.3048  -29.6653   24.1326 H   0  0  0  0  0  0
  -27.3993  -29.7266   25.4930 H   0  0  0  0  0  0
  -27.8969  -30.4170   23.9686 H   0  0  0  0  0  0
  -27.2634  -33.3664   26.2005 H   0  0  0  0  0  0
  -28.3905  -32.6858   25.0363 H   0  0  0  0  0  0
  -28.0676  -31.8516   26.5484 H   0  0  0  0  0  0
  -28.2581  -38.0084   24.7513 H   0  0  0  0  0  0
  -28.1080  -36.2612   24.6294 H   0  0  0  0  0  0
  -27.2289  -37.1425   25.8868 H   0  0  0  0  0  0
  -20.9501  -29.8751   21.6751 H   0  0  0  0  0  0
  -26.0146  -38.2800   24.1414 H   0  0  0  0  0  0
  -32.1895  -17.4106   20.6188 H   0  0  0  0  0  0
  -31.2935  -21.6002   20.4724 H   0  0  0  0  0  0
  -33.8579  -19.0248   21.1072 H   0  0  0  0  0  0
  -33.4688  -20.7365   21.2435 H   0  0  0  0  0  0
  -33.7145  -20.0136   19.6506 H   0  0  0  0  0  0
  -29.4874  -23.3218   21.3346 H   0  0  0  0  0  0
  -29.8588  -23.3198   19.6495 H   0  0  0  0  0  0
  -27.1297  -24.3381   20.7787 H   0  0  0  0  0  0
  -27.5783  -24.3734   19.1107 H   0  0  0  0  0  0
  -28.7631  -16.0398   20.5741 H   0  0  0  0  0  0
  -27.6581  -21.4522   20.2023 H   0  0  0  0  0  0
  1 25  1  0  0  0
  1 30  2  0  0  0
  1 80  1  0  0  0
  2  3  1  0  0  0
  2 25  1  0  0  0
  2 83  1  0  0  0
  2 84  1  0  0  0
  3  4  1  0  0  0
  3 85  1  0  0  0
  3 86  1  0  0  0
  4  5  1  0  0  0
  4 87  1  0  0  0
  4 88  1  0  0  0
  5  6  1  0  0  0
  5 26  1  0  0  0
  5 89  1  0  0  0
  6 25  1  0  0  0
  6 90  1  0  0  0
  6 91  1  0  0  0
  7  8  2  0  0  0
  7 26  1  0  0  0
  7 29  1  0  0  0
  8  9  1  0  0  0
  8 22  1  0  0  0
  9 10  1  0  0  0
  9 27  2  0  0  0
 10 11  2  0  0  0
 10 15  1  0  0  0
 11 12  1  0  0  0
 11 92  1  0  0  0
 12 13  2  0  0  0
 12 93  1  0  0  0
 13 14  1  0  0  0
 13 31  1  0  0  0
 14 15  2  0  0  0
 14 94  1  0  0  0
 15 95  1  0  0  0
 16 17  2  0  0  0
 16 21  1  0  0  0
 16 31  1  0  0  0
 17 18  1  0  0  0
 17 96  1  0  0  0
 18 19  2  0  0  0
 18 97  1  0  0  0
 19 20  1  0  0  0
 19 24  1  0  0  0
 20 21  2  0  0  0
 20 98  1  0  0  0
 21 23  1  0  0  0
 22 28  1  0  0  0
 22 32  2  0  0  0
 26 27  1  0  0  0
 28 99  1  0  0  0
 28100  1  0  0  0
 29101  1  0  0  0
 29102  1  0  0  0
 33 34  1  0  0  0
 33 66  1  0  0  0
 33 70  2  0  0  0
 34 36  1  0  0  0
 34 59  1  0  0  0
 34103  1  0  0  0
 35 44  2  0  0  0
 35 45  1  0  0  0
 35 68  1  0  0  0
 36 56  1  0  0  0
 36104  1  0  0  0
 37 39  1  0  0  0
 37 47  1  0  0  0
 37 66  1  0  0  0
 37105  1  0  0  0
 38 43  2  0  0  0
 38 46  1  0  0  0
 38 47  1  0  0  0
 39 64  1  0  0  0
 39 67  2  0  0  0
 40 52  1  0  0  0
 40 53  2  0  0  0
 40 58  1  0  0  0
 41106  1  0  0  0
 41107  1  0  0  0
 41108  1  0  0  0
 41 48  1  0  0  0
 42 43  1  0  0  0
 42 66  1  0  0  0
 42109  1  0  0  0
 42110  1  0  0  0
 43 44  1  0  0  0
 44111  1  0  0  0
 45 46  2  0  0  0
 45112  1  0  0  0
 46113  1  0  0  0
 47114  1  0  0  0
 47115  1  0  0  0
 48 56  1  0  0  0
 48 65  1  0  0  0
 48116  1  0  0  0
 49 50  1  0  0  0
 49 53  1  0  0  0
 49 64  1  0  0  0
 49117  1  0  0  0
 50 51  1  0  0  0
 50118  1  0  0  0
 50119  1  0  0  0
 51 52  1  0  0  0
 51120  1  0  0  0
 51121  1  0  0  0
 52122  1  0  0  0
 52123  1  0  0  0
 53 54  1  0  0  0
 54 55  2  0  0  0
 54124  1  0  0  0
 55 57  1  0  0  0
 55125  1  0  0  0
 56 69  2  0  0  0
 57 58  2  0  0  0
 57126  1  0  0  0
 58127  1  0  0  0
 59 60  1  0  0  0
 59 61  1  0  0  0
 59 62  1  0  0  0
 60128  1  0  0  0
 60129  1  0  0  0
 60130  1  0  0  0
 61131  1  0  0  0
 61132  1  0  0  0
 61133  1  0  0  0
 62134  1  0  0  0
 62135  1  0  0  0
 62136  1  0  0  0
 63 65  1  0  0  0
 63137  1  0  0  0
 63138  1  0  0  0
 63139  1  0  0  0
 64140  1  0  0  0
 65141  1  0  0  0
 68 79  1  0  0  0
 71 73  2  0  0  0
 71 74  1  0  0  0
 71142  1  0  0  0
 72 73  1  0  0  0
 72 75  2  0  0  0
 72143  1  0  0  0
 73 77  1  0  0  0
 74 76  2  0  0  0
 74 80  1  0  0  0
 75 76  1  0  0  0
 75 81  1  0  0  0
 76 82  1  0  0  0
 77144  1  0  0  0
 77145  1  0  0  0
 77146  1  0  0  0
 78 79  1  0  0  0
 78 81  1  0  0  0
 78147  1  0  0  0
 78148  1  0  0  0
 79149  1  0  0  0
 79150  1  0  0  0
 80151  1  0  0  0
 81152  1  0  0  0
M  ISO  4   1 100  68 101  79 101  80 100
M  END
> <chiral flag>
0

> <version>
0

> <s_m_source_file>
/data/baiqing/PycharmProjects/Reinvent-master-3.2/result/LINK_invent/BTK/process_docking_weight1_custom_sum_contain_oxygen_bond_distance_aromatic_linkinvent_7_9_3/rearranged_h_0012.sdf

> <i_m_source_file_index>
79

> <r_mmod_Potential_Energy-OPLS-2005>
640.838195800781

> <r_mmod_Stretch_Energy-OPLS-2005>
319.000885009766

> <r_mmod_Bend_Energy-OPLS-2005>
275.853057861328

> <r_mmod_Torsional_Energy-OPLS-2005>
201.554641723633

> <r_mmod_Improper_Torsional_Energy-OPLS-2005>
4.76873588562012

> <r_mmod_Van_der_Waal_Energy-OPLS-2005>
131.678466796875

> <r_mmod_Electrostatic_Energy-OPLS-2005>
-326.479888916016

> <r_mmod_Solvation_Energy-OPLS-2005>
-209.941177368164

> <b_mmod_Minimization_Converged-OPLS-2005>
0

> <r_mmod_RMS_Derivative-OPLS-2005>
0.0904217213392258

$$$$
80
                    3D
 Structure written by MMmdl.
161169  0  0  1  0            999 V2000
  -30.5127  -14.9503   20.4276 C   0  0  0  0  0  0
  -30.4547  -12.5878   19.5014 C   0  0  0  0  0  0
  -29.5308  -12.5201   18.2605 C   0  0  0  0  0  0
  -28.0629  -12.3032   18.6802 C   0  0  0  0  0  0
  -27.6341  -13.2403   19.8387 C   0  0  2  0  0  0
  -28.6769  -13.2510   20.9784 C   0  0  0  0  0  0
  -25.2493  -13.8196   20.5700 C   0  0  0  0  0  0
  -24.1791  -13.0434   20.9222 C   0  0  0  0  0  0
  -24.6385  -11.6910   20.8739 C   0  0  0  0  0  0
  -23.9056  -10.4291   21.0405 C   0  0  0  0  0  0
  -24.3610   -9.4206   21.9179 C   0  0  0  0  0  0
  -23.6286   -8.2241   22.0749 C   0  0  0  0  0  0
  -22.4266   -8.0277   21.3541 C   0  0  0  0  0  0
  -21.9896   -9.0258   20.4652 C   0  0  0  0  0  0
  -22.7223  -10.2137   20.3058 C   0  0  0  0  0  0
  -21.6847   -6.0730   22.5280 C   0  0  0  0  0  0
  -21.4014   -6.5633   23.8215 C   0  0  0  0  0  0
  -21.3659   -5.6786   24.9176 C   0  0  0  0  0  0
  -21.6046   -4.3050   24.7225 C   0  0  0  0  0  0
  -21.8817   -3.8142   23.4342 C   0  0  0  0  0  0
  -21.9186   -4.6958   22.3397 C   0  0  0  0  0  0
  -22.7817  -13.5226   21.1872 C   0  0  0  0  0  0
  -22.1658   -4.2147   21.0972 F   0  0  0  0  0  0
  -21.5623   -3.4525   25.7737 F   0  0  0  0  0  0
  -29.9542  -13.6737   20.3890 N   0  0  0  0  0  0
  -26.2903  -12.9409   20.3227 N   0  0  0  0  0  0
  -25.9318  -11.6549   20.5723 N   0  0  0  0  0  0
  -22.0431  -12.8256   22.0432 N   0  0  0  0  0  0
  -25.4155  -15.1931   20.4137 N   0  0  0  0  0  0
  -31.7116  -15.0584   20.1459 O   0  0  0  0  0  0
  -21.6625   -6.8877   21.4247 O   0  0  0  0  0  0
  -22.3505  -14.5524   20.6686 O   0  0  0  0  0  0
  -24.6427  -31.8443   23.1846 C   0  0  0  0  0  0
  -25.9191  -32.4710   23.8249 C   0  0  1  0  0  0
  -27.2366  -27.1408   20.1665 C   0  0  0  0  0  0
  -25.5942  -33.8512   24.2189 N   0  0  0  0  0  0
  -23.4492  -30.4569   21.5313 C   0  0  2  0  0  0
  -24.9034  -28.8733   20.1234 C   0  0  0  0  0  0
  -22.7566  -29.4531   22.4868 C   0  0  0  0  0  0
  -18.0299  -28.1380   22.8478 C   0  0  0  0  0  0
  -24.1499  -36.7261   23.2639 C   0  0  0  0  0  0
  -26.0031  -30.7213   21.3799 C   0  0  0  0  0  0
  -26.0807  -29.3263   20.7344 C   0  0  0  0  0  0
  -27.2515  -28.4791   20.7306 C   0  0  0  0  0  0
  -26.0302  -26.7753   19.5363 C   0  0  0  0  0  0
  -24.8899  -27.6104   19.5087 C   0  0  0  0  0  0
  -23.6784  -29.7750   20.1552 C   0  0  0  0  0  0
  -25.4131  -36.3054   24.0319 C   0  0  1  0  0  0
  -20.5911  -28.3711   23.1251 C   0  0  2  0  0  0
  -20.6789  -26.9416   22.5415 C   0  0  0  0  0  0
  -19.5771  -26.6372   21.5217 C   0  0  0  0  0  0
  -18.1944  -26.7920   22.1613 C   0  0  0  0  0  0
  -19.1554  -28.8863   23.2853 C   0  0  0  0  0  0
  -18.9468  -30.1456   23.8882 C   0  0  0  0  0  0
  -17.6469  -30.6582   24.0555 C   0  0  0  0  0  0
  -25.9078  -34.9425   23.5069 C   0  0  0  0  0  0
  -16.5359  -29.9076   23.6325 C   0  0  0  0  0  0
  -16.7285  -28.6489   23.0355 C   0  0  0  0  0  0
  -26.4519  -31.6564   25.0675 C   0  0  0  0  0  0
  -25.3703  -31.3735   26.1364 C   0  0  0  0  0  0
  -27.0366  -30.2967   24.6217 C   0  0  0  0  0  0
  -27.6078  -32.4297   25.7447 C   0  0  0  0  0  0
  -27.5588  -37.1783   24.8459 C   0  0  0  0  0  0
  -21.4255  -29.3039   22.3621 N   0  0  0  0  0  0
  -26.4300  -37.3763   23.9407 N   0  0  0  0  0  0
  -24.7185  -31.0291   22.0880 N   0  0  0  0  0  0
  -23.4212  -28.8087   23.3027 O   0  0  0  0  0  0
  -28.3181  -26.1931   20.1053 O   0  0  0  0  0  0
  -26.5665  -34.8926   22.4649 O   0  0  0  0  0  0
  -23.5542  -32.1306   23.7066 O   0  0  0  0  0  0
  -30.0624  -18.4579   21.5653 C   0  0  0  0  0  0
  -29.8991  -19.9054   21.6026 C   0  0  0  0  0  0
  -29.0682  -19.8648   19.3883 C   0  0  0  0  0  0
  -29.7292  -17.6054   20.4682 C   0  0  0  0  0  0
  -29.3956  -20.7242   20.5100 C   0  0  0  0  0  0
  -29.1853  -18.3975   19.3839 C   0  0  0  0  0  0
  -28.4243  -23.3100   20.2021 C   0  0  0  0  0  0
  -30.2712  -20.5467   22.9318 C   0  0  0  0  0  0
  -28.6087  -20.5218   18.0946 C   0  0  0  0  0  0
  -30.6413  -22.8765   21.0185 C   0  0  0  0  0  0
  -29.5170  -16.8455   17.6025 C   0  0  0  0  0  0
  -28.3322  -24.8417   20.8705 C   0  0  0  0  0  0
  -29.6541  -16.0722   20.5800 N   0  0  0  0  0  0
  -29.3735  -22.2912   20.5640 N   0  0  0  0  0  0
  -27.5334  -23.0473   19.3900 O   0  0  0  0  0  0
  -28.6668  -17.7617   18.2778 O   0  0  0  0  0  0
  -31.4863  -12.7627   19.1918 H   0  0  0  0  0  0
  -30.4636  -11.6347   20.0319 H   0  0  0  0  0  0
  -29.8564  -11.7187   17.5956 H   0  0  0  0  0  0
  -29.6172  -13.4436   17.6875 H   0  0  0  0  0  0
  -27.9672  -11.2641   18.9995 H   0  0  0  0  0  0
  -27.3997  -12.4162   17.8215 H   0  0  0  0  0  0
  -27.6002  -14.2429   19.4100 H   0  0  0  0  0  0
  -28.7638  -12.2655   21.4399 H   0  0  0  0  0  0
  -28.3738  -13.9347   21.7728 H   0  0  0  0  0  0
  -25.2760   -9.5681   22.4745 H   0  0  0  0  0  0
  -23.9992   -7.4630   22.7470 H   0  0  0  0  0  0
  -21.0817   -8.8785   19.8972 H   0  0  0  0  0  0
  -22.3682  -10.9671   19.6168 H   0  0  0  0  0  0
  -21.2018   -7.6141   23.9727 H   0  0  0  0  0  0
  -21.1478   -6.0506   25.9084 H   0  0  0  0  0  0
  -22.0595   -2.7601   23.2833 H   0  0  0  0  0  0
  -22.4021  -11.9953   22.4908 H   0  0  0  0  0  0
  -21.1052  -13.1331   22.2599 H   0  0  0  0  0  0
  -24.6403  -15.8372   20.5278 H   0  0  0  0  0  0
  -26.2477  -15.6394   20.0530 H   0  0  0  0  0  0
  -26.7251  -32.5341   23.0977 H   0  0  0  0  0  0
  -25.0073  -33.9631   25.0325 H   0  0  0  0  0  0
  -22.7513  -31.2808   21.3691 H   0  0  0  0  0  0
  -23.3787  -35.9567   23.3285 H   0  0  0  0  0  0
  -24.3588  -36.8908   22.2057 H   0  0  0  0  0  0
  -23.7226  -37.6441   23.6681 H   0  0  0  0  0  0
  -26.1469  -31.4705   20.6002 H   0  0  0  0  0  0
  -26.8780  -30.7850   22.0152 H   0  0  0  0  0  0
  -28.1612  -28.8345   21.1935 H   0  0  0  0  0  0
  -25.9656  -25.8037   19.0659 H   0  0  0  0  0  0
  -23.9924  -27.2583   19.0208 H   0  0  0  0  0  0
  -23.8136  -30.5427   19.3919 H   0  0  0  0  0  0
  -22.7964  -29.2092   19.8502 H   0  0  0  0  0  0
  -25.1321  -36.1888   25.0811 H   0  0  0  0  0  0
  -20.9997  -28.3299   24.1377 H   0  0  0  0  0  0
  -20.5683  -26.2321   23.3626 H   0  0  0  0  0  0
  -21.6657  -26.7426   22.1220 H   0  0  0  0  0  0
  -19.6946  -25.6279   21.1261 H   0  0  0  0  0  0
  -19.6724  -27.3170   20.6736 H   0  0  0  0  0  0
  -17.4225  -26.6673   21.3998 H   0  0  0  0  0  0
  -18.0336  -26.0053   22.8999 H   0  0  0  0  0  0
  -19.7941  -30.7266   24.2261 H   0  0  0  0  0  0
  -17.5018  -31.6265   24.5146 H   0  0  0  0  0  0
  -15.5358  -30.2977   23.7647 H   0  0  0  0  0  0
  -15.8681  -28.0800   22.7092 H   0  0  0  0  0  0
  -24.5906  -30.7066   25.7660 H   0  0  0  0  0  0
  -24.8858  -32.2909   26.4720 H   0  0  0  0  0  0
  -25.7982  -30.8942   27.0180 H   0  0  0  0  0  0
  -26.2957  -29.6687   24.1254 H   0  0  0  0  0  0
  -27.4033  -29.7258   25.4758 H   0  0  0  0  0  0
  -27.8850  -30.4212   23.9482 H   0  0  0  0  0  0
  -27.2713  -33.3613   26.2002 H   0  0  0  0  0  0
  -28.3898  -32.6819   25.0271 H   0  0  0  0  0  0
  -28.0739  -31.8422   26.5365 H   0  0  0  0  0  0
  -28.2601  -38.0086   24.7532 H   0  0  0  0  0  0
  -28.1092  -36.2621   24.6263 H   0  0  0  0  0  0
  -27.2307  -37.1406   25.8861 H   0  0  0  0  0  0
  -20.9460  -29.8740   21.6791 H   0  0  0  0  0  0
  -26.0178  -38.2835   24.1418 H   0  0  0  0  0  0
  -30.4171  -17.9701   22.4628 H   0  0  0  0  0  0
  -30.2256  -19.8251   23.7477 H   0  0  0  0  0  0
  -29.5866  -21.3542   23.1891 H   0  0  0  0  0  0
  -31.2895  -20.9362   22.9030 H   0  0  0  0  0  0
  -27.5327  -20.6924   18.1126 H   0  0  0  0  0  0
  -28.8393  -19.9151   17.2191 H   0  0  0  0  0  0
  -29.1154  -21.4735   17.9404 H   0  0  0  0  0  0
  -31.4662  -22.1726   20.8989 H   0  0  0  0  0  0
  -30.5965  -23.1724   22.0661 H   0  0  0  0  0  0
  -30.9223  -23.7537   20.4329 H   0  0  0  0  0  0
  -29.3038  -16.8802   16.5346 H   0  0  0  0  0  0
  -29.3264  -15.8264   17.9333 H   0  0  0  0  0  0
  -30.5747  -17.0755   17.7347 H   0  0  0  0  0  0
  -29.1254  -24.9394   21.6097 H   0  0  0  0  0  0
  -27.4232  -24.8307   21.4720 H   0  0  0  0  0  0
  -28.7079  -15.7575   20.7290 H   0  0  0  0  0  0
  1 25  1  0  0  0
  1 30  2  0  0  0
  1 83  1  0  0  0
  2  3  1  0  0  0
  2 25  1  0  0  0
  2 87  1  0  0  0
  2 88  1  0  0  0
  3  4  1  0  0  0
  3 89  1  0  0  0
  3 90  1  0  0  0
  4  5  1  0  0  0
  4 91  1  0  0  0
  4 92  1  0  0  0
  5  6  1  0  0  0
  5 26  1  0  0  0
  5 93  1  0  0  0
  6 25  1  0  0  0
  6 94  1  0  0  0
  6 95  1  0  0  0
  7  8  2  0  0  0
  7 26  1  0  0  0
  7 29  1  0  0  0
  8  9  1  0  0  0
  8 22  1  0  0  0
  9 10  1  0  0  0
  9 27  2  0  0  0
 10 11  2  0  0  0
 10 15  1  0  0  0
 11 12  1  0  0  0
 11 96  1  0  0  0
 12 13  2  0  0  0
 12 97  1  0  0  0
 13 14  1  0  0  0
 13 31  1  0  0  0
 14 15  2  0  0  0
 14 98  1  0  0  0
 15 99  1  0  0  0
 16 17  2  0  0  0
 16 21  1  0  0  0
 16 31  1  0  0  0
 17 18  1  0  0  0
 17100  1  0  0  0
 18 19  2  0  0  0
 18101  1  0  0  0
 19 20  1  0  0  0
 19 24  1  0  0  0
 20 21  2  0  0  0
 20102  1  0  0  0
 21 23  1  0  0  0
 22 28  1  0  0  0
 22 32  2  0  0  0
 26 27  1  0  0  0
 28103  1  0  0  0
 28104  1  0  0  0
 29105  1  0  0  0
 29106  1  0  0  0
 33 34  1  0  0  0
 33 66  1  0  0  0
 33 70  2  0  0  0
 34 36  1  0  0  0
 34 59  1  0  0  0
 34107  1  0  0  0
 35 44  2  0  0  0
 35 45  1  0  0  0
 35 68  1  0  0  0
 36 56  1  0  0  0
 36108  1  0  0  0
 37 39  1  0  0  0
 37 47  1  0  0  0
 37 66  1  0  0  0
 37109  1  0  0  0
 38 43  2  0  0  0
 38 46  1  0  0  0
 38 47  1  0  0  0
 39 64  1  0  0  0
 39 67  2  0  0  0
 40 52  1  0  0  0
 40 53  2  0  0  0
 40 58  1  0  0  0
 41110  1  0  0  0
 41111  1  0  0  0
 41112  1  0  0  0
 41 48  1  0  0  0
 42 43  1  0  0  0
 42 66  1  0  0  0
 42113  1  0  0  0
 42114  1  0  0  0
 43 44  1  0  0  0
 44115  1  0  0  0
 45 46  2  0  0  0
 45116  1  0  0  0
 46117  1  0  0  0
 47118  1  0  0  0
 47119  1  0  0  0
 48 56  1  0  0  0
 48 65  1  0  0  0
 48120  1  0  0  0
 49 50  1  0  0  0
 49 53  1  0  0  0
 49 64  1  0  0  0
 49121  1  0  0  0
 50 51  1  0  0  0
 50122  1  0  0  0
 50123  1  0  0  0
 51 52  1  0  0  0
 51124  1  0  0  0
 51125  1  0  0  0
 52126  1  0  0  0
 52127  1  0  0  0
 53 54  1  0  0  0
 54 55  2  0  0  0
 54128  1  0  0  0
 55 57  1  0  0  0
 55129  1  0  0  0
 56 69  2  0  0  0
 57 58  2  0  0  0
 57130  1  0  0  0
 58131  1  0  0  0
 59 60  1  0  0  0
 59 61  1  0  0  0
 59 62  1  0  0  0
 60132  1  0  0  0
 60133  1  0  0  0
 60134  1  0  0  0
 61135  1  0  0  0
 61136  1  0  0  0
 61137  1  0  0  0
 62138  1  0  0  0
 62139  1  0  0  0
 62140  1  0  0  0
 63 65  1  0  0  0
 63141  1  0  0  0
 63142  1  0  0  0
 63143  1  0  0  0
 64144  1  0  0  0
 65145  1  0  0  0
 68 82  1  0  0  0
 71 72  2  0  0  0
 71 74  1  0  0  0
 71146  1  0  0  0
 72 75  1  0  0  0
 72 78  1  0  0  0
 73 75  2  0  0  0
 73 76  1  0  0  0
 73 79  1  0  0  0
 74 76  2  0  0  0
 74 83  1  0  0  0
 75 84  1  0  0  0
 76 86  1  0  0  0
 77 82  1  0  0  0
 77 84  1  0  0  0
 77 85  2  0  0  0
 78147  1  0  0  0
 78148  1  0  0  0
 78149  1  0  0  0
 79150  1  0  0  0
 79151  1  0  0  0
 79152  1  0  0  0
 80 84  1  0  0  0
 80153  1  0  0  0
 80154  1  0  0  0
 80155  1  0  0  0
 81 86  1  0  0  0
 81156  1  0  0  0
 81157  1  0  0  0
 81158  1  0  0  0
 82159  1  0  0  0
 82160  1  0  0  0
 83161  1  0  0  0
M  ISO  4   1 100  68 101  82 101  83 100
M  END
> <chiral flag>
0

> <version>
0

> <s_m_source_file>
/data/baiqing/PycharmProjects/Reinvent-master-3.2/result/LINK_invent/BTK/process_docking_weight1_custom_sum_contain_oxygen_bond_distance_aromatic_linkinvent_7_9_3/rearranged_h_0012.sdf

> <i_m_source_file_index>
80

> <r_mmod_Potential_Energy-OPLS-2005>
620.132690429688

> <r_mmod_Stretch_Energy-OPLS-2005>
258.989837646484

> <r_mmod_Bend_Energy-OPLS-2005>
279.065063476562

> <r_mmod_Torsional_Energy-OPLS-2005>
354.709014892578

> <r_mmod_Improper_Torsional_Energy-OPLS-2005>
8.32530307769775

> <r_mmod_Van_der_Waal_Energy-OPLS-2005>
137.712097167969

> <r_mmod_Electrostatic_Energy-OPLS-2005>
-382.416442871094

> <r_mmod_Solvation_Energy-OPLS-2005>
-222.421813964844

> <b_mmod_Minimization_Converged-OPLS-2005>
0

> <r_mmod_RMS_Derivative-OPLS-2005>
2.09399676322937

$$$$
81
                    3D
 Structure written by MMmdl.
154162  0  0  1  0            999 V2000
  -30.6240  -14.6341   20.5016 C   0  0  0  0  0  0
  -30.4395  -12.3887   19.4519 C   0  0  0  0  0  0
  -29.5079  -12.5073   18.2248 C   0  0  0  0  0  0
  -28.0305  -12.3468   18.6369 C   0  0  0  0  0  0
  -27.6547  -13.2160   19.8665 C   0  0  2  0  0  0
  -28.7001  -13.0653   20.9952 C   0  0  0  0  0  0
  -25.2561  -13.8166   20.5687 C   0  0  0  0  0  0
  -24.1822  -13.0431   20.9171 C   0  0  0  0  0  0
  -24.6394  -11.6904   20.8730 C   0  0  0  0  0  0
  -23.9063  -10.4289   21.0400 C   0  0  0  0  0  0
  -24.3614   -9.4206   21.9181 C   0  0  0  0  0  0
  -23.6289   -8.2243   22.0753 C   0  0  0  0  0  0
  -22.4271   -8.0280   21.3544 C   0  0  0  0  0  0
  -21.9905   -9.0253   20.4646 C   0  0  0  0  0  0
  -22.7234  -10.2131   20.3053 C   0  0  0  0  0  0
  -21.6853   -6.0734   22.5279 C   0  0  0  0  0  0
  -21.4014   -6.5638   23.8212 C   0  0  0  0  0  0
  -21.3659   -5.6791   24.9174 C   0  0  0  0  0  0
  -21.6044   -4.3054   24.7225 C   0  0  0  0  0  0
  -21.8820   -3.8145   23.4347 C   0  0  0  0  0  0
  -21.9193   -4.6961   22.3402 C   0  0  0  0  0  0
  -22.7846  -13.5226   21.1843 C   0  0  0  0  0  0
  -22.1661   -4.2147   21.0979 F   0  0  0  0  0  0
  -21.5628   -3.4538   25.7738 F   0  0  0  0  0  0
  -30.0168  -13.4074   20.4331 N   0  0  0  0  0  0
  -26.2998  -12.9350   20.3343 N   0  0  0  0  0  0
  -25.9327  -11.6504   20.5765 N   0  0  0  0  0  0
  -22.0493  -12.8221   22.0406 N   0  0  0  0  0  0
  -25.4265  -15.1888   20.4136 N   0  0  0  0  0  0
  -31.7830  -14.7986   20.1100 O   0  0  0  0  0  0
  -21.6638   -6.8876   21.4240 O   0  0  0  0  0  0
  -22.3527  -14.5533   20.6697 O   0  0  0  0  0  0
  -24.6254  -31.8605   23.2035 C   0  0  0  0  0  0
  -25.9105  -32.4782   23.8359 C   0  0  1  0  0  0
  -27.2251  -27.3263   20.1132 C   0  0  0  0  0  0
  -25.5923  -33.8583   24.2285 N   0  0  0  0  0  0
  -23.4186  -30.4847   21.5461 C   0  0  2  0  0  0
  -24.8648  -28.9422   20.1105 C   0  0  0  0  0  0
  -22.7470  -29.4627   22.4941 C   0  0  0  0  0  0
  -18.0285  -28.1383   22.8487 C   0  0  0  0  0  0
  -24.1489  -36.7296   23.2639 C   0  0  0  0  0  0
  -25.9594  -30.7934   21.3738 C   0  0  0  0  0  0
  -26.0337  -29.4220   20.7146 C   0  0  0  0  0  0
  -27.2165  -28.6257   20.7065 C   0  0  0  0  0  0
  -26.0322  -26.9000   19.4830 C   0  0  0  0  0  0
  -24.8657  -27.6862   19.4863 C   0  0  0  0  0  0
  -23.6325  -29.8210   20.1608 C   0  0  0  0  0  0
  -25.4113  -36.3087   24.0330 C   0  0  1  0  0  0
  -20.5885  -28.3686   23.1286 C   0  0  2  0  0  0
  -20.6774  -26.9411   22.5410 C   0  0  0  0  0  0
  -19.5750  -26.6384   21.5212 C   0  0  0  0  0  0
  -18.1930  -26.7927   22.1625 C   0  0  0  0  0  0
  -19.1538  -28.8852   23.2882 C   0  0  0  0  0  0
  -18.9461  -30.1454   23.8898 C   0  0  0  0  0  0
  -17.6461  -30.6586   24.0564 C   0  0  0  0  0  0
  -25.9049  -34.9455   23.5108 C   0  0  0  0  0  0
  -16.5352  -29.9085   23.6329 C   0  0  0  0  0  0
  -16.7273  -28.6502   23.0351 C   0  0  0  0  0  0
  -26.4493  -31.6589   25.0726 C   0  0  0  0  0  0
  -25.3729  -31.3724   26.1454 C   0  0  0  0  0  0
  -27.0336  -30.3015   24.6174 C   0  0  0  0  0  0
  -27.6053  -32.4324   25.7495 C   0  0  0  0  0  0
  -27.5580  -37.1803   24.8464 C   0  0  0  0  0  0
  -21.4185  -29.3042   22.3682 N   0  0  0  0  0  0
  -26.4293  -37.3780   23.9408 N   0  0  0  0  0  0
  -24.6866  -31.0624   22.0982 N   0  0  0  0  0  0
  -23.4198  -28.8166   23.3017 O   0  0  0  0  0  0
  -28.3461  -26.4826   20.1685 O   0  0  0  0  0  0
  -26.5618  -34.8920   22.4674 O   0  0  0  0  0  0
  -23.5420  -32.1400   23.7368 O   0  0  0  0  0  0
  -30.9950  -17.8517   20.1720 C   0  0  0  0  0  0
  -28.8169  -19.3367   21.1307 C   0  0  0  0  0  0
  -29.9127  -17.1286   20.7376 C   0  0  0  0  0  0
  -29.9154  -20.0707   20.6073 C   0  0  0  0  0  0
  -28.8195  -17.9117   21.1936 C   0  0  0  0  0  0
  -30.9938  -19.2778   20.1055 C   0  0  0  0  0  0
  -29.0294  -22.4581   20.3261 C   0  0  0  0  0  0
  -31.2863  -22.0795   21.1697 C   0  0  0  0  0  0
  -29.2755  -24.0242   20.4654 C   0  0  0  0  0  0
  -28.1352  -25.0254   19.9996 C   0  0  0  0  0  0
  -29.8171  -15.6738   20.8743 N   0  0  0  0  0  0
  -30.0070  -21.5437   20.6827 N   0  0  0  0  0  0
  -27.9388  -22.0843   19.8836 O   0  0  0  0  0  0
  -27.7469  -17.2745   21.7217 F   0  0  0  0  0  0
  -32.0688  -19.8859   19.5481 F   0  0  0  0  0  0
  -31.4806  -12.5143   19.1490 H   0  0  0  0  0  0
  -30.3749  -11.3919   19.8909 H   0  0  0  0  0  0
  -29.7705  -11.7565   17.4783 H   0  0  0  0  0  0
  -29.6515  -13.4773   17.7460 H   0  0  0  0  0  0
  -27.8657  -11.2934   18.8664 H   0  0  0  0  0  0
  -27.3761  -12.5793   17.7960 H   0  0  0  0  0  0
  -27.6738  -14.2522   19.5285 H   0  0  0  0  0  0
  -28.7099  -12.0419   21.3734 H   0  0  0  0  0  0
  -28.4461  -13.6933   21.8505 H   0  0  0  0  0  0
  -25.2761   -9.5682   22.4754 H   0  0  0  0  0  0
  -23.9998   -7.4635   22.7473 H   0  0  0  0  0  0
  -21.0836   -8.8772   19.8953 H   0  0  0  0  0  0
  -22.3692  -10.9670   19.6162 H   0  0  0  0  0  0
  -21.2008   -7.6147   23.9715 H   0  0  0  0  0  0
  -21.1481   -6.0522   25.9077 H   0  0  0  0  0  0
  -22.0599   -2.7607   23.2848 H   0  0  0  0  0  0
  -22.4109  -11.9883   22.4794 H   0  0  0  0  0  0
  -21.1114  -13.1253   22.2619 H   0  0  0  0  0  0
  -24.6673  -15.8454   20.5568 H   0  0  0  0  0  0
  -26.2957  -15.6426   20.1642 H   0  0  0  0  0  0
  -26.7173  -32.5454   23.1108 H   0  0  0  0  0  0
  -25.0069  -33.9730   25.0428 H   0  0  0  0  0  0
  -22.7120  -31.3051   21.4043 H   0  0  0  0  0  0
  -23.3750  -35.9630   23.3304 H   0  0  0  0  0  0
  -24.3580  -36.8914   22.2052 H   0  0  0  0  0  0
  -23.7243  -37.6500   23.6658 H   0  0  0  0  0  0
  -26.0907  -31.5582   20.6070 H   0  0  0  0  0  0
  -26.8400  -30.8409   22.0030 H   0  0  0  0  0  0
  -28.1127  -28.9889   21.1898 H   0  0  0  0  0  0
  -25.9709  -25.9423   18.9883 H   0  0  0  0  0  0
  -23.9703  -27.3136   19.0080 H   0  0  0  0  0  0
  -23.7509  -30.5982   19.4049 H   0  0  0  0  0  0
  -22.7526  -29.2502   19.8585 H   0  0  0  0  0  0
  -25.1293  -36.1941   25.0823 H   0  0  0  0  0  0
  -20.9977  -28.3260   24.1407 H   0  0  0  0  0  0
  -20.5677  -26.2296   23.3609 H   0  0  0  0  0  0
  -21.6644  -26.7443   22.1203 H   0  0  0  0  0  0
  -19.6913  -25.6296   21.1240 H   0  0  0  0  0  0
  -19.6686  -27.3196   20.6744 H   0  0  0  0  0  0
  -17.4199  -26.6673   21.4028 H   0  0  0  0  0  0
  -18.0332  -26.0068   22.9021 H   0  0  0  0  0  0
  -19.7937  -30.7270   24.2268 H   0  0  0  0  0  0
  -17.5016  -31.6267   24.5164 H   0  0  0  0  0  0
  -15.5353  -30.2988   23.7653 H   0  0  0  0  0  0
  -15.8672  -28.0822   22.7066 H   0  0  0  0  0  0
  -24.5906  -30.7069   25.7785 H   0  0  0  0  0  0
  -24.8918  -32.2889   26.4880 H   0  0  0  0  0  0
  -25.8058  -30.8903   27.0229 H   0  0  0  0  0  0
  -26.2910  -29.6766   24.1200 H   0  0  0  0  0  0
  -27.4040  -29.7269   25.4674 H   0  0  0  0  0  0
  -27.8776  -30.4305   23.9393 H   0  0  0  0  0  0
  -27.2661  -33.3621   26.2077 H   0  0  0  0  0  0
  -28.3859  -32.6890   25.0322 H   0  0  0  0  0  0
  -28.0725  -31.8448   26.5407 H   0  0  0  0  0  0
  -28.2599  -38.0100   24.7513 H   0  0  0  0  0  0
  -28.1076  -36.2632   24.6288 H   0  0  0  0  0  0
  -27.2299  -37.1449   25.8868 H   0  0  0  0  0  0
  -20.9361  -29.8768   21.6897 H   0  0  0  0  0  0
  -26.0176  -38.2855   24.1408 H   0  0  0  0  0  0
  -31.8539  -17.3258   19.7844 H   0  0  0  0  0  0
  -27.9659  -19.8662   21.5323 H   0  0  0  0  0  0
  -31.9181  -21.3038   21.6022 H   0  0  0  0  0  0
  -31.1485  -22.8116   21.9652 H   0  0  0  0  0  0
  -31.8465  -22.5461   20.3585 H   0  0  0  0  0  0
  -30.1853  -24.2716   19.9193 H   0  0  0  0  0  0
  -29.4776  -24.2330   21.5151 H   0  0  0  0  0  0
  -27.2303  -24.7427   20.5403 H   0  0  0  0  0  0
  -27.9377  -24.8365   18.9436 H   0  0  0  0  0  0
  -28.9222  -15.3704   21.2285 H   0  0  0  0  0  0
  1 25  1  0  0  0
  1 30  2  0  0  0
  1 81  1  0  0  0
  2  3  1  0  0  0
  2 25  1  0  0  0
  2 86  1  0  0  0
  2 87  1  0  0  0
  3  4  1  0  0  0
  3 88  1  0  0  0
  3 89  1  0  0  0
  4  5  1  0  0  0
  4 90  1  0  0  0
  4 91  1  0  0  0
  5  6  1  0  0  0
  5 26  1  0  0  0
  5 92  1  0  0  0
  6 25  1  0  0  0
  6 93  1  0  0  0
  6 94  1  0  0  0
  7  8  2  0  0  0
  7 26  1  0  0  0
  7 29  1  0  0  0
  8  9  1  0  0  0
  8 22  1  0  0  0
  9 10  1  0  0  0
  9 27  2  0  0  0
 10 11  2  0  0  0
 10 15  1  0  0  0
 11 12  1  0  0  0
 11 95  1  0  0  0
 12 13  2  0  0  0
 12 96  1  0  0  0
 13 14  1  0  0  0
 13 31  1  0  0  0
 14 15  2  0  0  0
 14 97  1  0  0  0
 15 98  1  0  0  0
 16 17  2  0  0  0
 16 21  1  0  0  0
 16 31  1  0  0  0
 17 18  1  0  0  0
 17 99  1  0  0  0
 18 19  2  0  0  0
 18100  1  0  0  0
 19 20  1  0  0  0
 19 24  1  0  0  0
 20 21  2  0  0  0
 20101  1  0  0  0
 21 23  1  0  0  0
 22 28  1  0  0  0
 22 32  2  0  0  0
 26 27  1  0  0  0
 28102  1  0  0  0
 28103  1  0  0  0
 29104  1  0  0  0
 29105  1  0  0  0
 33 34  1  0  0  0
 33 66  1  0  0  0
 33 70  2  0  0  0
 34 36  1  0  0  0
 34 59  1  0  0  0
 34106  1  0  0  0
 35 44  2  0  0  0
 35 45  1  0  0  0
 35 68  1  0  0  0
 36 56  1  0  0  0
 36107  1  0  0  0
 37 39  1  0  0  0
 37 47  1  0  0  0
 37 66  1  0  0  0
 37108  1  0  0  0
 38 43  2  0  0  0
 38 46  1  0  0  0
 38 47  1  0  0  0
 39 64  1  0  0  0
 39 67  2  0  0  0
 40 52  1  0  0  0
 40 53  2  0  0  0
 40 58  1  0  0  0
 41109  1  0  0  0
 41110  1  0  0  0
 41111  1  0  0  0
 41 48  1  0  0  0
 42 43  1  0  0  0
 42 66  1  0  0  0
 42112  1  0  0  0
 42113  1  0  0  0
 43 44  1  0  0  0
 44114  1  0  0  0
 45 46  2  0  0  0
 45115  1  0  0  0
 46116  1  0  0  0
 47117  1  0  0  0
 47118  1  0  0  0
 48 56  1  0  0  0
 48 65  1  0  0  0
 48119  1  0  0  0
 49 50  1  0  0  0
 49 53  1  0  0  0
 49 64  1  0  0  0
 49120  1  0  0  0
 50 51  1  0  0  0
 50121  1  0  0  0
 50122  1  0  0  0
 51 52  1  0  0  0
 51123  1  0  0  0
 51124  1  0  0  0
 52125  1  0  0  0
 52126  1  0  0  0
 53 54  1  0  0  0
 54 55  2  0  0  0
 54127  1  0  0  0
 55 57  1  0  0  0
 55128  1  0  0  0
 56 69  2  0  0  0
 57 58  2  0  0  0
 57129  1  0  0  0
 58130  1  0  0  0
 59 60  1  0  0  0
 59 61  1  0  0  0
 59 62  1  0  0  0
 60131  1  0  0  0
 60132  1  0  0  0
 60133  1  0  0  0
 61134  1  0  0  0
 61135  1  0  0  0
 61136  1  0  0  0
 62137  1  0  0  0
 62138  1  0  0  0
 62139  1  0  0  0
 63 65  1  0  0  0
 63140  1  0  0  0
 63141  1  0  0  0
 63142  1  0  0  0
 64143  1  0  0  0
 65144  1  0  0  0
 68 80  1  0  0  0
 71 73  2  0  0  0
 71 76  1  0  0  0
 71145  1  0  0  0
 72 74  1  0  0  0
 72 75  2  0  0  0
 72146  1  0  0  0
 73 75  1  0  0  0
 73 81  1  0  0  0
 74 76  2  0  0  0
 74 82  1  0  0  0
 75 84  1  0  0  0
 76 85  1  0  0  0
 77 79  1  0  0  0
 77 82  1  0  0  0
 77 83  2  0  0  0
 78 82  1  0  0  0
 78147  1  0  0  0
 78148  1  0  0  0
 78149  1  0  0  0
 79 80  1  0  0  0
 79150  1  0  0  0
 79151  1  0  0  0
 80152  1  0  0  0
 80153  1  0  0  0
 81154  1  0  0  0
M  ISO  4   1 100  68 101  80 101  81 100
M  END
> <chiral flag>
0

> <version>
0

> <s_m_source_file>
/data/baiqing/PycharmProjects/Reinvent-master-3.2/result/LINK_invent/BTK/process_docking_weight1_custom_sum_contain_oxygen_bond_distance_aromatic_linkinvent_7_9_3/rearranged_h_0012.sdf

> <i_m_source_file_index>
81

> <r_mmod_Potential_Energy-OPLS-2005>
39.1892051696777

> <r_mmod_Stretch_Energy-OPLS-2005>
82.9502029418945

> <r_mmod_Bend_Energy-OPLS-2005>
135.405807495117

> <r_mmod_Torsional_Energy-OPLS-2005>
255.033279418945

> <r_mmod_Improper_Torsional_Energy-OPLS-2005>
3.98399829864502

> <r_mmod_Van_der_Waal_Energy-OPLS-2005>
157.243835449219

> <r_mmod_Electrostatic_Energy-OPLS-2005>
-433.519897460938

> <r_mmod_Solvation_Energy-OPLS-2005>
-208.055053710938

> <b_mmod_Minimization_Converged-OPLS-2005>
0

> <r_mmod_RMS_Derivative-OPLS-2005>
0.12707282602787

$$$$
82
                    3D
 Structure written by MMmdl.
156164  0  0  1  0            999 V2000
  -30.4136  -15.3927   20.3633 C   0  0  0  0  0  0
  -30.4321  -12.9098   19.5024 C   0  0  0  0  0  0
  -29.5299  -12.5935   18.2823 C   0  0  0  0  0  0
  -28.0872  -12.2979   18.7267 C   0  0  0  0  0  0
  -27.6030  -13.2895   19.8127 C   0  0  2  0  0  0
  -28.6407  -13.5318   20.9285 C   0  0  0  0  0  0
  -25.2364  -13.8284   20.5777 C   0  0  0  0  0  0
  -24.1736  -13.0445   20.9276 C   0  0  0  0  0  0
  -24.6417  -11.6948   20.8782 C   0  0  0  0  0  0
  -23.9128  -10.4286   21.0411 C   0  0  0  0  0  0
  -24.3664   -9.4197   21.9183 C   0  0  0  0  0  0
  -23.6313   -8.2245   22.0770 C   0  0  0  0  0  0
  -22.4298   -8.0289   21.3559 C   0  0  0  0  0  0
  -21.9943   -9.0276   20.4665 C   0  0  0  0  0  0
  -22.7296  -10.2137   20.3058 C   0  0  0  0  0  0
  -21.6857   -6.0744   22.5288 C   0  0  0  0  0  0
  -21.4016   -6.5649   23.8216 C   0  0  0  0  0  0
  -21.3654   -5.6801   24.9179 C   0  0  0  0  0  0
  -21.6035   -4.3062   24.7233 C   0  0  0  0  0  0
  -21.8817   -3.8158   23.4351 C   0  0  0  0  0  0
  -21.9187   -4.6970   22.3411 C   0  0  0  0  0  0
  -22.7740  -13.5180   21.1902 C   0  0  0  0  0  0
  -22.1660   -4.2152   21.0984 F   0  0  0  0  0  0
  -21.5622   -3.4543   25.7743 F   0  0  0  0  0  0
  -29.8377  -14.0806   20.2633 N   0  0  0  0  0  0
  -26.2805  -12.9588   20.3253 N   0  0  0  0  0  0
  -25.9365  -11.6684   20.5752 N   0  0  0  0  0  0
  -22.0410  -12.8158   22.0454 N   0  0  0  0  0  0
  -25.3949  -15.2014   20.4209 N   0  0  0  0  0  0
  -31.6476  -15.3337   20.2263 O   0  0  0  0  0  0
  -21.6650   -6.8896   21.4251 O   0  0  0  0  0  0
  -22.3408  -14.5478   20.6729 O   0  0  0  0  0  0
  -24.6692  -31.8146   23.1593 C   0  0  0  0  0  0
  -25.9351  -32.4523   23.8091 C   0  0  1  0  0  0
  -27.2194  -26.8500   20.1758 C   0  0  0  0  0  0
  -25.5996  -33.8344   24.1981 N   0  0  0  0  0  0
  -23.4863  -30.4210   21.5098 C   0  0  2  0  0  0
  -24.9417  -28.7961   20.1026 C   0  0  0  0  0  0
  -22.7691  -29.4371   22.4735 C   0  0  0  0  0  0
  -18.0310  -28.1399   22.8455 C   0  0  0  0  0  0
  -24.1476  -36.7165   23.2650 C   0  0  0  0  0  0
  -26.0604  -30.5951   21.4009 C   0  0  0  0  0  0
  -26.1265  -29.1782   20.7423 C   0  0  0  0  0  0
  -27.2540  -28.2269   20.7554 C   0  0  0  0  0  0
  -26.0075  -26.6454   19.4766 C   0  0  0  0  0  0
  -24.9123  -27.5529   19.4498 C   0  0  0  0  0  0
  -23.7268  -29.7284   20.1377 C   0  0  0  0  0  0
  -25.4119  -36.2906   24.0275 C   0  0  1  0  0  0
  -20.5945  -28.3739   23.1164 C   0  0  2  0  0  0
  -20.6778  -26.9398   22.5411 C   0  0  0  0  0  0
  -19.5758  -26.6354   21.5215 C   0  0  0  0  0  0
  -18.1937  -26.7930   22.1616 C   0  0  0  0  0  0
  -19.1585  -28.8893   23.2790 C   0  0  0  0  0  0
  -18.9503  -30.1486   23.8823 C   0  0  0  0  0  0
  -17.6502  -30.6594   24.0531 C   0  0  0  0  0  0
  -25.9113  -34.9313   23.4953 C   0  0  0  0  0  0
  -16.5383  -29.9078   23.6345 C   0  0  0  0  0  0
  -16.7300  -28.6484   23.0375 C   0  0  0  0  0  0
  -26.4561  -31.6530   25.0684 C   0  0  0  0  0  0
  -25.3654  -31.3852   26.1316 C   0  0  0  0  0  0
  -27.0478  -30.2871   24.6524 C   0  0  0  0  0  0
  -27.6005  -32.4401   25.7511 C   0  0  0  0  0  0
  -27.5537  -37.1717   24.8463 C   0  0  0  0  0  0
  -21.4356  -29.3013   22.3502 N   0  0  0  0  0  0
  -26.4230  -37.3674   23.9430 N   0  0  0  0  0  0
  -24.7607  -30.9736   22.0760 N   0  0  0  0  0  0
  -23.4214  -28.7952   23.3010 O   0  0  0  0  0  0
  -28.1964  -25.6985   20.2990 O   0  0  0  0  0  0
  -26.5751  -34.8876   22.4561 O   0  0  0  0  0  0
  -23.5750  -32.1181   23.6627 O   0  0  0  0  0  0
  -30.5075  -20.5348   21.9384 C   0  0  0  0  0  0
  -31.1568  -18.6484   23.2385 C   0  0  0  0  0  0
  -31.1798  -20.0146   23.0406 C   0  0  0  0  0  0
  -29.7012  -19.8346   20.9884 C   0  0  0  0  0  0
  -29.9472  -18.2110   21.0658 C   0  0  0  0  0  0
  -30.5734  -17.8058   22.3004 C   0  0  0  0  0  0
  -28.6530  -22.5775   20.6460 C   0  0  0  0  0  0
  -31.0557  -21.0162   25.2068 C   0  0  0  0  0  0
  -33.2330  -20.6229   24.0895 C   0  0  0  0  0  0
  -28.1154  -24.0751   19.8210 C   0  0  0  0  0  0
  -28.9500  -21.1240   20.2438 N   0  0  0  0  0  0
  -29.6997  -16.7397   20.3628 N   0  0  0  0  0  0
  -31.8039  -20.8768   23.9575 N   0  0  0  0  0  0
  -28.7068  -22.8021   21.8577 O   0  0  0  0  0  0
  -30.5947  -16.5128   22.7107 F   0  0  0  0  0  0
  -31.4382  -13.1354   19.1442 H   0  0  0  0  0  0
  -30.5449  -12.0340   20.1447 H   0  0  0  0  0  0
  -29.9301  -11.7526   17.7139 H   0  0  0  0  0  0
  -29.5317  -13.4503   17.6068 H   0  0  0  0  0  0
  -28.0609  -11.2806   19.1202 H   0  0  0  0  0  0
  -27.4142  -12.3123   17.8687 H   0  0  0  0  0  0
  -27.4923  -14.2387   19.2868 H   0  0  0  0  0  0
  -28.8535  -12.6206   21.4907 H   0  0  0  0  0  0
  -28.2640  -14.2635   21.6461 H   0  0  0  0  0  0
  -25.2804   -9.5656   22.4766 H   0  0  0  0  0  0
  -24.0005   -7.4635   22.7503 H   0  0  0  0  0  0
  -21.0868   -8.8814   19.8978 H   0  0  0  0  0  0
  -22.3767  -10.9683   19.6168 H   0  0  0  0  0  0
  -21.2023   -7.6155   23.9726 H   0  0  0  0  0  0
  -21.1471   -6.0529   25.9077 H   0  0  0  0  0  0
  -22.0598   -2.7616   23.2856 H   0  0  0  0  0  0
  -22.4053  -11.9820   22.4828 H   0  0  0  0  0  0
  -21.1026  -13.1167   22.2699 H   0  0  0  0  0  0
  -24.6219  -15.8485   20.5353 H   0  0  0  0  0  0
  -26.2418  -15.6495   20.0961 H   0  0  0  0  0  0
  -26.7435  -32.5009   23.0816 H   0  0  0  0  0  0
  -25.0033  -33.9415   25.0056 H   0  0  0  0  0  0
  -22.8023  -31.2536   21.3303 H   0  0  0  0  0  0
  -23.3741  -35.9493   23.3278 H   0  0  0  0  0  0
  -24.3536  -36.8863   22.2075 H   0  0  0  0  0  0
  -23.7243  -37.6331   23.6762 H   0  0  0  0  0  0
  -26.2574  -31.3345   20.6232 H   0  0  0  0  0  0
  -26.9154  -30.6482   22.0631 H   0  0  0  0  0  0
  -28.1465  -28.5197   21.2892 H   0  0  0  0  0  0
  -25.8604  -25.6980   18.9803 H   0  0  0  0  0  0
  -24.0128  -27.2525   18.9307 H   0  0  0  0  0  0
  -23.8763  -30.4931   19.3741 H   0  0  0  0  0  0
  -22.8371  -29.1787   19.8246 H   0  0  0  0  0  0
  -25.1329  -36.1635   25.0757 H   0  0  0  0  0  0
  -21.0042  -28.3345   24.1288 H   0  0  0  0  0  0
  -20.5636  -26.2347   23.3653 H   0  0  0  0  0  0
  -21.6632  -26.7332   22.1232 H   0  0  0  0  0  0
  -19.6915  -25.6261   21.1262 H   0  0  0  0  0  0
  -19.6720  -27.3146   20.6735 H   0  0  0  0  0  0
  -17.4208  -26.6672   21.4014 H   0  0  0  0  0  0
  -18.0303  -26.0102   22.9041 H   0  0  0  0  0  0
  -19.7991  -30.7302   24.2158 H   0  0  0  0  0  0
  -17.5063  -31.6272   24.5146 H   0  0  0  0  0  0
  -15.5385  -30.2965   23.7714 H   0  0  0  0  0  0
  -15.8685  -28.0776   22.7166 H   0  0  0  0  0  0
  -24.5839  -30.7193   25.7633 H   0  0  0  0  0  0
  -24.8843  -32.3091   26.4548 H   0  0  0  0  0  0
  -25.7849  -30.9144   27.0218 H   0  0  0  0  0  0
  -26.3184  -29.6512   24.1492 H   0  0  0  0  0  0
  -27.3927  -29.7283   25.5241 H   0  0  0  0  0  0
  -27.9153  -30.4002   24.0014 H   0  0  0  0  0  0
  -27.2499  -33.3748   26.1895 H   0  0  0  0  0  0
  -28.3903  -32.6904   25.0423 H   0  0  0  0  0  0
  -28.0569  -31.8677   26.5595 H   0  0  0  0  0  0
  -28.2508  -38.0056   24.7513 H   0  0  0  0  0  0
  -28.1071  -36.2577   24.6262 H   0  0  0  0  0  0
  -27.2270  -37.1329   25.8869 H   0  0  0  0  0  0
  -20.9628  -29.8690   21.6607 H   0  0  0  0  0  0
  -26.0043  -38.2697   24.1495 H   0  0  0  0  0  0
  -30.6465  -21.5982   21.8761 H   0  0  0  0  0  0
  -31.6081  -18.2155   24.1187 H   0  0  0  0  0  0
  -29.9772  -21.0352   25.0355 H   0  0  0  0  0  0
  -31.3228  -21.9434   25.7169 H   0  0  0  0  0  0
  -31.2706  -20.1925   25.8899 H   0  0  0  0  0  0
  -33.7188  -20.6270   23.1124 H   0  0  0  0  0  0
  -33.4243  -19.6584   24.5605 H   0  0  0  0  0  0
  -33.7058  -21.3879   24.7050 H   0  0  0  0  0  0
  -27.0751  -23.8897   19.5576 H   0  0  0  0  0  0
  -28.6398  -24.0515   18.8652 H   0  0  0  0  0  0
  -28.6725  -20.9295   19.2895 H   0  0  0  0  0  0
  -28.7605  -16.6452   20.0095 H   0  0  0  0  0  0
  1 25  1  0  0  0
  1 30  2  0  0  0
  1 82  1  0  0  0
  2  3  1  0  0  0
  2 25  1  0  0  0
  2 86  1  0  0  0
  2 87  1  0  0  0
  3  4  1  0  0  0
  3 88  1  0  0  0
  3 89  1  0  0  0
  4  5  1  0  0  0
  4 90  1  0  0  0
  4 91  1  0  0  0
  5  6  1  0  0  0
  5 26  1  0  0  0
  5 92  1  0  0  0
  6 25  1  0  0  0
  6 93  1  0  0  0
  6 94  1  0  0  0
  7  8  2  0  0  0
  7 26  1  0  0  0
  7 29  1  0  0  0
  8  9  1  0  0  0
  8 22  1  0  0  0
  9 10  1  0  0  0
  9 27  2  0  0  0
 10 11  2  0  0  0
 10 15  1  0  0  0
 11 12  1  0  0  0
 11 95  1  0  0  0
 12 13  2  0  0  0
 12 96  1  0  0  0
 13 14  1  0  0  0
 13 31  1  0  0  0
 14 15  2  0  0  0
 14 97  1  0  0  0
 15 98  1  0  0  0
 16 17  2  0  0  0
 16 21  1  0  0  0
 16 31  1  0  0  0
 17 18  1  0  0  0
 17 99  1  0  0  0
 18 19  2  0  0  0
 18100  1  0  0  0
 19 20  1  0  0  0
 19 24  1  0  0  0
 20 21  2  0  0  0
 20101  1  0  0  0
 21 23  1  0  0  0
 22 28  1  0  0  0
 22 32  2  0  0  0
 26 27  1  0  0  0
 28102  1  0  0  0
 28103  1  0  0  0
 29104  1  0  0  0
 29105  1  0  0  0
 33 34  1  0  0  0
 33 66  1  0  0  0
 33 70  2  0  0  0
 34 36  1  0  0  0
 34 59  1  0  0  0
 34106  1  0  0  0
 35 44  2  0  0  0
 35 45  1  0  0  0
 35 68  1  0  0  0
 36 56  1  0  0  0
 36107  1  0  0  0
 37 39  1  0  0  0
 37 47  1  0  0  0
 37 66  1  0  0  0
 37108  1  0  0  0
 38 43  2  0  0  0
 38 46  1  0  0  0
 38 47  1  0  0  0
 39 64  1  0  0  0
 39 67  2  0  0  0
 40 52  1  0  0  0
 40 53  2  0  0  0
 40 58  1  0  0  0
 41109  1  0  0  0
 41110  1  0  0  0
 41111  1  0  0  0
 41 48  1  0  0  0
 42 43  1  0  0  0
 42 66  1  0  0  0
 42112  1  0  0  0
 42113  1  0  0  0
 43 44  1  0  0  0
 44114  1  0  0  0
 45 46  2  0  0  0
 45115  1  0  0  0
 46116  1  0  0  0
 47117  1  0  0  0
 47118  1  0  0  0
 48 56  1  0  0  0
 48 65  1  0  0  0
 48119  1  0  0  0
 49 50  1  0  0  0
 49 53  1  0  0  0
 49 64  1  0  0  0
 49120  1  0  0  0
 50 51  1  0  0  0
 50121  1  0  0  0
 50122  1  0  0  0
 51 52  1  0  0  0
 51123  1  0  0  0
 51124  1  0  0  0
 52125  1  0  0  0
 52126  1  0  0  0
 53 54  1  0  0  0
 54 55  2  0  0  0
 54127  1  0  0  0
 55 57  1  0  0  0
 55128  1  0  0  0
 56 69  2  0  0  0
 57 58  2  0  0  0
 57129  1  0  0  0
 58130  1  0  0  0
 59 60  1  0  0  0
 59 61  1  0  0  0
 59 62  1  0  0  0
 60131  1  0  0  0
 60132  1  0  0  0
 60133  1  0  0  0
 61134  1  0  0  0
 61135  1  0  0  0
 61136  1  0  0  0
 62137  1  0  0  0
 62138  1  0  0  0
 62139  1  0  0  0
 63 65  1  0  0  0
 63140  1  0  0  0
 63141  1  0  0  0
 63142  1  0  0  0
 64143  1  0  0  0
 65144  1  0  0  0
 68 80  1  0  0  0
 71 73  2  0  0  0
 71 74  1  0  0  0
 71145  1  0  0  0
 72 73  1  0  0  0
 72 76  2  0  0  0
 72146  1  0  0  0
 73 83  1  0  0  0
 74 75  2  0  0  0
 74 81  1  0  0  0
 75 76  1  0  0  0
 75 82  1  0  0  0
 76 85  1  0  0  0
 77 80  1  0  0  0
 77 81  1  0  0  0
 77 84  2  0  0  0
 78 83  1  0  0  0
 78147  1  0  0  0
 78148  1  0  0  0
 78149  1  0  0  0
 79 83  1  0  0  0
 79150  1  0  0  0
 79151  1  0  0  0
 79152  1  0  0  0
 80153  1  0  0  0
 80154  1  0  0  0
 81155  1  0  0  0
 82156  1  0  0  0
M  ISO  4   1 100  68 101  80 101  82 100
M  END
> <chiral flag>
0

> <version>
0

> <s_m_source_file>
/data/baiqing/PycharmProjects/Reinvent-master-3.2/result/LINK_invent/BTK/process_docking_weight1_custom_sum_contain_oxygen_bond_distance_aromatic_linkinvent_7_9_3/rearranged_h_0012.sdf

> <i_m_source_file_index>
82

> <r_mmod_Potential_Energy-OPLS-2005>
1811.005859375

> <r_mmod_Stretch_Energy-OPLS-2005>
821.011535644531

> <r_mmod_Bend_Energy-OPLS-2005>
615.883544921875

> <r_mmod_Torsional_Energy-OPLS-2005>
288.970367431641

> <r_mmod_Improper_Torsional_Energy-OPLS-2005>
12.2654428482056

> <r_mmod_Van_der_Waal_Energy-OPLS-2005>
166.374893188477

> <r_mmod_Electrostatic_Energy-OPLS-2005>
-417.421875

> <r_mmod_Solvation_Energy-OPLS-2005>
-273.004516601562

> <b_mmod_Minimization_Converged-OPLS-2005>
0

> <r_mmod_RMS_Derivative-OPLS-2005>
2.6852343082428

$$$$
83
                    3D
 Structure written by MMmdl.
166173  0  0  1  0            999 V2000
  -30.6246  -14.4527   20.5114 C   0  0  0  0  0  0
  -30.4366  -12.2744   19.4119 C   0  0  0  0  0  0
  -29.5039  -12.4899   18.1979 C   0  0  0  0  0  0
  -28.0153  -12.3628   18.5949 C   0  0  0  0  0  0
  -27.6608  -13.1779   19.8670 C   0  0  2  0  0  0
  -28.7030  -12.9118   20.9809 C   0  0  0  0  0  0
  -25.2633  -13.8073   20.5651 C   0  0  0  0  0  0
  -24.1863  -13.0408   20.9169 C   0  0  0  0  0  0
  -24.6362  -11.6848   20.8707 C   0  0  0  0  0  0
  -23.9010  -10.4262   21.0374 C   0  0  0  0  0  0
  -24.3582   -9.4185   21.9155 C   0  0  0  0  0  0
  -23.6274   -8.2217   22.0733 C   0  0  0  0  0  0
  -22.4251   -8.0251   21.3527 C   0  0  0  0  0  0
  -21.9865   -9.0215   20.4618 C   0  0  0  0  0  0
  -22.7182  -10.2091   20.3020 C   0  0  0  0  0  0
  -21.6839   -6.0720   22.5287 C   0  0  0  0  0  0
  -21.4019   -6.5636   23.8215 C   0  0  0  0  0  0
  -21.3656   -5.6779   24.9180 C   0  0  0  0  0  0
  -21.6050   -4.3049   24.7215 C   0  0  0  0  0  0
  -21.8831   -3.8136   23.4347 C   0  0  0  0  0  0
  -21.9199   -4.6960   22.3401 C   0  0  0  0  0  0
  -22.7898  -13.5227   21.1849 C   0  0  0  0  0  0
  -22.1669   -4.2161   21.0974 F   0  0  0  0  0  0
  -21.5618   -3.4521   25.7725 F   0  0  0  0  0  0
  -30.0375  -13.2338   20.4474 N   0  0  0  0  0  0
  -26.3020  -12.9171   20.3283 N   0  0  0  0  0  0
  -25.9273  -11.6372   20.5692 N   0  0  0  0  0  0
  -22.0539  -12.8203   22.0387 N   0  0  0  0  0  0
  -25.4391  -15.1790   20.4066 N   0  0  0  0  0  0
  -31.7621  -14.6955   20.0958 O   0  0  0  0  0  0
  -21.6639   -6.8843   21.4227 O   0  0  0  0  0  0
  -22.3591  -14.5524   20.6675 O   0  0  0  0  0  0
  -24.6131  -31.8716   23.2110 C   0  0  0  0  0  0
  -25.9044  -32.4824   23.8385 C   0  0  1  0  0  0
  -27.2397  -27.4754   20.0845 C   0  0  0  0  0  0
  -25.5927  -33.8619   24.2314 N   0  0  0  0  0  0
  -23.3974  -30.4914   21.5573 C   0  0  2  0  0  0
  -24.8390  -28.9540   20.1270 C   0  0  0  0  0  0
  -22.7408  -29.4657   22.5074 C   0  0  0  0  0  0
  -18.0268  -28.1369   22.8503 C   0  0  0  0  0  0
  -24.1491  -36.7287   23.2645 C   0  0  0  0  0  0
  -25.9238  -30.8413   21.3642 C   0  0  0  0  0  0
  -25.9969  -29.4776   20.7144 C   0  0  0  0  0  0
  -27.1984  -28.7467   20.6874 C   0  0  0  0  0  0
  -26.0661  -26.9444   19.5040 C   0  0  0  0  0  0
  -24.8668  -27.6816   19.5274 C   0  0  0  0  0  0
  -23.6018  -29.8211   20.1734 C   0  0  0  0  0  0
  -25.4117  -36.3097   24.0347 C   0  0  1  0  0  0
  -20.5864  -28.3627   23.1376 C   0  0  2  0  0  0
  -20.6768  -26.9376   22.5451 C   0  0  0  0  0  0
  -19.5735  -26.6377   21.5250 C   0  0  0  0  0  0
  -18.1906  -26.7912   22.1648 C   0  0  0  0  0  0
  -19.1523  -28.8813   23.2921 C   0  0  0  0  0  0
  -18.9456  -30.1443   23.8900 C   0  0  0  0  0  0
  -17.6459  -30.6567   24.0570 C   0  0  0  0  0  0
  -25.9064  -34.9470   23.5127 C   0  0  0  0  0  0
  -16.5344  -29.9078   23.6356 C   0  0  0  0  0  0
  -16.7264  -28.6509   23.0342 C   0  0  0  0  0  0
  -26.4478  -31.6580   25.0692 C   0  0  0  0  0  0
  -25.3753  -31.3702   26.1450 C   0  0  0  0  0  0
  -27.0303  -30.3022   24.6047 C   0  0  0  0  0  0
  -27.6028  -32.4313   25.7478 C   0  0  0  0  0  0
  -27.5575  -37.1790   24.8473 C   0  0  0  0  0  0
  -21.4136  -29.2996   22.3796 N   0  0  0  0  0  0
  -26.4278  -37.3788   23.9424 N   0  0  0  0  0  0
  -24.6628  -31.0818   22.1024 N   0  0  0  0  0  0
  -23.4190  -28.8208   23.3106 O   0  0  0  0  0  0
  -28.4479  -26.8312   20.0224 O   0  0  0  0  0  0
  -26.5617  -34.8910   22.4685 O   0  0  0  0  0  0
  -23.5328  -32.1477   23.7506 O   0  0  0  0  0  0
  -29.3313  -24.0171   22.2892 C   0  0  0  0  0  0
  -30.2678  -17.8693   20.6438 C   0  0  0  0  0  0
  -31.1416  -25.1763   23.5521 C   0  0  0  0  0  0
  -28.6216  -25.3315   21.9324 C   0  0  0  0  0  0
  -29.6247  -16.6568   19.9804 C   0  0  0  0  0  0
  -31.9014  -22.3539   20.5470 C   0  0  0  0  0  0
  -31.5723  -20.9188   20.0838 C   0  0  0  0  0  0
  -32.3599  -22.4653   22.0235 C   0  0  0  0  0  0
  -30.2639  -20.3629   20.6641 C   0  0  0  0  0  0
  -31.2817  -22.7467   23.0992 C   0  0  0  0  0  0
  -28.4976  -25.4638   20.4034 C   0  0  0  0  0  0
  -29.9286  -19.0543   20.1219 N   0  0  0  0  0  0
  -29.7307  -15.4182   20.7513 N   0  0  0  0  0  0
  -30.5485  -24.0077   22.8879 N   0  0  0  0  0  0
  -28.7602  -22.9742   21.9611 O   0  0  0  0  0  0
  -31.0175  -17.7439   21.6141 O   0  0  0  0  0  0
  -31.4806  -12.3920   19.1153 H   0  0  0  0  0  0
  -30.3438  -11.2535   19.7887 H   0  0  0  0  0  0
  -29.7383  -11.7717   17.4120 H   0  0  0  0  0  0
  -29.6855  -13.4761   17.7684 H   0  0  0  0  0  0
  -27.7967  -11.3051   18.7554 H   0  0  0  0  0  0
  -27.3831  -12.6782   17.7642 H   0  0  0  0  0  0
  -27.7012  -14.2265   19.5784 H   0  0  0  0  0  0
  -28.6804  -11.8585   21.2633 H   0  0  0  0  0  0
  -28.4739  -13.4598   21.8949 H   0  0  0  0  0  0
  -25.2731   -9.5697   22.4718 H   0  0  0  0  0  0
  -24.0026   -7.4596   22.7428 H   0  0  0  0  0  0
  -21.0810   -8.8686   19.8900 H   0  0  0  0  0  0
  -22.3624  -10.9622   19.6123 H   0  0  0  0  0  0
  -21.2023   -7.6147   23.9723 H   0  0  0  0  0  0
  -21.1464   -6.0507   25.9075 H   0  0  0  0  0  0
  -22.0618   -2.7604   23.2835 H   0  0  0  0  0  0
  -22.4184  -11.9894   22.4826 H   0  0  0  0  0  0
  -21.1132  -13.1176   22.2535 H   0  0  0  0  0  0
  -24.6723  -15.8326   20.5222 H   0  0  0  0  0  0
  -26.2851  -15.6157   20.0670 H   0  0  0  0  0  0
  -26.7115  -32.5528   23.1138 H   0  0  0  0  0  0
  -25.0027  -33.9794   25.0424 H   0  0  0  0  0  0
  -22.6844  -31.3066   21.4215 H   0  0  0  0  0  0
  -23.3743  -35.9627   23.3333 H   0  0  0  0  0  0
  -24.3573  -36.8873   22.2052 H   0  0  0  0  0  0
  -23.7253  -37.6504   23.6643 H   0  0  0  0  0  0
  -26.0448  -31.6089   20.5989 H   0  0  0  0  0  0
  -26.8111  -30.8828   21.9850 H   0  0  0  0  0  0
  -28.1023  -29.1547   21.1194 H   0  0  0  0  0  0
  -26.0785  -25.9856   19.0054 H   0  0  0  0  0  0
  -23.9771  -27.2686   19.0709 H   0  0  0  0  0  0
  -23.7078  -30.5989   19.4163 H   0  0  0  0  0  0
  -22.7232  -29.2446   19.8786 H   0  0  0  0  0  0
  -25.1282  -36.1947   25.0837 H   0  0  0  0  0  0
  -20.9931  -28.3156   24.1507 H   0  0  0  0  0  0
  -20.5731  -26.2208   23.3610 H   0  0  0  0  0  0
  -21.6630  -26.7450   22.1202 H   0  0  0  0  0  0
  -19.6922  -25.6312   21.1218 H   0  0  0  0  0  0
  -19.6685  -27.3243   20.6822 H   0  0  0  0  0  0
  -17.4207  -26.6695   21.4026 H   0  0  0  0  0  0
  -18.0263  -26.0044   22.9025 H   0  0  0  0  0  0
  -19.7941  -30.7266   24.2222 H   0  0  0  0  0  0
  -17.5022  -31.6253   24.5157 H   0  0  0  0  0  0
  -15.5350  -30.2971   23.7682 H   0  0  0  0  0  0
  -15.8664  -28.0845   22.7018 H   0  0  0  0  0  0
  -24.5913  -30.7064   25.7795 H   0  0  0  0  0  0
  -24.8966  -32.2875   26.4891 H   0  0  0  0  0  0
  -25.8108  -30.8872   27.0206 H   0  0  0  0  0  0
  -26.2833  -29.6799   24.1092 H   0  0  0  0  0  0
  -27.4095  -29.7227   25.4474 H   0  0  0  0  0  0
  -27.8663  -30.4346   23.9164 H   0  0  0  0  0  0
  -27.2603  -33.3588   26.2070 H   0  0  0  0  0  0
  -28.3826  -32.6915   25.0314 H   0  0  0  0  0  0
  -28.0703  -31.8441   26.5394 H   0  0  0  0  0  0
  -28.2578  -38.0092   24.7497 H   0  0  0  0  0  0
  -28.1063  -36.2611   24.6296 H   0  0  0  0  0  0
  -27.2285  -37.1445   25.8872 H   0  0  0  0  0  0
  -20.9296  -29.8671   21.6981 H   0  0  0  0  0  0
  -26.0162  -38.2857   24.1425 H   0  0  0  0  0  0
  -30.5978  -25.3925   24.4708 H   0  0  0  0  0  0
  -31.1383  -26.0713   22.9260 H   0  0  0  0  0  0
  -32.1834  -25.0044   23.8304 H   0  0  0  0  0  0
  -29.1019  -26.2159   22.3485 H   0  0  0  0  0  0
  -27.6275  -25.3052   22.3744 H   0  0  0  0  0  0
  -30.0247  -16.5336   18.9731 H   0  0  0  0  0  0
  -28.5608  -16.8687   19.8511 H   0  0  0  0  0  0
  -31.0751  -23.0242   20.3158 H   0  0  0  0  0  0
  -32.7283  -22.7081   19.9291 H   0  0  0  0  0  0
  -32.3984  -20.2577   20.3431 H   0  0  0  0  0  0
  -31.5123  -20.9056   18.9935 H   0  0  0  0  0  0
  -33.1154  -23.2489   22.0941 H   0  0  0  0  0  0
  -32.8787  -21.5424   22.2907 H   0  0  0  0  0  0
  -29.4392  -21.0311   20.4215 H   0  0  0  0  0  0
  -30.3190  -20.2968   21.7500 H   0  0  0  0  0  0
  -31.7547  -22.7766   24.0827 H   0  0  0  0  0  0
  -30.6001  -21.9006   23.1735 H   0  0  0  0  0  0
  -27.6599  -24.8715   20.0339 H   0  0  0  0  0  0
  -29.3827  -25.0517   19.9159 H   0  0  0  0  0  0
  -29.3117  -19.0564   19.3190 H   0  0  0  0  0  0
  -28.8658  -15.0891   21.1512 H   0  0  0  0  0  0
  1 25  1  0  0  0
  1 30  2  0  0  0
  1 83  1  0  0  0
  2  3  1  0  0  0
  2 25  1  0  0  0
  2 87  1  0  0  0
  2 88  1  0  0  0
  3  4  1  0  0  0
  3 89  1  0  0  0
  3 90  1  0  0  0
  4  5  1  0  0  0
  4 91  1  0  0  0
  4 92  1  0  0  0
  5  6  1  0  0  0
  5 26  1  0  0  0
  5 93  1  0  0  0
  6 25  1  0  0  0
  6 94  1  0  0  0
  6 95  1  0  0  0
  7  8  2  0  0  0
  7 26  1  0  0  0
  7 29  1  0  0  0
  8  9  1  0  0  0
  8 22  1  0  0  0
  9 10  1  0  0  0
  9 27  2  0  0  0
 10 11  2  0  0  0
 10 15  1  0  0  0
 11 12  1  0  0  0
 11 96  1  0  0  0
 12 13  2  0  0  0
 12 97  1  0  0  0
 13 14  1  0  0  0
 13 31  1  0  0  0
 14 15  2  0  0  0
 14 98  1  0  0  0
 15 99  1  0  0  0
 16 17  2  0  0  0
 16 21  1  0  0  0
 16 31  1  0  0  0
 17 18  1  0  0  0
 17100  1  0  0  0
 18 19  2  0  0  0
 18101  1  0  0  0
 19 20  1  0  0  0
 19 24  1  0  0  0
 20 21  2  0  0  0
 20102  1  0  0  0
 21 23  1  0  0  0
 22 28  1  0  0  0
 22 32  2  0  0  0
 26 27  1  0  0  0
 28103  1  0  0  0
 28104  1  0  0  0
 29105  1  0  0  0
 29106  1  0  0  0
 33 34  1  0  0  0
 33 66  1  0  0  0
 33 70  2  0  0  0
 34 36  1  0  0  0
 34 59  1  0  0  0
 34107  1  0  0  0
 35 44  2  0  0  0
 35 45  1  0  0  0
 35 68  1  0  0  0
 36 56  1  0  0  0
 36108  1  0  0  0
 37 39  1  0  0  0
 37 47  1  0  0  0
 37 66  1  0  0  0
 37109  1  0  0  0
 38 43  2  0  0  0
 38 46  1  0  0  0
 38 47  1  0  0  0
 39 64  1  0  0  0
 39 67  2  0  0  0
 40 52  1  0  0  0
 40 53  2  0  0  0
 40 58  1  0  0  0
 41110  1  0  0  0
 41111  1  0  0  0
 41112  1  0  0  0
 41 48  1  0  0  0
 42 43  1  0  0  0
 42 66  1  0  0  0
 42113  1  0  0  0
 42114  1  0  0  0
 43 44  1  0  0  0
 44115  1  0  0  0
 45 46  2  0  0  0
 45116  1  0  0  0
 46117  1  0  0  0
 47118  1  0  0  0
 47119  1  0  0  0
 48 56  1  0  0  0
 48 65  1  0  0  0
 48120  1  0  0  0
 49 50  1  0  0  0
 49 53  1  0  0  0
 49 64  1  0  0  0
 49121  1  0  0  0
 50 51  1  0  0  0
 50122  1  0  0  0
 50123  1  0  0  0
 51 52  1  0  0  0
 51124  1  0  0  0
 51125  1  0  0  0
 52126  1  0  0  0
 52127  1  0  0  0
 53 54  1  0  0  0
 54 55  2  0  0  0
 54128  1  0  0  0
 55 57  1  0  0  0
 55129  1  0  0  0
 56 69  2  0  0  0
 57 58  2  0  0  0
 57130  1  0  0  0
 58131  1  0  0  0
 59 60  1  0  0  0
 59 61  1  0  0  0
 59 62  1  0  0  0
 60132  1  0  0  0
 60133  1  0  0  0
 60134  1  0  0  0
 61135  1  0  0  0
 61136  1  0  0  0
 61137  1  0  0  0
 62138  1  0  0  0
 62139  1  0  0  0
 62140  1  0  0  0
 63 65  1  0  0  0
 63141  1  0  0  0
 63142  1  0  0  0
 63143  1  0  0  0
 64144  1  0  0  0
 65145  1  0  0  0
 68 81  1  0  0  0
 71 74  1  0  0  0
 71 84  1  0  0  0
 71 85  2  0  0  0
 72 75  1  0  0  0
 72 82  1  0  0  0
 72 86  2  0  0  0
 73 84  1  0  0  0
 73146  1  0  0  0
 73147  1  0  0  0
 73148  1  0  0  0
 74 81  1  0  0  0
 74149  1  0  0  0
 74150  1  0  0  0
 75 83  1  0  0  0
 75151  1  0  0  0
 75152  1  0  0  0
 76 77  1  0  0  0
 76 78  1  0  0  0
 76153  1  0  0  0
 76154  1  0  0  0
 77 79  1  0  0  0
 77155  1  0  0  0
 77156  1  0  0  0
 78 80  1  0  0  0
 78157  1  0  0  0
 78158  1  0  0  0
 79 82  1  0  0  0
 79159  1  0  0  0
 79160  1  0  0  0
 80 84  1  0  0  0
 80161  1  0  0  0
 80162  1  0  0  0
 81163  1  0  0  0
 81164  1  0  0  0
 82165  1  0  0  0
 83166  1  0  0  0
M  ISO  4   1 100  68 101  81 101  83 100
M  END
> <chiral flag>
0

> <version>
0

> <s_m_source_file>
/data/baiqing/PycharmProjects/Reinvent-master-3.2/result/LINK_invent/BTK/process_docking_weight1_custom_sum_contain_oxygen_bond_distance_aromatic_linkinvent_7_9_3/rearranged_h_0012.sdf

> <i_m_source_file_index>
83

> <r_mmod_Potential_Energy-OPLS-2005>
-208.487762451172

> <r_mmod_Stretch_Energy-OPLS-2005>
31.968692779541

> <r_mmod_Bend_Energy-OPLS-2005>
104.57413482666

> <r_mmod_Torsional_Energy-OPLS-2005>
262.043090820312

> <r_mmod_Improper_Torsional_Energy-OPLS-2005>
11.7594194412231

> <r_mmod_Van_der_Waal_Energy-OPLS-2005>
144.527770996094

> <r_mmod_Electrostatic_Energy-OPLS-2005>
-510.094360351562

> <r_mmod_Solvation_Energy-OPLS-2005>
-267.129028320312

> <b_mmod_Minimization_Converged-OPLS-2005>
0

> <r_mmod_RMS_Derivative-OPLS-2005>
4.50326156616211

$$$$
84
                    3D
 Structure written by MMmdl.
155163  0  0  1  0            999 V2000
  -30.4920  -15.0589   20.4050 C   0  0  0  0  0  0
  -30.4465  -12.6694   19.4796 C   0  0  0  0  0  0
  -29.5216  -12.5331   18.2480 C   0  0  0  0  0  0
  -28.0624  -12.2931   18.6821 C   0  0  0  0  0  0
  -27.6203  -13.2478   19.8217 C   0  0  2  0  0  0
  -28.6681  -13.3320   20.9480 C   0  0  0  0  0  0
  -25.2458  -13.8199   20.5735 C   0  0  0  0  0  0
  -24.1768  -13.0424   20.9231 C   0  0  0  0  0  0
  -24.6386  -11.6907   20.8744 C   0  0  0  0  0  0
  -23.9069  -10.4276   21.0393 C   0  0  0  0  0  0
  -24.3617   -9.4197   21.9179 C   0  0  0  0  0  0
  -23.6293   -8.2231   22.0749 C   0  0  0  0  0  0
  -22.4274   -8.0267   21.3539 C   0  0  0  0  0  0
  -21.9907   -9.0240   20.4641 C   0  0  0  0  0  0
  -22.7234  -10.2121   20.3048 C   0  0  0  0  0  0
  -21.6855   -6.0724   22.5278 C   0  0  0  0  0  0
  -21.4018   -6.5633   23.8211 C   0  0  0  0  0  0
  -21.3662   -5.6789   24.9177 C   0  0  0  0  0  0
  -21.6044   -4.3052   24.7227 C   0  0  0  0  0  0
  -21.8821   -3.8139   23.4350 C   0  0  0  0  0  0
  -21.9197   -4.6953   22.3403 C   0  0  0  0  0  0
  -22.7790  -13.5200   21.1884 C   0  0  0  0  0  0
  -22.1661   -4.2141   21.0981 F   0  0  0  0  0  0
  -21.5630   -3.4535   25.7743 F   0  0  0  0  0  0
  -29.9148  -13.7852   20.3170 N   0  0  0  0  0  0
  -26.2858  -12.9420   20.3209 N   0  0  0  0  0  0
  -25.9317  -11.6552   20.5714 N   0  0  0  0  0  0
  -22.0435  -12.8193   22.0440 N   0  0  0  0  0  0
  -25.4147  -15.1932   20.4237 N   0  0  0  0  0  0
  -31.7220  -15.1018   20.2828 O   0  0  0  0  0  0
  -21.6644   -6.8860   21.4236 O   0  0  0  0  0  0
  -22.3470  -14.5499   20.6722 O   0  0  0  0  0  0
  -24.6509  -31.8368   23.1813 C   0  0  0  0  0  0
  -25.9245  -32.4653   23.8233 C   0  0  1  0  0  0
  -27.2110  -27.0562   20.1761 C   0  0  0  0  0  0
  -25.5961  -33.8460   24.2150 N   0  0  0  0  0  0
  -23.4573  -30.4525   21.5299 C   0  0  2  0  0  0
  -24.9045  -28.8553   20.1228 C   0  0  0  0  0  0
  -22.7593  -29.4514   22.4855 C   0  0  0  0  0  0
  -18.0307  -28.1399   22.8475 C   0  0  0  0  0  0
  -24.1497  -36.7239   23.2645 C   0  0  0  0  0  0
  -26.0180  -30.6839   21.3908 C   0  0  0  0  0  0
  -26.0862  -29.2836   20.7419 C   0  0  0  0  0  0
  -27.2428  -28.4046   20.7408 C   0  0  0  0  0  0
  -26.0028  -26.7406   19.5249 C   0  0  0  0  0  0
  -24.8788  -27.5991   19.4970 C   0  0  0  0  0  0
  -23.6879  -29.7711   20.1548 C   0  0  0  0  0  0
  -25.4134  -36.3009   24.0311 C   0  0  1  0  0  0
  -20.5923  -28.3730   23.1226 C   0  0  2  0  0  0
  -20.6795  -26.9428   22.5402 C   0  0  0  0  0  0
  -19.5768  -26.6382   21.5213 C   0  0  0  0  0  0
  -18.1948  -26.7935   22.1622 C   0  0  0  0  0  0
  -19.1565  -28.8884   23.2840 C   0  0  0  0  0  0
  -18.9477  -30.1480   23.8870 C   0  0  0  0  0  0
  -17.6474  -30.6593   24.0556 C   0  0  0  0  0  0
  -25.9088  -34.9386   23.5047 C   0  0  0  0  0  0
  -16.5366  -29.9083   23.6338 C   0  0  0  0  0  0
  -16.7291  -28.6501   23.0357 C   0  0  0  0  0  0
  -26.4541  -31.6542   25.0699 C   0  0  0  0  0  0
  -25.3705  -31.3740   26.1377 C   0  0  0  0  0  0
  -27.0416  -30.2925   24.6336 C   0  0  0  0  0  0
  -27.6071  -32.4316   25.7480 C   0  0  0  0  0  0
  -27.5577  -37.1778   24.8470 C   0  0  0  0  0  0
  -21.4283  -29.3047   22.3591 N   0  0  0  0  0  0
  -26.4295  -37.3728   23.9401 N   0  0  0  0  0  0
  -24.7294  -31.0150   22.0888 N   0  0  0  0  0  0
  -23.4198  -28.8077   23.3047 O   0  0  0  0  0  0
  -28.2816  -26.0744   20.0990 O   0  0  0  0  0  0
  -26.5684  -34.8896   22.4632 O   0  0  0  0  0  0
  -23.5611  -32.1283   23.6988 O   0  0  0  0  0  0
  -30.0020  -17.9313   22.1040 C   0  0  0  0  0  0
  -29.8747  -19.1899   22.7461 C   0  0  0  0  0  0
  -29.7270  -17.7388   20.7361 C   0  0  0  0  0  0
  -29.2293  -20.4011   20.6643 C   0  0  0  0  0  0
  -29.4964  -20.3807   22.0599 C   0  0  0  0  0  0
  -29.3434  -19.0246   20.0420 C   0  0  0  0  0  0
  -30.1576  -19.2527   24.2394 C   0  0  0  0  0  0
  -26.9497  -22.9623   19.1628 C   0  0  0  0  0  0
  -28.3524  -24.6150   20.7215 C   0  0  0  0  0  0
  -28.0221  -22.9763   20.2556 C   0  0  2  0  0  0
  -29.6906  -16.2516   20.2594 N   0  0  0  0  0  0
  -29.0107  -21.7535   20.0112 N   0  0  0  0  0  0
  -29.4317  -21.8599   22.9677 Cl  0  0  0  0  0  0
  -29.0020  -18.9098   18.3523 Cl  0  0  0  0  0  0
  -31.4700  -12.8634   19.1535 H   0  0  0  0  0  0
  -30.4811  -11.7378   20.0471 H   0  0  0  0  0  0
  -29.8613  -11.7196   17.6052 H   0  0  0  0  0  0
  -29.5804  -13.4429   17.6480 H   0  0  0  0  0  0
  -27.9913  -11.2597   19.0237 H   0  0  0  0  0  0
  -27.3892  -12.3797   17.8282 H   0  0  0  0  0  0
  -27.5610  -14.2334   19.3607 H   0  0  0  0  0  0
  -28.7955  -12.3705   21.4474 H   0  0  0  0  0  0
  -28.3514  -14.0444   21.7121 H   0  0  0  0  0  0
  -25.2760   -9.5684   22.4755 H   0  0  0  0  0  0
  -24.0005   -7.4626   22.7473 H   0  0  0  0  0  0
  -21.0836   -8.8753   19.8949 H   0  0  0  0  0  0
  -22.3683  -10.9656   19.6157 H   0  0  0  0  0  0
  -21.2006   -7.6142   23.9713 H   0  0  0  0  0  0
  -21.1485   -6.0518   25.9080 H   0  0  0  0  0  0
  -22.0598   -2.7598   23.2858 H   0  0  0  0  0  0
  -22.4070  -11.9873   22.4850 H   0  0  0  0  0  0
  -21.1040  -13.1195   22.2620 H   0  0  0  0  0  0
  -24.6520  -15.8475   20.5599 H   0  0  0  0  0  0
  -26.2712  -15.6435   20.1300 H   0  0  0  0  0  0
  -26.7306  -32.5227   23.0952 H   0  0  0  0  0  0
  -25.0065  -33.9565   25.0267 H   0  0  0  0  0  0
  -22.7648  -31.2813   21.3675 H   0  0  0  0  0  0
  -23.3764  -35.9565   23.3306 H   0  0  0  0  0  0
  -24.3577  -36.8876   22.2060 H   0  0  0  0  0  0
  -23.7254  -37.6434   23.6688 H   0  0  0  0  0  0
  -26.1815  -31.4291   20.6111 H   0  0  0  0  0  0
  -26.8861  -30.7397   22.0364 H   0  0  0  0  0  0
  -28.1542  -28.7397   21.2158 H   0  0  0  0  0  0
  -25.9193  -25.7885   19.0246 H   0  0  0  0  0  0
  -23.9803  -27.2695   18.9938 H   0  0  0  0  0  0
  -23.8339  -30.5394   19.3944 H   0  0  0  0  0  0
  -22.8000  -29.2182   19.8433 H   0  0  0  0  0  0
  -25.1329  -36.1836   25.0806 H   0  0  0  0  0  0
  -21.0013  -28.3322   24.1347 H   0  0  0  0  0  0
  -20.5694  -26.2340   23.3625 H   0  0  0  0  0  0
  -21.6659  -26.7435   22.1195 H   0  0  0  0  0  0
  -19.6933  -25.6288   21.1256 H   0  0  0  0  0  0
  -19.6703  -27.3183   20.6733 H   0  0  0  0  0  0
  -17.4216  -26.6678   21.4026 H   0  0  0  0  0  0
  -18.0350  -26.0083   22.9026 H   0  0  0  0  0  0
  -19.7952  -30.7305   24.2228 H   0  0  0  0  0  0
  -17.5021  -31.6273   24.5162 H   0  0  0  0  0  0
  -15.5364  -30.2972   23.7683 H   0  0  0  0  0  0
  -15.8689  -28.0811   22.7092 H   0  0  0  0  0  0
  -24.5905  -30.7072   25.7678 H   0  0  0  0  0  0
  -24.8869  -32.2916   26.4737 H   0  0  0  0  0  0
  -25.7970  -30.8946   27.0198 H   0  0  0  0  0  0
  -26.3045  -29.6623   24.1344 H   0  0  0  0  0  0
  -27.3999  -29.7259   25.4942 H   0  0  0  0  0  0
  -27.8969  -30.4140   23.9686 H   0  0  0  0  0  0
  -27.2680  -33.3648   26.1993 H   0  0  0  0  0  0
  -28.3912  -32.6825   25.0321 H   0  0  0  0  0  0
  -28.0709  -31.8479   26.5444 H   0  0  0  0  0  0
  -28.2600  -38.0068   24.7500 H   0  0  0  0  0  0
  -28.1069  -36.2599   24.6327 H   0  0  0  0  0  0
  -27.2286  -37.1461   25.8870 H   0  0  0  0  0  0
  -20.9516  -29.8722   21.6724 H   0  0  0  0  0  0
  -26.0161  -38.2800   24.1378 H   0  0  0  0  0  0
  -30.2682  -17.0718   22.7029 H   0  0  0  0  0  0
  -30.4109  -18.2750   24.6506 H   0  0  0  0  0  0
  -29.2832  -19.6214   24.7769 H   0  0  0  0  0  0
  -30.9923  -19.9245   24.4420 H   0  0  0  0  0  0
  -26.5363  -21.9626   19.0190 H   0  0  0  0  0  0
  -27.3486  -23.3045   18.2079 H   0  0  0  0  0  0
  -26.1165  -23.6115   19.4298 H   0  0  0  0  0  0
  -29.3469  -24.5786   21.1656 H   0  0  0  0  0  0
  -27.7083  -24.7435   21.5926 H   0  0  0  0  0  0
  -27.4913  -22.6084   21.1345 H   0  0  0  0  0  0
  -28.7942  -16.0160   19.8630 H   0  0  0  0  0  0
  -29.2620  -21.6998   19.0292 H   0  0  0  0  0  0
  1 25  1  0  0  0
  1 30  2  0  0  0
  1 81  1  0  0  0
  2  3  1  0  0  0
  2 25  1  0  0  0
  2 85  1  0  0  0
  2 86  1  0  0  0
  3  4  1  0  0  0
  3 87  1  0  0  0
  3 88  1  0  0  0
  4  5  1  0  0  0
  4 89  1  0  0  0
  4 90  1  0  0  0
  5  6  1  0  0  0
  5 26  1  0  0  0
  5 91  1  0  0  0
  6 25  1  0  0  0
  6 92  1  0  0  0
  6 93  1  0  0  0
  7  8  2  0  0  0
  7 26  1  0  0  0
  7 29  1  0  0  0
  8  9  1  0  0  0
  8 22  1  0  0  0
  9 10  1  0  0  0
  9 27  2  0  0  0
 10 11  2  0  0  0
 10 15  1  0  0  0
 11 12  1  0  0  0
 11 94  1  0  0  0
 12 13  2  0  0  0
 12 95  1  0  0  0
 13 14  1  0  0  0
 13 31  1  0  0  0
 14 15  2  0  0  0
 14 96  1  0  0  0
 15 97  1  0  0  0
 16 17  2  0  0  0
 16 21  1  0  0  0
 16 31  1  0  0  0
 17 18  1  0  0  0
 17 98  1  0  0  0
 18 19  2  0  0  0
 18 99  1  0  0  0
 19 20  1  0  0  0
 19 24  1  0  0  0
 20 21  2  0  0  0
 20100  1  0  0  0
 21 23  1  0  0  0
 22 28  1  0  0  0
 22 32  2  0  0  0
 26 27  1  0  0  0
 28101  1  0  0  0
 28102  1  0  0  0
 29103  1  0  0  0
 29104  1  0  0  0
 33 34  1  0  0  0
 33 66  1  0  0  0
 33 70  2  0  0  0
 34 36  1  0  0  0
 34 59  1  0  0  0
 34105  1  0  0  0
 35 44  2  0  0  0
 35 45  1  0  0  0
 35 68  1  0  0  0
 36 56  1  0  0  0
 36106  1  0  0  0
 37 39  1  0  0  0
 37 47  1  0  0  0
 37 66  1  0  0  0
 37107  1  0  0  0
 38 43  2  0  0  0
 38 46  1  0  0  0
 38 47  1  0  0  0
 39 64  1  0  0  0
 39 67  2  0  0  0
 40 52  1  0  0  0
 40 53  2  0  0  0
 40 58  1  0  0  0
 41108  1  0  0  0
 41109  1  0  0  0
 41110  1  0  0  0
 41 48  1  0  0  0
 42 43  1  0  0  0
 42 66  1  0  0  0
 42111  1  0  0  0
 42112  1  0  0  0
 43 44  1  0  0  0
 44113  1  0  0  0
 45 46  2  0  0  0
 45114  1  0  0  0
 46115  1  0  0  0
 47116  1  0  0  0
 47117  1  0  0  0
 48 56  1  0  0  0
 48 65  1  0  0  0
 48118  1  0  0  0
 49 50  1  0  0  0
 49 53  1  0  0  0
 49 64  1  0  0  0
 49119  1  0  0  0
 50 51  1  0  0  0
 50120  1  0  0  0
 50121  1  0  0  0
 51 52  1  0  0  0
 51122  1  0  0  0
 51123  1  0  0  0
 52124  1  0  0  0
 52125  1  0  0  0
 53 54  1  0  0  0
 54 55  2  0  0  0
 54126  1  0  0  0
 55 57  1  0  0  0
 55127  1  0  0  0
 56 69  2  0  0  0
 57 58  2  0  0  0
 57128  1  0  0  0
 58129  1  0  0  0
 59 60  1  0  0  0
 59 61  1  0  0  0
 59 62  1  0  0  0
 60130  1  0  0  0
 60131  1  0  0  0
 60132  1  0  0  0
 61133  1  0  0  0
 61134  1  0  0  0
 61135  1  0  0  0
 62136  1  0  0  0
 62137  1  0  0  0
 62138  1  0  0  0
 63 65  1  0  0  0
 63139  1  0  0  0
 63140  1  0  0  0
 63141  1  0  0  0
 64142  1  0  0  0
 65143  1  0  0  0
 68 79  1  0  0  0
 71 72  2  0  0  0
 71 73  1  0  0  0
 71144  1  0  0  0
 72 75  1  0  0  0
 72 77  1  0  0  0
 73 76  2  0  0  0
 73 81  1  0  0  0
 74 75  2  0  0  0
 74 76  1  0  0  0
 74 82  1  0  0  0
 75 83  1  0  0  0
 76 84  1  0  0  0
 77145  1  0  0  0
 77146  1  0  0  0
 77147  1  0  0  0
 78148  1  0  0  0
 78149  1  0  0  0
 78150  1  0  0  0
 78 80  1  0  0  0
 79 80  1  0  0  0
 79151  1  0  0  0
 79152  1  0  0  0
 80 82  1  0  0  0
 80153  1  0  0  0
 81154  1  0  0  0
 82155  1  0  0  0
M  ISO  4   1 100  68 101  79 101  81 100
M  END
> <chiral flag>
0

> <version>
0

> <s_m_source_file>
/data/baiqing/PycharmProjects/Reinvent-master-3.2/result/LINK_invent/BTK/process_docking_weight1_custom_sum_contain_oxygen_bond_distance_aromatic_linkinvent_7_9_3/rearranged_h_0012.sdf

> <i_m_source_file_index>
84

> <r_mmod_Potential_Energy-OPLS-2005>
870.872985839844

> <r_mmod_Stretch_Energy-OPLS-2005>
342.012237548828

> <r_mmod_Bend_Energy-OPLS-2005>
373.892761230469

> <r_mmod_Torsional_Energy-OPLS-2005>
289.98486328125

> <r_mmod_Improper_Torsional_Energy-OPLS-2005>
13.6647233963013

> <r_mmod_Van_der_Waal_Energy-OPLS-2005>
121.68074798584

> <r_mmod_Electrostatic_Energy-OPLS-2005>
-324.965789794922

> <r_mmod_Solvation_Energy-OPLS-2005>
-215.553833007812

> <b_mmod_Minimization_Converged-OPLS-2005>
0

> <r_mmod_RMS_Derivative-OPLS-2005>
1.15320575237274

$$$$
85
                    3D
 Structure written by MMmdl.
158166  0  0  1  0            999 V2000
  -30.5262  -14.9046   20.4300 C   0  0  0  0  0  0
  -30.4506  -12.5594   19.4911 C   0  0  0  0  0  0
  -29.5231  -12.5310   18.2536 C   0  0  0  0  0  0
  -28.0531  -12.3260   18.6677 C   0  0  0  0  0  0
  -27.6383  -13.2410   19.8486 C   0  0  2  0  0  0
  -28.6808  -13.2156   20.9863 C   0  0  0  0  0  0
  -25.2491  -13.8205   20.5679 C   0  0  0  0  0  0
  -24.1787  -13.0435   20.9228 C   0  0  0  0  0  0
  -24.6398  -11.6930   20.8763 C   0  0  0  0  0  0
  -23.9074  -10.4296   21.0402 C   0  0  0  0  0  0
  -24.3614   -9.4204   21.9173 C   0  0  0  0  0  0
  -23.6293   -8.2238   22.0754 C   0  0  0  0  0  0
  -22.4277   -8.0282   21.3545 C   0  0  0  0  0  0
  -21.9914   -9.0252   20.4638 C   0  0  0  0  0  0
  -22.7249  -10.2133   20.3047 C   0  0  0  0  0  0
  -21.6841   -6.0726   22.5269 C   0  0  0  0  0  0
  -21.4006   -6.5628   23.8205 C   0  0  0  0  0  0
  -21.3671   -5.6779   24.9169 C   0  0  0  0  0  0
  -21.6049   -4.3044   24.7216 C   0  0  0  0  0  0
  -21.8828   -3.8139   23.4336 C   0  0  0  0  0  0
  -21.9191   -4.6955   22.3392 C   0  0  0  0  0  0
  -22.7811  -13.5220   21.1888 C   0  0  0  0  0  0
  -22.1655   -4.2141   21.0968 F   0  0  0  0  0  0
  -21.5639   -3.4540   25.7730 F   0  0  0  0  0  0
  -29.9676  -13.6299   20.4061 N   0  0  0  0  0  0
  -26.2915  -12.9421   20.3264 N   0  0  0  0  0  0
  -25.9321  -11.6561   20.5733 N   0  0  0  0  0  0
  -22.0442  -12.8211   22.0442 N   0  0  0  0  0  0
  -25.4181  -15.1927   20.4088 N   0  0  0  0  0  0
  -31.7093  -15.0236   20.0907 O   0  0  0  0  0  0
  -21.6640   -6.8883   21.4242 O   0  0  0  0  0  0
  -22.3501  -14.5518   20.6729 O   0  0  0  0  0  0
  -24.6456  -31.8409   23.1848 C   0  0  0  0  0  0
  -25.9244  -32.4670   23.8213 C   0  0  1  0  0  0
  -27.2211  -27.1287   20.1297 C   0  0  0  0  0  0
  -25.5954  -33.8464   24.2142 N   0  0  0  0  0  0
  -23.4489  -30.4540   21.5359 C   0  0  2  0  0  0
  -24.8945  -28.8806   20.1060 C   0  0  0  0  0  0
  -22.7597  -29.4477   22.4909 C   0  0  0  0  0  0
  -18.0292  -28.1411   22.8453 C   0  0  0  0  0  0
  -24.1495  -36.7239   23.2636 C   0  0  0  0  0  0
  -26.0044  -30.7054   21.3887 C   0  0  0  0  0  0
  -26.0716  -29.3178   20.7257 C   0  0  0  0  0  0
  -27.2288  -28.4550   20.7243 C   0  0  0  0  0  0
  -26.0143  -26.7854   19.4806 C   0  0  0  0  0  0
  -24.8782  -27.6257   19.4720 C   0  0  0  0  0  0
  -23.6726  -29.7851   20.1546 C   0  0  0  0  0  0
  -25.4119  -36.2989   24.0310 C   0  0  1  0  0  0
  -20.5901  -28.3699   23.1249 C   0  0  2  0  0  0
  -20.6807  -26.9409   22.5413 C   0  0  0  0  0  0
  -19.5772  -26.6377   21.5228 C   0  0  0  0  0  0
  -18.1934  -26.7950   22.1611 C   0  0  0  0  0  0
  -19.1551  -28.8889   23.2826 C   0  0  0  0  0  0
  -18.9474  -30.1494   23.8823 C   0  0  0  0  0  0
  -17.6478  -30.6597   24.0561 C   0  0  0  0  0  0
  -25.9083  -34.9383   23.5037 C   0  0  0  0  0  0
  -16.5363  -29.9079   23.6365 C   0  0  0  0  0  0
  -16.7286  -28.6530   23.0322 C   0  0  0  0  0  0
  -26.4546  -31.6543   25.0686 C   0  0  0  0  0  0
  -25.3708  -31.3775   26.1386 C   0  0  0  0  0  0
  -27.0432  -30.2913   24.6308 C   0  0  0  0  0  0
  -27.6033  -32.4353   25.7497 C   0  0  0  0  0  0
  -27.5583  -37.1747   24.8444 C   0  0  0  0  0  0
  -21.4284  -29.3008   22.3656 N   0  0  0  0  0  0
  -26.4258  -37.3722   23.9446 N   0  0  0  0  0  0
  -24.7190  -31.0210   22.0931 N   0  0  0  0  0  0
  -23.4240  -28.8031   23.3076 O   0  0  0  0  0  0
  -28.2983  -26.1759   20.2341 O   0  0  0  0  0  0
  -26.5682  -34.8891   22.4628 O   0  0  0  0  0  0
  -23.5575  -32.1290   23.7083 O   0  0  0  0  0  0
  -30.4617  -18.2625   19.5608 C   0  0  0  0  0  0
  -28.7303  -19.8636   21.0287 C   0  0  0  0  0  0
  -30.3501  -19.6943   19.3202 C   0  0  0  0  0  0
  -28.8168  -18.4230   21.2427 C   0  0  0  0  0  0
  -29.7043  -17.5340   20.5232 C   0  0  0  0  0  0
  -29.4941  -20.6081   20.0724 C   0  0  0  0  0  0
  -31.1820  -20.1910   18.1459 C   0  0  0  0  0  0
  -27.8988  -17.8462   22.3089 C   0  0  0  0  0  0
  -30.8327  -22.6292   19.8157 C   0  0  0  0  0  0
  -28.5285  -23.2324   20.4340 C   0  0  0  0  0  0
  -28.3730  -24.7297   19.6544 C   0  0  0  0  0  0
  -29.6981  -16.0144   20.7196 N   0  0  0  0  0  0
  -29.4670  -22.1020   19.9012 N   0  0  0  0  0  0
  -31.4792  -12.7371   19.1745 H   0  0  0  0  0  0
  -30.4558  -11.5926   19.9974 H   0  0  0  0  0  0
  -29.8313  -11.7385   17.5711 H   0  0  0  0  0  0
  -29.6176  -13.4656   17.7010 H   0  0  0  0  0  0
  -27.9392  -11.2811   18.9581 H   0  0  0  0  0  0
  -27.3906  -12.4782   17.8137 H   0  0  0  0  0  0
  -27.6164  -14.2534   19.4450 H   0  0  0  0  0  0
  -28.7500  -12.2158   21.4203 H   0  0  0  0  0  0
  -28.3807  -13.8806   21.7969 H   0  0  0  0  0  0
  -25.2759   -9.5677   22.4750 H   0  0  0  0  0  0
  -23.9998   -7.4635   22.7477 H   0  0  0  0  0  0
  -21.0845   -8.8774   19.8935 H   0  0  0  0  0  0
  -22.3705  -10.9669   19.6155 H   0  0  0  0  0  0
  -21.1980   -7.6136   23.9707 H   0  0  0  0  0  0
  -21.1495   -6.0506   25.9073 H   0  0  0  0  0  0
  -22.0598   -2.7603   23.2830 H   0  0  0  0  0  0
  -22.4070  -11.9879   22.4820 H   0  0  0  0  0  0
  -21.1049  -13.1237   22.2624 H   0  0  0  0  0  0
  -24.6415  -15.8406   20.4956 H   0  0  0  0  0  0
  -26.2512  -15.6261   20.0308 H   0  0  0  0  0  0
  -26.7321  -32.5263   23.0943 H   0  0  0  0  0  0
  -25.0016  -33.9560   25.0229 H   0  0  0  0  0  0
  -22.7519  -31.2815   21.3881 H   0  0  0  0  0  0
  -23.3743  -35.9586   23.3242 H   0  0  0  0  0  0
  -24.3563  -36.8943   22.2058 H   0  0  0  0  0  0
  -23.7268  -37.6415   23.6730 H   0  0  0  0  0  0
  -26.1626  -31.4559   20.6138 H   0  0  0  0  0  0
  -26.8766  -30.7520   22.0294 H   0  0  0  0  0  0
  -28.1233  -28.7793   21.2367 H   0  0  0  0  0  0
  -25.8995  -25.8239   19.0044 H   0  0  0  0  0  0
  -23.9786  -27.2794   18.9810 H   0  0  0  0  0  0
  -23.8121  -30.5653   19.4049 H   0  0  0  0  0  0
  -22.7865  -29.2298   19.8400 H   0  0  0  0  0  0
  -25.1300  -36.1769   25.0792 H   0  0  0  0  0  0
  -20.9942  -28.3325   24.1392 H   0  0  0  0  0  0
  -20.5742  -26.2311   23.3640 H   0  0  0  0  0  0
  -21.6679  -26.7464   22.1194 H   0  0  0  0  0  0
  -19.6925  -25.6285   21.1262 H   0  0  0  0  0  0
  -19.6728  -27.3221   20.6799 H   0  0  0  0  0  0
  -17.4233  -26.6679   21.3994 H   0  0  0  0  0  0
  -18.0272  -26.0114   22.9024 H   0  0  0  0  0  0
  -19.7957  -30.7301   24.2148 H   0  0  0  0  0  0
  -17.5047  -31.6271   24.5183 H   0  0  0  0  0  0
  -15.5367  -30.2959   23.7775 H   0  0  0  0  0  0
  -15.8673  -28.0884   22.7018 H   0  0  0  0  0  0
  -24.5856  -30.7155   25.7716 H   0  0  0  0  0  0
  -24.8929  -32.2989   26.4700 H   0  0  0  0  0  0
  -25.7946  -30.8994   27.0224 H   0  0  0  0  0  0
  -26.3055  -29.6617   24.1314 H   0  0  0  0  0  0
  -27.4014  -29.7232   25.4905 H   0  0  0  0  0  0
  -27.8994  -30.4123   23.9672 H   0  0  0  0  0  0
  -27.2544  -33.3664   26.1968 H   0  0  0  0  0  0
  -28.3889  -32.6903   25.0375 H   0  0  0  0  0  0
  -28.0655  -31.8558   26.5491 H   0  0  0  0  0  0
  -28.2501  -38.0140   24.7585 H   0  0  0  0  0  0
  -28.1178  -36.2661   24.6139 H   0  0  0  0  0  0
  -27.2324  -37.1247   25.8848 H   0  0  0  0  0  0
  -20.9530  -29.8680   21.6773 H   0  0  0  0  0  0
  -26.0095  -38.2760   24.1514 H   0  0  0  0  0  0
  -31.1441  -17.6941   18.9427 H   0  0  0  0  0  0
  -28.0427  -20.4259   21.6472 H   0  0  0  0  0  0
  -31.4577  -19.3754   17.4737 H   0  0  0  0  0  0
  -32.1078  -20.6521   18.4900 H   0  0  0  0  0  0
  -30.6224  -20.9142   17.5529 H   0  0  0  0  0  0
  -27.8693  -18.5042   23.1790 H   0  0  0  0  0  0
  -28.2225  -16.8693   22.6624 H   0  0  0  0  0  0
  -26.8837  -17.7500   21.9216 H   0  0  0  0  0  0
  -31.1396  -22.7756   18.7794 H   0  0  0  0  0  0
  -31.5591  -21.9773   20.3052 H   0  0  0  0  0  0
  -30.9280  -23.5981   20.3075 H   0  0  0  0  0  0
  -27.5265  -22.8131   20.5484 H   0  0  0  0  0  0
  -28.8580  -23.4356   21.4519 H   0  0  0  0  0  0
  -27.5757  -24.5937   18.9261 H   0  0  0  0  0  0
  -29.2529  -24.8022   19.0159 H   0  0  0  0  0  0
  -28.8368  -15.6919   21.1315 H   0  0  0  0  0  0
  1 25  1  0  0  0
  1 30  2  0  0  0
  1 82  1  0  0  0
  2  3  1  0  0  0
  2 25  1  0  0  0
  2 84  1  0  0  0
  2 85  1  0  0  0
  3  4  1  0  0  0
  3 86  1  0  0  0
  3 87  1  0  0  0
  4  5  1  0  0  0
  4 88  1  0  0  0
  4 89  1  0  0  0
  5  6  1  0  0  0
  5 26  1  0  0  0
  5 90  1  0  0  0
  6 25  1  0  0  0
  6 91  1  0  0  0
  6 92  1  0  0  0
  7  8  2  0  0  0
  7 26  1  0  0  0
  7 29  1  0  0  0
  8  9  1  0  0  0
  8 22  1  0  0  0
  9 10  1  0  0  0
  9 27  2  0  0  0
 10 11  2  0  0  0
 10 15  1  0  0  0
 11 12  1  0  0  0
 11 93  1  0  0  0
 12 13  2  0  0  0
 12 94  1  0  0  0
 13 14  1  0  0  0
 13 31  1  0  0  0
 14 15  2  0  0  0
 14 95  1  0  0  0
 15 96  1  0  0  0
 16 17  2  0  0  0
 16 21  1  0  0  0
 16 31  1  0  0  0
 17 18  1  0  0  0
 17 97  1  0  0  0
 18 19  2  0  0  0
 18 98  1  0  0  0
 19 20  1  0  0  0
 19 24  1  0  0  0
 20 21  2  0  0  0
 20 99  1  0  0  0
 21 23  1  0  0  0
 22 28  1  0  0  0
 22 32  2  0  0  0
 26 27  1  0  0  0
 28100  1  0  0  0
 28101  1  0  0  0
 29102  1  0  0  0
 29103  1  0  0  0
 33 34  1  0  0  0
 33 66  1  0  0  0
 33 70  2  0  0  0
 34 36  1  0  0  0
 34 59  1  0  0  0
 34104  1  0  0  0
 35 44  2  0  0  0
 35 45  1  0  0  0
 35 68  1  0  0  0
 36 56  1  0  0  0
 36105  1  0  0  0
 37 39  1  0  0  0
 37 47  1  0  0  0
 37 66  1  0  0  0
 37106  1  0  0  0
 38 43  2  0  0  0
 38 46  1  0  0  0
 38 47  1  0  0  0
 39 64  1  0  0  0
 39 67  2  0  0  0
 40 52  1  0  0  0
 40 53  2  0  0  0
 40 58  1  0  0  0
 41107  1  0  0  0
 41108  1  0  0  0
 41109  1  0  0  0
 41 48  1  0  0  0
 42 43  1  0  0  0
 42 66  1  0  0  0
 42110  1  0  0  0
 42111  1  0  0  0
 43 44  1  0  0  0
 44112  1  0  0  0
 45 46  2  0  0  0
 45113  1  0  0  0
 46114  1  0  0  0
 47115  1  0  0  0
 47116  1  0  0  0
 48 56  1  0  0  0
 48 65  1  0  0  0
 48117  1  0  0  0
 49 50  1  0  0  0
 49 53  1  0  0  0
 49 64  1  0  0  0
 49118  1  0  0  0
 50 51  1  0  0  0
 50119  1  0  0  0
 50120  1  0  0  0
 51 52  1  0  0  0
 51121  1  0  0  0
 51122  1  0  0  0
 52123  1  0  0  0
 52124  1  0  0  0
 53 54  1  0  0  0
 54 55  2  0  0  0
 54125  1  0  0  0
 55 57  1  0  0  0
 55126  1  0  0  0
 56 69  2  0  0  0
 57 58  2  0  0  0
 57127  1  0  0  0
 58128  1  0  0  0
 59 60  1  0  0  0
 59 61  1  0  0  0
 59 62  1  0  0  0
 60129  1  0  0  0
 60130  1  0  0  0
 60131  1  0  0  0
 61132  1  0  0  0
 61133  1  0  0  0
 61134  1  0  0  0
 62135  1  0  0  0
 62136  1  0  0  0
 62137  1  0  0  0
 63 65  1  0  0  0
 63138  1  0  0  0
 63139  1  0  0  0
 63140  1  0  0  0
 64141  1  0  0  0
 65142  1  0  0  0
 68 81  1  0  0  0
 71 73  2  0  0  0
 71 75  1  0  0  0
 71143  1  0  0  0
 72 74  1  0  0  0
 72 76  2  0  0  0
 72144  1  0  0  0
 73 76  1  0  0  0
 73 77  1  0  0  0
 74 75  2  0  0  0
 74 78  1  0  0  0
 75 82  1  0  0  0
 76 83  1  0  0  0
 77145  1  0  0  0
 77146  1  0  0  0
 77147  1  0  0  0
 78148  1  0  0  0
 78149  1  0  0  0
 78150  1  0  0  0
 79 83  1  0  0  0
 79151  1  0  0  0
 79152  1  0  0  0
 79153  1  0  0  0
 80 81  1  0  0  0
 80 83  1  0  0  0
 80154  1  0  0  0
 80155  1  0  0  0
 81156  1  0  0  0
 81157  1  0  0  0
 82158  1  0  0  0
M  ISO  4   1 100  68 101  81 101  82 100
M  END
> <chiral flag>
0

> <version>
0

> <s_m_source_file>
/data/baiqing/PycharmProjects/Reinvent-master-3.2/result/LINK_invent/BTK/process_docking_weight1_custom_sum_contain_oxygen_bond_distance_aromatic_linkinvent_7_9_3/rearranged_h_0012.sdf

> <i_m_source_file_index>
85

> <r_mmod_Potential_Energy-OPLS-2005>
448.478942871094

> <r_mmod_Stretch_Energy-OPLS-2005>
234.177230834961

> <r_mmod_Bend_Energy-OPLS-2005>
286.993957519531

> <r_mmod_Torsional_Energy-OPLS-2005>
219.401870727539

> <r_mmod_Improper_Torsional_Energy-OPLS-2005>
6.41789960861206

> <r_mmod_Van_der_Waal_Energy-OPLS-2005>
143.314865112305

> <r_mmod_Electrostatic_Energy-OPLS-2005>
-394.950561523438

> <r_mmod_Solvation_Energy-OPLS-2005>
-223.744171142578

> <b_mmod_Minimization_Converged-OPLS-2005>
0

> <r_mmod_RMS_Derivative-OPLS-2005>
3.89102506637573

$$$$
86
                    3D
 Structure written by MMmdl.
169178  0  0  1  0            999 V2000
  -30.7404  -14.4047   20.4246 C   0  0  0  0  0  0
  -30.4039  -12.2204   19.4287 C   0  0  0  0  0  0
  -29.4931  -12.4347   18.2030 C   0  0  0  0  0  0
  -28.0087  -12.3435   18.6102 C   0  0  0  0  0  0
  -27.6579  -13.2047   19.8530 C   0  0  2  0  0  0
  -28.7049  -13.0286   20.9782 C   0  0  0  0  0  0
  -25.2570  -13.8172   20.5617 C   0  0  0  0  0  0
  -24.1836  -13.0463   20.9169 C   0  0  0  0  0  0
  -24.6387  -11.6913   20.8739 C   0  0  0  0  0  0
  -23.9077  -10.4296   21.0429 C   0  0  0  0  0  0
  -24.3639   -9.4183   21.9193 C   0  0  0  0  0  0
  -23.6291   -8.2233   22.0756 C   0  0  0  0  0  0
  -22.4270   -8.0295   21.3554 C   0  0  0  0  0  0
  -21.9919   -9.0278   20.4664 C   0  0  0  0  0  0
  -22.7262  -10.2144   20.3063 C   0  0  0  0  0  0
  -21.6844   -6.0738   22.5286 C   0  0  0  0  0  0
  -21.4010   -6.5644   23.8220 C   0  0  0  0  0  0
  -21.3645   -5.6790   24.9179 C   0  0  0  0  0  0
  -21.6045   -4.3054   24.7222 C   0  0  0  0  0  0
  -21.8816   -3.8156   23.4340 C   0  0  0  0  0  0
  -21.9189   -4.6971   22.3402 C   0  0  0  0  0  0
  -22.7838  -13.5247   21.1847 C   0  0  0  0  0  0
  -22.1652   -4.2156   21.0970 F   0  0  0  0  0  0
  -21.5628   -3.4533   25.7731 F   0  0  0  0  0  0
  -30.0426  -13.2471   20.4106 N   0  0  0  0  0  0
  -26.3008  -12.9339   20.3270 N   0  0  0  0  0  0
  -25.9309  -11.6522   20.5764 N   0  0  0  0  0  0
  -22.0472  -12.8259   22.0408 N   0  0  0  0  0  0
  -25.4280  -15.1893   20.3983 N   0  0  0  0  0  0
  -31.9564  -14.4712   20.2533 O   0  0  0  0  0  0
  -21.6628   -6.8888   21.4252 O   0  0  0  0  0  0
  -22.3504  -14.5553   20.6682 O   0  0  0  0  0  0
  -24.6019  -31.8768   23.2134 C   0  0  0  0  0  0
  -25.8976  -32.4857   23.8385 C   0  0  1  0  0  0
  -27.2245  -27.5042   20.1238 C   0  0  0  0  0  0
  -25.5889  -33.8651   24.2338 N   0  0  0  0  0  0
  -23.3790  -30.5019   21.5517 C   0  0  2  0  0  0
  -24.8262  -28.9691   20.1159 C   0  0  0  0  0  0
  -22.7296  -29.4727   22.5022 C   0  0  0  0  0  0
  -18.0252  -28.1344   22.8509 C   0  0  0  0  0  0
  -24.1490  -36.7330   23.2631 C   0  0  0  0  0  0
  -25.8949  -30.8695   21.3488 C   0  0  0  0  0  0
  -25.9746  -29.5041   20.7127 C   0  0  0  0  0  0
  -27.1756  -28.7791   20.7196 C   0  0  0  0  0  0
  -26.0751  -26.9727   19.5086 C   0  0  0  0  0  0
  -24.8671  -27.6968   19.5147 C   0  0  0  0  0  0
  -23.5814  -29.8263   20.1656 C   0  0  0  0  0  0
  -25.4106  -36.3127   24.0341 C   0  0  1  0  0  0
  -20.5823  -28.3623   23.1343 C   0  0  2  0  0  0
  -20.6739  -26.9374   22.5417 C   0  0  0  0  0  0
  -19.5733  -26.6374   21.5195 C   0  0  0  0  0  0
  -18.1906  -26.7892   22.1610 C   0  0  0  0  0  0
  -19.1498  -28.8794   23.2933 C   0  0  0  0  0  0
  -18.9447  -30.1397   23.8940 C   0  0  0  0  0  0
  -17.6462  -30.6577   24.0561 C   0  0  0  0  0  0
  -25.9036  -34.9499   23.5139 C   0  0  0  0  0  0
  -16.5342  -29.9090   23.6307 C   0  0  0  0  0  0
  -16.7247  -28.6482   23.0367 C   0  0  0  0  0  0
  -26.4456  -31.6585   25.0658 C   0  0  0  0  0  0
  -25.3786  -31.3698   26.1458 C   0  0  0  0  0  0
  -27.0245  -30.3038   24.5935 C   0  0  0  0  0  0
  -27.6021  -32.4291   25.7455 C   0  0  0  0  0  0
  -27.5580  -37.1820   24.8465 C   0  0  0  0  0  0
  -21.4042  -29.3037   22.3768 N   0  0  0  0  0  0
  -26.4288  -37.3808   23.9416 N   0  0  0  0  0  0
  -24.6425  -31.0960   22.0977 N   0  0  0  0  0  0
  -23.4129  -28.8303   23.3039 O   0  0  0  0  0  0
  -28.3786  -26.7790   20.0981 O   0  0  0  0  0  0
  -26.5582  -34.8954   22.4687 O   0  0  0  0  0  0
  -23.5251  -32.1472   23.7616 O   0  0  0  0  0  0
  -29.6971  -18.8350   18.6268 C   0  0  0  0  0  0
  -31.2449  -16.5123   18.3393 C   0  0  0  0  0  0
  -30.7197  -18.7844   17.6499 C   0  0  0  0  0  0
  -30.2665  -16.5746   19.3692 C   0  0  0  0  0  0
  -31.4719  -17.6090   17.4933 C   0  0  0  0  0  0
  -29.4801  -17.7356   19.4830 C   0  0  0  0  0  0
  -31.5653  -21.0277   17.0909 C   0  0  0  0  0  0
  -32.0420  -24.4681   20.7492 C   0  0  0  0  0  0
  -30.3316  -24.7959   19.1550 C   0  0  0  0  0  0
  -32.2338  -23.0091   20.3039 C   0  0  0  0  0  0
  -30.4148  -23.3376   18.6860 C   0  0  0  0  0  0
  -31.8935  -21.3429   18.5586 C   0  0  0  0  0  0
  -30.4744  -26.2165   21.1213 C   0  0  0  0  0  0
  -29.0025  -26.5698   21.3617 C   0  0  0  0  0  0
  -30.6385  -24.8610   20.5909 N   0  0  0  0  0  0
  -30.9809  -19.8648   16.7713 N   0  0  0  0  0  0
  -29.9867  -15.4981   20.2678 N   0  0  0  0  0  0
  -31.7761  -22.7799   18.9075 N   0  3  0  0  0  0
  -31.8775  -21.8401   16.2177 O   0  0  0  0  0  0
  -32.4233  -17.5335   16.5319 F   0  0  0  0  0  0
  -28.5031  -17.7881   20.4204 F   0  0  0  0  0  0
  -31.4549  -12.2626   19.1355 H   0  0  0  0  0  0
  -30.2551  -11.2266   19.8547 H   0  0  0  0  0  0
  -29.7072  -11.6830   17.4429 H   0  0  0  0  0  0
  -29.7007  -13.4018   17.7450 H   0  0  0  0  0  0
  -27.7939  -11.2935   18.8153 H   0  0  0  0  0  0
  -27.3717  -12.6192   17.7703 H   0  0  0  0  0  0
  -27.6861  -14.2409   19.5197 H   0  0  0  0  0  0
  -28.6423  -12.0219   21.3929 H   0  0  0  0  0  0
  -28.5111  -13.7094   21.8086 H   0  0  0  0  0  0
  -25.2794   -9.5626   22.4750 H   0  0  0  0  0  0
  -24.0001   -7.4599   22.7450 H   0  0  0  0  0  0
  -21.0851   -8.8806   19.8950 H   0  0  0  0  0  0
  -22.3753  -10.9685   19.6150 H   0  0  0  0  0  0
  -21.1996   -7.6144   23.9725 H   0  0  0  0  0  0
  -21.1468   -6.0514   25.9078 H   0  0  0  0  0  0
  -22.0608   -2.7619   23.2836 H   0  0  0  0  0  0
  -22.4114  -11.9955   22.4834 H   0  0  0  0  0  0
  -21.1062  -13.1254   22.2590 H   0  0  0  0  0  0
  -24.6607  -15.8447   20.4998 H   0  0  0  0  0  0
  -26.2858  -15.6308   20.0967 H   0  0  0  0  0  0
  -26.7051  -32.5619   23.1162 H   0  0  0  0  0  0
  -25.0073  -33.9822   25.0502 H   0  0  0  0  0  0
  -22.6611  -31.3153   21.4166 H   0  0  0  0  0  0
  -23.3740  -35.9676   23.3313 H   0  0  0  0  0  0
  -24.3582  -36.8905   22.2041 H   0  0  0  0  0  0
  -23.7277  -37.6556   23.6630 H   0  0  0  0  0  0
  -25.9797  -31.6294   20.5708 H   0  0  0  0  0  0
  -26.7919  -30.9389   21.9518 H   0  0  0  0  0  0
  -28.0542  -29.2145   21.1710 H   0  0  0  0  0  0
  -26.1163  -25.9976   19.0445 H   0  0  0  0  0  0
  -23.9840  -27.2686   19.0591 H   0  0  0  0  0  0
  -23.6783  -30.5993   19.4023 H   0  0  0  0  0  0
  -22.7037  -29.2432   19.8761 H   0  0  0  0  0  0
  -25.1284  -36.1983   25.0834 H   0  0  0  0  0  0
  -20.9917  -28.3186   24.1464 H   0  0  0  0  0  0
  -20.5594  -26.2246   23.3598 H   0  0  0  0  0  0
  -21.6626  -26.7422   22.1253 H   0  0  0  0  0  0
  -19.6905  -25.6291   21.1216 H   0  0  0  0  0  0
  -19.6674  -27.3182   20.6725 H   0  0  0  0  0  0
  -17.4174  -26.6624   21.4017 H   0  0  0  0  0  0
  -18.0342  -26.0008   22.8988 H   0  0  0  0  0  0
  -19.7942  -30.7186   24.2323 H   0  0  0  0  0  0
  -17.5051  -31.6267   24.5143 H   0  0  0  0  0  0
  -15.5356  -30.3042   23.7604 H   0  0  0  0  0  0
  -15.8630  -28.0823   22.7097 H   0  0  0  0  0  0
  -24.5906  -30.7086   25.7846 H   0  0  0  0  0  0
  -24.9061  -32.2878   26.4965 H   0  0  0  0  0  0
  -25.8201  -30.8844   27.0168 H   0  0  0  0  0  0
  -26.2735  -29.6854   24.1006 H   0  0  0  0  0  0
  -27.4060  -29.7210   25.4322 H   0  0  0  0  0  0
  -27.8558  -30.4358   23.9004 H   0  0  0  0  0  0
  -27.2580  -33.3528   26.2128 H   0  0  0  0  0  0
  -28.3827  -32.6944   25.0314 H   0  0  0  0  0  0
  -28.0703  -31.8359   26.5322 H   0  0  0  0  0  0
  -28.2613  -38.0097   24.7491 H   0  0  0  0  0  0
  -28.1057  -36.2634   24.6311 H   0  0  0  0  0  0
  -27.2298  -37.1492   25.8864 H   0  0  0  0  0  0
  -20.9127  -29.8810   21.7078 H   0  0  0  0  0  0
  -26.0179  -38.2889   24.1396 H   0  0  0  0  0  0
  -29.0756  -19.7127   18.7333 H   0  0  0  0  0  0
  -31.8414  -15.6323   18.1622 H   0  0  0  0  0  0
  -32.7053  -25.1342   20.1954 H   0  0  0  0  0  0
  -32.3222  -24.5444   21.8026 H   0  0  0  0  0  0
  -29.3224  -25.1299   18.9295 H   0  0  0  0  0  0
  -30.9984  -25.4405   18.5761 H   0  0  0  0  0  0
  -31.6914  -22.3576   20.9904 H   0  0  0  0  0  0
  -33.2882  -22.7443   20.3857 H   0  0  0  0  0  0
  -30.1468  -23.3133   17.6281 H   0  0  0  0  0  0
  -29.6681  -22.7351   19.2022 H   0  0  0  0  0  0
  -32.9231  -21.0245   18.7360 H   0  0  0  0  0  0
  -31.2731  -20.7736   19.2453 H   0  0  0  0  0  0
  -30.9622  -26.9597   20.4859 H   0  0  0  0  0  0
  -30.9747  -26.2752   22.0894 H   0  0  0  0  0  0
  -28.4794  -25.7753   21.9003 H   0  0  0  0  0  0
  -28.9777  -27.4466   22.0097 H   0  0  0  0  0  0
  -30.9390  -19.6536   15.7836 H   0  0  0  0  0  0
  -29.0394  -15.4521   20.6094 H   0  0  0  0  0  0
  -32.3922  -23.2892   18.2920 H   0  0  0  0  0  0
  1 25  1  0  0  0
  1 30  2  0  0  0
  1 87  1  0  0  0
  2  3  1  0  0  0
  2 25  1  0  0  0
  2 92  1  0  0  0
  2 93  1  0  0  0
  3  4  1  0  0  0
  3 94  1  0  0  0
  3 95  1  0  0  0
  4  5  1  0  0  0
  4 96  1  0  0  0
  4 97  1  0  0  0
  5  6  1  0  0  0
  5 26  1  0  0  0
  5 98  1  0  0  0
  6 25  1  0  0  0
  6 99  1  0  0  0
  6100  1  0  0  0
  7  8  2  0  0  0
  7 26  1  0  0  0
  7 29  1  0  0  0
  8  9  1  0  0  0
  8 22  1  0  0  0
  9 10  1  0  0  0
  9 27  2  0  0  0
 10 11  2  0  0  0
 10 15  1  0  0  0
 11 12  1  0  0  0
 11101  1  0  0  0
 12 13  2  0  0  0
 12102  1  0  0  0
 13 14  1  0  0  0
 13 31  1  0  0  0
 14 15  2  0  0  0
 14103  1  0  0  0
 15104  1  0  0  0
 16 17  2  0  0  0
 16 21  1  0  0  0
 16 31  1  0  0  0
 17 18  1  0  0  0
 17105  1  0  0  0
 18 19  2  0  0  0
 18106  1  0  0  0
 19 20  1  0  0  0
 19 24  1  0  0  0
 20 21  2  0  0  0
 20107  1  0  0  0
 21 23  1  0  0  0
 22 28  1  0  0  0
 22 32  2  0  0  0
 26 27  1  0  0  0
 28108  1  0  0  0
 28109  1  0  0  0
 29110  1  0  0  0
 29111  1  0  0  0
 33 34  1  0  0  0
 33 66  1  0  0  0
 33 70  2  0  0  0
 34 36  1  0  0  0
 34 59  1  0  0  0
 34112  1  0  0  0
 35 44  2  0  0  0
 35 45  1  0  0  0
 35 68  1  0  0  0
 36 56  1  0  0  0
 36113  1  0  0  0
 37 39  1  0  0  0
 37 47  1  0  0  0
 37 66  1  0  0  0
 37114  1  0  0  0
 38 43  2  0  0  0
 38 46  1  0  0  0
 38 47  1  0  0  0
 39 64  1  0  0  0
 39 67  2  0  0  0
 40 52  1  0  0  0
 40 53  2  0  0  0
 40 58  1  0  0  0
 41115  1  0  0  0
 41116  1  0  0  0
 41117  1  0  0  0
 41 48  1  0  0  0
 42 43  1  0  0  0
 42 66  1  0  0  0
 42118  1  0  0  0
 42119  1  0  0  0
 43 44  1  0  0  0
 44120  1  0  0  0
 45 46  2  0  0  0
 45121  1  0  0  0
 46122  1  0  0  0
 47123  1  0  0  0
 47124  1  0  0  0
 48 56  1  0  0  0
 48 65  1  0  0  0
 48125  1  0  0  0
 49 50  1  0  0  0
 49 53  1  0  0  0
 49 64  1  0  0  0
 49126  1  0  0  0
 50 51  1  0  0  0
 50127  1  0  0  0
 50128  1  0  0  0
 51 52  1  0  0  0
 51129  1  0  0  0
 51130  1  0  0  0
 52131  1  0  0  0
 52132  1  0  0  0
 53 54  1  0  0  0
 54 55  2  0  0  0
 54133  1  0  0  0
 55 57  1  0  0  0
 55134  1  0  0  0
 56 69  2  0  0  0
 57 58  2  0  0  0
 57135  1  0  0  0
 58136  1  0  0  0
 59 60  1  0  0  0
 59 61  1  0  0  0
 59 62  1  0  0  0
 60137  1  0  0  0
 60138  1  0  0  0
 60139  1  0  0  0
 61140  1  0  0  0
 61141  1  0  0  0
 61142  1  0  0  0
 62143  1  0  0  0
 62144  1  0  0  0
 62145  1  0  0  0
 63 65  1  0  0  0
 63146  1  0  0  0
 63147  1  0  0  0
 63148  1  0  0  0
 64149  1  0  0  0
 65150  1  0  0  0
 68 84  1  0  0  0
 71 73  2  0  0  0
 71 76  1  0  0  0
 71151  1  0  0  0
 72 74  1  0  0  0
 72 75  2  0  0  0
 72152  1  0  0  0
 73 75  1  0  0  0
 73 86  1  0  0  0
 74 76  2  0  0  0
 74 87  1  0  0  0
 75 90  1  0  0  0
 76 91  1  0  0  0
 77 82  1  0  0  0
 77 86  1  0  0  0
 77 89  2  0  0  0
 78 80  1  0  0  0
 78 85  1  0  0  0
 78153  1  0  0  0
 78154  1  0  0  0
 79 81  1  0  0  0
 79 85  1  0  0  0
 79155  1  0  0  0
 79156  1  0  0  0
 80 88  1  0  0  0
 80157  1  0  0  0
 80158  1  0  0  0
 81 88  1  0  0  0
 81159  1  0  0  0
 81160  1  0  0  0
 82161  1  0  0  0
 82162  1  0  0  0
 82 88  1  0  0  0
 83 84  1  0  0  0
 83 85  1  0  0  0
 83163  1  0  0  0
 83164  1  0  0  0
 84165  1  0  0  0
 84166  1  0  0  0
 86167  1  0  0  0
 87168  1  0  0  0
 88169  1  0  0  0
M  CHG  1  88   1
M  ISO  4   1 100  68 101  84 101  87 100
M  END
> <chiral flag>
0

> <version>
0

> <s_m_source_file>
/data/baiqing/PycharmProjects/Reinvent-master-3.2/result/LINK_invent/BTK/process_docking_weight1_custom_sum_contain_oxygen_bond_distance_aromatic_linkinvent_7_9_3/rearranged_h_0012.sdf

> <i_m_source_file_index>
86

> <r_mmod_Potential_Energy-OPLS-2005>
-195.000381469727

> <r_mmod_Stretch_Energy-OPLS-2005>
33.3172874450684

> <r_mmod_Bend_Energy-OPLS-2005>
101.09058380127

> <r_mmod_Torsional_Energy-OPLS-2005>
311.704803466797

> <r_mmod_Improper_Torsional_Energy-OPLS-2005>
11.3400173187256

> <r_mmod_Van_der_Waal_Energy-OPLS-2005>
184.656845092773

> <r_mmod_Electrostatic_Energy-OPLS-2005>
-418.210296630859

> <r_mmod_Solvation_Energy-OPLS-2005>
-444.858215332031

> <b_mmod_Minimization_Converged-OPLS-2005>
0

> <r_mmod_RMS_Derivative-OPLS-2005>
4.03242063522339

$$$$
87
                    3D
 Structure written by MMmdl.
173181  0  0  1  0            999 V2000
  -30.7962  -14.3582   20.7294 C   0  0  0  0  0  0
  -30.4198  -12.3013   19.4219 C   0  0  0  0  0  0
  -29.5049  -12.5600   18.2110 C   0  0  0  0  0  0
  -28.0255  -12.4015   18.6047 C   0  0  0  0  0  0
  -27.6700  -13.2140   19.8797 C   0  0  2  0  0  0
  -28.6999  -12.9773   21.0089 C   0  0  0  0  0  0
  -25.2626  -13.8190   20.5640 C   0  0  0  0  0  0
  -24.1844  -13.0456   20.9113 C   0  0  0  0  0  0
  -24.6397  -11.6942   20.8675 C   0  0  0  0  0  0
  -23.9037  -10.4323   21.0356 C   0  0  0  0  0  0
  -24.3587   -9.4258   21.9149 C   0  0  0  0  0  0
  -23.6274   -8.2286   22.0727 C   0  0  0  0  0  0
  -22.4266   -8.0294   21.3522 C   0  0  0  0  0  0
  -21.9892   -9.0259   20.4628 C   0  0  0  0  0  0
  -22.7196  -10.2150   20.3027 C   0  0  0  0  0  0
  -21.6887   -6.0729   22.5272 C   0  0  0  0  0  0
  -21.4012   -6.5623   23.8203 C   0  0  0  0  0  0
  -21.3664   -5.6771   24.9167 C   0  0  0  0  0  0
  -21.6054   -4.3031   24.7215 C   0  0  0  0  0  0
  -21.8808   -3.8129   23.4339 C   0  0  0  0  0  0
  -21.9191   -4.6951   22.3395 C   0  0  0  0  0  0
  -22.7869  -13.5301   21.1748 C   0  0  0  0  0  0
  -22.1663   -4.2138   21.0967 F   0  0  0  0  0  0
  -21.5635   -3.4510   25.7729 F   0  0  0  0  0  0
  -30.0566  -13.2425   20.4898 N   0  0  0  0  0  0
  -26.3060  -12.9354   20.3333 N   0  0  0  0  0  0
  -25.9323  -11.6512   20.5680 N   0  0  0  0  0  0
  -22.0428  -12.8358   22.0317 N   0  0  0  0  0  0
  -25.4399  -15.1896   20.4068 N   0  0  0  0  0  0
  -31.7482  -14.7014   20.0227 O   0  0  0  0  0  0
  -21.6641   -6.8884   21.4243 O   0  0  0  0  0  0
  -22.3583  -14.5564   20.6521 O   0  0  0  0  0  0
  -24.6138  -31.8687   23.2087 C   0  0  0  0  0  0
  -25.9046  -32.4884   23.8273 C   0  0  1  0  0  0
  -27.2720  -27.4883   20.0874 C   0  0  0  0  0  0
  -25.5860  -33.8668   24.2193 N   0  0  0  0  0  0
  -23.3920  -30.4899   21.5495 C   0  0  2  0  0  0
  -24.8425  -28.9493   20.1195 C   0  0  0  0  0  0
  -22.7368  -29.4709   22.5052 C   0  0  0  0  0  0
  -18.0276  -28.1440   22.8505 C   0  0  0  0  0  0
  -24.1429  -36.7421   23.2617 C   0  0  0  0  0  0
  -25.9060  -30.8557   21.3402 C   0  0  0  0  0  0
  -25.9911  -29.4825   20.7125 C   0  0  0  0  0  0
  -27.1983  -28.7607   20.7093 C   0  0  0  0  0  0
  -26.1031  -26.9633   19.4958 C   0  0  0  0  0  0
  -24.8892  -27.6813   19.5137 C   0  0  0  0  0  0
  -23.5952  -29.8039   20.1687 C   0  0  0  0  0  0
  -25.4053  -36.3128   24.0271 C   0  0  1  0  0  0
  -20.5844  -28.3687   23.1360 C   0  0  2  0  0  0
  -20.6757  -26.9440   22.5433 C   0  0  0  0  0  0
  -19.5738  -26.6430   21.5233 C   0  0  0  0  0  0
  -18.1911  -26.7972   22.1644 C   0  0  0  0  0  0
  -19.1527  -28.8878   23.2920 C   0  0  0  0  0  0
  -18.9469  -30.1483   23.8926 C   0  0  0  0  0  0
  -17.6479  -30.6629   24.0589 C   0  0  0  0  0  0
  -25.9004  -34.9527   23.5017 C   0  0  0  0  0  0
  -16.5362  -29.9148   23.6334 C   0  0  0  0  0  0
  -16.7262  -28.6578   23.0331 C   0  0  0  0  0  0
  -26.4678  -31.6754   25.0547 C   0  0  0  0  0  0
  -25.4113  -31.3932   26.1463 C   0  0  0  0  0  0
  -27.0493  -30.3181   24.5910 C   0  0  0  0  0  0
  -27.6424  -32.4533   25.6948 C   0  0  0  0  0  0
  -27.5506  -37.1845   24.8413 C   0  0  0  0  0  0
  -21.4112  -29.3050   22.3764 N   0  0  0  0  0  0
  -26.4208  -37.3827   23.9401 N   0  0  0  0  0  0
  -24.6558  -31.0854   22.0945 N   0  0  0  0  0  0
  -23.4156  -28.8311   23.3132 O   0  0  0  0  0  0
  -28.4235  -26.7299   19.9747 O   0  0  0  0  0  0
  -26.5588  -34.9005   22.4589 O   0  0  0  0  0  0
  -23.5381  -32.1402   23.7576 O   0  0  0  0  0  0
  -31.5489  -25.9567   25.0915 C   0  0  0  0  0  0
  -31.9884  -24.8497   24.3304 C   0  0  0  0  0  0
  -31.9412  -26.2513   22.3075 C   0  0  0  0  0  0
  -31.3607  -27.2096   24.4846 C   0  0  0  0  0  0
  -31.5729  -27.3627   23.1053 C   0  0  0  0  0  0
  -32.2072  -25.0034   22.9357 C   0  0  0  0  0  0
  -30.2703  -17.4727   21.9574 C   0  0  0  0  0  0
  -30.8799  -26.6048   20.1260 C   0  0  0  0  0  0
  -33.2781  -26.1520   20.2018 C   0  0  0  0  0  0
  -32.2391  -23.5249   25.0447 C   0  0  0  0  0  0
  -31.1328  -16.2535   22.3241 C   0  0  0  0  0  0
  -29.5555  -27.0346   20.7997 C   0  0  0  0  0  0
  -31.0477  -22.5385   25.0414 C   0  0  0  0  0  0
  -30.8308  -21.7552   23.7245 C   0  0  0  0  0  0
  -29.6989  -20.7080   23.7917 C   0  0  0  0  0  0
  -29.5908  -19.7914   22.5499 C   0  0  0  0  0  0
  -30.4482  -18.6069   22.6542 N   0  0  0  0  0  0
  -30.5106  -15.0019   21.8690 N   0  0  0  0  0  0
  -31.9931  -26.3781   20.8814 N   0  0  0  0  0  0
  -29.4326  -17.3867   21.0543 O   0  0  0  0  0  0
  -30.8968  -26.5032   18.8924 O   0  0  0  0  0  0
  -30.9521  -28.2658   25.2257 F   0  0  0  0  0  0
  -31.3950  -28.5833   22.5459 F   0  0  0  0  0  0
  -32.7712  -23.6555   21.9965 Cl  0  0  0  0  0  0
  -31.4697  -12.3875   19.1394 H   0  0  0  0  0  0
  -30.3008  -11.2801   19.7856 H   0  0  0  0  0  0
  -29.7602  -11.8805   17.3959 H   0  0  0  0  0  0
  -29.6870  -13.5693   17.8372 H   0  0  0  0  0  0
  -27.8276  -11.3419   18.7660 H   0  0  0  0  0  0
  -27.3891  -12.7095   17.7744 H   0  0  0  0  0  0
  -27.7231  -14.2668   19.6017 H   0  0  0  0  0  0
  -28.6442  -11.9442   21.3542 H   0  0  0  0  0  0
  -28.4458  -13.5910   21.8707 H   0  0  0  0  0  0
  -25.2729   -9.5763   22.4730 H   0  0  0  0  0  0
  -23.9991   -7.4694   22.7457 H   0  0  0  0  0  0
  -21.0816   -8.8778   19.8949 H   0  0  0  0  0  0
  -22.3639  -10.9679   19.6126 H   0  0  0  0  0  0
  -21.2009   -7.6127   23.9715 H   0  0  0  0  0  0
  -21.1494   -6.0491   25.9077 H   0  0  0  0  0  0
  -22.0586   -2.7593   23.2833 H   0  0  0  0  0  0
  -22.3952  -12.0118   22.4941 H   0  0  0  0  0  0
  -21.1006  -13.1398   22.2311 H   0  0  0  0  0  0
  -24.6854  -15.8612   20.4959 H   0  0  0  0  0  0
  -26.3156  -15.6173   20.1253 H   0  0  0  0  0  0
  -26.7071  -32.5659   23.1020 H   0  0  0  0  0  0
  -24.9971  -33.9816   25.0302 H   0  0  0  0  0  0
  -22.6795  -31.3042   21.4086 H   0  0  0  0  0  0
  -23.3592  -35.9858   23.3289 H   0  0  0  0  0  0
  -24.3479  -36.9060   22.2016 H   0  0  0  0  0  0
  -23.7304  -37.6672   23.6630 H   0  0  0  0  0  0
  -25.9739  -31.6012   20.5492 H   0  0  0  0  0  0
  -26.8102  -30.9494   21.9276 H   0  0  0  0  0  0
  -28.0503  -29.2343   21.1694 H   0  0  0  0  0  0
  -26.1343  -25.9966   19.0129 H   0  0  0  0  0  0
  -24.0038  -27.2570   19.0542 H   0  0  0  0  0  0
  -23.6872  -30.5679   19.3951 H   0  0  0  0  0  0
  -22.7226  -29.2099   19.8916 H   0  0  0  0  0  0
  -25.1207  -36.1919   25.0741 H   0  0  0  0  0  0
  -20.9913  -28.3244   24.1488 H   0  0  0  0  0  0
  -20.5715  -26.2304   23.3632 H   0  0  0  0  0  0
  -21.6629  -26.7523   22.1218 H   0  0  0  0  0  0
  -19.6912  -25.6359   21.1236 H   0  0  0  0  0  0
  -19.6679  -27.3257   20.6776 H   0  0  0  0  0  0
  -17.4197  -26.6753   21.4022 H   0  0  0  0  0  0
  -18.0290  -26.0120   22.9033 H   0  0  0  0  0  0
  -19.7957  -30.7285   24.2289 H   0  0  0  0  0  0
  -17.5058  -31.6302   24.5227 H   0  0  0  0  0  0
  -15.5381  -30.3093   23.7658 H   0  0  0  0  0  0
  -15.8647  -28.0940   22.7008 H   0  0  0  0  0  0
  -24.6014  -30.7602   25.7891 H   0  0  0  0  0  0
  -24.9618  -32.3121   26.5183 H   0  0  0  0  0  0
  -25.8614  -30.8885   27.0028 H   0  0  0  0  0  0
  -27.8753  -30.4479   23.8893 H   0  0  0  0  0  0
  -26.2992  -29.6896   24.1070 H   0  0  0  0  0  0
  -27.4441  -29.7511   25.4344 H   0  0  0  0  0  0
  -27.3338  -33.4052   26.1291 H   0  0  0  0  0  0
  -28.4084  -32.6800   24.9492 H   0  0  0  0  0  0
  -28.1278  -31.8884   26.4887 H   0  0  0  0  0  0
  -28.2511  -38.0133   24.7401 H   0  0  0  0  0  0
  -28.0979  -36.2681   24.6213 H   0  0  0  0  0  0
  -27.2275  -37.1539   25.8830 H   0  0  0  0  0  0
  -20.9297  -29.8683   21.6889 H   0  0  0  0  0  0
  -26.0031  -38.2872   24.1508 H   0  0  0  0  0  0
  -31.3654  -25.8600   26.1526 H   0  0  0  0  0  0
  -34.0498  -25.7887   20.8839 H   0  0  0  0  0  0
  -33.6494  -27.0843   19.7750 H   0  0  0  0  0  0
  -33.1845  -25.4251   19.3920 H   0  0  0  0  0  0
  -32.4749  -23.7596   26.0854 H   0  0  0  0  0  0
  -33.1368  -23.0478   24.6551 H   0  0  0  0  0  0
  -31.2703  -16.2065   23.4040 H   0  0  0  0  0  0
  -32.1306  -16.3771   21.8957 H   0  0  0  0  0  0
  -29.6875  -28.0971   20.9626 H   0  0  0  0  0  0
  -29.4000  -26.5504   21.7649 H   0  0  0  0  0  0
  -30.1406  -23.0560   25.3496 H   0  0  0  0  0  0
  -31.2422  -21.8033   25.8204 H   0  0  0  0  0  0
  -31.7625  -21.2631   23.4399 H   0  0  0  0  0  0
  -30.5932  -22.4542   22.9236 H   0  0  0  0  0  0
  -28.7525  -21.2371   23.9148 H   0  0  0  0  0  0
  -29.8013  -20.0945   24.6875 H   0  0  0  0  0  0
  -29.7979  -20.3356   21.6230 H   0  0  0  0  0  0
  -28.5546  -19.4553   22.4708 H   0  0  0  0  0  0
  -31.1741  -18.6263   23.3565 H   0  0  0  0  0  0
  -29.7669  -14.6228   22.4375 H   0  0  0  0  0  0
  1 25  1  0  0  0
  1 30  2  0  0  0
  1 88  1  0  0  0
  2  3  1  0  0  0
  2 25  1  0  0  0
  2 95  1  0  0  0
  2 96  1  0  0  0
  3  4  1  0  0  0
  3 97  1  0  0  0
  3 98  1  0  0  0
  4  5  1  0  0  0
  4 99  1  0  0  0
  4100  1  0  0  0
  5  6  1  0  0  0
  5 26  1  0  0  0
  5101  1  0  0  0
  6 25  1  0  0  0
  6102  1  0  0  0
  6103  1  0  0  0
  7  8  2  0  0  0
  7 26  1  0  0  0
  7 29  1  0  0  0
  8  9  1  0  0  0
  8 22  1  0  0  0
  9 10  1  0  0  0
  9 27  2  0  0  0
 10 11  2  0  0  0
 10 15  1  0  0  0
 11 12  1  0  0  0
 11104  1  0  0  0
 12 13  2  0  0  0
 12105  1  0  0  0
 13 14  1  0  0  0
 13 31  1  0  0  0
 14 15  2  0  0  0
 14106  1  0  0  0
 15107  1  0  0  0
 16 17  2  0  0  0
 16 21  1  0  0  0
 16 31  1  0  0  0
 17 18  1  0  0  0
 17108  1  0  0  0
 18 19  2  0  0  0
 18109  1  0  0  0
 19 20  1  0  0  0
 19 24  1  0  0  0
 20 21  2  0  0  0
 20110  1  0  0  0
 21 23  1  0  0  0
 22 28  1  0  0  0
 22 32  2  0  0  0
 26 27  1  0  0  0
 28111  1  0  0  0
 28112  1  0  0  0
 29113  1  0  0  0
 29114  1  0  0  0
 33 34  1  0  0  0
 33 66  1  0  0  0
 33 70  2  0  0  0
 34 36  1  0  0  0
 34 59  1  0  0  0
 34115  1  0  0  0
 35 44  2  0  0  0
 35 45  1  0  0  0
 35 68  1  0  0  0
 36 56  1  0  0  0
 36116  1  0  0  0
 37 39  1  0  0  0
 37 47  1  0  0  0
 37 66  1  0  0  0
 37117  1  0  0  0
 38 43  2  0  0  0
 38 46  1  0  0  0
 38 47  1  0  0  0
 39 64  1  0  0  0
 39 67  2  0  0  0
 40 52  1  0  0  0
 40 53  2  0  0  0
 40 58  1  0  0  0
 41118  1  0  0  0
 41119  1  0  0  0
 41120  1  0  0  0
 41 48  1  0  0  0
 42 43  1  0  0  0
 42 66  1  0  0  0
 42121  1  0  0  0
 42122  1  0  0  0
 43 44  1  0  0  0
 44123  1  0  0  0
 45 46  2  0  0  0
 45124  1  0  0  0
 46125  1  0  0  0
 47126  1  0  0  0
 47127  1  0  0  0
 48 56  1  0  0  0
 48 65  1  0  0  0
 48128  1  0  0  0
 49 50  1  0  0  0
 49 53  1  0  0  0
 49 64  1  0  0  0
 49129  1  0  0  0
 50 51  1  0  0  0
 50130  1  0  0  0
 50131  1  0  0  0
 51 52  1  0  0  0
 51132  1  0  0  0
 51133  1  0  0  0
 52134  1  0  0  0
 52135  1  0  0  0
 53 54  1  0  0  0
 54 55  2  0  0  0
 54136  1  0  0  0
 55 57  1  0  0  0
 55137  1  0  0  0
 56 69  2  0  0  0
 57 58  2  0  0  0
 57138  1  0  0  0
 58139  1  0  0  0
 59 60  1  0  0  0
 59 61  1  0  0  0
 59 62  1  0  0  0
 60140  1  0  0  0
 60141  1  0  0  0
 60142  1  0  0  0
 61143  1  0  0  0
 61144  1  0  0  0
 61145  1  0  0  0
 62146  1  0  0  0
 62147  1  0  0  0
 62148  1  0  0  0
 63 65  1  0  0  0
 63149  1  0  0  0
 63150  1  0  0  0
 63151  1  0  0  0
 64152  1  0  0  0
 65153  1  0  0  0
 68 82  1  0  0  0
 71 72  2  0  0  0
 71 74  1  0  0  0
 71154  1  0  0  0
 72 76  1  0  0  0
 72 80  1  0  0  0
 73 75  1  0  0  0
 73 76  2  0  0  0
 73 89  1  0  0  0
 74 75  2  0  0  0
 74 92  1  0  0  0
 75 93  1  0  0  0
 76 94  1  0  0  0
 77 81  1  0  0  0
 77 87  1  0  0  0
 77 90  2  0  0  0
 78 82  1  0  0  0
 78 89  1  0  0  0
 78 91  2  0  0  0
 79 89  1  0  0  0
 79155  1  0  0  0
 79156  1  0  0  0
 79157  1  0  0  0
 80 83  1  0  0  0
 80158  1  0  0  0
 80159  1  0  0  0
 81 88  1  0  0  0
 81160  1  0  0  0
 81161  1  0  0  0
 82162  1  0  0  0
 82163  1  0  0  0
 83 84  1  0  0  0
 83164  1  0  0  0
 83165  1  0  0  0
 84 85  1  0  0  0
 84166  1  0  0  0
 84167  1  0  0  0
 85 86  1  0  0  0
 85168  1  0  0  0
 85169  1  0  0  0
 86 87  1  0  0  0
 86170  1  0  0  0
 86171  1  0  0  0
 87172  1  0  0  0
 88173  1  0  0  0
M  ISO  4   1 100  68 101  82 101  88 100
M  END
> <chiral flag>
0

> <version>
0

> <s_m_source_file>
/data/baiqing/PycharmProjects/Reinvent-master-3.2/result/LINK_invent/BTK/process_docking_weight1_custom_sum_contain_oxygen_bond_distance_aromatic_linkinvent_7_9_3/rearranged_h_0012.sdf

> <i_m_source_file_index>
87

> <r_mmod_Potential_Energy-OPLS-2005>
-161.419586181641

> <r_mmod_Stretch_Energy-OPLS-2005>
40.7616958618164

> <r_mmod_Bend_Energy-OPLS-2005>
106.008697509766

> <r_mmod_Torsional_Energy-OPLS-2005>
257.204925537109

> <r_mmod_Improper_Torsional_Energy-OPLS-2005>
3.13999080657959

> <r_mmod_Van_der_Waal_Energy-OPLS-2005>
175.517929077148

> <r_mmod_Electrostatic_Energy-OPLS-2005>
-496.190826416016

> <r_mmod_Solvation_Energy-OPLS-2005>
-256.330627441406

> <b_mmod_Minimization_Converged-OPLS-2005>
0

> <r_mmod_RMS_Derivative-OPLS-2005>
5.61639785766602

$$$$
88
                    3D
 Structure written by MMmdl.
149157  0  0  1  0            999 V2000
  -30.5203  -15.0153   20.3800 C   0  0  0  0  0  0
  -30.4362  -12.6272   19.5112 C   0  0  0  0  0  0
  -29.5258  -12.5348   18.2643 C   0  0  0  0  0  0
  -28.0587  -12.3166   18.6790 C   0  0  0  0  0  0
  -27.6241  -13.2574   19.8329 C   0  0  2  0  0  0
  -28.6634  -13.3209   20.9713 C   0  0  0  0  0  0
  -25.2438  -13.8233   20.5722 C   0  0  0  0  0  0
  -24.1766  -13.0446   20.9244 C   0  0  0  0  0  0
  -24.6393  -11.6935   20.8759 C   0  0  0  0  0  0
  -23.9079  -10.4299   21.0412 C   0  0  0  0  0  0
  -24.3628   -9.4216   21.9186 C   0  0  0  0  0  0
  -23.6303   -8.2249   22.0750 C   0  0  0  0  0  0
  -22.4284   -8.0285   21.3541 C   0  0  0  0  0  0
  -21.9922   -9.0263   20.4645 C   0  0  0  0  0  0
  -22.7251  -10.2142   20.3059 C   0  0  0  0  0  0
  -21.6859   -6.0740   22.5278 C   0  0  0  0  0  0
  -21.4017   -6.5642   23.8211 C   0  0  0  0  0  0
  -21.3660   -5.6792   24.9173 C   0  0  0  0  0  0
  -21.6047   -4.3056   24.7223 C   0  0  0  0  0  0
  -21.8817   -3.8149   23.4342 C   0  0  0  0  0  0
  -21.9192   -4.6966   22.3400 C   0  0  0  0  0  0
  -22.7782  -13.5211   21.1893 C   0  0  0  0  0  0
  -22.1663   -4.2150   21.0979 F   0  0  0  0  0  0
  -21.5628   -3.4539   25.7737 F   0  0  0  0  0  0
  -29.9321  -13.7450   20.3663 N   0  0  0  0  0  0
  -26.2859  -12.9482   20.3225 N   0  0  0  0  0  0
  -25.9325  -11.6601   20.5725 N   0  0  0  0  0  0
  -22.0434  -12.8197   22.0448 N   0  0  0  0  0  0
  -25.4100  -15.1964   20.4143 N   0  0  0  0  0  0
  -31.7383  -15.0375   20.1719 O   0  0  0  0  0  0
  -21.6645   -6.8886   21.4240 O   0  0  0  0  0  0
  -22.3467  -14.5513   20.6734 O   0  0  0  0  0  0
  -24.6483  -31.8397   23.1835 C   0  0  0  0  0  0
  -25.9235  -32.4669   23.8245 C   0  0  1  0  0  0
  -27.2101  -27.0803   20.1662 C   0  0  0  0  0  0
  -25.5961  -33.8478   24.2158 N   0  0  0  0  0  0
  -23.4541  -30.4568   21.5313 C   0  0  2  0  0  0
  -24.9022  -28.8709   20.1143 C   0  0  0  0  0  0
  -22.7594  -29.4527   22.4858 C   0  0  0  0  0  0
  -18.0310  -28.1397   22.8475 C   0  0  0  0  0  0
  -24.1494  -36.7244   23.2645 C   0  0  0  0  0  0
  -26.0139  -30.6939   21.3923 C   0  0  0  0  0  0
  -26.0820  -29.2996   20.7359 C   0  0  0  0  0  0
  -27.2376  -28.4225   20.7396 C   0  0  0  0  0  0
  -26.0058  -26.7671   19.5002 C   0  0  0  0  0  0
  -24.8798  -27.6203   19.4791 C   0  0  0  0  0  0
  -23.6826  -29.7811   20.1530 C   0  0  0  0  0  0
  -25.4131  -36.3019   24.0310 C   0  0  1  0  0  0
  -20.5925  -28.3727   23.1228 C   0  0  2  0  0  0
  -20.6795  -26.9429   22.5403 C   0  0  0  0  0  0
  -19.5767  -26.6381   21.5213 C   0  0  0  0  0  0
  -18.1948  -26.7935   22.1624 C   0  0  0  0  0  0
  -19.1567  -28.8883   23.2839 C   0  0  0  0  0  0
  -18.9480  -30.1480   23.8863 C   0  0  0  0  0  0
  -17.6476  -30.6592   24.0558 C   0  0  0  0  0  0
  -25.9084  -34.9395   23.5048 C   0  0  0  0  0  0
  -16.5367  -29.9081   23.6340 C   0  0  0  0  0  0
  -16.7294  -28.6501   23.0360 C   0  0  0  0  0  0
  -26.4528  -31.6559   25.0715 C   0  0  0  0  0  0
  -25.3687  -31.3767   26.1393 C   0  0  0  0  0  0
  -27.0409  -30.2946   24.6350 C   0  0  0  0  0  0
  -27.6047  -32.4342   25.7503 C   0  0  0  0  0  0
  -27.5574  -37.1785   24.8470 C   0  0  0  0  0  0
  -21.4283  -29.3043   22.3598 N   0  0  0  0  0  0
  -26.4293  -37.3733   23.9400 N   0  0  0  0  0  0
  -24.7256  -31.0203   22.0897 N   0  0  0  0  0  0
  -23.4211  -28.8088   23.3039 O   0  0  0  0  0  0
  -28.2569  -26.0720   20.1939 O   0  0  0  0  0  0
  -26.5682  -34.8903   22.4634 O   0  0  0  0  0  0
  -23.5591  -32.1305   23.7021 O   0  0  0  0  0  0
  -29.2633  -18.9659   20.5354 C   0  0  0  0  0  0
  -30.8299  -19.2852   18.3178 C   0  0  0  0  0  0
  -29.3908  -20.3747   20.0054 C   0  0  0  0  0  0
  -29.9046  -17.7078   19.9973 C   0  0  0  0  0  0
  -30.2502  -20.4382   18.8824 C   0  0  0  0  0  0
  -30.6481  -17.9738   18.8092 C   0  0  0  0  0  0
  -28.9411  -23.1669   19.9933 C   0  0  0  0  0  0
  -27.9972  -24.5287   20.4421 C   0  0  0  0  0  0
  -29.7444  -16.2275   20.4815 N   0  0  0  0  0  0
  -28.7452  -21.6596   20.4681 N   0  0  0  0  0  0
  -30.5163  -21.6238   18.2830 F   0  0  0  0  0  0
  -31.2920  -16.7285   17.7948 Cl  0  0  0  0  0  0
  -31.4703  -12.7845   19.2012 H   0  0  0  0  0  0
  -30.4327  -11.6867   20.0651 H   0  0  0  0  0  0
  -29.8564  -11.7252   17.6125 H   0  0  0  0  0  0
  -29.6105  -13.4528   17.6804 H   0  0  0  0  0  0
  -27.9599  -11.2781   18.9958 H   0  0  0  0  0  0
  -27.3984  -12.4373   17.8198 H   0  0  0  0  0  0
  -27.5765  -14.2528   19.3902 H   0  0  0  0  0  0
  -28.7634  -12.3563   21.4717 H   0  0  0  0  0  0
  -28.3521  -14.0352   21.7353 H   0  0  0  0  0  0
  -25.2770   -9.5696   22.4761 H   0  0  0  0  0  0
  -24.0015   -7.4640   22.7464 H   0  0  0  0  0  0
  -21.0855   -8.8780   19.8949 H   0  0  0  0  0  0
  -22.3705  -10.9681   19.6169 H   0  0  0  0  0  0
  -21.2010   -7.6150   23.9715 H   0  0  0  0  0  0
  -21.1486   -6.0524   25.9076 H   0  0  0  0  0  0
  -22.0594   -2.7610   23.2841 H   0  0  0  0  0  0
  -22.4066  -11.9880   22.4859 H   0  0  0  0  0  0
  -21.1038  -13.1199   22.2626 H   0  0  0  0  0  0
  -24.6383  -15.8455   20.5238 H   0  0  0  0  0  0
  -26.2462  -15.6354   20.0517 H   0  0  0  0  0  0
  -26.7304  -32.5252   23.0973 H   0  0  0  0  0  0
  -25.0062  -33.9578   25.0275 H   0  0  0  0  0  0
  -22.7591  -31.2840   21.3729 H   0  0  0  0  0  0
  -23.3758  -35.9574   23.3310 H   0  0  0  0  0  0
  -24.3567  -36.8877   22.2057 H   0  0  0  0  0  0
  -23.7252  -37.6440   23.6687 H   0  0  0  0  0  0
  -26.1817  -31.4444   20.6188 H   0  0  0  0  0  0
  -26.8797  -30.7414   22.0408 H   0  0  0  0  0  0
  -28.1379  -28.7477   21.2416 H   0  0  0  0  0  0
  -25.9107  -25.8185   18.9934 H   0  0  0  0  0  0
  -23.9823  -27.2899   18.9741 H   0  0  0  0  0  0
  -23.8246  -30.5524   19.3954 H   0  0  0  0  0  0
  -22.7953  -29.2266   19.8425 H   0  0  0  0  0  0
  -25.1324  -36.1841   25.0802 H   0  0  0  0  0  0
  -21.0007  -28.3319   24.1354 H   0  0  0  0  0  0
  -20.5692  -26.2342   23.3624 H   0  0  0  0  0  0
  -21.6660  -26.7438   22.1200 H   0  0  0  0  0  0
  -19.6930  -25.6284   21.1263 H   0  0  0  0  0  0
  -19.6701  -27.3175   20.6728 H   0  0  0  0  0  0
  -17.4219  -26.6678   21.4028 H   0  0  0  0  0  0
  -18.0348  -26.0082   22.9026 H   0  0  0  0  0  0
  -19.7955  -30.7307   24.2215 H   0  0  0  0  0  0
  -17.5027  -31.6267   24.5167 H   0  0  0  0  0  0
  -15.5366  -30.2969   23.7684 H   0  0  0  0  0  0
  -15.8695  -28.0806   22.7095 H   0  0  0  0  0  0
  -24.5862  -30.7130   25.7695 H   0  0  0  0  0  0
  -24.8880  -32.2957   26.4758 H   0  0  0  0  0  0
  -25.7938  -30.8962   27.0214 H   0  0  0  0  0  0
  -26.3048  -29.6650   24.1339 H   0  0  0  0  0  0
  -27.3976  -29.7270   25.4956 H   0  0  0  0  0  0
  -27.8975  -30.4167   23.9717 H   0  0  0  0  0  0
  -27.2629  -33.3662   26.2017 H   0  0  0  0  0  0
  -28.3883  -32.6875   25.0349 H   0  0  0  0  0  0
  -28.0693  -31.8515   26.5468 H   0  0  0  0  0  0
  -28.2602  -38.0071   24.7493 H   0  0  0  0  0  0
  -28.1062  -36.2599   24.6332 H   0  0  0  0  0  0
  -27.2289  -37.1475   25.8873 H   0  0  0  0  0  0
  -20.9515  -29.8721   21.6734 H   0  0  0  0  0  0
  -26.0160  -38.2807   24.1370 H   0  0  0  0  0  0
  -28.6286  -18.8394   21.3995 H   0  0  0  0  0  0
  -31.4199  -19.4144   17.4235 H   0  0  0  0  0  0
  -29.9746  -23.4147   20.2383 H   0  0  0  0  0  0
  -28.9067  -23.1518   18.9041 H   0  0  0  0  0  0
  -27.9083  -24.4665   21.5269 H   0  0  0  0  0  0
  -26.9920  -24.3057   20.0902 H   0  0  0  0  0  0
  -28.8299  -16.0409   20.8633 H   0  0  0  0  0  0
  -28.1099  -21.5582   21.2553 H   0  0  0  0  0  0
  1 25  1  0  0  0
  1 30  2  0  0  0
  1 79  1  0  0  0
  2  3  1  0  0  0
  2 25  1  0  0  0
  2 83  1  0  0  0
  2 84  1  0  0  0
  3  4  1  0  0  0
  3 85  1  0  0  0
  3 86  1  0  0  0
  4  5  1  0  0  0
  4 87  1  0  0  0
  4 88  1  0  0  0
  5  6  1  0  0  0
  5 26  1  0  0  0
  5 89  1  0  0  0
  6 25  1  0  0  0
  6 90  1  0  0  0
  6 91  1  0  0  0
  7  8  2  0  0  0
  7 26  1  0  0  0
  7 29  1  0  0  0
  8  9  1  0  0  0
  8 22  1  0  0  0
  9 10  1  0  0  0
  9 27  2  0  0  0
 10 11  2  0  0  0
 10 15  1  0  0  0
 11 12  1  0  0  0
 11 92  1  0  0  0
 12 13  2  0  0  0
 12 93  1  0  0  0
 13 14  1  0  0  0
 13 31  1  0  0  0
 14 15  2  0  0  0
 14 94  1  0  0  0
 15 95  1  0  0  0
 16 17  2  0  0  0
 16 21  1  0  0  0
 16 31  1  0  0  0
 17 18  1  0  0  0
 17 96  1  0  0  0
 18 19  2  0  0  0
 18 97  1  0  0  0
 19 20  1  0  0  0
 19 24  1  0  0  0
 20 21  2  0  0  0
 20 98  1  0  0  0
 21 23  1  0  0  0
 22 28  1  0  0  0
 22 32  2  0  0  0
 26 27  1  0  0  0
 28 99  1  0  0  0
 28100  1  0  0  0
 29101  1  0  0  0
 29102  1  0  0  0
 33 34  1  0  0  0
 33 66  1  0  0  0
 33 70  2  0  0  0
 34 36  1  0  0  0
 34 59  1  0  0  0
 34103  1  0  0  0
 35 44  2  0  0  0
 35 45  1  0  0  0
 35 68  1  0  0  0
 36 56  1  0  0  0
 36104  1  0  0  0
 37 39  1  0  0  0
 37 47  1  0  0  0
 37 66  1  0  0  0
 37105  1  0  0  0
 38 43  2  0  0  0
 38 46  1  0  0  0
 38 47  1  0  0  0
 39 64  1  0  0  0
 39 67  2  0  0  0
 40 52  1  0  0  0
 40 53  2  0  0  0
 40 58  1  0  0  0
 41106  1  0  0  0
 41107  1  0  0  0
 41108  1  0  0  0
 41 48  1  0  0  0
 42 43  1  0  0  0
 42 66  1  0  0  0
 42109  1  0  0  0
 42110  1  0  0  0
 43 44  1  0  0  0
 44111  1  0  0  0
 45 46  2  0  0  0
 45112  1  0  0  0
 46113  1  0  0  0
 47114  1  0  0  0
 47115  1  0  0  0
 48 56  1  0  0  0
 48 65  1  0  0  0
 48116  1  0  0  0
 49 50  1  0  0  0
 49 53  1  0  0  0
 49 64  1  0  0  0
 49117  1  0  0  0
 50 51  1  0  0  0
 50118  1  0  0  0
 50119  1  0  0  0
 51 52  1  0  0  0
 51120  1  0  0  0
 51121  1  0  0  0
 52122  1  0  0  0
 52123  1  0  0  0
 53 54  1  0  0  0
 54 55  2  0  0  0
 54124  1  0  0  0
 55 57  1  0  0  0
 55125  1  0  0  0
 56 69  2  0  0  0
 57 58  2  0  0  0
 57126  1  0  0  0
 58127  1  0  0  0
 59 60  1  0  0  0
 59 61  1  0  0  0
 59 62  1  0  0  0
 60128  1  0  0  0
 60129  1  0  0  0
 60130  1  0  0  0
 61131  1  0  0  0
 61132  1  0  0  0
 61133  1  0  0  0
 62134  1  0  0  0
 62135  1  0  0  0
 62136  1  0  0  0
 63 65  1  0  0  0
 63137  1  0  0  0
 63138  1  0  0  0
 63139  1  0  0  0
 64140  1  0  0  0
 65141  1  0  0  0
 68 78  1  0  0  0
 71 73  2  0  0  0
 71 74  1  0  0  0
 71142  1  0  0  0
 72 75  2  0  0  0
 72 76  1  0  0  0
 72143  1  0  0  0
 73 75  1  0  0  0
 73 80  1  0  0  0
 74 76  2  0  0  0
 74 79  1  0  0  0
 75 81  1  0  0  0
 76 82  1  0  0  0
 77 78  1  0  0  0
 77 80  1  0  0  0
 77144  1  0  0  0
 77145  1  0  0  0
 78146  1  0  0  0
 78147  1  0  0  0
 79148  1  0  0  0
 80149  1  0  0  0
M  ISO  4   1 100  68 101  78 101  79 100
M  END
> <chiral flag>
0

> <version>
0

> <s_m_source_file>
/data/baiqing/PycharmProjects/Reinvent-master-3.2/result/LINK_invent/BTK/process_docking_weight1_custom_sum_contain_oxygen_bond_distance_aromatic_linkinvent_7_9_3/rearranged_h_0012.sdf

> <i_m_source_file_index>
88

> <r_mmod_Potential_Energy-OPLS-2005>
638.470458984375

> <r_mmod_Stretch_Energy-OPLS-2005>
325.5263671875

> <r_mmod_Bend_Energy-OPLS-2005>
286.600891113281

> <r_mmod_Torsional_Energy-OPLS-2005>
230.921295166016

> <r_mmod_Improper_Torsional_Energy-OPLS-2005>
3.91465544700623

> <r_mmod_Van_der_Waal_Energy-OPLS-2005>
140.220809936523

> <r_mmod_Electrostatic_Energy-OPLS-2005>
-357.590087890625

> <r_mmod_Solvation_Energy-OPLS-2005>
-232.546661376953

> <b_mmod_Minimization_Converged-OPLS-2005>
0

> <r_mmod_RMS_Derivative-OPLS-2005>
0.781578004360199

$$$$
89
                    3D
 Structure written by MMmdl.
148156  0  0  1  0            999 V2000
  -30.5212  -14.9253   20.4299 C   0  0  0  0  0  0
  -30.4512  -12.5691   19.4979 C   0  0  0  0  0  0
  -29.5261  -12.5287   18.2578 C   0  0  0  0  0  0
  -28.0565  -12.3229   18.6744 C   0  0  0  0  0  0
  -27.6405  -13.2424   19.8522 C   0  0  2  0  0  0
  -28.6841  -13.2282   20.9903 C   0  0  0  0  0  0
  -25.2511  -13.8204   20.5710 C   0  0  0  0  0  0
  -24.1812  -13.0438   20.9217 C   0  0  0  0  0  0
  -24.6416  -11.6920   20.8762 C   0  0  0  0  0  0
  -23.9092  -10.4293   21.0411 C   0  0  0  0  0  0
  -24.3639   -9.4202   21.9185 C   0  0  0  0  0  0
  -23.6306   -8.2239   22.0753 C   0  0  0  0  0  0
  -22.4286   -8.0284   21.3544 C   0  0  0  0  0  0
  -21.9927   -9.0260   20.4648 C   0  0  0  0  0  0
  -22.7265  -10.2134   20.3060 C   0  0  0  0  0  0
  -21.6853   -6.0741   22.5281 C   0  0  0  0  0  0
  -21.4008   -6.5646   23.8214 C   0  0  0  0  0  0
  -21.3656   -5.6797   24.9176 C   0  0  0  0  0  0
  -21.6043   -4.3059   24.7225 C   0  0  0  0  0  0
  -21.8823   -3.8153   23.4345 C   0  0  0  0  0  0
  -21.9193   -4.6968   22.3402 C   0  0  0  0  0  0
  -22.7832  -13.5209   21.1871 C   0  0  0  0  0  0
  -22.1667   -4.2157   21.0977 F   0  0  0  0  0  0
  -21.5624   -3.4536   25.7736 F   0  0  0  0  0  0
  -29.9676  -13.6460   20.4082 N   0  0  0  0  0  0
  -26.2947  -12.9429   20.3299 N   0  0  0  0  0  0
  -25.9353  -11.6559   20.5771 N   0  0  0  0  0  0
  -22.0487  -12.8198   22.0430 N   0  0  0  0  0  0
  -25.4180  -15.1929   20.4126 N   0  0  0  0  0  0
  -31.6972  -15.0453   20.0701 O   0  0  0  0  0  0
  -21.6644   -6.8886   21.4243 O   0  0  0  0  0  0
  -22.3511  -14.5508   20.6713 O   0  0  0  0  0  0
  -24.6440  -31.8427   23.1910 C   0  0  0  0  0  0
  -25.9215  -32.4684   23.8294 C   0  0  1  0  0  0
  -27.2135  -27.1283   20.1446 C   0  0  0  0  0  0
  -25.5965  -33.8495   24.2192 N   0  0  0  0  0  0
  -23.4489  -30.4628   21.5358 C   0  0  2  0  0  0
  -24.8980  -28.8945   20.1064 C   0  0  0  0  0  0
  -22.7573  -29.4539   22.4870 C   0  0  0  0  0  0
  -18.0289  -28.1418   22.8490 C   0  0  0  0  0  0
  -24.1468  -36.7221   23.2654 C   0  0  0  0  0  0
  -26.0063  -30.7101   21.3971 C   0  0  0  0  0  0
  -26.0735  -29.3227   20.7353 C   0  0  0  0  0  0
  -27.2293  -28.4527   20.7455 C   0  0  0  0  0  0
  -26.0186  -26.8183   19.4545 C   0  0  0  0  0  0
  -24.8839  -27.6563   19.4500 C   0  0  0  0  0  0
  -23.6761  -29.7978   20.1525 C   0  0  0  0  0  0
  -25.4106  -36.3017   24.0326 C   0  0  1  0  0  0
  -20.5909  -28.3723   23.1247 C   0  0  2  0  0  0
  -20.6773  -26.9428   22.5417 C   0  0  0  0  0  0
  -19.5744  -26.6392   21.5232 C   0  0  0  0  0  0
  -18.1923  -26.7957   22.1636 C   0  0  0  0  0  0
  -19.1553  -28.8890   23.2857 C   0  0  0  0  0  0
  -18.9476  -30.1489   23.8874 C   0  0  0  0  0  0
  -17.6477  -30.6617   24.0560 C   0  0  0  0  0  0
  -25.9068  -34.9400   23.5059 C   0  0  0  0  0  0
  -16.5359  -29.9111   23.6361 C   0  0  0  0  0  0
  -16.7275  -28.6533   23.0376 C   0  0  0  0  0  0
  -26.4536  -31.6574   25.0746 C   0  0  0  0  0  0
  -25.3729  -31.3803   26.1455 C   0  0  0  0  0  0
  -27.0406  -30.2963   24.6363 C   0  0  0  0  0  0
  -27.6064  -32.4357   25.7517 C   0  0  0  0  0  0
  -27.5547  -37.1765   24.8476 C   0  0  0  0  0  0
  -21.4265  -29.3037   22.3614 N   0  0  0  0  0  0
  -26.4257  -37.3740   23.9424 N   0  0  0  0  0  0
  -24.7188  -31.0277   22.0952 N   0  0  0  0  0  0
  -23.4209  -28.8093   23.3035 O   0  0  0  0  0  0
  -28.2509  -26.1245   20.2436 O   0  0  0  0  0  0
  -26.5642  -34.8901   22.4630 O   0  0  0  0  0  0
  -23.5555  -32.1316   23.7112 O   0  0  0  0  0  0
  -28.8133  -19.8427   21.3694 C   0  0  0  0  0  0
  -29.8429  -19.7281   19.2565 C   0  0  0  0  0  0
  -29.1878  -20.5955   20.2065 C   0  0  0  0  0  0
  -29.6786  -17.5520   20.5763 C   0  0  0  0  0  0
  -29.0296  -18.4112   21.5347 C   0  0  0  0  0  0
  -30.0909  -18.3004   19.4232 C   0  0  0  0  0  0
  -28.7723  -23.3198   20.4913 C   0  0  0  0  0  0
  -28.0049  -24.6376   19.8327 C   0  0  0  0  0  0
  -28.7785  -22.0418   19.8698 N   0  0  0  0  0  0
  -29.7050  -16.0287   20.7685 N   0  0  0  0  0  0
  -29.3418  -23.4683   21.5758 O   0  0  0  0  0  0
  -28.5499  -17.8305   22.6622 F   0  0  0  0  0  0
  -30.6814  -17.6333   18.4015 F   0  0  0  0  0  0
  -31.4827  -12.7366   19.1848 H   0  0  0  0  0  0
  -30.4507  -11.6063   20.0110 H   0  0  0  0  0  0
  -29.8364  -11.7315   17.5808 H   0  0  0  0  0  0
  -29.6209  -13.4597   17.6977 H   0  0  0  0  0  0
  -27.9437  -11.2797   18.9700 H   0  0  0  0  0  0
  -27.3933  -12.4719   17.8217 H   0  0  0  0  0  0
  -27.6178  -14.2542   19.4452 H   0  0  0  0  0  0
  -28.7646  -12.2365   21.4381 H   0  0  0  0  0  0
  -28.3859  -13.8999   21.7966 H   0  0  0  0  0  0
  -25.2781   -9.5667   22.4762 H   0  0  0  0  0  0
  -24.0010   -7.4626   22.7471 H   0  0  0  0  0  0
  -21.0852   -8.8790   19.8954 H   0  0  0  0  0  0
  -22.3730  -10.9677   19.6171 H   0  0  0  0  0  0
  -21.2003   -7.6157   23.9718 H   0  0  0  0  0  0
  -21.1467   -6.0526   25.9078 H   0  0  0  0  0  0
  -22.0605   -2.7616   23.2840 H   0  0  0  0  0  0
  -22.4117  -11.9861   22.4813 H   0  0  0  0  0  0
  -21.1103  -13.1213   22.2644 H   0  0  0  0  0  0
  -24.6452  -15.8411   20.5183 H   0  0  0  0  0  0
  -26.2607  -15.6342   20.0690 H   0  0  0  0  0  0
  -26.7277  -32.5265   23.1020 H   0  0  0  0  0  0
  -25.0122  -33.9618   25.0344 H   0  0  0  0  0  0
  -22.7523  -31.2894   21.3830 H   0  0  0  0  0  0
  -23.3740  -35.9544   23.3330 H   0  0  0  0  0  0
  -24.3555  -36.8826   22.2062 H   0  0  0  0  0  0
  -23.7211  -37.6422   23.6670 H   0  0  0  0  0  0
  -26.1711  -31.4668   20.6289 H   0  0  0  0  0  0
  -26.8736  -30.7533   22.0438 H   0  0  0  0  0  0
  -28.1169  -28.7691   21.2748 H   0  0  0  0  0  0
  -25.9152  -25.8869   18.9189 H   0  0  0  0  0  0
  -23.9909  -27.3307   18.9338 H   0  0  0  0  0  0
  -23.8138  -30.5749   19.3998 H   0  0  0  0  0  0
  -22.7912  -29.2406   19.8398 H   0  0  0  0  0  0
  -25.1298  -36.1838   25.0821 H   0  0  0  0  0  0
  -20.9986  -28.3295   24.1378 H   0  0  0  0  0  0
  -20.5673  -26.2339   23.3635 H   0  0  0  0  0  0
  -21.6636  -26.7442   22.1202 H   0  0  0  0  0  0
  -19.6897  -25.6300   21.1266 H   0  0  0  0  0  0
  -19.6684  -27.3201   20.6759 H   0  0  0  0  0  0
  -17.4201  -26.6727   21.4020 H   0  0  0  0  0  0
  -18.0288  -26.0108   22.9029 H   0  0  0  0  0  0
  -19.7954  -30.7312   24.2224 H   0  0  0  0  0  0
  -17.5040  -31.6298   24.5162 H   0  0  0  0  0  0
  -15.5364  -30.3005   23.7725 H   0  0  0  0  0  0
  -15.8667  -28.0848   22.7110 H   0  0  0  0  0  0
  -24.5878  -30.7170   25.7804 H   0  0  0  0  0  0
  -24.8955  -32.3003   26.4830 H   0  0  0  0  0  0
  -25.8016  -30.9012   27.0264 H   0  0  0  0  0  0
  -26.3042  -29.6685   24.1328 H   0  0  0  0  0  0
  -27.3958  -29.7271   25.4965 H   0  0  0  0  0  0
  -27.8980  -30.4195   23.9746 H   0  0  0  0  0  0
  -27.2661  -33.3696   26.2005 H   0  0  0  0  0  0
  -28.3914  -32.6851   25.0366 H   0  0  0  0  0  0
  -28.0688  -31.8541   26.5502 H   0  0  0  0  0  0
  -28.2587  -38.0035   24.7483 H   0  0  0  0  0  0
  -28.1003  -36.2563   24.6332 H   0  0  0  0  0  0
  -27.2273  -37.1461   25.8883 H   0  0  0  0  0  0
  -20.9486  -29.8739   21.6775 H   0  0  0  0  0  0
  -26.0111  -38.2796   24.1443 H   0  0  0  0  0  0
  -28.2753  -20.3560   22.1535 H   0  0  0  0  0  0
  -30.1532  -20.1620   18.3172 H   0  0  0  0  0  0
  -26.9584  -24.4082   20.0298 H   0  0  0  0  0  0
  -28.1253  -24.5777   18.7508 H   0  0  0  0  0  0
  -28.4132  -22.1221   18.9290 H   0  0  0  0  0  0
  -28.8821  -15.7117   21.2572 H   0  0  0  0  0  0
  1 25  1  0  0  0
  1 30  2  0  0  0
  1 80  1  0  0  0
  2  3  1  0  0  0
  2 25  1  0  0  0
  2 84  1  0  0  0
  2 85  1  0  0  0
  3  4  1  0  0  0
  3 86  1  0  0  0
  3 87  1  0  0  0
  4  5  1  0  0  0
  4 88  1  0  0  0
  4 89  1  0  0  0
  5  6  1  0  0  0
  5 26  1  0  0  0
  5 90  1  0  0  0
  6 25  1  0  0  0
  6 91  1  0  0  0
  6 92  1  0  0  0
  7  8  2  0  0  0
  7 26  1  0  0  0
  7 29  1  0  0  0
  8  9  1  0  0  0
  8 22  1  0  0  0
  9 10  1  0  0  0
  9 27  2  0  0  0
 10 11  2  0  0  0
 10 15  1  0  0  0
 11 12  1  0  0  0
 11 93  1  0  0  0
 12 13  2  0  0  0
 12 94  1  0  0  0
 13 14  1  0  0  0
 13 31  1  0  0  0
 14 15  2  0  0  0
 14 95  1  0  0  0
 15 96  1  0  0  0
 16 17  2  0  0  0
 16 21  1  0  0  0
 16 31  1  0  0  0
 17 18  1  0  0  0
 17 97  1  0  0  0
 18 19  2  0  0  0
 18 98  1  0  0  0
 19 20  1  0  0  0
 19 24  1  0  0  0
 20 21  2  0  0  0
 20 99  1  0  0  0
 21 23  1  0  0  0
 22 28  1  0  0  0
 22 32  2  0  0  0
 26 27  1  0  0  0
 28100  1  0  0  0
 28101  1  0  0  0
 29102  1  0  0  0
 29103  1  0  0  0
 33 34  1  0  0  0
 33 66  1  0  0  0
 33 70  2  0  0  0
 34 36  1  0  0  0
 34 59  1  0  0  0
 34104  1  0  0  0
 35 44  2  0  0  0
 35 45  1  0  0  0
 35 68  1  0  0  0
 36 56  1  0  0  0
 36105  1  0  0  0
 37 39  1  0  0  0
 37 47  1  0  0  0
 37 66  1  0  0  0
 37106  1  0  0  0
 38 43  2  0  0  0
 38 46  1  0  0  0
 38 47  1  0  0  0
 39 64  1  0  0  0
 39 67  2  0  0  0
 40 52  1  0  0  0
 40 53  2  0  0  0
 40 58  1  0  0  0
 41107  1  0  0  0
 41108  1  0  0  0
 41109  1  0  0  0
 41 48  1  0  0  0
 42 43  1  0  0  0
 42 66  1  0  0  0
 42110  1  0  0  0
 42111  1  0  0  0
 43 44  1  0  0  0
 44112  1  0  0  0
 45 46  2  0  0  0
 45113  1  0  0  0
 46114  1  0  0  0
 47115  1  0  0  0
 47116  1  0  0  0
 48 56  1  0  0  0
 48 65  1  0  0  0
 48117  1  0  0  0
 49 50  1  0  0  0
 49 53  1  0  0  0
 49 64  1  0  0  0
 49118  1  0  0  0
 50 51  1  0  0  0
 50119  1  0  0  0
 50120  1  0  0  0
 51 52  1  0  0  0
 51121  1  0  0  0
 51122  1  0  0  0
 52123  1  0  0  0
 52124  1  0  0  0
 53 54  1  0  0  0
 54 55  2  0  0  0
 54125  1  0  0  0
 55 57  1  0  0  0
 55126  1  0  0  0
 56 69  2  0  0  0
 57 58  2  0  0  0
 57127  1  0  0  0
 58128  1  0  0  0
 59 60  1  0  0  0
 59 61  1  0  0  0
 59 62  1  0  0  0
 60129  1  0  0  0
 60130  1  0  0  0
 60131  1  0  0  0
 61132  1  0  0  0
 61133  1  0  0  0
 61134  1  0  0  0
 62135  1  0  0  0
 62136  1  0  0  0
 62137  1  0  0  0
 63 65  1  0  0  0
 63138  1  0  0  0
 63139  1  0  0  0
 63140  1  0  0  0
 64141  1  0  0  0
 65142  1  0  0  0
 68 78  1  0  0  0
 71 73  2  0  0  0
 71 75  1  0  0  0
 71143  1  0  0  0
 72 73  1  0  0  0
 72 76  2  0  0  0
 72144  1  0  0  0
 73 79  1  0  0  0
 74 75  2  0  0  0
 74 76  1  0  0  0
 74 80  1  0  0  0
 75 82  1  0  0  0
 76 83  1  0  0  0
 77 78  1  0  0  0
 77 79  1  0  0  0
 77 81  2  0  0  0
 78145  1  0  0  0
 78146  1  0  0  0
 79147  1  0  0  0
 80148  1  0  0  0
M  ISO  4   1 100  68 101  78 101  80 100
M  END
> <chiral flag>
0

> <version>
0

> <s_m_source_file>
/data/baiqing/PycharmProjects/Reinvent-master-3.2/result/LINK_invent/BTK/process_docking_weight1_custom_sum_contain_oxygen_bond_distance_aromatic_linkinvent_7_9_3/rearranged_h_0012.sdf

> <i_m_source_file_index>
89

> <r_mmod_Potential_Energy-OPLS-2005>
381.649688720703

> <r_mmod_Stretch_Energy-OPLS-2005>
227.029296875

> <r_mmod_Bend_Energy-OPLS-2005>
252.577865600586

> <r_mmod_Torsional_Energy-OPLS-2005>
248.766418457031

> <r_mmod_Improper_Torsional_Energy-OPLS-2005>
4.67638444900513

> <r_mmod_Van_der_Waal_Energy-OPLS-2005>
130.512100219727

> <r_mmod_Electrostatic_Energy-OPLS-2005>
-419.666107177734

> <r_mmod_Solvation_Energy-OPLS-2005>
-252.490036010742

> <b_mmod_Minimization_Converged-OPLS-2005>
0

> <r_mmod_RMS_Derivative-OPLS-2005>
1.40506505966187

$$$$
90
                    3D
 Structure written by MMmdl.
159167  0  0  1  0            999 V2000
  -30.5173  -15.0559   20.3930 C   0  0  0  0  0  0
  -30.4379  -12.6587   19.5147 C   0  0  0  0  0  0
  -29.5296  -12.5502   18.2677 C   0  0  0  0  0  0
  -28.0638  -12.3238   18.6811 C   0  0  0  0  0  0
  -27.6232  -13.2661   19.8319 C   0  0  2  0  0  0
  -28.6625  -13.3437   20.9705 C   0  0  0  0  0  0
  -25.2411  -13.8253   20.5737 C   0  0  0  0  0  0
  -24.1756  -13.0438   20.9239 C   0  0  0  0  0  0
  -24.6407  -11.6939   20.8753 C   0  0  0  0  0  0
  -23.9091  -10.4298   21.0404 C   0  0  0  0  0  0
  -24.3635   -9.4208   21.9181 C   0  0  0  0  0  0
  -23.6303   -8.2238   22.0745 C   0  0  0  0  0  0
  -22.4286   -8.0270   21.3528 C   0  0  0  0  0  0
  -21.9926   -9.0256   20.4637 C   0  0  0  0  0  0
  -22.7266  -10.2133   20.3049 C   0  0  0  0  0  0
  -21.6861   -6.0726   22.5282 C   0  0  0  0  0  0
  -21.4027   -6.5633   23.8215 C   0  0  0  0  0  0
  -21.3663   -5.6781   24.9174 C   0  0  0  0  0  0
  -21.6049   -4.3047   24.7231 C   0  0  0  0  0  0
  -21.8812   -3.8136   23.4351 C   0  0  0  0  0  0
  -21.9188   -4.6951   22.3406 C   0  0  0  0  0  0
  -22.7768  -13.5196   21.1876 C   0  0  0  0  0  0
  -22.1655   -4.2132   21.0984 F   0  0  0  0  0  0
  -21.5622   -3.4535   25.7742 F   0  0  0  0  0  0
  -29.9279  -13.7820   20.3657 N   0  0  0  0  0  0
  -26.2854  -12.9530   20.3217 N   0  0  0  0  0  0
  -25.9347  -11.6638   20.5728 N   0  0  0  0  0  0
  -22.0420  -12.8198   22.0445 N   0  0  0  0  0  0
  -25.4007  -15.1992   20.4201 N   0  0  0  0  0  0
  -31.7279  -15.0746   20.1406 O   0  0  0  0  0  0
  -21.6630   -6.8876   21.4244 O   0  0  0  0  0  0
  -22.3448  -14.5492   20.6696 O   0  0  0  0  0  0
  -24.6488  -31.8377   23.1807 C   0  0  0  0  0  0
  -25.9228  -32.4659   23.8234 C   0  0  1  0  0  0
  -27.2187  -27.0703   20.1801 C   0  0  0  0  0  0
  -25.5959  -33.8470   24.2151 N   0  0  0  0  0  0
  -23.4565  -30.4553   21.5260 C   0  0  2  0  0  0
  -24.9091  -28.8653   20.1158 C   0  0  0  0  0  0
  -22.7604  -29.4523   22.4812 C   0  0  0  0  0  0
  -18.0319  -28.1406   22.8486 C   0  0  0  0  0  0
  -24.1494  -36.7242   23.2645 C   0  0  0  0  0  0
  -26.0164  -30.6915   21.3895 C   0  0  0  0  0  0
  -26.0871  -29.2930   20.7410 C   0  0  0  0  0  0
  -27.2441  -28.4148   20.7519 C   0  0  0  0  0  0
  -26.0162  -26.7590   19.5111 C   0  0  0  0  0  0
  -24.8908  -27.6134   19.4808 C   0  0  0  0  0  0
  -23.6885  -29.7753   20.1494 C   0  0  0  0  0  0
  -25.4124  -36.3005   24.0313 C   0  0  1  0  0  0
  -20.5942  -28.3731   23.1223 C   0  0  2  0  0  0
  -20.6806  -26.9425   22.5406 C   0  0  0  0  0  0
  -19.5767  -26.6386   21.5229 C   0  0  0  0  0  0
  -18.1950  -26.7946   22.1639 C   0  0  0  0  0  0
  -19.1580  -28.8888   23.2854 C   0  0  0  0  0  0
  -18.9485  -30.1485   23.8871 C   0  0  0  0  0  0
  -17.6480  -30.6593   24.0573 C   0  0  0  0  0  0
  -25.9078  -34.9385   23.5043 C   0  0  0  0  0  0
  -16.5374  -29.9086   23.6340 C   0  0  0  0  0  0
  -16.7308  -28.6515   23.0351 C   0  0  0  0  0  0
  -26.4531  -31.6535   25.0688 C   0  0  0  0  0  0
  -25.3704  -31.3729   26.1375 C   0  0  0  0  0  0
  -27.0407  -30.2926   24.6282 C   0  0  0  0  0  0
  -27.6049  -32.4307   25.7483 C   0  0  0  0  0  0
  -27.5571  -37.1780   24.8464 C   0  0  0  0  0  0
  -21.4288  -29.3049   22.3573 N   0  0  0  0  0  0
  -26.4278  -37.3728   23.9404 N   0  0  0  0  0  0
  -24.7271  -31.0197   22.0857 N   0  0  0  0  0  0
  -23.4229  -28.8074   23.2989 O   0  0  0  0  0  0
  -28.2568  -26.0494   20.1937 O   0  0  0  0  0  0
  -26.5679  -34.8896   22.4631 O   0  0  0  0  0  0
  -23.5585  -32.1283   23.6986 O   0  0  0  0  0  0
  -31.2166  -18.1485   19.6012 C   0  0  0  0  0  0
  -31.5973  -19.4794   19.3021 C   0  0  0  0  0  0
  -30.0250  -17.8064   20.2738 C   0  0  0  0  0  0
  -29.5283  -20.4785   20.3010 C   0  0  0  0  0  0
  -30.7957  -20.6030   19.6705 C   0  0  0  0  0  0
  -29.1842  -19.0225   20.5820 C   0  0  0  0  0  0
  -28.7436  -23.1533   20.0635 C   0  0  0  0  0  0
  -28.0743  -21.7784   21.9632 C   0  0  0  0  0  0
  -32.7059  -19.2834   17.1817 C   0  0  0  0  0  0
  -33.7240  -20.7033   18.9722 C   0  0  0  0  0  0
  -27.9906  -24.5546   20.6601 C   0  0  0  0  0  0
  -29.7544  -16.2802   20.5300 N   0  0  0  0  0  0
  -28.7888  -21.8280   20.6830 N   0  0  0  0  0  0
  -32.8120  -19.6272   18.5965 N   0  0  0  0  0  0
  -29.2210  -23.2970   18.9350 O   0  0  0  0  0  0
  -31.2965  -21.8398   19.4370 F   0  0  0  0  0  0
  -27.6507  -18.6680   21.2944 Cl  0  0  0  0  0  0
  -31.4718  -12.8178   19.2036 H   0  0  0  0  0  0
  -30.4405  -11.7220   20.0728 H   0  0  0  0  0  0
  -29.8698  -11.7431   17.6176 H   0  0  0  0  0  0
  -29.6075  -13.4686   17.6850 H   0  0  0  0  0  0
  -27.9693  -11.2860   19.0011 H   0  0  0  0  0  0
  -27.4056  -12.4350   17.8181 H   0  0  0  0  0  0
  -27.5706  -14.2587   19.3837 H   0  0  0  0  0  0
  -28.7706  -12.3824   21.4744 H   0  0  0  0  0  0
  -28.3433  -14.0574   21.7314 H   0  0  0  0  0  0
  -25.2788   -9.5679   22.4748 H   0  0  0  0  0  0
  -24.0000   -7.4645   22.7492 H   0  0  0  0  0  0
  -21.0834   -8.8800   19.8966 H   0  0  0  0  0  0
  -22.3739  -10.9663   19.6143 H   0  0  0  0  0  0
  -21.2036   -7.6145   23.9723 H   0  0  0  0  0  0
  -21.1492   -6.0509   25.9076 H   0  0  0  0  0  0
  -22.0588   -2.7597   23.2856 H   0  0  0  0  0  0
  -22.4038  -11.9893   22.4885 H   0  0  0  0  0  0
  -21.1021  -13.1195   22.2617 H   0  0  0  0  0  0
  -24.6271  -15.8422   20.5466 H   0  0  0  0  0  0
  -26.2398  -15.6529   20.0852 H   0  0  0  0  0  0
  -26.7300  -32.5259   23.0962 H   0  0  0  0  0  0
  -25.0076  -33.9574   25.0281 H   0  0  0  0  0  0
  -22.7619  -31.2823   21.3648 H   0  0  0  0  0  0
  -23.3756  -35.9575   23.3281 H   0  0  0  0  0  0
  -24.3581  -36.8901   22.2064 H   0  0  0  0  0  0
  -23.7250  -37.6427   23.6707 H   0  0  0  0  0  0
  -26.1765  -31.4337   20.6069 H   0  0  0  0  0  0
  -26.8859  -30.7532   22.0314 H   0  0  0  0  0  0
  -28.1398  -28.7427   21.2597 H   0  0  0  0  0  0
  -25.9359  -25.8027   19.0145 H   0  0  0  0  0  0
  -23.9968  -27.2840   18.9676 H   0  0  0  0  0  0
  -23.8328  -30.5456   19.3900 H   0  0  0  0  0  0
  -22.8028  -29.2183   19.8361 H   0  0  0  0  0  0
  -25.1317  -36.1814   25.0806 H   0  0  0  0  0  0
  -21.0059  -28.3338   24.1339 H   0  0  0  0  0  0
  -20.5697  -26.2357   23.3643 H   0  0  0  0  0  0
  -21.6668  -26.7426   22.1201 H   0  0  0  0  0  0
  -19.6916  -25.6292   21.1270 H   0  0  0  0  0  0
  -19.6686  -27.3196   20.6758 H   0  0  0  0  0  0
  -17.4223  -26.6710   21.4035 H   0  0  0  0  0  0
  -18.0327  -26.0091   22.9033 H   0  0  0  0  0  0
  -19.7950  -30.7319   24.2221 H   0  0  0  0  0  0
  -17.5022  -31.6258   24.5190 H   0  0  0  0  0  0
  -15.5369  -30.2975   23.7658 H   0  0  0  0  0  0
  -15.8721  -28.0822   22.7055 H   0  0  0  0  0  0
  -24.5899  -30.7060   25.7687 H   0  0  0  0  0  0
  -24.8875  -32.2911   26.4725 H   0  0  0  0  0  0
  -25.7983  -30.8945   27.0192 H   0  0  0  0  0  0
  -26.3025  -29.6625   24.1302 H   0  0  0  0  0  0
  -27.4037  -29.7236   25.4849 H   0  0  0  0  0  0
  -27.8929  -30.4160   23.9598 H   0  0  0  0  0  0
  -27.2645  -33.3637   26.1983 H   0  0  0  0  0  0
  -28.3908  -32.6810   25.0347 H   0  0  0  0  0  0
  -28.0668  -31.8474   26.5456 H   0  0  0  0  0  0
  -28.2576  -38.0090   24.7513 H   0  0  0  0  0  0
  -28.1081  -36.2616   24.6287 H   0  0  0  0  0  0
  -27.2297  -37.1424   25.8871 H   0  0  0  0  0  0
  -20.9501  -29.8765   21.6746 H   0  0  0  0  0  0
  -26.0130  -38.2784   24.1410 H   0  0  0  0  0  0
  -31.8901  -17.3659   19.2898 H   0  0  0  0  0  0
  -28.3701  -20.9156   22.5554 H   0  0  0  0  0  0
  -26.9946  -21.7337   21.8107 H   0  0  0  0  0  0
  -28.3020  -22.6287   22.6053 H   0  0  0  0  0  0
  -32.4234  -18.2382   17.0446 H   0  0  0  0  0  0
  -33.6559  -19.4361   16.6674 H   0  0  0  0  0  0
  -31.9532  -19.8990   16.6849 H   0  0  0  0  0  0
  -33.6205  -20.9735   20.0241 H   0  0  0  0  0  0
  -33.5512  -21.5972   18.3702 H   0  0  0  0  0  0
  -34.7577  -20.3911   18.8152 H   0  0  0  0  0  0
  -28.2054  -24.5928   21.7256 H   0  0  0  0  0  0
  -26.9188  -24.3678   20.5956 H   0  0  0  0  0  0
  -28.8025  -16.0962   20.8116 H   0  0  0  0  0  0
  1 25  1  0  0  0
  1 30  2  0  0  0
  1 82  1  0  0  0
  2  3  1  0  0  0
  2 25  1  0  0  0
  2 88  1  0  0  0
  2 89  1  0  0  0
  3  4  1  0  0  0
  3 90  1  0  0  0
  3 91  1  0  0  0
  4  5  1  0  0  0
  4 92  1  0  0  0
  4 93  1  0  0  0
  5  6  1  0  0  0
  5 26  1  0  0  0
  5 94  1  0  0  0
  6 25  1  0  0  0
  6 95  1  0  0  0
  6 96  1  0  0  0
  7  8  2  0  0  0
  7 26  1  0  0  0
  7 29  1  0  0  0
  8  9  1  0  0  0
  8 22  1  0  0  0
  9 10  1  0  0  0
  9 27  2  0  0  0
 10 11  2  0  0  0
 10 15  1  0  0  0
 11 12  1  0  0  0
 11 97  1  0  0  0
 12 13  2  0  0  0
 12 98  1  0  0  0
 13 14  1  0  0  0
 13 31  1  0  0  0
 14 15  2  0  0  0
 14 99  1  0  0  0
 15100  1  0  0  0
 16 17  2  0  0  0
 16 21  1  0  0  0
 16 31  1  0  0  0
 17 18  1  0  0  0
 17101  1  0  0  0
 18 19  2  0  0  0
 18102  1  0  0  0
 19 20  1  0  0  0
 19 24  1  0  0  0
 20 21  2  0  0  0
 20103  1  0  0  0
 21 23  1  0  0  0
 22 28  1  0  0  0
 22 32  2  0  0  0
 26 27  1  0  0  0
 28104  1  0  0  0
 28105  1  0  0  0
 29106  1  0  0  0
 29107  1  0  0  0
 33 34  1  0  0  0
 33 66  1  0  0  0
 33 70  2  0  0  0
 34 36  1  0  0  0
 34 59  1  0  0  0
 34108  1  0  0  0
 35 44  2  0  0  0
 35 45  1  0  0  0
 35 68  1  0  0  0
 36 56  1  0  0  0
 36109  1  0  0  0
 37 39  1  0  0  0
 37 47  1  0  0  0
 37 66  1  0  0  0
 37110  1  0  0  0
 38 43  2  0  0  0
 38 46  1  0  0  0
 38 47  1  0  0  0
 39 64  1  0  0  0
 39 67  2  0  0  0
 40 52  1  0  0  0
 40 53  2  0  0  0
 40 58  1  0  0  0
 41111  1  0  0  0
 41112  1  0  0  0
 41113  1  0  0  0
 41 48  1  0  0  0
 42 43  1  0  0  0
 42 66  1  0  0  0
 42114  1  0  0  0
 42115  1  0  0  0
 43 44  1  0  0  0
 44116  1  0  0  0
 45 46  2  0  0  0
 45117  1  0  0  0
 46118  1  0  0  0
 47119  1  0  0  0
 47120  1  0  0  0
 48 56  1  0  0  0
 48 65  1  0  0  0
 48121  1  0  0  0
 49 50  1  0  0  0
 49 53  1  0  0  0
 49 64  1  0  0  0
 49122  1  0  0  0
 50 51  1  0  0  0
 50123  1  0  0  0
 50124  1  0  0  0
 51 52  1  0  0  0
 51125  1  0  0  0
 51126  1  0  0  0
 52127  1  0  0  0
 52128  1  0  0  0
 53 54  1  0  0  0
 54 55  2  0  0  0
 54129  1  0  0  0
 55 57  1  0  0  0
 55130  1  0  0  0
 56 69  2  0  0  0
 57 58  2  0  0  0
 57131  1  0  0  0
 58132  1  0  0  0
 59 60  1  0  0  0
 59 61  1  0  0  0
 59 62  1  0  0  0
 60133  1  0  0  0
 60134  1  0  0  0
 60135  1  0  0  0
 61136  1  0  0  0
 61137  1  0  0  0
 61138  1  0  0  0
 62139  1  0  0  0
 62140  1  0  0  0
 62141  1  0  0  0
 63 65  1  0  0  0
 63142  1  0  0  0
 63143  1  0  0  0
 63144  1  0  0  0
 64145  1  0  0  0
 65146  1  0  0  0
 68 81  1  0  0  0
 71 72  2  0  0  0
 71 73  1  0  0  0
 71147  1  0  0  0
 72 75  1  0  0  0
 72 84  1  0  0  0
 73 76  2  0  0  0
 73 82  1  0  0  0
 74 75  2  0  0  0
 74 76  1  0  0  0
 74 83  1  0  0  0
 75 86  1  0  0  0
 76 87  1  0  0  0
 77 81  1  0  0  0
 77 83  1  0  0  0
 77 85  2  0  0  0
 78 83  1  0  0  0
 78148  1  0  0  0
 78149  1  0  0  0
 78150  1  0  0  0
 79 84  1  0  0  0
 79151  1  0  0  0
 79152  1  0  0  0
 79153  1  0  0  0
 80 84  1  0  0  0
 80154  1  0  0  0
 80155  1  0  0  0
 80156  1  0  0  0
 81157  1  0  0  0
 81158  1  0  0  0
 82159  1  0  0  0
M  ISO  4   1 100  68 101  81 101  82 100
M  END
> <chiral flag>
0

> <version>
0

> <s_m_source_file>
/data/baiqing/PycharmProjects/Reinvent-master-3.2/result/LINK_invent/BTK/process_docking_weight1_custom_sum_contain_oxygen_bond_distance_aromatic_linkinvent_7_9_3/rearranged_h_0012.sdf

> <i_m_source_file_index>
90

> <r_mmod_Potential_Energy-OPLS-2005>
789.15966796875

> <r_mmod_Stretch_Energy-OPLS-2005>
368.540954589844

> <r_mmod_Bend_Energy-OPLS-2005>
292.103271484375

> <r_mmod_Torsional_Energy-OPLS-2005>
281.96435546875

> <r_mmod_Improper_Torsional_Energy-OPLS-2005>
7.27238655090332

> <r_mmod_Van_der_Waal_Energy-OPLS-2005>
143.909332275391

> <r_mmod_Electrostatic_Energy-OPLS-2005>
-317.484588623047

> <r_mmod_Solvation_Energy-OPLS-2005>
-250.485122680664

> <b_mmod_Minimization_Converged-OPLS-2005>
0

> <r_mmod_RMS_Derivative-OPLS-2005>
2.30580258369446

$$$$
91
                    3D
 Structure written by MMmdl.
154162  0  0  1  0            999 V2000
  -30.6194  -14.7331   20.4339 C   0  0  0  0  0  0
  -30.4297  -12.4425   19.4754 C   0  0  0  0  0  0
  -29.5103  -12.5032   18.2361 C   0  0  0  0  0  0
  -28.0353  -12.3328   18.6485 C   0  0  0  0  0  0
  -27.6420  -13.2333   19.8500 C   0  0  2  0  0  0
  -28.6862  -13.1697   20.9858 C   0  0  0  0  0  0
  -25.2512  -13.8200   20.5694 C   0  0  0  0  0  0
  -24.1804  -13.0443   20.9206 C   0  0  0  0  0  0
  -24.6395  -11.6921   20.8743 C   0  0  0  0  0  0
  -23.9073  -10.4295   21.0404 C   0  0  0  0  0  0
  -24.3624   -9.4209   21.9180 C   0  0  0  0  0  0
  -23.6298   -8.2245   22.0750 C   0  0  0  0  0  0
  -22.4279   -8.0281   21.3542 C   0  0  0  0  0  0
  -21.9915   -9.0255   20.4645 C   0  0  0  0  0  0
  -22.7244  -10.2135   20.3055 C   0  0  0  0  0  0
  -21.6854   -6.0734   22.5277 C   0  0  0  0  0  0
  -21.4015   -6.5638   23.8211 C   0  0  0  0  0  0
  -21.3660   -5.6791   24.9173 C   0  0  0  0  0  0
  -21.6047   -4.3054   24.7224 C   0  0  0  0  0  0
  -21.8820   -3.8146   23.4344 C   0  0  0  0  0  0
  -21.9193   -4.6962   22.3400 C   0  0  0  0  0  0
  -22.7824  -13.5223   21.1867 C   0  0  0  0  0  0
  -22.1664   -4.2148   21.0977 F   0  0  0  0  0  0
  -21.5629   -3.4537   25.7736 F   0  0  0  0  0  0
  -29.9901  -13.5095   20.4034 N   0  0  0  0  0  0
  -26.2941  -12.9411   20.3281 N   0  0  0  0  0  0
  -25.9328  -11.6551   20.5750 N   0  0  0  0  0  0
  -22.0477  -12.8209   22.0426 N   0  0  0  0  0  0
  -25.4208  -15.1922   20.4109 N   0  0  0  0  0  0
  -31.8229  -14.7973   20.1726 O   0  0  0  0  0  0
  -21.6643   -6.8878   21.4238 O   0  0  0  0  0  0
  -22.3503  -14.5525   20.6713 O   0  0  0  0  0  0
  -24.6319  -31.8555   23.1994 C   0  0  0  0  0  0
  -25.9145  -32.4754   23.8334 C   0  0  1  0  0  0
  -27.2150  -27.2538   20.1162 C   0  0  0  0  0  0
  -25.5940  -33.8557   24.2255 N   0  0  0  0  0  0
  -23.4277  -30.4799   21.5440 C   0  0  2  0  0  0
  -24.8714  -28.9296   20.1101 C   0  0  0  0  0  0
  -22.7507  -29.4602   22.4918 C   0  0  0  0  0  0
  -18.0293  -28.1389   22.8481 C   0  0  0  0  0  0
  -24.1491  -36.7281   23.2640 C   0  0  0  0  0  0
  -25.9757  -30.7640   21.3822 C   0  0  0  0  0  0
  -26.0442  -29.3877   20.7209 C   0  0  0  0  0  0
  -27.2141  -28.5608   20.7166 C   0  0  0  0  0  0
  -26.0092  -26.8664   19.4831 C   0  0  0  0  0  0
  -24.8595  -27.6770   19.4838 C   0  0  0  0  0  0
  -23.6446  -29.8184   20.1589 C   0  0  0  0  0  0
  -25.4118  -36.3067   24.0326 C   0  0  1  0  0  0
  -20.5896  -28.3698   23.1269 C   0  0  2  0  0  0
  -20.6782  -26.9415   22.5407 C   0  0  0  0  0  0
  -19.5756  -26.6382   21.5213 C   0  0  0  0  0  0
  -18.1936  -26.7930   22.1624 C   0  0  0  0  0  0
  -19.1547  -28.8861   23.2869 C   0  0  0  0  0  0
  -18.9467  -30.1464   23.8884 C   0  0  0  0  0  0
  -17.6466  -30.6589   24.0559 C   0  0  0  0  0  0
  -25.9059  -34.9439   23.5091 C   0  0  0  0  0  0
  -16.5356  -29.9083   23.6333 C   0  0  0  0  0  0
  -16.7280  -28.6502   23.0351 C   0  0  0  0  0  0
  -26.4504  -31.6585   25.0731 C   0  0  0  0  0  0
  -25.3722  -31.3744   26.1449 C   0  0  0  0  0  0
  -27.0357  -30.2998   24.6234 C   0  0  0  0  0  0
  -27.6051  -32.4333   25.7507 C   0  0  0  0  0  0
  -27.5580  -37.1797   24.8464 C   0  0  0  0  0  0
  -21.4214  -29.3043   22.3662 N   0  0  0  0  0  0
  -26.4291  -37.3767   23.9408 N   0  0  0  0  0  0
  -24.6977  -31.0515   22.0976 N   0  0  0  0  0  0
  -23.4208  -28.8139   23.3014 O   0  0  0  0  0  0
  -28.3281  -26.3785   20.1973 O   0  0  0  0  0  0
  -26.5630  -34.8911   22.4660 O   0  0  0  0  0  0
  -23.5468  -32.1385   23.7284 O   0  0  0  0  0  0
  -30.5060  -19.9537   19.1044 C   0  0  0  0  0  0
  -29.6151  -19.8072   20.1855 C   0  0  0  0  0  0
  -30.0744  -17.2746   20.1087 C   0  0  0  0  0  0
  -31.1106  -18.8371   18.4988 C   0  0  0  0  0  0
  -29.4274  -18.4475   20.6841 C   0  0  0  0  0  0
  -30.8847  -17.5253   18.9678 C   0  0  0  0  0  0
  -28.7033  -23.7237   20.5006 C   0  0  0  0  0  0
  -28.2391  -22.1874   18.6264 C   0  0  0  0  0  0
  -28.9426  -21.1209   20.8021 C   0  0  0  0  0  0
  -28.3627  -25.0003   19.5802 C   0  0  0  0  0  0
  -29.8512  -15.8791   20.5918 N   0  0  0  0  0  0
  -28.7068  -22.4146   19.9986 N   0  0  0  0  0  0
  -28.9721  -23.9345   21.6874 O   0  0  0  0  0  0
  -31.9152  -19.0291   17.4261 F   0  0  0  0  0  0
  -28.6007  -18.2600   21.7403 F   0  0  0  0  0  0
  -31.4308  -16.5101   18.2573 F   0  0  0  0  0  0
  -31.4725  -12.5573   19.1743 H   0  0  0  0  0  0
  -30.3644  -11.4668   19.9593 H   0  0  0  0  0  0
  -29.7900  -11.7306   17.5188 H   0  0  0  0  0  0
  -29.6419  -13.4585   17.7249 H   0  0  0  0  0  0
  -27.8883  -11.2844   18.9105 H   0  0  0  0  0  0
  -27.3795  -12.5283   17.7994 H   0  0  0  0  0  0
  -27.6366  -14.2546   19.4683 H   0  0  0  0  0  0
  -28.7160  -12.1753   21.4335 H   0  0  0  0  0  0
  -28.4262  -13.8597   21.7902 H   0  0  0  0  0  0
  -25.2770   -9.5685   22.4753 H   0  0  0  0  0  0
  -24.0010   -7.4634   22.7463 H   0  0  0  0  0  0
  -21.0850   -8.8774   19.8948 H   0  0  0  0  0  0
  -22.3704  -10.9672   19.6164 H   0  0  0  0  0  0
  -21.2011   -7.6147   23.9713 H   0  0  0  0  0  0
  -21.1482   -6.0522   25.9076 H   0  0  0  0  0  0
  -22.0600   -2.7608   23.2843 H   0  0  0  0  0  0
  -22.4106  -11.9877   22.4816 H   0  0  0  0  0  0
  -21.1090  -13.1219   22.2631 H   0  0  0  0  0  0
  -24.6541  -15.8465   20.5240 H   0  0  0  0  0  0
  -26.2687  -15.6323   20.0779 H   0  0  0  0  0  0
  -26.7208  -32.5392   23.1070 H   0  0  0  0  0  0
  -25.0092  -33.9693   25.0404 H   0  0  0  0  0  0
  -22.7243  -31.3026   21.4006 H   0  0  0  0  0  0
  -23.3756  -35.9610   23.3299 H   0  0  0  0  0  0
  -24.3581  -36.8907   22.2055 H   0  0  0  0  0  0
  -23.7241  -37.6479   23.6668 H   0  0  0  0  0  0
  -26.1204  -31.5255   20.6148 H   0  0  0  0  0  0
  -26.8515  -30.8076   22.0179 H   0  0  0  0  0  0
  -28.1104  -28.9061   21.2125 H   0  0  0  0  0  0
  -25.8812  -25.9160   18.9960 H   0  0  0  0  0  0
  -23.9581  -27.3185   19.0056 H   0  0  0  0  0  0
  -23.7725  -30.5966   19.4056 H   0  0  0  0  0  0
  -22.7614  -29.2554   19.8513 H   0  0  0  0  0  0
  -25.1301  -36.1914   25.0818 H   0  0  0  0  0  0
  -20.9984  -28.3274   24.1392 H   0  0  0  0  0  0
  -20.5690  -26.2306   23.3612 H   0  0  0  0  0  0
  -21.6649  -26.7445   22.1196 H   0  0  0  0  0  0
  -19.6918  -25.6291   21.1249 H   0  0  0  0  0  0
  -19.6693  -27.3187   20.6739 H   0  0  0  0  0  0
  -17.4206  -26.6674   21.4027 H   0  0  0  0  0  0
  -18.0335  -26.0079   22.9026 H   0  0  0  0  0  0
  -19.7943  -30.7284   24.2245 H   0  0  0  0  0  0
  -17.5018  -31.6268   24.5164 H   0  0  0  0  0  0
  -15.5355  -30.2977   23.7670 H   0  0  0  0  0  0
  -15.8679  -28.0819   22.7068 H   0  0  0  0  0  0
  -24.5896  -30.7093   25.7782 H   0  0  0  0  0  0
  -24.8915  -32.2916   26.4858 H   0  0  0  0  0  0
  -25.8032  -30.8934   27.0238 H   0  0  0  0  0  0
  -26.2949  -29.6742   24.1241 H   0  0  0  0  0  0
  -27.4012  -29.7265   25.4763 H   0  0  0  0  0  0
  -27.8837  -30.4269   23.9502 H   0  0  0  0  0  0
  -27.2652  -33.3636   26.2069 H   0  0  0  0  0  0
  -28.3868  -32.6891   25.0343 H   0  0  0  0  0  0
  -28.0714  -31.8473   26.5437 H   0  0  0  0  0  0
  -28.2594  -38.0099   24.7512 H   0  0  0  0  0  0
  -28.1080  -36.2627   24.6290 H   0  0  0  0  0  0
  -27.2297  -37.1444   25.8868 H   0  0  0  0  0  0
  -20.9406  -29.8767   21.6866 H   0  0  0  0  0  0
  -26.0170  -38.2841   24.1405 H   0  0  0  0  0  0
  -30.7202  -20.9348   18.7074 H   0  0  0  0  0  0
  -28.9201  -22.6381   17.9031 H   0  0  0  0  0  0
  -27.2449  -22.6078   18.4725 H   0  0  0  0  0  0
  -28.1504  -21.1300   18.3806 H   0  0  0  0  0  0
  -29.5384  -21.3752   21.6797 H   0  0  0  0  0  0
  -27.9718  -20.8226   21.1997 H   0  0  0  0  0  0
  -27.4784  -24.7588   19.0070 H   0  0  0  0  0  0
  -29.1547  -25.0434   18.8329 H   0  0  0  0  0  0
  -28.9431  -15.7222   21.0002 H   0  0  0  0  0  0
  1 25  1  0  0  0
  1 30  2  0  0  0
  1 81  1  0  0  0
  2  3  1  0  0  0
  2 25  1  0  0  0
  2 87  1  0  0  0
  2 88  1  0  0  0
  3  4  1  0  0  0
  3 89  1  0  0  0
  3 90  1  0  0  0
  4  5  1  0  0  0
  4 91  1  0  0  0
  4 92  1  0  0  0
  5  6  1  0  0  0
  5 26  1  0  0  0
  5 93  1  0  0  0
  6 25  1  0  0  0
  6 94  1  0  0  0
  6 95  1  0  0  0
  7  8  2  0  0  0
  7 26  1  0  0  0
  7 29  1  0  0  0
  8  9  1  0  0  0
  8 22  1  0  0  0
  9 10  1  0  0  0
  9 27  2  0  0  0
 10 11  2  0  0  0
 10 15  1  0  0  0
 11 12  1  0  0  0
 11 96  1  0  0  0
 12 13  2  0  0  0
 12 97  1  0  0  0
 13 14  1  0  0  0
 13 31  1  0  0  0
 14 15  2  0  0  0
 14 98  1  0  0  0
 15 99  1  0  0  0
 16 17  2  0  0  0
 16 21  1  0  0  0
 16 31  1  0  0  0
 17 18  1  0  0  0
 17100  1  0  0  0
 18 19  2  0  0  0
 18101  1  0  0  0
 19 20  1  0  0  0
 19 24  1  0  0  0
 20 21  2  0  0  0
 20102  1  0  0  0
 21 23  1  0  0  0
 22 28  1  0  0  0
 22 32  2  0  0  0
 26 27  1  0  0  0
 28103  1  0  0  0
 28104  1  0  0  0
 29105  1  0  0  0
 29106  1  0  0  0
 33 34  1  0  0  0
 33 66  1  0  0  0
 33 70  2  0  0  0
 34 36  1  0  0  0
 34 59  1  0  0  0
 34107  1  0  0  0
 35 44  2  0  0  0
 35 45  1  0  0  0
 35 68  1  0  0  0
 36 56  1  0  0  0
 36108  1  0  0  0
 37 39  1  0  0  0
 37 47  1  0  0  0
 37 66  1  0  0  0
 37109  1  0  0  0
 38 43  2  0  0  0
 38 46  1  0  0  0
 38 47  1  0  0  0
 39 64  1  0  0  0
 39 67  2  0  0  0
 40 52  1  0  0  0
 40 53  2  0  0  0
 40 58  1  0  0  0
 41110  1  0  0  0
 41111  1  0  0  0
 41112  1  0  0  0
 41 48  1  0  0  0
 42 43  1  0  0  0
 42 66  1  0  0  0
 42113  1  0  0  0
 42114  1  0  0  0
 43 44  1  0  0  0
 44115  1  0  0  0
 45 46  2  0  0  0
 45116  1  0  0  0
 46117  1  0  0  0
 47118  1  0  0  0
 47119  1  0  0  0
 48 56  1  0  0  0
 48 65  1  0  0  0
 48120  1  0  0  0
 49 50  1  0  0  0
 49 53  1  0  0  0
 49 64  1  0  0  0
 49121  1  0  0  0
 50 51  1  0  0  0
 50122  1  0  0  0
 50123  1  0  0  0
 51 52  1  0  0  0
 51124  1  0  0  0
 51125  1  0  0  0
 52126  1  0  0  0
 52127  1  0  0  0
 53 54  1  0  0  0
 54 55  2  0  0  0
 54128  1  0  0  0
 55 57  1  0  0  0
 55129  1  0  0  0
 56 69  2  0  0  0
 57 58  2  0  0  0
 57130  1  0  0  0
 58131  1  0  0  0
 59 60  1  0  0  0
 59 61  1  0  0  0
 59 62  1  0  0  0
 60132  1  0  0  0
 60133  1  0  0  0
 60134  1  0  0  0
 61135  1  0  0  0
 61136  1  0  0  0
 61137  1  0  0  0
 62138  1  0  0  0
 62139  1  0  0  0
 62140  1  0  0  0
 63 65  1  0  0  0
 63141  1  0  0  0
 63142  1  0  0  0
 63143  1  0  0  0
 64144  1  0  0  0
 65145  1  0  0  0
 68 80  1  0  0  0
 71 72  2  0  0  0
 71 74  1  0  0  0
 71146  1  0  0  0
 72 75  1  0  0  0
 72 79  1  0  0  0
 73 75  2  0  0  0
 73 76  1  0  0  0
 73 81  1  0  0  0
 74 76  2  0  0  0
 74 84  1  0  0  0
 75 85  1  0  0  0
 76 86  1  0  0  0
 77 80  1  0  0  0
 77 82  1  0  0  0
 77 83  2  0  0  0
 78 82  1  0  0  0
 78147  1  0  0  0
 78148  1  0  0  0
 78149  1  0  0  0
 79 82  1  0  0  0
 79150  1  0  0  0
 79151  1  0  0  0
 80152  1  0  0  0
 80153  1  0  0  0
 81154  1  0  0  0
M  ISO  4   1 100  68 101  80 101  81 100
M  END
> <chiral flag>
0

> <version>
0

> <s_m_source_file>
/data/baiqing/PycharmProjects/Reinvent-master-3.2/result/LINK_invent/BTK/process_docking_weight1_custom_sum_contain_oxygen_bond_distance_aromatic_linkinvent_7_9_3/rearranged_h_0012.sdf

> <i_m_source_file_index>
91

> <r_mmod_Potential_Energy-OPLS-2005>
152.700820922852

> <r_mmod_Stretch_Energy-OPLS-2005>
132.901184082031

> <r_mmod_Bend_Energy-OPLS-2005>
165.639053344727

> <r_mmod_Torsional_Energy-OPLS-2005>
232.383071899414

> <r_mmod_Improper_Torsional_Energy-OPLS-2005>
4.47189044952393

> <r_mmod_Van_der_Waal_Energy-OPLS-2005>
152.769592285156

> <r_mmod_Electrostatic_Energy-OPLS-2005>
-379.753723144531

> <r_mmod_Solvation_Energy-OPLS-2005>
-240.382675170898

> <b_mmod_Minimization_Converged-OPLS-2005>
0

> <r_mmod_RMS_Derivative-OPLS-2005>
0.52665501832962

$$$$
92
                    3D
 Structure written by MMmdl.
177185  0  0  1  0            999 V2000
  -30.6331  -14.6597   20.5057 C   0  0  0  0  0  0
  -30.4378  -12.4061   19.4635 C   0  0  0  0  0  0
  -29.5104  -12.5140   18.2323 C   0  0  0  0  0  0
  -28.0341  -12.3480   18.6428 C   0  0  0  0  0  0
  -27.6538  -13.2223   19.8675 C   0  0  2  0  0  0
  -28.6983  -13.0913   21.0000 C   0  0  0  0  0  0
  -25.2494  -13.8102   20.5562 C   0  0  0  0  0  0
  -24.1810  -13.0391   20.9204 C   0  0  0  0  0  0
  -24.6411  -11.6880   20.8780 C   0  0  0  0  0  0
  -23.9074  -10.4272   21.0430 C   0  0  0  0  0  0
  -24.3618   -9.4183   21.9202 C   0  0  0  0  0  0
  -23.6290   -8.2221   22.0757 C   0  0  0  0  0  0
  -22.4271   -8.0274   21.3548 C   0  0  0  0  0  0
  -21.9916   -9.0252   20.4652 C   0  0  0  0  0  0
  -22.7250  -10.2128   20.3069 C   0  0  0  0  0  0
  -21.6848   -6.0732   22.5281 C   0  0  0  0  0  0
  -21.4007   -6.5634   23.8214 C   0  0  0  0  0  0
  -21.3657   -5.6787   24.9175 C   0  0  0  0  0  0
  -21.6044   -4.3050   24.7227 C   0  0  0  0  0  0
  -21.8819   -3.8144   23.4348 C   0  0  0  0  0  0
  -21.9190   -4.6962   22.3405 C   0  0  0  0  0  0
  -22.7839  -13.5206   21.1860 C   0  0  0  0  0  0
  -22.1660   -4.2148   21.0985 F   0  0  0  0  0  0
  -21.5631   -3.4532   25.7737 F   0  0  0  0  0  0
  -30.0159  -13.4339   20.4400 N   0  0  0  0  0  0
  -26.2991  -12.9344   20.3333 N   0  0  0  0  0  0
  -25.9353  -11.6499   20.5823 N   0  0  0  0  0  0
  -22.0468  -12.8209   22.0412 N   0  0  0  0  0  0
  -25.4032  -15.1759   20.3632 N   0  0  0  0  0  0
  -31.7804  -14.8134   20.0769 O   0  0  0  0  0  0
  -21.6634   -6.8875   21.4242 O   0  0  0  0  0  0
  -22.3547  -14.5526   20.6714 O   0  0  0  0  0  0
  -24.6275  -31.8591   23.2019 C   0  0  0  0  0  0
  -25.9122  -32.4774   23.8349 C   0  0  1  0  0  0
  -27.2265  -27.3149   20.1148 C   0  0  0  0  0  0
  -25.5937  -33.8572   24.2275 N   0  0  0  0  0  0
  -23.4208  -30.4839   21.5444 C   0  0  2  0  0  0
  -24.8674  -28.9402   20.1091 C   0  0  0  0  0  0
  -22.7481  -29.4623   22.4924 C   0  0  0  0  0  0
  -18.0295  -28.1388   22.8488 C   0  0  0  0  0  0
  -24.1490  -36.7285   23.2635 C   0  0  0  0  0  0
  -25.9629  -30.7898   21.3729 C   0  0  0  0  0  0
  -26.0372  -29.4174   20.7137 C   0  0  0  0  0  0
  -27.2191  -28.6171   20.7056 C   0  0  0  0  0  0
  -26.0308  -26.8938   19.4855 C   0  0  0  0  0  0
  -24.8666  -27.6838   19.4861 C   0  0  0  0  0  0
  -23.6354  -29.8206   20.1589 C   0  0  0  0  0  0
  -25.4113  -36.3076   24.0330 C   0  0  1  0  0  0
  -20.5893  -28.3691   23.1286 C   0  0  2  0  0  0
  -20.6778  -26.9409   22.5422 C   0  0  0  0  0  0
  -19.5763  -26.6383   21.5217 C   0  0  0  0  0  0
  -18.1938  -26.7938   22.1618 C   0  0  0  0  0  0
  -19.1543  -28.8856   23.2885 C   0  0  0  0  0  0
  -18.9463  -30.1459   23.8902 C   0  0  0  0  0  0
  -17.6459  -30.6584   24.0566 C   0  0  0  0  0  0
  -25.9056  -34.9448   23.5097 C   0  0  0  0  0  0
  -16.5353  -29.9084   23.6329 C   0  0  0  0  0  0
  -16.7281  -28.6504   23.0351 C   0  0  0  0  0  0
  -26.4501  -31.6587   25.0720 C   0  0  0  0  0  0
  -25.3738  -31.3741   26.1452 C   0  0  0  0  0  0
  -27.0322  -30.3003   24.6179 C   0  0  0  0  0  0
  -27.6071  -32.4314   25.7479 C   0  0  0  0  0  0
  -27.5586  -37.1787   24.8457 C   0  0  0  0  0  0
  -21.4192  -29.3038   22.3672 N   0  0  0  0  0  0
  -26.4285  -37.3776   23.9418 N   0  0  0  0  0  0
  -24.6892  -31.0608   22.0966 N   0  0  0  0  0  0
  -23.4205  -28.8164   23.3005 O   0  0  0  0  0  0
  -28.3440  -26.4615   20.1689 O   0  0  0  0  0  0
  -26.5614  -34.8921   22.4659 O   0  0  0  0  0  0
  -23.5439  -32.1383   23.7352 O   0  0  0  0  0  0
  -29.3160  -19.4624   21.5229 C   0  0  0  0  0  0
  -30.7620  -17.8204   19.7798 C   0  0  0  0  0  0
  -30.0854  -20.1143   20.5272 C   0  0  0  0  0  0
  -29.2614  -18.0364   21.6493 C   0  0  0  0  0  0
  -30.0000  -17.1722   20.7873 C   0  0  0  0  0  0
  -30.8063  -19.2437   19.6503 C   0  0  0  0  0  0
  -29.3093  -24.0432   20.3839 C   0  0  0  0  0  0
  -28.8055  -17.8500   24.0205 C   0  0  0  0  0  0
  -24.0392  -20.4260   19.9652 C   0  0  0  0  0  0
  -23.3896  -21.8397   21.8572 C   0  0  0  0  0  0
  -30.2899  -21.6840   20.5375 C   0  0  0  0  0  0
  -28.1106  -25.0014   20.0079 C   0  0  0  0  0  0
  -26.1836  -18.4956   22.4646 C   0  0  0  0  0  0
  -24.7295  -18.2363   22.0353 C   0  0  0  0  0  0
  -27.0714  -17.2482   22.2921 C   0  0  0  0  0  0
  -23.7869  -19.4424   22.2381 C   0  0  0  0  0  0
  -29.8806  -15.7146   20.9516 N   0  0  0  0  0  0
  -29.1786  -22.6738   20.3078 N   0  0  0  0  0  0
  -28.4695  -17.4593   22.6553 N   0  0  0  0  0  0
  -24.1438  -20.6389   21.4287 N   0  3  0  0  0  0
  -30.3783  -24.5493   20.7352 O   0  0  0  0  0  0
  -31.7994  -19.8893   18.3915 Cl  0  0  0  0  0  0
  -31.4798  -12.5260   19.1605 H   0  0  0  0  0  0
  -30.3722  -11.4122   19.9092 H   0  0  0  0  0  0
  -29.7788  -11.7611   17.4899 H   0  0  0  0  0  0
  -29.6502  -13.4822   17.7492 H   0  0  0  0  0  0
  -27.8747  -11.2953   18.8792 H   0  0  0  0  0  0
  -27.3789  -12.5717   17.8003 H   0  0  0  0  0  0
  -27.6683  -14.2573   19.5251 H   0  0  0  0  0  0
  -28.7126  -12.0734   21.3929 H   0  0  0  0  0  0
  -28.4379  -13.7327   21.8433 H   0  0  0  0  0  0
  -25.2763   -9.5650   22.4778 H   0  0  0  0  0  0
  -23.9997   -7.4603   22.7464 H   0  0  0  0  0  0
  -21.0851   -8.8774   19.8953 H   0  0  0  0  0  0
  -22.3717  -10.9669   19.6175 H   0  0  0  0  0  0
  -21.1994   -7.6142   23.9716 H   0  0  0  0  0  0
  -21.1480   -6.0518   25.9079 H   0  0  0  0  0  0
  -22.0600   -2.7608   23.2846 H   0  0  0  0  0  0
  -22.4064  -11.9860   22.4795 H   0  0  0  0  0  0
  -21.1088  -13.1248   22.2609 H   0  0  0  0  0  0
  -24.5955  -15.7867   20.3785 H   0  0  0  0  0  0
  -26.2051  -15.5801   19.8988 H   0  0  0  0  0  0
  -26.7187  -32.5439   23.1096 H   0  0  0  0  0  0
  -25.0107  -33.9719   25.0433 H   0  0  0  0  0  0
  -22.7154  -31.3052   21.4027 H   0  0  0  0  0  0
  -23.3755  -35.9616   23.3289 H   0  0  0  0  0  0
  -24.3594  -36.8915   22.2054 H   0  0  0  0  0  0
  -23.7242  -37.6486   23.6658 H   0  0  0  0  0  0
  -26.0973  -31.5552   20.6070 H   0  0  0  0  0  0
  -26.8413  -30.8356   22.0047 H   0  0  0  0  0  0
  -28.1153  -28.9800   21.1889 H   0  0  0  0  0  0
  -25.9615  -25.9363   18.9923 H   0  0  0  0  0  0
  -23.9708  -27.3123   19.0073 H   0  0  0  0  0  0
  -23.7548  -30.5981   19.4034 H   0  0  0  0  0  0
  -22.7553  -29.2508   19.8557 H   0  0  0  0  0  0
  -25.1294  -36.1919   25.0824 H   0  0  0  0  0  0
  -20.9995  -28.3266   24.1403 H   0  0  0  0  0  0
  -20.5673  -26.2300   23.3624 H   0  0  0  0  0  0
  -21.6650  -26.7433   22.1227 H   0  0  0  0  0  0
  -19.6921  -25.6293   21.1252 H   0  0  0  0  0  0
  -19.6718  -27.3188   20.6745 H   0  0  0  0  0  0
  -17.4221  -26.6712   21.4003 H   0  0  0  0  0  0
  -18.0316  -26.0075   22.9005 H   0  0  0  0  0  0
  -19.7933  -30.7279   24.2272 H   0  0  0  0  0  0
  -17.5011  -31.6261   24.5174 H   0  0  0  0  0  0
  -15.5352  -30.2982   23.7651 H   0  0  0  0  0  0
  -15.8689  -28.0823   22.7055 H   0  0  0  0  0  0
  -24.5939  -30.7050   25.7803 H   0  0  0  0  0  0
  -24.8887  -32.2903   26.4825 H   0  0  0  0  0  0
  -25.8071  -30.8982   27.0257 H   0  0  0  0  0  0
  -26.2877  -29.6771   24.1209 H   0  0  0  0  0  0
  -27.4010  -29.7261   25.4687 H   0  0  0  0  0  0
  -27.8765  -30.4269   23.9398 H   0  0  0  0  0  0
  -27.2691  -33.3623   26.2044 H   0  0  0  0  0  0
  -28.3880  -32.6858   25.0297 H   0  0  0  0  0  0
  -28.0740  -31.8444   26.5400 H   0  0  0  0  0  0
  -28.2582  -38.0103   24.7525 H   0  0  0  0  0  0
  -28.1098  -36.2635   24.6233 H   0  0  0  0  0  0
  -27.2321  -37.1386   25.8865 H   0  0  0  0  0  0
  -20.9363  -29.8760   21.6884 H   0  0  0  0  0  0
  -26.0162  -38.2848   24.1437 H   0  0  0  0  0  0
  -28.7787  -20.0786   22.2286 H   0  0  0  0  0  0
  -31.3326  -17.2262   19.0817 H   0  0  0  0  0  0
  -29.8841  -17.8098   24.1824 H   0  0  0  0  0  0
  -28.3370  -17.1740   24.7370 H   0  0  0  0  0  0
  -28.4686  -18.8630   24.2440 H   0  0  0  0  0  0
  -24.2742  -21.3416   19.4212 H   0  0  0  0  0  0
  -23.0318  -20.1189   19.6823 H   0  0  0  0  0  0
  -24.7380  -19.6663   19.6166 H   0  0  0  0  0  0
  -23.7151  -22.7240   21.3082 H   0  0  0  0  0  0
  -23.5431  -22.0425   22.9174 H   0  0  0  0  0  0
  -22.3197  -21.7131   21.6887 H   0  0  0  0  0  0
  -31.0858  -21.9485   19.8426 H   0  0  0  0  0  0
  -30.7113  -21.9132   21.5175 H   0  0  0  0  0  0
  -27.2573  -24.7011   20.6179 H   0  0  0  0  0  0
  -27.8572  -24.7953   18.9677 H   0  0  0  0  0  0
  -26.1971  -18.8204   23.5058 H   0  0  0  0  0  0
  -26.5857  -19.3161   21.8725 H   0  0  0  0  0  0
  -24.3399  -17.4028   22.6215 H   0  0  0  0  0  0
  -24.6987  -17.8960   21.0010 H   0  0  0  0  0  0
  -27.0367  -16.9290   21.2509 H   0  0  0  0  0  0
  -26.6740  -16.4191   22.8800 H   0  0  0  0  0  0
  -23.7910  -19.7090   23.2962 H   0  0  0  0  0  0
  -22.7618  -19.1483   22.0067 H   0  0  0  0  0  0
  -29.0512  -15.4465   21.4610 H   0  0  0  0  0  0
  -28.2865  -22.3050   20.0090 H   0  0  0  0  0  0
  -25.1115  -20.8465   21.6239 H   0  0  0  0  0  0
  1 25  1  0  0  0
  1 30  2  0  0  0
  1 87  1  0  0  0
  2  3  1  0  0  0
  2 25  1  0  0  0
  2 93  1  0  0  0
  2 94  1  0  0  0
  3  4  1  0  0  0
  3 95  1  0  0  0
  3 96  1  0  0  0
  4  5  1  0  0  0
  4 97  1  0  0  0
  4 98  1  0  0  0
  5  6  1  0  0  0
  5 26  1  0  0  0
  5 99  1  0  0  0
  6 25  1  0  0  0
  6100  1  0  0  0
  6101  1  0  0  0
  7  8  2  0  0  0
  7 26  1  0  0  0
  7 29  1  0  0  0
  8  9  1  0  0  0
  8 22  1  0  0  0
  9 10  1  0  0  0
  9 27  2  0  0  0
 10 11  2  0  0  0
 10 15  1  0  0  0
 11 12  1  0  0  0
 11102  1  0  0  0
 12 13  2  0  0  0
 12103  1  0  0  0
 13 14  1  0  0  0
 13 31  1  0  0  0
 14 15  2  0  0  0
 14104  1  0  0  0
 15105  1  0  0  0
 16 17  2  0  0  0
 16 21  1  0  0  0
 16 31  1  0  0  0
 17 18  1  0  0  0
 17106  1  0  0  0
 18 19  2  0  0  0
 18107  1  0  0  0
 19 20  1  0  0  0
 19 24  1  0  0  0
 20 21  2  0  0  0
 20108  1  0  0  0
 21 23  1  0  0  0
 22 28  1  0  0  0
 22 32  2  0  0  0
 26 27  1  0  0  0
 28109  1  0  0  0
 28110  1  0  0  0
 29111  1  0  0  0
 29112  1  0  0  0
 33 34  1  0  0  0
 33 66  1  0  0  0
 33 70  2  0  0  0
 34 36  1  0  0  0
 34 59  1  0  0  0
 34113  1  0  0  0
 35 44  2  0  0  0
 35 45  1  0  0  0
 35 68  1  0  0  0
 36 56  1  0  0  0
 36114  1  0  0  0
 37 39  1  0  0  0
 37 47  1  0  0  0
 37 66  1  0  0  0
 37115  1  0  0  0
 38 43  2  0  0  0
 38 46  1  0  0  0
 38 47  1  0  0  0
 39 64  1  0  0  0
 39 67  2  0  0  0
 40 52  1  0  0  0
 40 53  2  0  0  0
 40 58  1  0  0  0
 41116  1  0  0  0
 41117  1  0  0  0
 41118  1  0  0  0
 41 48  1  0  0  0
 42 43  1  0  0  0
 42 66  1  0  0  0
 42119  1  0  0  0
 42120  1  0  0  0
 43 44  1  0  0  0
 44121  1  0  0  0
 45 46  2  0  0  0
 45122  1  0  0  0
 46123  1  0  0  0
 47124  1  0  0  0
 47125  1  0  0  0
 48 56  1  0  0  0
 48 65  1  0  0  0
 48126  1  0  0  0
 49 50  1  0  0  0
 49 53  1  0  0  0
 49 64  1  0  0  0
 49127  1  0  0  0
 50 51  1  0  0  0
 50128  1  0  0  0
 50129  1  0  0  0
 51 52  1  0  0  0
 51130  1  0  0  0
 51131  1  0  0  0
 52132  1  0  0  0
 52133  1  0  0  0
 53 54  1  0  0  0
 54 55  2  0  0  0
 54134  1  0  0  0
 55 57  1  0  0  0
 55135  1  0  0  0
 56 69  2  0  0  0
 57 58  2  0  0  0
 57136  1  0  0  0
 58137  1  0  0  0
 59 60  1  0  0  0
 59 61  1  0  0  0
 59 62  1  0  0  0
 60138  1  0  0  0
 60139  1  0  0  0
 60140  1  0  0  0
 61141  1  0  0  0
 61142  1  0  0  0
 61143  1  0  0  0
 62144  1  0  0  0
 62145  1  0  0  0
 62146  1  0  0  0
 63 65  1  0  0  0
 63147  1  0  0  0
 63148  1  0  0  0
 63149  1  0  0  0
 64150  1  0  0  0
 65151  1  0  0  0
 68 82  1  0  0  0
 71 73  2  0  0  0
 71 74  1  0  0  0
 71152  1  0  0  0
 72 75  1  0  0  0
 72 76  2  0  0  0
 72153  1  0  0  0
 73 76  1  0  0  0
 73 81  1  0  0  0
 74 75  2  0  0  0
 74 89  1  0  0  0
 75 87  1  0  0  0
 76 92  1  0  0  0
 77 82  1  0  0  0
 77 88  1  0  0  0
 77 91  2  0  0  0
 78 89  1  0  0  0
 78154  1  0  0  0
 78155  1  0  0  0
 78156  1  0  0  0
 79157  1  0  0  0
 79158  1  0  0  0
 79159  1  0  0  0
 79 90  1  0  0  0
 80 90  1  0  0  0
 80160  1  0  0  0
 80161  1  0  0  0
 80162  1  0  0  0
 81 88  1  0  0  0
 81163  1  0  0  0
 81164  1  0  0  0
 82165  1  0  0  0
 82166  1  0  0  0
 83 84  1  0  0  0
 83 85  1  0  0  0
 83167  1  0  0  0
 83168  1  0  0  0
 84 86  1  0  0  0
 84169  1  0  0  0
 84170  1  0  0  0
 85 89  1  0  0  0
 85171  1  0  0  0
 85172  1  0  0  0
 86 90  1  0  0  0
 86173  1  0  0  0
 86174  1  0  0  0
 87175  1  0  0  0
 88176  1  0  0  0
 90177  1  0  0  0
M  CHG  1  90   1
M  ISO  4   1 100  68 101  82 101  87 100
M  END
> <chiral flag>
0

> <version>
0

> <s_m_source_file>
/data/baiqing/PycharmProjects/Reinvent-master-3.2/result/LINK_invent/BTK/process_docking_weight1_custom_sum_contain_oxygen_bond_distance_aromatic_linkinvent_7_9_3/rearranged_h_0012.sdf

> <i_m_source_file_index>
92

> <r_mmod_Potential_Energy-OPLS-2005>
-167.676773071289

> <r_mmod_Stretch_Energy-OPLS-2005>
86.5403366088867

> <r_mmod_Bend_Energy-OPLS-2005>
147.636810302734

> <r_mmod_Torsional_Energy-OPLS-2005>
252.469512939453

> <r_mmod_Improper_Torsional_Energy-OPLS-2005>
7.8576545715332

> <r_mmod_Van_der_Waal_Energy-OPLS-2005>
138.804840087891

> <r_mmod_Electrostatic_Energy-OPLS-2005>
-330.802001953125

> <r_mmod_Solvation_Energy-OPLS-2005>
-522.708312988281

> <b_mmod_Minimization_Converged-OPLS-2005>
0

> <r_mmod_RMS_Derivative-OPLS-2005>
0.838792204856873

$$$$
93
                    3D
 Structure written by MMmdl.
143150  0  0  1  0            999 V2000
  -30.1636  -16.0165   20.2837 C   0  0  0  0  0  0
  -30.4021  -13.3807   19.5097 C   0  0  0  0  0  0
  -29.5672  -12.7447   18.3499 C   0  0  0  0  0  0
  -28.1808  -12.2975   18.8321 C   0  0  0  0  0  0
  -27.5888  -13.3376   19.8001 C   0  0  2  0  0  0
  -28.5861  -13.8471   20.8777 C   0  0  0  0  0  0
  -25.2337  -13.8308   20.5832 C   0  0  0  0  0  0
  -24.1745  -13.0427   20.9297 C   0  0  0  0  0  0
  -24.6485  -11.6955   20.8763 C   0  0  0  0  0  0
  -23.9183  -10.4297   21.0405 C   0  0  0  0  0  0
  -24.3690   -9.4205   21.9200 C   0  0  0  0  0  0
  -23.6323   -8.2263   22.0773 C   0  0  0  0  0  0
  -22.4301   -8.0322   21.3557 C   0  0  0  0  0  0
  -21.9971   -9.0311   20.4658 C   0  0  0  0  0  0
  -22.7347  -10.2160   20.3056 C   0  0  0  0  0  0
  -21.6865   -6.0767   22.5277 C   0  0  0  0  0  0
  -21.4023   -6.5660   23.8211 C   0  0  0  0  0  0
  -21.3650   -5.6801   24.9170 C   0  0  0  0  0  0
  -21.6034   -4.3069   24.7210 C   0  0  0  0  0  0
  -21.8818   -3.8167   23.4328 C   0  0  0  0  0  0
  -21.9194   -4.6989   22.3390 C   0  0  0  0  0  0
  -22.7748  -13.5156   21.1899 C   0  0  0  0  0  0
  -22.1667   -4.2180   21.0968 F   0  0  0  0  0  0
  -21.5617   -3.4544   25.7721 F   0  0  0  0  0  0
  -29.6793  -14.5908   20.1704 N   0  0  0  0  0  0
  -26.2827  -12.9698   20.3296 N   0  0  0  0  0  0
  -25.9450  -11.6736   20.5678 N   0  0  0  0  0  0
  -22.0376  -12.8144   22.0431 N   0  0  0  0  0  0
  -25.3914  -15.2038   20.4227 N   0  0  0  0  0  0
  -31.4110  -15.8730   20.3150 O   0  0  0  0  0  0
  -21.6650   -6.8922   21.4243 O   0  0  0  0  0  0
  -22.3446  -14.5464   20.6738 O   0  0  0  0  0  0
  -24.7056  -31.7721   23.1279 C   0  0  0  0  0  0
  -25.9532  -32.4316   23.7901 C   0  0  1  0  0  0
  -27.2397  -26.4470   20.2423 C   0  0  0  0  0  0
  -25.6018  -33.8158   24.1777 N   0  0  0  0  0  0
  -23.5424  -30.3631   21.4905 C   0  0  2  0  0  0
  -25.0002  -28.6446   20.1351 C   0  0  0  0  0  0
  -22.7854  -29.4187   22.4644 C   0  0  0  0  0  0
  -18.0371  -28.1416   22.8423 C   0  0  0  0  0  0
  -24.1517  -36.7085   23.2660 C   0  0  0  0  0  0
  -26.1337  -30.4200   21.4327 C   0  0  0  0  0  0
  -26.1981  -28.9547   20.7902 C   0  0  0  0  0  0
  -27.2916  -27.8963   20.7967 C   0  0  0  0  0  0
  -26.0015  -26.4115   19.5305 C   0  0  0  0  0  0
  -24.9557  -27.3989   19.4822 C   0  0  0  0  0  0
  -23.8105  -29.6337   20.1397 C   0  0  0  0  0  0
  -25.4171  -36.2793   24.0256 C   0  0  1  0  0  0
  -20.6014  -28.3800   23.1070 C   0  0  2  0  0  0
  -20.6839  -26.9442   22.5381 C   0  0  0  0  0  0
  -19.5827  -26.6358   21.5191 C   0  0  0  0  0  0
  -18.2003  -26.7940   22.1583 C   0  0  0  0  0  0
  -19.1638  -28.8931   23.2716 C   0  0  0  0  0  0
  -18.9548  -30.1508   23.8772 C   0  0  0  0  0  0
  -17.6539  -30.6592   24.0541 C   0  0  0  0  0  0
  -25.9163  -34.9196   23.4875 C   0  0  0  0  0  0
  -16.5425  -29.9075   23.6350 C   0  0  0  0  0  0
  -16.7348  -28.6498   23.0359 C   0  0  0  0  0  0
  -26.4636  -31.6450   25.0620 C   0  0  0  0  0  0
  -25.3610  -31.3840   26.1159 C   0  0  0  0  0  0
  -27.0610  -30.2754   24.6715 C   0  0  0  0  0  0
  -27.6057  -32.4362   25.7419 C   0  0  0  0  0  0
  -27.5566  -37.1691   24.8469 C   0  0  0  0  0  0
  -21.4482  -29.3015   22.3371 N   0  0  0  0  0  0
  -26.4271  -37.3581   23.9410 N   0  0  0  0  0  0
  -24.8204  -30.8911   22.0685 N   0  0  0  0  0  0
  -23.4189  -28.7845   23.3110 O   0  0  0  0  0  0
  -28.2103  -25.1382   20.2091 O   0  0  0  0  0  0
  -26.5834  -34.8827   22.4520 O   0  0  0  0  0  0
  -23.6030  -32.0923   23.6086 O   0  0  0  0  0  0
  -28.1464  -17.3478   19.4672 C   0  0  0  0  0  0
  -28.8124  -21.3013   19.9737 C   0  0  0  0  0  0
  -29.3809  -19.3622   20.5689 C   0  0  0  0  0  0
  -28.2518  -23.2636   20.5080 C   0  0  0  0  0  0
  -29.4090  -17.4905   20.1879 N   0  0  0  0  0  0
  -31.3491  -13.7206   19.0871 H   0  0  0  0  0  0
  -30.6891  -12.6298   20.2484 H   0  0  0  0  0  0
  -30.1007  -11.9032   17.9056 H   0  0  0  0  0  0
  -29.4507  -13.4882   17.5599 H   0  0  0  0  0  0
  -28.2969  -11.3475   19.3561 H   0  0  0  0  0  0
  -27.5119  -12.1116   17.9905 H   0  0  0  0  0  0
  -27.3888  -14.1854   19.1460 H   0  0  0  0  0  0
  -28.9521  -13.0395   21.5131 H   0  0  0  0  0  0
  -28.0824  -14.5461   21.5462 H   0  0  0  0  0  0
  -25.2818   -9.5670   22.4811 H   0  0  0  0  0  0
  -24.0006   -7.4646   22.7503 H   0  0  0  0  0  0
  -21.0901   -8.8859   19.8964 H   0  0  0  0  0  0
  -22.3825  -10.9720   19.6176 H   0  0  0  0  0  0
  -21.2033   -7.6171   23.9723 H   0  0  0  0  0  0
  -21.1463   -6.0535   25.9069 H   0  0  0  0  0  0
  -22.0599   -2.7631   23.2819 H   0  0  0  0  0  0
  -22.3953  -11.9803   22.4832 H   0  0  0  0  0  0
  -21.0994  -13.1198   22.2586 H   0  0  0  0  0  0
  -24.6180  -15.8537   20.5135 H   0  0  0  0  0  0
  -26.2365  -15.6377   20.0778 H   0  0  0  0  0  0
  -26.7628  -32.4715   23.0604 H   0  0  0  0  0  0
  -25.0022  -33.9142   24.9835 H   0  0  0  0  0  0
  -22.8827  -31.2078   21.2796 H   0  0  0  0  0  0
  -23.3793  -35.9400   23.3237 H   0  0  0  0  0  0
  -24.3589  -36.8852   22.2098 H   0  0  0  0  0  0
  -23.7284  -37.6231   23.6819 H   0  0  0  0  0  0
  -26.3696  -31.1317   20.6405 H   0  0  0  0  0  0
  -26.9701  -30.4928   22.1139 H   0  0  0  0  0  0
  -28.1969  -28.1645   21.3228 H   0  0  0  0  0  0
  -25.7942  -25.4939   18.9988 H   0  0  0  0  0  0
  -24.0597  -27.1443   18.9321 H   0  0  0  0  0  0
  -24.0068  -30.3831   19.3723 H   0  0  0  0  0  0
  -22.9079  -29.1151   19.8100 H   0  0  0  0  0  0
  -25.1403  -36.1503   25.0741 H   0  0  0  0  0  0
  -21.0074  -28.3462   24.1202 H   0  0  0  0  0  0
  -20.5710  -26.2429   23.3662 H   0  0  0  0  0  0
  -21.6702  -26.7377   22.1213 H   0  0  0  0  0  0
  -19.7002  -25.6243   21.1297 H   0  0  0  0  0  0
  -19.6788  -27.3096   20.6667 H   0  0  0  0  0  0
  -17.4282  -26.6659   21.3976 H   0  0  0  0  0  0
  -18.0400  -26.0087   22.8982 H   0  0  0  0  0  0
  -19.8041  -30.7337   24.2090 H   0  0  0  0  0  0
  -17.5110  -31.6270   24.5154 H   0  0  0  0  0  0
  -15.5426  -30.2945   23.7749 H   0  0  0  0  0  0
  -15.8745  -28.0788   22.7127 H   0  0  0  0  0  0
  -24.5835  -30.7168   25.7404 H   0  0  0  0  0  0
  -24.8745  -32.3083   26.4274 H   0  0  0  0  0  0
  -25.7670  -30.9167   27.0138 H   0  0  0  0  0  0
  -26.3378  -29.6279   24.1734 H   0  0  0  0  0  0
  -27.3964  -29.7306   25.5554 H   0  0  0  0  0  0
  -27.9394  -30.3809   24.0341 H   0  0  0  0  0  0
  -27.2609  -33.3796   26.1651 H   0  0  0  0  0  0
  -28.4001  -32.6704   25.0320 H   0  0  0  0  0  0
  -28.0563  -31.8717   26.5586 H   0  0  0  0  0  0
  -28.2518  -38.0043   24.7519 H   0  0  0  0  0  0
  -28.1127  -36.2561   24.6293 H   0  0  0  0  0  0
  -27.2274  -37.1305   25.8866 H   0  0  0  0  0  0
  -20.9828  -29.8607   21.6350 H   0  0  0  0  0  0
  -26.0066  -38.2612   24.1440 H   0  0  0  0  0  0
  -28.1011  -18.0711   18.6522 H   0  0  0  0  0  0
  -27.3084  -17.5390   20.1372 H   0  0  0  0  0  0
  -28.0019  -16.3666   19.0140 H   0  0  0  0  0  0
  -28.0363  -21.0683   19.2450 H   0  0  0  0  0  0
  -29.6673  -21.5348   19.3396 H   0  0  0  0  0  0
  -28.8748  -19.3113   21.5346 H   0  0  0  0  0  0
  -30.4241  -19.5134   20.8524 H   0  0  0  0  0  0
  -27.2187  -23.1099   20.8199 H   0  0  0  0  0  0
  -28.7962  -23.3194   21.4512 H   0  0  0  0  0  0
  1 25  1  0  0  0
  1 30  2  0  0  0
  1 75  1  0  0  0
  2  3  1  0  0  0
  2 25  1  0  0  0
  2 76  1  0  0  0
  2 77  1  0  0  0
  3  4  1  0  0  0
  3 78  1  0  0  0
  3 79  1  0  0  0
  4  5  1  0  0  0
  4 80  1  0  0  0
  4 81  1  0  0  0
  5  6  1  0  0  0
  5 26  1  0  0  0
  5 82  1  0  0  0
  6 25  1  0  0  0
  6 83  1  0  0  0
  6 84  1  0  0  0
  7  8  2  0  0  0
  7 26  1  0  0  0
  7 29  1  0  0  0
  8  9  1  0  0  0
  8 22  1  0  0  0
  9 10  1  0  0  0
  9 27  2  0  0  0
 10 11  2  0  0  0
 10 15  1  0  0  0
 11 12  1  0  0  0
 11 85  1  0  0  0
 12 13  2  0  0  0
 12 86  1  0  0  0
 13 14  1  0  0  0
 13 31  1  0  0  0
 14 15  2  0  0  0
 14 87  1  0  0  0
 15 88  1  0  0  0
 16 17  2  0  0  0
 16 21  1  0  0  0
 16 31  1  0  0  0
 17 18  1  0  0  0
 17 89  1  0  0  0
 18 19  2  0  0  0
 18 90  1  0  0  0
 19 20  1  0  0  0
 19 24  1  0  0  0
 20 21  2  0  0  0
 20 91  1  0  0  0
 21 23  1  0  0  0
 22 28  1  0  0  0
 22 32  2  0  0  0
 26 27  1  0  0  0
 28 92  1  0  0  0
 28 93  1  0  0  0
 29 94  1  0  0  0
 29 95  1  0  0  0
 33 34  1  0  0  0
 33 66  1  0  0  0
 33 70  2  0  0  0
 34 36  1  0  0  0
 34 59  1  0  0  0
 34 96  1  0  0  0
 35 44  2  0  0  0
 35 45  1  0  0  0
 35 68  1  0  0  0
 36 56  1  0  0  0
 36 97  1  0  0  0
 37 39  1  0  0  0
 37 47  1  0  0  0
 37 66  1  0  0  0
 37 98  1  0  0  0
 38 43  2  0  0  0
 38 46  1  0  0  0
 38 47  1  0  0  0
 39 64  1  0  0  0
 39 67  2  0  0  0
 40 52  1  0  0  0
 40 53  2  0  0  0
 40 58  1  0  0  0
 41 99  1  0  0  0
 41100  1  0  0  0
 41101  1  0  0  0
 41 48  1  0  0  0
 42 43  1  0  0  0
 42 66  1  0  0  0
 42102  1  0  0  0
 42103  1  0  0  0
 43 44  1  0  0  0
 44104  1  0  0  0
 45 46  2  0  0  0
 45105  1  0  0  0
 46106  1  0  0  0
 47107  1  0  0  0
 47108  1  0  0  0
 48 56  1  0  0  0
 48 65  1  0  0  0
 48109  1  0  0  0
 49 50  1  0  0  0
 49 53  1  0  0  0
 49 64  1  0  0  0
 49110  1  0  0  0
 50 51  1  0  0  0
 50111  1  0  0  0
 50112  1  0  0  0
 51 52  1  0  0  0
 51113  1  0  0  0
 51114  1  0  0  0
 52115  1  0  0  0
 52116  1  0  0  0
 53 54  1  0  0  0
 54 55  2  0  0  0
 54117  1  0  0  0
 55 57  1  0  0  0
 55118  1  0  0  0
 56 69  2  0  0  0
 57 58  2  0  0  0
 57119  1  0  0  0
 58120  1  0  0  0
 59 60  1  0  0  0
 59 61  1  0  0  0
 59 62  1  0  0  0
 60121  1  0  0  0
 60122  1  0  0  0
 60123  1  0  0  0
 61124  1  0  0  0
 61125  1  0  0  0
 61126  1  0  0  0
 62127  1  0  0  0
 62128  1  0  0  0
 62129  1  0  0  0
 63 65  1  0  0  0
 63130  1  0  0  0
 63131  1  0  0  0
 63132  1  0  0  0
 64133  1  0  0  0
 65134  1  0  0  0
 68 74  1  0  0  0
 71 75  1  0  0  0
 71135  1  0  0  0
 71136  1  0  0  0
 71137  1  0  0  0
 72 73  1  0  0  0
 72 74  1  0  0  0
 72138  1  0  0  0
 72139  1  0  0  0
 73 75  1  0  0  0
 73140  1  0  0  0
 73141  1  0  0  0
 74142  1  0  0  0
 74143  1  0  0  0
M  ISO  4   1 100  68 101  74 101  75 100
M  END
> <chiral flag>
0

> <version>
0

> <s_m_source_file>
/data/baiqing/PycharmProjects/Reinvent-master-3.2/result/LINK_invent/BTK/process_docking_weight1_custom_sum_contain_oxygen_bond_distance_aromatic_linkinvent_7_9_3/rearranged_h_0012.sdf

> <i_m_source_file_index>
93

> <r_mmod_Potential_Energy-OPLS-2005>
4303.49072265625

> <r_mmod_Stretch_Energy-OPLS-2005>
1937.3203125

> <r_mmod_Bend_Energy-OPLS-2005>
891.069641113281

> <r_mmod_Torsional_Energy-OPLS-2005>
308.0107421875

> <r_mmod_Improper_Torsional_Energy-OPLS-2005>
4.89766931533813

> <r_mmod_Van_der_Waal_Energy-OPLS-2005>
112.25927734375

> <r_mmod_Electrostatic_Energy-OPLS-2005>
-274.442291259766

> <r_mmod_Solvation_Energy-OPLS-2005>
-215.008483886719

> <b_mmod_Minimization_Converged-OPLS-2005>
0

> <r_mmod_RMS_Derivative-OPLS-2005>
2.3036835193634

$$$$
94
                    3D
 Structure written by MMmdl.
175183  0  0  1  0            999 V2000
  -30.5125  -14.9642   20.4052 C   0  0  0  0  0  0
  -30.4407  -12.5892   19.5168 C   0  0  0  0  0  0
  -29.5258  -12.5339   18.2694 C   0  0  0  0  0  0
  -28.0579  -12.3170   18.6809 C   0  0  0  0  0  0
  -27.6314  -13.2475   19.8458 C   0  0  2  0  0  0
  -28.6692  -13.2711   20.9899 C   0  0  0  0  0  0
  -25.2466  -13.8225   20.5716 C   0  0  0  0  0  0
  -24.1780  -13.0446   20.9230 C   0  0  0  0  0  0
  -24.6391  -11.6928   20.8757 C   0  0  0  0  0  0
  -23.9074  -10.4298   21.0410 C   0  0  0  0  0  0
  -24.3624   -9.4211   21.9186 C   0  0  0  0  0  0
  -23.6298   -8.2247   22.0753 C   0  0  0  0  0  0
  -22.4277   -8.0287   21.3545 C   0  0  0  0  0  0
  -21.9920   -9.0260   20.4642 C   0  0  0  0  0  0
  -22.7248  -10.2138   20.3055 C   0  0  0  0  0  0
  -21.6859   -6.0739   22.5277 C   0  0  0  0  0  0
  -21.4015   -6.5642   23.8211 C   0  0  0  0  0  0
  -21.3658   -5.6792   24.9174 C   0  0  0  0  0  0
  -21.6047   -4.3059   24.7225 C   0  0  0  0  0  0
  -21.8818   -3.8147   23.4345 C   0  0  0  0  0  0
  -21.9191   -4.6966   22.3402 C   0  0  0  0  0  0
  -22.7798  -13.5220   21.1883 C   0  0  0  0  0  0
  -22.1662   -4.2152   21.0979 F   0  0  0  0  0  0
  -21.5626   -3.4538   25.7736 F   0  0  0  0  0  0
  -29.9498  -13.6864   20.4039 N   0  0  0  0  0  0
  -26.2883  -12.9449   20.3260 N   0  0  0  0  0  0
  -25.9323  -11.6578   20.5748 N   0  0  0  0  0  0
  -22.0449  -12.8200   22.0432 N   0  0  0  0  0  0
  -25.4148  -15.1954   20.4131 N   0  0  0  0  0  0
  -31.6938  -15.0558   20.0545 O   0  0  0  0  0  0
  -21.6644   -6.8883   21.4240 O   0  0  0  0  0  0
  -22.3477  -14.5523   20.6727 O   0  0  0  0  0  0
  -24.6433  -31.8405   23.1838 C   0  0  0  0  0  0
  -25.9203  -32.4669   23.8233 C   0  0  1  0  0  0
  -27.2219  -27.1151   20.1616 C   0  0  0  0  0  0
  -25.5945  -33.8475   24.2157 N   0  0  0  0  0  0
  -23.4482  -30.4562   21.5287 C   0  0  2  0  0  0
  -24.8997  -28.8747   20.1058 C   0  0  0  0  0  0
  -22.7572  -29.4515   22.4840 C   0  0  0  0  0  0
  -18.0310  -28.1395   22.8464 C   0  0  0  0  0  0
  -24.1502  -36.7251   23.2642 C   0  0  0  0  0  0
  -26.0027  -30.7070   21.3855 C   0  0  0  0  0  0
  -26.0729  -29.3147   20.7306 C   0  0  0  0  0  0
  -27.2283  -28.4475   20.7450 C   0  0  0  0  0  0
  -26.0256  -26.7758   19.4928 C   0  0  0  0  0  0
  -24.8900  -27.6206   19.4712 C   0  0  0  0  0  0
  -23.6759  -29.7791   20.1490 C   0  0  0  0  0  0
  -25.4133  -36.3011   24.0304 C   0  0  1  0  0  0
  -20.5922  -28.3720   23.1226 C   0  0  2  0  0  0
  -20.6797  -26.9416   22.5401 C   0  0  0  0  0  0
  -19.5776  -26.6376   21.5207 C   0  0  0  0  0  0
  -18.1954  -26.7934   22.1612 C   0  0  0  0  0  0
  -19.1566  -28.8875   23.2839 C   0  0  0  0  0  0
  -18.9484  -30.1477   23.8858 C   0  0  0  0  0  0
  -17.6479  -30.6589   24.0558 C   0  0  0  0  0  0
  -25.9078  -34.9388   23.5041 C   0  0  0  0  0  0
  -16.5369  -29.9077   23.6339 C   0  0  0  0  0  0
  -16.7297  -28.6502   23.0334 C   0  0  0  0  0  0
  -26.4523  -31.6543   25.0685 C   0  0  0  0  0  0
  -25.3692  -31.3731   26.1366 C   0  0  0  0  0  0
  -27.0399  -30.2938   24.6285 C   0  0  0  0  0  0
  -27.6053  -32.4313   25.7468 C   0  0  0  0  0  0
  -27.5580  -37.1781   24.8464 C   0  0  0  0  0  0
  -21.4262  -29.3038   22.3596 N   0  0  0  0  0  0
  -26.4296  -37.3721   23.9398 N   0  0  0  0  0  0
  -24.7177  -31.0237   22.0881 N   0  0  0  0  0  0
  -23.4213  -28.8064   23.2998 O   0  0  0  0  0  0
  -28.2920  -26.1539   20.2929 O   0  0  0  0  0  0
  -26.5678  -34.8899   22.4628 O   0  0  0  0  0  0
  -23.5550  -32.1283   23.7055 O   0  0  0  0  0  0
  -29.5695  -19.0885   20.6431 C   0  0  0  0  0  0
  -26.3678  -18.7527   22.9407 C   0  0  0  0  0  0
  -26.7632  -19.3253   24.3096 C   0  0  0  0  0  0
  -26.1564  -19.9613   22.0196 C   0  0  0  0  0  0
  -26.6432  -20.8477   24.1773 C   0  0  0  0  0  0
  -26.9053  -21.1257   22.6876 C   0  0  0  0  0  0
  -30.6660  -22.0285   21.0073 C   0  0  0  0  0  0
  -28.3199  -20.0710   18.7729 C   0  0  0  0  0  0
  -26.6966  -23.5824   23.1448 C   0  0  0  0  0  0
  -29.6990  -17.5790   19.9390 C   0  0  0  0  0  0
  -26.8655  -22.7705   20.7903 C   0  0  0  0  0  0
  -28.3823  -24.6818   19.7641 C   0  0  0  0  0  0
  -28.3530  -23.1818   20.5732 C   0  0  2  0  0  0
  -29.3753  -21.8603   20.1814 C   0  0  2  0  0  0
  -29.7029  -16.1227   20.5818 N   0  0  0  0  0  0
  -29.0559  -20.2882   20.0213 N   0  0  0  0  0  0
  -26.4603  -22.4613   22.1968 N   0  3  1  0  0  0
  -30.0281  -19.1596   21.7840 O   0  0  0  0  0  0
  -31.4758  -12.7435   19.2087 H   0  0  0  0  0  0
  -30.4311  -11.6347   20.0457 H   0  0  0  0  0  0
  -29.8477  -11.7389   17.5950 H   0  0  0  0  0  0
  -29.6139  -13.4657   17.7084 H   0  0  0  0  0  0
  -27.9527  -11.2748   18.9856 H   0  0  0  0  0  0
  -27.3971  -12.4506   17.8236 H   0  0  0  0  0  0
  -27.5976  -14.2505   19.4192 H   0  0  0  0  0  0
  -28.7526  -12.2933   21.4660 H   0  0  0  0  0  0
  -28.3630  -13.9693   21.7705 H   0  0  0  0  0  0
  -25.2768   -9.5691   22.4762 H   0  0  0  0  0  0
  -24.0007   -7.4639   22.7475 H   0  0  0  0  0  0
  -21.0851   -8.8780   19.8946 H   0  0  0  0  0  0
  -22.3708  -10.9678   19.6166 H   0  0  0  0  0  0
  -21.2012   -7.6149   23.9717 H   0  0  0  0  0  0
  -21.1480   -6.0523   25.9078 H   0  0  0  0  0  0
  -22.0599   -2.7609   23.2845 H   0  0  0  0  0  0
  -22.4070  -11.9860   22.4815 H   0  0  0  0  0  0
  -21.1062  -13.1211   22.2635 H   0  0  0  0  0  0
  -24.6432  -15.8450   20.5177 H   0  0  0  0  0  0
  -26.2520  -15.6309   20.0502 H   0  0  0  0  0  0
  -26.7267  -32.5277   23.0958 H   0  0  0  0  0  0
  -25.0040  -33.9578   25.0268 H   0  0  0  0  0  0
  -22.7512  -31.2824   21.3716 H   0  0  0  0  0  0
  -23.3758  -35.9587   23.3286 H   0  0  0  0  0  0
  -24.3581  -36.8908   22.2062 H   0  0  0  0  0  0
  -23.7274  -37.6443   23.6701 H   0  0  0  0  0  0
  -26.1582  -31.4584   20.6105 H   0  0  0  0  0  0
  -26.8731  -30.7606   22.0276 H   0  0  0  0  0  0
  -28.1180  -28.7745   21.2655 H   0  0  0  0  0  0
  -25.9306  -25.8120   19.0173 H   0  0  0  0  0  0
  -23.9930  -27.2785   18.9721 H   0  0  0  0  0  0
  -23.8102  -30.5508   19.3908 H   0  0  0  0  0  0
  -22.7908  -29.2185   19.8411 H   0  0  0  0  0  0
  -25.1328  -36.1822   25.0795 H   0  0  0  0  0  0
  -21.0018  -28.3322   24.1342 H   0  0  0  0  0  0
  -20.5693  -26.2329   23.3624 H   0  0  0  0  0  0
  -21.6661  -26.7421   22.1197 H   0  0  0  0  0  0
  -19.6933  -25.6276   21.1252 H   0  0  0  0  0  0
  -19.6719  -27.3172   20.6725 H   0  0  0  0  0  0
  -17.4223  -26.6670   21.4021 H   0  0  0  0  0  0
  -18.0359  -26.0085   22.9021 H   0  0  0  0  0  0
  -19.7957  -30.7310   24.2195 H   0  0  0  0  0  0
  -17.5024  -31.6258   24.5176 H   0  0  0  0  0  0
  -15.5365  -30.2958   23.7688 H   0  0  0  0  0  0
  -15.8699  -28.0829   22.7033 H   0  0  0  0  0  0
  -24.5891  -30.7063   25.7673 H   0  0  0  0  0  0
  -24.8855  -32.2913   26.4713 H   0  0  0  0  0  0
  -25.7959  -30.8949   27.0192 H   0  0  0  0  0  0
  -26.3020  -29.6642   24.1307 H   0  0  0  0  0  0
  -27.4020  -29.7258   25.4863 H   0  0  0  0  0  0
  -27.8922  -30.4168   23.9597 H   0  0  0  0  0  0
  -27.2651  -33.3644   26.1972 H   0  0  0  0  0  0
  -28.3901  -32.6824   25.0319 H   0  0  0  0  0  0
  -28.0676  -31.8480   26.5439 H   0  0  0  0  0  0
  -28.2577  -38.0098   24.7506 H   0  0  0  0  0  0
  -28.1100  -36.2621   24.6299 H   0  0  0  0  0  0
  -27.2293  -37.1430   25.8866 H   0  0  0  0  0  0
  -20.9472  -29.8737   21.6763 H   0  0  0  0  0  0
  -26.0157  -38.2784   24.1398 H   0  0  0  0  0  0
  -25.4627  -18.1463   22.9999 H   0  0  0  0  0  0
  -27.1634  -18.1091   22.5615 H   0  0  0  0  0  0
  -27.7966  -19.0534   24.5313 H   0  0  0  0  0  0
  -26.1457  -18.9337   25.1194 H   0  0  0  0  0  0
  -25.0886  -20.1815   21.9661 H   0  0  0  0  0  0
  -26.4888  -19.7585   21.0038 H   0  0  0  0  0  0
  -27.3402  -21.3651   24.8365 H   0  0  0  0  0  0
  -25.6327  -21.1537   24.4540 H   0  0  0  0  0  0
  -27.9782  -21.0235   22.5223 H   0  0  0  0  0  0
  -31.0535  -23.0457   20.9365 H   0  0  0  0  0  0
  -31.4569  -21.3648   20.6572 H   0  0  0  0  0  0
  -30.4972  -21.8143   22.0628 H   0  0  0  0  0  0
  -27.5199  -19.3408   18.9017 H   0  0  0  0  0  0
  -28.9890  -19.7130   17.9898 H   0  0  0  0  0  0
  -27.8493  -20.9820   18.4022 H   0  0  0  0  0  0
  -26.0556  -23.4917   24.0214 H   0  0  0  0  0  0
  -26.4695  -24.5461   22.6875 H   0  0  0  0  0  0
  -27.7281  -23.6074   23.4967 H   0  0  0  0  0  0
  -30.6110  -17.6388   19.3437 H   0  0  0  0  0  0
  -28.9051  -17.5224   19.1963 H   0  0  0  0  0  0
  -26.2222  -23.5923   20.4743 H   0  0  0  0  0  0
  -26.5943  -21.9513   20.1270 H   0  0  0  0  0  0
  -27.7333  -24.5970   18.8936 H   0  0  0  0  0  0
  -29.3740  -24.6921   19.3124 H   0  0  0  0  0  0
  -28.7360  -23.4865   21.5435 H   0  0  0  0  0  0
  -29.6969  -22.1179   19.1710 H   0  0  0  0  0  0
  -28.8113  -15.8911   20.9927 H   0  0  0  0  0  0
  -25.4529  -22.3962   22.1542 H   0  0  0  0  0  0
  1 25  1  0  0  0
  1 30  2  0  0  0
  1 85  1  0  0  0
  2  3  1  0  0  0
  2 25  1  0  0  0
  2 89  1  0  0  0
  2 90  1  0  0  0
  3  4  1  0  0  0
  3 91  1  0  0  0
  3 92  1  0  0  0
  4  5  1  0  0  0
  4 93  1  0  0  0
  4 94  1  0  0  0
  5  6  1  0  0  0
  5 26  1  0  0  0
  5 95  1  0  0  0
  6 25  1  0  0  0
  6 96  1  0  0  0
  6 97  1  0  0  0
  7  8  2  0  0  0
  7 26  1  0  0  0
  7 29  1  0  0  0
  8  9  1  0  0  0
  8 22  1  0  0  0
  9 10  1  0  0  0
  9 27  2  0  0  0
 10 11  2  0  0  0
 10 15  1  0  0  0
 11 12  1  0  0  0
 11 98  1  0  0  0
 12 13  2  0  0  0
 12 99  1  0  0  0
 13 14  1  0  0  0
 13 31  1  0  0  0
 14 15  2  0  0  0
 14100  1  0  0  0
 15101  1  0  0  0
 16 17  2  0  0  0
 16 21  1  0  0  0
 16 31  1  0  0  0
 17 18  1  0  0  0
 17102  1  0  0  0
 18 19  2  0  0  0
 18103  1  0  0  0
 19 20  1  0  0  0
 19 24  1  0  0  0
 20 21  2  0  0  0
 20104  1  0  0  0
 21 23  1  0  0  0
 22 28  1  0  0  0
 22 32  2  0  0  0
 26 27  1  0  0  0
 28105  1  0  0  0
 28106  1  0  0  0
 29107  1  0  0  0
 29108  1  0  0  0
 33 34  1  0  0  0
 33 66  1  0  0  0
 33 70  2  0  0  0
 34 36  1  0  0  0
 34 59  1  0  0  0
 34109  1  0  0  0
 35 44  2  0  0  0
 35 45  1  0  0  0
 35 68  1  0  0  0
 36 56  1  0  0  0
 36110  1  0  0  0
 37 39  1  0  0  0
 37 47  1  0  0  0
 37 66  1  0  0  0
 37111  1  0  0  0
 38 43  2  0  0  0
 38 46  1  0  0  0
 38 47  1  0  0  0
 39 64  1  0  0  0
 39 67  2  0  0  0
 40 52  1  0  0  0
 40 53  2  0  0  0
 40 58  1  0  0  0
 41112  1  0  0  0
 41113  1  0  0  0
 41114  1  0  0  0
 41 48  1  0  0  0
 42 43  1  0  0  0
 42 66  1  0  0  0
 42115  1  0  0  0
 42116  1  0  0  0
 43 44  1  0  0  0
 44117  1  0  0  0
 45 46  2  0  0  0
 45118  1  0  0  0
 46119  1  0  0  0
 47120  1  0  0  0
 47121  1  0  0  0
 48 56  1  0  0  0
 48 65  1  0  0  0
 48122  1  0  0  0
 49 50  1  0  0  0
 49 53  1  0  0  0
 49 64  1  0  0  0
 49123  1  0  0  0
 50 51  1  0  0  0
 50124  1  0  0  0
 50125  1  0  0  0
 51 52  1  0  0  0
 51126  1  0  0  0
 51127  1  0  0  0
 52128  1  0  0  0
 52129  1  0  0  0
 53 54  1  0  0  0
 54 55  2  0  0  0
 54130  1  0  0  0
 55 57  1  0  0  0
 55131  1  0  0  0
 56 69  2  0  0  0
 57 58  2  0  0  0
 57132  1  0  0  0
 58133  1  0  0  0
 59 60  1  0  0  0
 59 61  1  0  0  0
 59 62  1  0  0  0
 60134  1  0  0  0
 60135  1  0  0  0
 60136  1  0  0  0
 61137  1  0  0  0
 61138  1  0  0  0
 61139  1  0  0  0
 62140  1  0  0  0
 62141  1  0  0  0
 62142  1  0  0  0
 63 65  1  0  0  0
 63143  1  0  0  0
 63144  1  0  0  0
 63145  1  0  0  0
 64146  1  0  0  0
 65147  1  0  0  0
 68 82  1  0  0  0
 71 80  1  0  0  0
 71 86  1  0  0  0
 71 88  2  0  0  0
 72 73  1  0  0  0
 72 74  1  0  0  0
 72148  1  0  0  0
 72149  1  0  0  0
 73 75  1  0  0  0
 73150  1  0  0  0
 73151  1  0  0  0
 74152  1  0  0  0
 74153  1  0  0  0
 74 76  1  0  0  0
 75 76  1  0  0  0
 75154  1  0  0  0
 75155  1  0  0  0
 76 87  1  0  0  0
 76156  1  0  0  0
 77157  1  0  0  0
 77158  1  0  0  0
 77159  1  0  0  0
 77 84  1  0  0  0
 78 86  1  0  0  0
 78160  1  0  0  0
 78161  1  0  0  0
 78162  1  0  0  0
 79163  1  0  0  0
 79164  1  0  0  0
 79165  1  0  0  0
 79 87  1  0  0  0
 80 85  1  0  0  0
 80166  1  0  0  0
 80167  1  0  0  0
 81 87  1  0  0  0
 81168  1  0  0  0
 81169  1  0  0  0
 81 83  1  0  0  0
 82 83  1  0  0  0
 82170  1  0  0  0
 82171  1  0  0  0
 83 84  1  0  0  0
 83172  1  0  0  0
 84 86  1  0  0  0
 84173  1  0  0  0
 85174  1  0  0  0
 87175  1  0  0  0
M  CHG  1  87   1
M  ISO  4   1 100  68 101  82 101  85 100
M  END
> <chiral flag>
0

> <version>
0

> <s_m_source_file>
/data/baiqing/PycharmProjects/Reinvent-master-3.2/result/LINK_invent/BTK/process_docking_weight1_custom_sum_contain_oxygen_bond_distance_aromatic_linkinvent_7_9_3/rearranged_h_0012.sdf

> <i_m_source_file_index>
94

> <r_mmod_Potential_Energy-OPLS-2005>
607.242736816406

> <r_mmod_Stretch_Energy-OPLS-2005>
311.172180175781

> <r_mmod_Bend_Energy-OPLS-2005>
368.805847167969

> <r_mmod_Torsional_Energy-OPLS-2005>
349.953033447266

> <r_mmod_Improper_Torsional_Energy-OPLS-2005>
7.27789688110352

> <r_mmod_Van_der_Waal_Energy-OPLS-2005>
99.5060195922852

> <r_mmod_Electrostatic_Energy-OPLS-2005>
-284.735168457031

> <r_mmod_Solvation_Energy-OPLS-2005>
-452.260223388672

> <b_mmod_Minimization_Converged-OPLS-2005>
0

> <r_mmod_RMS_Derivative-OPLS-2005>
1.22349727153778

$$$$
