0
                    3D
 Structure written by MMmdl.
165173  0  0  1  0            999 V2000
  -30.6507  -14.5488   20.5129 C   0  0  0  0  0  0
  -30.4298  -12.3338   19.4451 C   0  0  0  0  0  0
  -29.5027  -12.5027   18.2202 C   0  0  0  0  0  0
  -28.0243  -12.3541   18.6314 C   0  0  0  0  0  0
  -27.6604  -13.2079   19.8754 C   0  0  2  0  0  0
  -28.7028  -13.0203   21.0033 C   0  0  0  0  0  0
  -25.2577  -13.8154   20.5692 C   0  0  0  0  0  0
  -24.1830  -13.0432   20.9181 C   0  0  0  0  0  0
  -24.6388  -11.6899   20.8743 C   0  0  0  0  0  0
  -23.9058  -10.4284   21.0411 C   0  0  0  0  0  0
  -24.3615   -9.4194   21.9184 C   0  0  0  0  0  0
  -23.6286   -8.2232   22.0757 C   0  0  0  0  0  0
  -22.4268   -8.0275   21.3546 C   0  0  0  0  0  0
  -21.9906   -9.0249   20.4647 C   0  0  0  0  0  0
  -22.7236  -10.2126   20.3054 C   0  0  0  0  0  0
  -21.6851   -6.0730   22.5283 C   0  0  0  0  0  0
  -21.4014   -6.5640   23.8216 C   0  0  0  0  0  0
  -21.3649   -5.6796   24.9179 C   0  0  0  0  0  0
  -21.6037   -4.3060   24.7227 C   0  0  0  0  0  0
  -21.8817   -3.8145   23.4352 C   0  0  0  0  0  0
  -21.9191   -4.6958   22.3407 C   0  0  0  0  0  0
  -22.7853  -13.5224   21.1847 C   0  0  0  0  0  0
  -22.1663   -4.2140   21.0987 F   0  0  0  0  0  0
  -21.5620   -3.4544   25.7740 F   0  0  0  0  0  0
  -30.0312  -13.3346   20.4508 N   0  0  0  0  0  0
  -26.3016  -12.9326   20.3365 N   0  0  0  0  0  0
  -25.9317  -11.6488   20.5778 N   0  0  0  0  0  0
  -22.0506  -12.8209   22.0406 N   0  0  0  0  0  0
  -25.4289  -15.1876   20.4108 N   0  0  0  0  0  0
  -31.7852  -14.7392   20.0666 O   0  0  0  0  0  0
  -21.6634   -6.8872   21.4243 O   0  0  0  0  0  0
  -22.3533  -14.5533   20.6703 O   0  0  0  0  0  0
  -24.6195  -31.8639   23.2069 C   0  0  0  0  0  0
  -25.9068  -32.4798   23.8380 C   0  0  1  0  0  0
  -27.2294  -27.3778   20.1016 C   0  0  0  0  0  0
  -25.5902  -33.8598   24.2304 N   0  0  0  0  0  0
  -23.4103  -30.4879   21.5481 C   0  0  2  0  0  0
  -24.8555  -28.9498   20.1106 C   0  0  0  0  0  0
  -22.7438  -29.4639   22.4965 C   0  0  0  0  0  0
  -18.0278  -28.1380   22.8488 C   0  0  0  0  0  0
  -24.1488  -36.7313   23.2637 C   0  0  0  0  0  0
  -25.9453  -30.8114   21.3698 C   0  0  0  0  0  0
  -26.0191  -29.4429   20.7132 C   0  0  0  0  0  0
  -27.2062  -28.6653   20.7039 C   0  0  0  0  0  0
  -26.0466  -26.9256   19.4703 C   0  0  0  0  0  0
  -24.8675  -27.6935   19.4841 C   0  0  0  0  0  0
  -23.6209  -29.8225   20.1623 C   0  0  0  0  0  0
  -25.4109  -36.3099   24.0333 C   0  0  1  0  0  0
  -20.5870  -28.3674   23.1301 C   0  0  2  0  0  0
  -20.6764  -26.9404   22.5413 C   0  0  0  0  0  0
  -19.5745  -26.6383   21.5208 C   0  0  0  0  0  0
  -18.1925  -26.7927   22.1621 C   0  0  0  0  0  0
  -19.1528  -28.8844   23.2891 C   0  0  0  0  0  0
  -18.9452  -30.1448   23.8903 C   0  0  0  0  0  0
  -17.6454  -30.6585   24.0564 C   0  0  0  0  0  0
  -25.9041  -34.9464   23.5120 C   0  0  0  0  0  0
  -16.5346  -29.9086   23.6325 C   0  0  0  0  0  0
  -16.7267  -28.6503   23.0344 C   0  0  0  0  0  0
  -26.4475  -31.6589   25.0728 C   0  0  0  0  0  0
  -25.3729  -31.3708   26.1471 C   0  0  0  0  0  0
  -27.0301  -30.3019   24.6140 C   0  0  0  0  0  0
  -27.6044  -32.4315   25.7494 C   0  0  0  0  0  0
  -27.5585  -37.1805   24.8460 C   0  0  0  0  0  0
  -21.4159  -29.3037   22.3707 N   0  0  0  0  0  0
  -26.4292  -37.3788   23.9412 N   0  0  0  0  0  0
  -24.6769  -31.0698   22.0993 N   0  0  0  0  0  0
  -23.4189  -28.8182   23.3025 O   0  0  0  0  0  0
  -28.3858  -26.6033   20.1513 O   0  0  0  0  0  0
  -26.5611  -34.8921   22.4687 O   0  0  0  0  0  0
  -23.5373  -32.1415   23.7430 O   0  0  0  0  0  0
  -29.9543  -21.9666   21.7645 C   0  0  0  0  0  0
  -30.6880  -22.4848   22.8833 C   0  0  0  0  0  0
  -29.8691  -20.6006   22.0491 C   0  0  0  0  0  0
  -31.2841  -23.8434   23.1378 C   0  0  0  0  0  0
  -28.6221  -19.3493   24.8723 C   0  0  0  0  0  0
  -29.4090  -22.7909   20.5735 C   0  0  0  0  0  0
  -29.3652  -19.3889   21.2547 C   0  0  0  0  0  0
  -29.2742  -24.3446   20.8210 C   0  0  0  0  0  0
  -30.3247  -18.1376   21.1349 C   0  0  0  0  0  0
  -30.0657  -19.4022   24.3560 C   0  0  0  0  0  0
  -29.8200  -16.9445   20.2563 C   0  0  0  0  0  0
  -28.3110  -25.1654   19.9097 C   0  0  0  0  0  0
  -30.7990  -21.6068   23.8539 N   0  0  0  0  0  0
  -30.2430  -20.4790   23.3873 N   0  0  0  0  0  0
  -29.8489  -15.5842   20.8632 N   0  0  0  0  0  0
  -31.4749  -12.4363   19.1487 H   0  0  0  0  0  0
  -30.3365  -11.3293   19.8596 H   0  0  0  0  0  0
  -29.7520  -11.7692   17.4517 H   0  0  0  0  0  0
  -29.6607  -13.4839   17.7692 H   0  0  0  0  0  0
  -27.8474  -11.2996   18.8457 H   0  0  0  0  0  0
  -27.3710  -12.6077   17.7960 H   0  0  0  0  0  0
  -27.6926  -14.2498   19.5565 H   0  0  0  0  0  0
  -28.6895  -11.9925   21.3683 H   0  0  0  0  0  0
  -28.4623  -13.6419   21.8673 H   0  0  0  0  0  0
  -25.2765   -9.5660   22.4751 H   0  0  0  0  0  0
  -23.9987   -7.4620   22.7482 H   0  0  0  0  0  0
  -21.0835   -8.8771   19.8952 H   0  0  0  0  0  0
  -22.3706  -10.9664   19.6158 H   0  0  0  0  0  0
  -21.2021   -7.6153   23.9716 H   0  0  0  0  0  0
  -21.1469   -6.0532   25.9081 H   0  0  0  0  0  0
  -22.0605   -2.7606   23.2862 H   0  0  0  0  0  0
  -22.4145  -11.9868   22.4773 H   0  0  0  0  0  0
  -21.1123  -13.1215   22.2642 H   0  0  0  0  0  0
  -24.6588  -15.8393   20.5133 H   0  0  0  0  0  0
  -26.2776  -15.6282   20.0811 H   0  0  0  0  0  0
  -26.7138  -32.5488   23.1138 H   0  0  0  0  0  0
  -25.0036  -33.9751   25.0437 H   0  0  0  0  0  0
  -22.7013  -31.3065   21.4078 H   0  0  0  0  0  0
  -23.3746  -35.9648   23.3291 H   0  0  0  0  0  0
  -24.3588  -36.8939   22.2054 H   0  0  0  0  0  0
  -23.7240  -37.6513   23.6662 H   0  0  0  0  0  0
  -26.0678  -31.5764   20.6018 H   0  0  0  0  0  0
  -26.8297  -30.8607   21.9937 H   0  0  0  0  0  0
  -28.1015  -29.0400   21.1800 H   0  0  0  0  0  0
  -26.0078  -25.9774   18.9553 H   0  0  0  0  0  0
  -23.9763  -27.3132   19.0038 H   0  0  0  0  0  0
  -23.7338  -30.5987   19.4042 H   0  0  0  0  0  0
  -22.7431  -29.2461   19.8643 H   0  0  0  0  0  0
  -25.1283  -36.1960   25.0824 H   0  0  0  0  0  0
  -20.9961  -28.3239   24.1423 H   0  0  0  0  0  0
  -20.5657  -26.2281   23.3605 H   0  0  0  0  0  0
  -21.6635  -26.7440   22.1211 H   0  0  0  0  0  0
  -19.6906  -25.6295   21.1234 H   0  0  0  0  0  0
  -19.6685  -27.3193   20.6738 H   0  0  0  0  0  0
  -17.4194  -26.6672   21.4024 H   0  0  0  0  0  0
  -18.0332  -26.0069   22.9017 H   0  0  0  0  0  0
  -19.7927  -30.7262   24.2278 H   0  0  0  0  0  0
  -17.5008  -31.6264   24.5166 H   0  0  0  0  0  0
  -15.5346  -30.2989   23.7643 H   0  0  0  0  0  0
  -15.8667  -28.0826   22.7050 H   0  0  0  0  0  0
  -24.5901  -30.7056   25.7809 H   0  0  0  0  0  0
  -24.8922  -32.2864   26.4924 H   0  0  0  0  0  0
  -25.8076  -30.8874   27.0229 H   0  0  0  0  0  0
  -26.2852  -29.6792   24.1172 H   0  0  0  0  0  0
  -27.4017  -29.7254   25.4621 H   0  0  0  0  0  0
  -27.8717  -30.4316   23.9333 H   0  0  0  0  0  0
  -27.2656  -33.3603   26.2098 H   0  0  0  0  0  0
  -28.3840  -32.6894   25.0313 H   0  0  0  0  0  0
  -28.0728  -31.8424   26.5389 H   0  0  0  0  0  0
  -28.2587  -38.0118   24.7526 H   0  0  0  0  0  0
  -28.1096  -36.2649   24.6257 H   0  0  0  0  0  0
  -27.2312  -37.1423   25.8864 H   0  0  0  0  0  0
  -20.9327  -29.8772   21.6935 H   0  0  0  0  0  0
  -26.0178  -38.2863   24.1417 H   0  0  0  0  0  0
  -31.8109  -24.2171   22.2607 H   0  0  0  0  0  0
  -32.0179  -23.8121   23.9436 H   0  0  0  0  0  0
  -30.5274  -24.5713   23.4277 H   0  0  0  0  0  0
  -28.5146  -18.5869   25.6434 H   0  0  0  0  0  0
  -27.9215  -19.1158   24.0710 H   0  0  0  0  0  0
  -28.3261  -20.3049   25.3071 H   0  0  0  0  0  0
  -28.4222  -22.4120   20.3047 H   0  0  0  0  0  0
  -30.0217  -22.6332   19.6851 H   0  0  0  0  0  0
  -29.1127  -19.7212   20.2477 H   0  0  0  0  0  0
  -28.4219  -19.0586   21.6889 H   0  0  0  0  0  0
  -30.2605  -24.8025   20.7643 H   0  0  0  0  0  0
  -28.9115  -24.5007   21.8362 H   0  0  0  0  0  0
  -30.5872  -17.7293   22.1005 H   0  0  0  0  0  0
  -31.2718  -18.4829   20.7181 H   0  0  0  0  0  0
  -30.3621  -18.4439   23.9531 H   0  0  0  0  0  0
  -30.7395  -19.5695   25.1981 H   0  0  0  0  0  0
  -30.3707  -16.9335   19.3137 H   0  0  0  0  0  0
  -28.7844  -17.1303   19.9694 H   0  0  0  0  0  0
  -27.3143  -24.7681   20.0983 H   0  0  0  0  0  0
  -28.5370  -24.9779   18.8594 H   0  0  0  0  0  0
  -28.9805  -15.2932   21.2879 H   0  0  0  0  0  0
  1 25  1  0  0  0
  1 30  2  0  0  0
  1 85  1  0  0  0
  2  3  1  0  0  0
  2 25  1  0  0  0
  2 86  1  0  0  0
  2 87  1  0  0  0
  3  4  1  0  0  0
  3 88  1  0  0  0
  3 89  1  0  0  0
  4  5  1  0  0  0
  4 90  1  0  0  0
  4 91  1  0  0  0
  5  6  1  0  0  0
  5 26  1  0  0  0
  5 92  1  0  0  0
  6 25  1  0  0  0
  6 93  1  0  0  0
  6 94  1  0  0  0
  7  8  2  0  0  0
  7 26  1  0  0  0
  7 29  1  0  0  0
  8  9  1  0  0  0
  8 22  1  0  0  0
  9 10  1  0  0  0
  9 27  2  0  0  0
 10 11  2  0  0  0
 10 15  1  0  0  0
 11 12  1  0  0  0
 11 95  1  0  0  0
 12 13  2  0  0  0
 12 96  1  0  0  0
 13 14  1  0  0  0
 13 31  1  0  0  0
 14 15  2  0  0  0
 14 97  1  0  0  0
 15 98  1  0  0  0
 16 17  2  0  0  0
 16 21  1  0  0  0
 16 31  1  0  0  0
 17 18  1  0  0  0
 17 99  1  0  0  0
 18 19  2  0  0  0
 18100  1  0  0  0
 19 20  1  0  0  0
 19 24  1  0  0  0
 20 21  2  0  0  0
 20101  1  0  0  0
 21 23  1  0  0  0
 22 28  1  0  0  0
 22 32  2  0  0  0
 26 27  1  0  0  0
 28102  1  0  0  0
 28103  1  0  0  0
 29104  1  0  0  0
 29105  1  0  0  0
 33 34  1  0  0  0
 33 66  1  0  0  0
 33 70  2  0  0  0
 34 36  1  0  0  0
 34 59  1  0  0  0
 34106  1  0  0  0
 35 44  2  0  0  0
 35 45  1  0  0  0
 35 68  1  0  0  0
 36 56  1  0  0  0
 36107  1  0  0  0
 37 39  1  0  0  0
 37 47  1  0  0  0
 37 66  1  0  0  0
 37108  1  0  0  0
 38 43  2  0  0  0
 38 46  1  0  0  0
 38 47  1  0  0  0
 39 64  1  0  0  0
 39 67  2  0  0  0
 40 52  1  0  0  0
 40 53  2  0  0  0
 40 58  1  0  0  0
 41109  1  0  0  0
 41110  1  0  0  0
 41111  1  0  0  0
 41 48  1  0  0  0
 42 43  1  0  0  0
 42 66  1  0  0  0
 42112  1  0  0  0
 42113  1  0  0  0
 43 44  1  0  0  0
 44114  1  0  0  0
 45 46  2  0  0  0
 45115  1  0  0  0
 46116  1  0  0  0
 47117  1  0  0  0
 47118  1  0  0  0
 48 56  1  0  0  0
 48 65  1  0  0  0
 48119  1  0  0  0
 49 50  1  0  0  0
 49 53  1  0  0  0
 49 64  1  0  0  0
 49120  1  0  0  0
 50 51  1  0  0  0
 50121  1  0  0  0
 50122  1  0  0  0
 51 52  1  0  0  0
 51123  1  0  0  0
 51124  1  0  0  0
 52125  1  0  0  0
 52126  1  0  0  0
 53 54  1  0  0  0
 54 55  2  0  0  0
 54127  1  0  0  0
 55 57  1  0  0  0
 55128  1  0  0  0
 56 69  2  0  0  0
 57 58  2  0  0  0
 57129  1  0  0  0
 58130  1  0  0  0
 59 60  1  0  0  0
 59 61  1  0  0  0
 59 62  1  0  0  0
 60131  1  0  0  0
 60132  1  0  0  0
 60133  1  0  0  0
 61134  1  0  0  0
 61135  1  0  0  0
 61136  1  0  0  0
 62137  1  0  0  0
 62138  1  0  0  0
 62139  1  0  0  0
 63 65  1  0  0  0
 63140  1  0  0  0
 63141  1  0  0  0
 63142  1  0  0  0
 64143  1  0  0  0
 65144  1  0  0  0
 68 82  1  0  0  0
 71 72  1  0  0  0
 71 73  2  0  0  0
 71 76  1  0  0  0
 72 74  1  0  0  0
 72 83  2  0  0  0
 73 77  1  0  0  0
 73 84  1  0  0  0
 74145  1  0  0  0
 74146  1  0  0  0
 74147  1  0  0  0
 75 80  1  0  0  0
 75148  1  0  0  0
 75149  1  0  0  0
 75150  1  0  0  0
 76 78  1  0  0  0
 76151  1  0  0  0
 76152  1  0  0  0
 77 79  1  0  0  0
 77153  1  0  0  0
 77154  1  0  0  0
 78 82  1  0  0  0
 78155  1  0  0  0
 78156  1  0  0  0
 79 81  1  0  0  0
 79157  1  0  0  0
 79158  1  0  0  0
 80 84  1  0  0  0
 80159  1  0  0  0
 80160  1  0  0  0
 81 85  1  0  0  0
 81161  1  0  0  0
 81162  1  0  0  0
 82163  1  0  0  0
 82164  1  0  0  0
 83 84  1  0  0  0
 85165  1  0  0  0
M  ISO  4   1 100  68 101  82 101  85 100
M  END
> <chiral flag>
0

> <version>
0

> <s_m_source_file>
/data/baiqing/PycharmProjects/Reinvent-master-3.2/result/LINK_invent/BTK/process_docking_weight1_custom_sum_contain_oxygen_bond_distance_aromatic_linkinvent_7_9_3/rearranged_h_0033.sdf

> <i_m_source_file_index>
1

> <r_mmod_Potential_Energy-OPLS-2005>
-38.0010604858398

> <r_mmod_Stretch_Energy-OPLS-2005>
56.8289489746094

> <r_mmod_Bend_Energy-OPLS-2005>
117.940521240234

> <r_mmod_Torsional_Energy-OPLS-2005>
253.729187011719

> <r_mmod_Improper_Torsional_Energy-OPLS-2005>
7.98574686050415

> <r_mmod_Van_der_Waal_Energy-OPLS-2005>
130.326721191406

> <r_mmod_Electrostatic_Energy-OPLS-2005>
-403.67822265625

> <r_mmod_Solvation_Energy-OPLS-2005>
-226.382476806641

> <b_mmod_Minimization_Converged-OPLS-2005>
0

> <r_mmod_RMS_Derivative-OPLS-2005>
0.976476669311523

$$$$
1
                    3D
 Structure written by MMmdl.
155163  0  0  1  0            999 V2000
  -30.6280  -14.6263   20.4915 C   0  0  0  0  0  0
  -30.4203  -12.3854   19.4390 C   0  0  0  0  0  0
  -29.4944  -12.4934   18.2100 C   0  0  0  0  0  0
  -28.0152  -12.3465   18.6218 C   0  0  0  0  0  0
  -27.6402  -13.2205   19.8488 C   0  0  2  0  0  0
  -28.6848  -13.0866   20.9758 C   0  0  0  0  0  0
  -25.2501  -13.8186   20.5659 C   0  0  0  0  0  0
  -24.1785  -13.0443   20.9203 C   0  0  0  0  0  0
  -24.6366  -11.6917   20.8757 C   0  0  0  0  0  0
  -23.9044  -10.4298   21.0412 C   0  0  0  0  0  0
  -24.3605   -9.4212   21.9169 C   0  0  0  0  0  0
  -23.6285   -8.2248   22.0744 C   0  0  0  0  0  0
  -22.4264   -8.0281   21.3550 C   0  0  0  0  0  0
  -21.9898   -9.0249   20.4649 C   0  0  0  0  0  0
  -22.7224  -10.2133   20.3057 C   0  0  0  0  0  0
  -21.6857   -6.0722   22.5274 C   0  0  0  0  0  0
  -21.4018   -6.5631   23.8210 C   0  0  0  0  0  0
  -21.3670   -5.6782   24.9168 C   0  0  0  0  0  0
  -21.6049   -4.3046   24.7217 C   0  0  0  0  0  0
  -21.8825   -3.8137   23.4340 C   0  0  0  0  0  0
  -21.9193   -4.6947   22.3395 C   0  0  0  0  0  0
  -22.7804  -13.5229   21.1849 C   0  0  0  0  0  0
  -22.1652   -4.2140   21.0967 F   0  0  0  0  0  0
  -21.5632   -3.4527   25.7727 F   0  0  0  0  0  0
  -29.9915  -13.4200   20.3980 N   0  0  0  0  0  0
  -26.2907  -12.9363   20.3245 N   0  0  0  0  0  0
  -25.9280  -11.6515   20.5727 N   0  0  0  0  0  0
  -22.0447  -12.8251   22.0436 N   0  0  0  0  0  0
  -25.4203  -15.1907   20.4075 N   0  0  0  0  0  0
  -31.8161  -14.7415   20.1760 O   0  0  0  0  0  0
  -21.6650   -6.8867   21.4240 O   0  0  0  0  0  0
  -22.3483  -14.5512   20.6665 O   0  0  0  0  0  0
  -24.6244  -31.8607   23.2037 C   0  0  0  0  0  0
  -25.9108  -32.4774   23.8359 C   0  0  1  0  0  0
  -27.2145  -27.3254   20.1152 C   0  0  0  0  0  0
  -25.5930  -33.8579   24.2285 N   0  0  0  0  0  0
  -23.4160  -30.4865   21.5443 C   0  0  2  0  0  0
  -24.8573  -28.9384   20.1096 C   0  0  0  0  0  0
  -22.7464  -29.4639   22.4932 C   0  0  0  0  0  0
  -18.0286  -28.1399   22.8487 C   0  0  0  0  0  0
  -24.1486  -36.7303   23.2633 C   0  0  0  0  0  0
  -25.9541  -30.7925   21.3720 C   0  0  0  0  0  0
  -26.0230  -29.4196   20.7164 C   0  0  0  0  0  0
  -27.2002  -28.6199   20.7154 C   0  0  0  0  0  0
  -26.0207  -26.8810   19.5028 C   0  0  0  0  0  0
  -24.8555  -27.6734   19.4982 C   0  0  0  0  0  0
  -23.6300  -29.8247   20.1570 C   0  0  0  0  0  0
  -25.4103  -36.3078   24.0328 C   0  0  1  0  0  0
  -20.5882  -28.3706   23.1285 C   0  0  2  0  0  0
  -20.6779  -26.9437   22.5406 C   0  0  0  0  0  0
  -19.5750  -26.6391   21.5221 C   0  0  0  0  0  0
  -18.1931  -26.7942   22.1627 C   0  0  0  0  0  0
  -19.1536  -28.8866   23.2885 C   0  0  0  0  0  0
  -18.9463  -30.1465   23.8911 C   0  0  0  0  0  0
  -17.6466  -30.6599   24.0576 C   0  0  0  0  0  0
  -25.9051  -34.9454   23.5106 C   0  0  0  0  0  0
  -16.5358  -29.9108   23.6324 C   0  0  0  0  0  0
  -16.7273  -28.6522   23.0346 C   0  0  0  0  0  0
  -26.4498  -31.6582   25.0731 C   0  0  0  0  0  0
  -25.3742  -31.3726   26.1468 C   0  0  0  0  0  0
  -27.0339  -30.3008   24.6167 C   0  0  0  0  0  0
  -27.6055  -32.4317   25.7505 C   0  0  0  0  0  0
  -27.5587  -37.1784   24.8446 C   0  0  0  0  0  0
  -21.4179  -29.3057   22.3677 N   0  0  0  0  0  0
  -26.4268  -37.3785   23.9441 N   0  0  0  0  0  0
  -24.6839  -31.0628   22.0982 N   0  0  0  0  0  0
  -23.4197  -28.8184   23.3013 O   0  0  0  0  0  0
  -28.3604  -26.5255   20.1802 O   0  0  0  0  0  0
  -26.5617  -34.8922   22.4672 O   0  0  0  0  0  0
  -23.5407  -32.1421   23.7363 O   0  0  0  0  0  0
  -28.5600  -18.6709   20.0419 C   0  0  0  0  0  0
  -28.1310  -19.9942   19.7063 C   0  0  0  0  0  0
  -29.7425  -18.4735   20.7938 C   0  0  0  0  0  0
  -28.8946  -21.1263   20.1138 C   0  0  0  0  0  0
  -30.3824  -19.6711   21.2217 C   0  0  0  0  0  0
  -26.8781  -20.1694   18.8605 C   0  0  0  0  0  0
  -30.3940  -17.0814   21.1626 C   0  0  0  0  0  0
  -28.7328  -22.5617   19.4887 C   0  0  0  0  0  0
  -28.3319  -23.8495   20.3277 C   0  0  0  0  0  0
  -28.4712  -25.2144   19.5176 C   0  0  0  0  0  0
  -29.9856  -20.9309   20.8862 N   0  0  0  0  0  0
  -29.8626  -15.7298   20.7748 N   0  0  0  0  0  0
  -31.7940  -19.5808   22.2146 Cl  0  0  0  0  0  0
  -31.4630  -12.5030   19.1375 H   0  0  0  0  0  0
  -30.3462  -11.3954   19.8919 H   0  0  0  0  0  0
  -29.7525  -11.7344   17.4695 H   0  0  0  0  0  0
  -29.6433  -13.4565   17.7200 H   0  0  0  0  0  0
  -27.8390  -11.2949   18.8472 H   0  0  0  0  0  0
  -27.3659  -12.5880   17.7786 H   0  0  0  0  0  0
  -27.6529  -14.2530   19.5000 H   0  0  0  0  0  0
  -28.6976  -12.0687   21.3684 H   0  0  0  0  0  0
  -28.4394  -13.7331   21.8191 H   0  0  0  0  0  0
  -25.2749   -9.5689   22.4737 H   0  0  0  0  0  0
  -23.9999   -7.4646   22.7459 H   0  0  0  0  0  0
  -21.0827   -8.8773   19.8965 H   0  0  0  0  0  0
  -22.3670  -10.9664   19.6176 H   0  0  0  0  0  0
  -21.2012   -7.6141   23.9709 H   0  0  0  0  0  0
  -21.1484   -6.0507   25.9075 H   0  0  0  0  0  0
  -22.0593   -2.7595   23.2837 H   0  0  0  0  0  0
  -22.4045  -11.9936   22.4872 H   0  0  0  0  0  0
  -21.1054  -13.1279   22.2603 H   0  0  0  0  0  0
  -24.6504  -15.8417   20.5198 H   0  0  0  0  0  0
  -26.2598  -15.6310   20.0556 H   0  0  0  0  0  0
  -26.7184  -32.5435   23.1113 H   0  0  0  0  0  0
  -25.0078  -33.9726   25.0426 H   0  0  0  0  0  0
  -22.7084  -31.3072   21.4032 H   0  0  0  0  0  0
  -23.3761  -35.9615   23.3213 H   0  0  0  0  0  0
  -24.3610  -36.9012   22.2068 H   0  0  0  0  0  0
  -23.7203  -37.6466   23.6710 H   0  0  0  0  0  0
  -26.0819  -31.5539   20.6008 H   0  0  0  0  0  0
  -26.8377  -30.8421   21.9981 H   0  0  0  0  0  0
  -28.0935  -28.9823   21.2049 H   0  0  0  0  0  0
  -25.9488  -25.9043   19.0497 H   0  0  0  0  0  0
  -23.9559  -27.2931   19.0343 H   0  0  0  0  0  0
  -23.7652  -30.6061   19.4072 H   0  0  0  0  0  0
  -22.7461  -29.2654   19.8436 H   0  0  0  0  0  0
  -25.1269  -36.1912   25.0811 H   0  0  0  0  0  0
  -20.9974  -28.3277   24.1408 H   0  0  0  0  0  0
  -20.5701  -26.2328   23.3611 H   0  0  0  0  0  0
  -21.6648  -26.7480   22.1194 H   0  0  0  0  0  0
  -19.6924  -25.6301   21.1257 H   0  0  0  0  0  0
  -19.6685  -27.3191   20.6746 H   0  0  0  0  0  0
  -17.4209  -26.6697   21.4022 H   0  0  0  0  0  0
  -18.0328  -26.0087   22.9021 H   0  0  0  0  0  0
  -19.7943  -30.7273   24.2286 H   0  0  0  0  0  0
  -17.5030  -31.6280   24.5181 H   0  0  0  0  0  0
  -15.5362  -30.3028   23.7636 H   0  0  0  0  0  0
  -15.8673  -28.0853   22.7053 H   0  0  0  0  0  0
  -24.5879  -30.7120   25.7799 H   0  0  0  0  0  0
  -24.8987  -32.2903   26.4935 H   0  0  0  0  0  0
  -25.8068  -30.8861   27.0218 H   0  0  0  0  0  0
  -26.2906  -29.6755   24.1202 H   0  0  0  0  0  0
  -27.4066  -29.7258   25.4652 H   0  0  0  0  0  0
  -27.8760  -30.4308   23.9369 H   0  0  0  0  0  0
  -27.2652  -33.3595   26.2114 H   0  0  0  0  0  0
  -28.3848  -32.6910   25.0332 H   0  0  0  0  0  0
  -28.0747  -31.8436   26.5399 H   0  0  0  0  0  0
  -28.2516  -38.0165   24.7594 H   0  0  0  0  0  0
  -28.1166  -36.2700   24.6112 H   0  0  0  0  0  0
  -27.2347  -37.1241   25.8854 H   0  0  0  0  0  0
  -20.9356  -29.8814   21.6917 H   0  0  0  0  0  0
  -26.0133  -38.2836   24.1524 H   0  0  0  0  0  0
  -27.9984  -17.8163   19.6915 H   0  0  0  0  0  0
  -26.3351  -19.2305   18.7454 H   0  0  0  0  0  0
  -27.1331  -20.5288   17.8621 H   0  0  0  0  0  0
  -26.1995  -20.8876   19.3229 H   0  0  0  0  0  0
  -30.4725  -17.0519   22.2509 H   0  0  0  0  0  0
  -31.4239  -17.1472   20.8064 H   0  0  0  0  0  0
  -28.0489  -22.5003   18.6445 H   0  0  0  0  0  0
  -29.6973  -22.7713   19.0249 H   0  0  0  0  0  0
  -28.9619  -23.9011   21.2156 H   0  0  0  0  0  0
  -27.3072  -23.7391   20.6826 H   0  0  0  0  0  0
  -27.8687  -25.1733   18.6113 H   0  0  0  0  0  0
  -29.4897  -25.2203   19.1301 H   0  0  0  0  0  0
  -28.8766  -15.5642   20.9067 H   0  0  0  0  0  0
  1 25  1  0  0  0
  1 30  2  0  0  0
  1 82  1  0  0  0
  2  3  1  0  0  0
  2 25  1  0  0  0
  2 84  1  0  0  0
  2 85  1  0  0  0
  3  4  1  0  0  0
  3 86  1  0  0  0
  3 87  1  0  0  0
  4  5  1  0  0  0
  4 88  1  0  0  0
  4 89  1  0  0  0
  5  6  1  0  0  0
  5 26  1  0  0  0
  5 90  1  0  0  0
  6 25  1  0  0  0
  6 91  1  0  0  0
  6 92  1  0  0  0
  7  8  2  0  0  0
  7 26  1  0  0  0
  7 29  1  0  0  0
  8  9  1  0  0  0
  8 22  1  0  0  0
  9 10  1  0  0  0
  9 27  2  0  0  0
 10 11  2  0  0  0
 10 15  1  0  0  0
 11 12  1  0  0  0
 11 93  1  0  0  0
 12 13  2  0  0  0
 12 94  1  0  0  0
 13 14  1  0  0  0
 13 31  1  0  0  0
 14 15  2  0  0  0
 14 95  1  0  0  0
 15 96  1  0  0  0
 16 17  2  0  0  0
 16 21  1  0  0  0
 16 31  1  0  0  0
 17 18  1  0  0  0
 17 97  1  0  0  0
 18 19  2  0  0  0
 18 98  1  0  0  0
 19 20  1  0  0  0
 19 24  1  0  0  0
 20 21  2  0  0  0
 20 99  1  0  0  0
 21 23  1  0  0  0
 22 28  1  0  0  0
 22 32  2  0  0  0
 26 27  1  0  0  0
 28100  1  0  0  0
 28101  1  0  0  0
 29102  1  0  0  0
 29103  1  0  0  0
 33 34  1  0  0  0
 33 66  1  0  0  0
 33 70  2  0  0  0
 34 36  1  0  0  0
 34 59  1  0  0  0
 34104  1  0  0  0
 35 44  2  0  0  0
 35 45  1  0  0  0
 35 68  1  0  0  0
 36 56  1  0  0  0
 36105  1  0  0  0
 37 39  1  0  0  0
 37 47  1  0  0  0
 37 66  1  0  0  0
 37106  1  0  0  0
 38 43  2  0  0  0
 38 46  1  0  0  0
 38 47  1  0  0  0
 39 64  1  0  0  0
 39 67  2  0  0  0
 40 52  1  0  0  0
 40 53  2  0  0  0
 40 58  1  0  0  0
 41107  1  0  0  0
 41108  1  0  0  0
 41109  1  0  0  0
 41 48  1  0  0  0
 42 43  1  0  0  0
 42 66  1  0  0  0
 42110  1  0  0  0
 42111  1  0  0  0
 43 44  1  0  0  0
 44112  1  0  0  0
 45 46  2  0  0  0
 45113  1  0  0  0
 46114  1  0  0  0
 47115  1  0  0  0
 47116  1  0  0  0
 48 56  1  0  0  0
 48 65  1  0  0  0
 48117  1  0  0  0
 49 50  1  0  0  0
 49 53  1  0  0  0
 49 64  1  0  0  0
 49118  1  0  0  0
 50 51  1  0  0  0
 50119  1  0  0  0
 50120  1  0  0  0
 51 52  1  0  0  0
 51121  1  0  0  0
 51122  1  0  0  0
 52123  1  0  0  0
 52124  1  0  0  0
 53 54  1  0  0  0
 54 55  2  0  0  0
 54125  1  0  0  0
 55 57  1  0  0  0
 55126  1  0  0  0
 56 69  2  0  0  0
 57 58  2  0  0  0
 57127  1  0  0  0
 58128  1  0  0  0
 59 60  1  0  0  0
 59 61  1  0  0  0
 59 62  1  0  0  0
 60129  1  0  0  0
 60130  1  0  0  0
 60131  1  0  0  0
 61132  1  0  0  0
 61133  1  0  0  0
 61134  1  0  0  0
 62135  1  0  0  0
 62136  1  0  0  0
 62137  1  0  0  0
 63 65  1  0  0  0
 63138  1  0  0  0
 63139  1  0  0  0
 63140  1  0  0  0
 64141  1  0  0  0
 65142  1  0  0  0
 68 80  1  0  0  0
 71 72  2  0  0  0
 71 73  1  0  0  0
 71143  1  0  0  0
 72 74  1  0  0  0
 72 76  1  0  0  0
 73 75  2  0  0  0
 73 77  1  0  0  0
 74 78  1  0  0  0
 74 81  2  0  0  0
 75 81  1  0  0  0
 75 83  1  0  0  0
 76144  1  0  0  0
 76145  1  0  0  0
 76146  1  0  0  0
 77 82  1  0  0  0
 77147  1  0  0  0
 77148  1  0  0  0
 78 79  1  0  0  0
 78149  1  0  0  0
 78150  1  0  0  0
 79 80  1  0  0  0
 79151  1  0  0  0
 79152  1  0  0  0
 80153  1  0  0  0
 80154  1  0  0  0
 82155  1  0  0  0
M  ISO  4   1 100  68 101  80 101  82 100
M  END
> <chiral flag>
0

> <version>
0

> <s_m_source_file>
/data/baiqing/PycharmProjects/Reinvent-master-3.2/result/LINK_invent/BTK/process_docking_weight1_custom_sum_contain_oxygen_bond_distance_aromatic_linkinvent_7_9_3/rearranged_h_0033.sdf

> <i_m_source_file_index>
2

> <r_mmod_Potential_Energy-OPLS-2005>
-119.407684326172

> <r_mmod_Stretch_Energy-OPLS-2005>
73.9765319824219

> <r_mmod_Bend_Energy-OPLS-2005>
161.400192260742

> <r_mmod_Torsional_Energy-OPLS-2005>
192.843856811523

> <r_mmod_Improper_Torsional_Energy-OPLS-2005>
5.76623630523682

> <r_mmod_Van_der_Waal_Energy-OPLS-2005>
145.852203369141

> <r_mmod_Electrostatic_Energy-OPLS-2005>
-524.309692382812

> <r_mmod_Solvation_Energy-OPLS-2005>
-221.32829284668

> <b_mmod_Minimization_Converged-OPLS-2005>
0

> <r_mmod_RMS_Derivative-OPLS-2005>
2.27805018424988

$$$$
2
                    3D
 Structure written by MMmdl.
177185  0  0  1  0            999 V2000
  -30.9213  -14.1522   20.8673 C   0  0  0  0  0  0
  -30.4185  -12.2925   19.3546 C   0  0  0  0  0  0
  -29.4764  -12.5559   18.1763 C   0  0  0  0  0  0
  -28.0203  -12.3538   18.6196 C   0  0  0  0  0  0
  -27.6762  -13.1958   19.8743 C   0  0  2  0  0  0
  -28.7136  -12.9725   20.9987 C   0  0  0  0  0  0
  -25.2705  -13.8165   20.5641 C   0  0  0  0  0  0
  -24.1929  -13.0466   20.9113 C   0  0  0  0  0  0
  -24.6456  -11.6926   20.8758 C   0  0  0  0  0  0
  -23.9115  -10.4314   21.0448 C   0  0  0  0  0  0
  -24.3644   -9.4215   21.9229 C   0  0  0  0  0  0
  -23.6289   -8.2261   22.0790 C   0  0  0  0  0  0
  -22.4286   -8.0314   21.3560 C   0  0  0  0  0  0
  -21.9950   -9.0305   20.4676 C   0  0  0  0  0  0
  -22.7303  -10.2172   20.3076 C   0  0  0  0  0  0
  -21.6862   -6.0761   22.5284 C   0  0  0  0  0  0
  -21.4045   -6.5654   23.8226 C   0  0  0  0  0  0
  -21.3634   -5.6791   24.9179 C   0  0  0  0  0  0
  -21.6015   -4.3055   24.7229 C   0  0  0  0  0  0
  -21.8819   -3.8156   23.4347 C   0  0  0  0  0  0
  -21.9202   -4.6980   22.3399 C   0  0  0  0  0  0
  -22.7941  -13.5315   21.1690 C   0  0  0  0  0  0
  -22.1667   -4.2169   21.0987 F   0  0  0  0  0  0
  -21.5578   -3.4530   25.7743 F   0  0  0  0  0  0
  -30.0680  -13.1877   20.4620 N   0  0  0  0  0  0
  -26.3135  -12.9308   20.3347 N   0  0  0  0  0  0
  -25.9385  -11.6481   20.5766 N   0  0  0  0  0  0
  -22.0501  -12.8387   22.0227 N   0  0  0  0  0  0
  -25.4500  -15.1874   20.4031 N   0  0  0  0  0  0
  -31.7645  -14.6785   20.1349 O   0  0  0  0  0  0
  -21.6626   -6.8919   21.4256 O   0  0  0  0  0  0
  -22.3681  -14.5602   20.6477 O   0  0  0  0  0  0
  -24.6104  -31.8715   23.2145 C   0  0  0  0  0  0
  -25.9018  -32.4858   23.8426 C   0  0  1  0  0  0
  -27.2317  -27.4874   20.0572 C   0  0  0  0  0  0
  -25.5888  -33.8658   24.2341 N   0  0  0  0  0  0
  -23.3963  -30.4944   21.5561 C   0  0  2  0  0  0
  -24.8383  -28.9606   20.1256 C   0  0  0  0  0  0
  -22.7380  -29.4660   22.5030 C   0  0  0  0  0  0
  -18.0261  -28.1390   22.8484 C   0  0  0  0  0  0
  -24.1479  -36.7326   23.2648 C   0  0  0  0  0  0
  -25.9208  -30.8447   21.3642 C   0  0  0  0  0  0
  -25.9975  -29.4798   20.7168 C   0  0  0  0  0  0
  -27.1993  -28.7434   20.6913 C   0  0  0  0  0  0
  -26.0544  -26.9546   19.4945 C   0  0  0  0  0  0
  -24.8551  -27.6897   19.5237 C   0  0  0  0  0  0
  -23.6033  -29.8300   20.1706 C   0  0  0  0  0  0
  -25.4106  -36.3143   24.0338 C   0  0  1  0  0  0
  -20.5847  -28.3651   23.1359 C   0  0  2  0  0  0
  -20.6748  -26.9379   22.5465 C   0  0  0  0  0  0
  -19.5752  -26.6383   21.5228 C   0  0  0  0  0  0
  -18.1904  -26.7958   22.1572 C   0  0  0  0  0  0
  -19.1510  -28.8837   23.2918 C   0  0  0  0  0  0
  -18.9445  -30.1440   23.8922 C   0  0  0  0  0  0
  -17.6449  -30.6576   24.0585 C   0  0  0  0  0  0
  -25.9040  -34.9505   23.5147 C   0  0  0  0  0  0
  -16.5344  -29.9083   23.6333 C   0  0  0  0  0  0
  -16.7258  -28.6519   23.0329 C   0  0  0  0  0  0
  -26.4451  -31.6636   25.0741 C   0  0  0  0  0  0
  -25.3707  -31.3702   26.1466 C   0  0  0  0  0  0
  -27.0300  -30.3097   24.6099 C   0  0  0  0  0  0
  -27.6001  -32.4362   25.7532 C   0  0  0  0  0  0
  -27.5601  -37.1821   24.8450 C   0  0  0  0  0  0
  -21.4122  -29.3014   22.3765 N   0  0  0  0  0  0
  -26.4292  -37.3827   23.9424 N   0  0  0  0  0  0
  -24.6608  -31.0844   22.1038 N   0  0  0  0  0  0
  -23.4177  -28.8200   23.3056 O   0  0  0  0  0  0
  -28.4086  -26.8044   19.9395 O   0  0  0  0  0  0
  -26.5601  -34.8942   22.4706 O   0  0  0  0  0  0
  -23.5307  -32.1454   23.7572 O   0  0  0  0  0  0
  -32.3987  -25.2767   19.0279 C   0  0  0  0  0  0
  -29.9625  -24.7456   17.7339 C   0  0  0  0  0  0
  -31.3633  -26.2299   19.0757 C   0  0  0  0  0  0
  -32.2084  -24.0413   18.3718 C   0  0  0  0  0  0
  -30.1228  -25.9430   18.4598 C   0  0  0  0  0  0
  -30.9955  -23.7936   17.6859 C   0  0  0  0  0  0
  -31.5826  -27.5347   19.8216 C   0  0  0  0  0  0
  -33.2578  -22.9565   18.5447 C   0  0  0  0  0  0
  -28.9370  -26.8734   18.6149 C   0  0  0  0  0  0
  -33.2735  -17.1537   23.3822 C   0  0  0  0  0  0
  -33.1084  -18.6719   23.2099 C   0  0  0  0  0  0
  -32.0613  -16.4955   24.0626 C   0  0  0  0  0  0
  -33.7736  -19.1898   21.9216 C   0  0  0  0  0  0
  -32.2402  -14.9825   24.2555 C   0  0  0  0  0  0
  -33.3124  -20.6117   21.5727 C   0  0  0  0  0  0
  -32.3071  -14.1722   22.9426 C   0  0  0  0  0  0
  -33.7455  -21.1041   20.1787 C   0  0  0  0  0  0
  -31.0384  -14.1464   22.2061 N   0  0  0  0  0  0
  -32.9797  -22.3153   19.8415 N   0  3  0  0  0  0
  -30.7135  -22.3097   16.8450 Cl  0  0  0  0  0  0
  -31.4569  -12.4142   19.0399 H   0  0  0  0  0  0
  -30.3359  -11.2560   19.6889 H   0  0  0  0  0  0
  -29.7208  -11.8973   17.3422 H   0  0  0  0  0  0
  -29.6119  -13.5772   17.8161 H   0  0  0  0  0  0
  -27.8810  -11.2927   18.8343 H   0  0  0  0  0  0
  -27.3438  -12.5960   17.8001 H   0  0  0  0  0  0
  -27.7339  -14.2439   19.5777 H   0  0  0  0  0  0
  -28.6467  -11.9579   21.3948 H   0  0  0  0  0  0
  -28.4927  -13.6485   21.8263 H   0  0  0  0  0  0
  -25.2806   -9.5639   22.4800 H   0  0  0  0  0  0
  -23.9963   -7.4677   22.7553 H   0  0  0  0  0  0
  -21.0852   -8.8869   19.9023 H   0  0  0  0  0  0
  -22.3816  -10.9702   19.6148 H   0  0  0  0  0  0
  -21.2092   -7.6172   23.9736 H   0  0  0  0  0  0
  -21.1420   -6.0522   25.9068 H   0  0  0  0  0  0
  -22.0624   -2.7623   23.2842 H   0  0  0  0  0  0
  -22.4030  -12.0052   22.4679 H   0  0  0  0  0  0
  -21.1126  -13.1535   22.2319 H   0  0  0  0  0  0
  -24.6951  -15.8575   20.4997 H   0  0  0  0  0  0
  -26.3214  -15.6128   20.1092 H   0  0  0  0  0  0
  -26.7090  -32.5585   23.1201 H   0  0  0  0  0  0
  -25.0032  -33.9830   25.0484 H   0  0  0  0  0  0
  -22.6829  -31.3090   21.4215 H   0  0  0  0  0  0
  -23.3758  -35.9640   23.3288 H   0  0  0  0  0  0
  -24.3569  -36.8961   22.2060 H   0  0  0  0  0  0
  -23.7190  -37.6510   23.6665 H   0  0  0  0  0  0
  -26.0263  -31.6082   20.5923 H   0  0  0  0  0  0
  -26.8133  -30.9028   21.9758 H   0  0  0  0  0  0
  -28.1043  -29.1501   21.1203 H   0  0  0  0  0  0
  -26.0708  -25.9855   19.0165 H   0  0  0  0  0  0
  -23.9599  -27.2792   19.0777 H   0  0  0  0  0  0
  -23.7216  -30.6092   19.4166 H   0  0  0  0  0  0
  -22.7242  -29.2578   19.8674 H   0  0  0  0  0  0
  -25.1274  -36.2027   25.0837 H   0  0  0  0  0  0
  -20.9923  -28.3222   24.1483 H   0  0  0  0  0  0
  -20.5628  -26.2253   23.3648 H   0  0  0  0  0  0
  -21.6628  -26.7415   22.1296 H   0  0  0  0  0  0
  -19.6913  -25.6303   21.1249 H   0  0  0  0  0  0
  -19.6744  -27.3218   20.6779 H   0  0  0  0  0  0
  -17.4220  -26.6782   21.3920 H   0  0  0  0  0  0
  -18.0212  -26.0069   22.8922 H   0  0  0  0  0  0
  -19.7913  -30.7265   24.2304 H   0  0  0  0  0  0
  -17.4995  -31.6255   24.5198 H   0  0  0  0  0  0
  -15.5349  -30.3004   23.7644 H   0  0  0  0  0  0
  -15.8653  -28.0878   22.6993 H   0  0  0  0  0  0
  -24.6059  -30.6823   25.7846 H   0  0  0  0  0  0
  -24.8673  -32.2809   26.4715 H   0  0  0  0  0  0
  -25.8100  -30.9117   27.0337 H   0  0  0  0  0  0
  -26.2869  -29.6887   24.1089 H   0  0  0  0  0  0
  -27.4013  -29.7294   25.4559 H   0  0  0  0  0  0
  -27.8706  -30.4435   23.9287 H   0  0  0  0  0  0
  -27.2587  -33.3622   26.2167 H   0  0  0  0  0  0
  -28.3799  -32.7000   25.0377 H   0  0  0  0  0  0
  -28.0692  -31.8467   26.5418 H   0  0  0  0  0  0
  -28.2593  -38.0143   24.7549 H   0  0  0  0  0  0
  -28.1117  -36.2684   24.6197 H   0  0  0  0  0  0
  -27.2338  -37.1396   25.8853 H   0  0  0  0  0  0
  -20.9275  -29.8746   21.7001 H   0  0  0  0  0  0
  -26.0189  -38.2899   24.1461 H   0  0  0  0  0  0
  -33.3284  -25.4709   19.5461 H   0  0  0  0  0  0
  -29.0229  -24.5296   17.2456 H   0  0  0  0  0  0
  -32.6108  -27.6329   20.1694 H   0  0  0  0  0  0
  -30.9254  -27.5946   20.6894 H   0  0  0  0  0  0
  -31.3737  -28.3855   19.1726 H   0  0  0  0  0  0
  -34.2569  -23.3936   18.5370 H   0  0  0  0  0  0
  -33.2248  -22.2311   17.7301 H   0  0  0  0  0  0
  -28.1801  -26.6154   17.8709 H   0  0  0  0  0  0
  -29.2395  -27.8970   18.3876 H   0  0  0  0  0  0
  -34.1824  -16.9406   23.9465 H   0  0  0  0  0  0
  -33.4111  -16.6956   22.4043 H   0  0  0  0  0  0
  -33.5030  -19.1987   24.0826 H   0  0  0  0  0  0
  -32.0441  -18.9071   23.1763 H   0  0  0  0  0  0
  -31.1580  -16.6810   23.4797 H   0  0  0  0  0  0
  -31.8953  -16.9679   25.0332 H   0  0  0  0  0  0
  -33.4980  -18.5328   21.0953 H   0  0  0  0  0  0
  -34.8608  -19.1434   22.0052 H   0  0  0  0  0  0
  -31.4340  -14.6008   24.8821 H   0  0  0  0  0  0
  -33.1510  -14.8091   24.8310 H   0  0  0  0  0  0
  -33.6561  -21.3135   22.3334 H   0  0  0  0  0  0
  -32.2217  -20.6279   21.6181 H   0  0  0  0  0  0
  -32.5424  -13.1379   23.1995 H   0  0  0  0  0  0
  -33.1329  -14.5030   22.3146 H   0  0  0  0  0  0
  -33.5493  -20.3399   19.4255 H   0  0  0  0  0  0
  -34.8162  -21.3117   20.1593 H   0  0  0  0  0  0
  -30.2844  -13.6734   22.6822 H   0  0  0  0  0  0
  -32.0049  -22.0664   19.8406 H   0  0  0  0  0  0
  -33.1161  -22.9981   20.5678 H   0  0  0  0  0  0
  1 25  1  0  0  0
  1 30  2  0  0  0
  1 88  1  0  0  0
  2  3  1  0  0  0
  2 25  1  0  0  0
  2 91  1  0  0  0
  2 92  1  0  0  0
  3  4  1  0  0  0
  3 93  1  0  0  0
  3 94  1  0  0  0
  4  5  1  0  0  0
  4 95  1  0  0  0
  4 96  1  0  0  0
  5  6  1  0  0  0
  5 26  1  0  0  0
  5 97  1  0  0  0
  6 25  1  0  0  0
  6 98  1  0  0  0
  6 99  1  0  0  0
  7  8  2  0  0  0
  7 26  1  0  0  0
  7 29  1  0  0  0
  8  9  1  0  0  0
  8 22  1  0  0  0
  9 10  1  0  0  0
  9 27  2  0  0  0
 10 11  2  0  0  0
 10 15  1  0  0  0
 11 12  1  0  0  0
 11100  1  0  0  0
 12 13  2  0  0  0
 12101  1  0  0  0
 13 14  1  0  0  0
 13 31  1  0  0  0
 14 15  2  0  0  0
 14102  1  0  0  0
 15103  1  0  0  0
 16 17  2  0  0  0
 16 21  1  0  0  0
 16 31  1  0  0  0
 17 18  1  0  0  0
 17104  1  0  0  0
 18 19  2  0  0  0
 18105  1  0  0  0
 19 20  1  0  0  0
 19 24  1  0  0  0
 20 21  2  0  0  0
 20106  1  0  0  0
 21 23  1  0  0  0
 22 28  1  0  0  0
 22 32  2  0  0  0
 26 27  1  0  0  0
 28107  1  0  0  0
 28108  1  0  0  0
 29109  1  0  0  0
 29110  1  0  0  0
 33 34  1  0  0  0
 33 66  1  0  0  0
 33 70  2  0  0  0
 34 36  1  0  0  0
 34 59  1  0  0  0
 34111  1  0  0  0
 35 44  2  0  0  0
 35 45  1  0  0  0
 35 68  1  0  0  0
 36 56  1  0  0  0
 36112  1  0  0  0
 37 39  1  0  0  0
 37 47  1  0  0  0
 37 66  1  0  0  0
 37113  1  0  0  0
 38 43  2  0  0  0
 38 46  1  0  0  0
 38 47  1  0  0  0
 39 64  1  0  0  0
 39 67  2  0  0  0
 40 52  1  0  0  0
 40 53  2  0  0  0
 40 58  1  0  0  0
 41114  1  0  0  0
 41115  1  0  0  0
 41116  1  0  0  0
 41 48  1  0  0  0
 42 43  1  0  0  0
 42 66  1  0  0  0
 42117  1  0  0  0
 42118  1  0  0  0
 43 44  1  0  0  0
 44119  1  0  0  0
 45 46  2  0  0  0
 45120  1  0  0  0
 46121  1  0  0  0
 47122  1  0  0  0
 47123  1  0  0  0
 48 56  1  0  0  0
 48 65  1  0  0  0
 48124  1  0  0  0
 49 50  1  0  0  0
 49 53  1  0  0  0
 49 64  1  0  0  0
 49125  1  0  0  0
 50 51  1  0  0  0
 50126  1  0  0  0
 50127  1  0  0  0
 51 52  1  0  0  0
 51128  1  0  0  0
 51129  1  0  0  0
 52130  1  0  0  0
 52131  1  0  0  0
 53 54  1  0  0  0
 54 55  2  0  0  0
 54132  1  0  0  0
 55 57  1  0  0  0
 55133  1  0  0  0
 56 69  2  0  0  0
 57 58  2  0  0  0
 57134  1  0  0  0
 58135  1  0  0  0
 59 60  1  0  0  0
 59 61  1  0  0  0
 59 62  1  0  0  0
 60136  1  0  0  0
 60137  1  0  0  0
 60138  1  0  0  0
 61139  1  0  0  0
 61140  1  0  0  0
 61141  1  0  0  0
 62142  1  0  0  0
 62143  1  0  0  0
 62144  1  0  0  0
 63 65  1  0  0  0
 63145  1  0  0  0
 63146  1  0  0  0
 63147  1  0  0  0
 64148  1  0  0  0
 65149  1  0  0  0
 68 79  1  0  0  0
 71 73  2  0  0  0
 71 74  1  0  0  0
 71150  1  0  0  0
 72 75  2  0  0  0
 72 76  1  0  0  0
 72151  1  0  0  0
 73 75  1  0  0  0
 73 77  1  0  0  0
 74 76  2  0  0  0
 74 78  1  0  0  0
 75 79  1  0  0  0
 76 90  1  0  0  0
 77152  1  0  0  0
 77153  1  0  0  0
 77154  1  0  0  0
 78 89  1  0  0  0
 78155  1  0  0  0
 78156  1  0  0  0
 79157  1  0  0  0
 79158  1  0  0  0
 80 81  1  0  0  0
 80 82  1  0  0  0
 80159  1  0  0  0
 80160  1  0  0  0
 81 83  1  0  0  0
 81161  1  0  0  0
 81162  1  0  0  0
 82 84  1  0  0  0
 82163  1  0  0  0
 82164  1  0  0  0
 83 85  1  0  0  0
 83165  1  0  0  0
 83166  1  0  0  0
 84 86  1  0  0  0
 84167  1  0  0  0
 84168  1  0  0  0
 85 87  1  0  0  0
 85169  1  0  0  0
 85170  1  0  0  0
 86 88  1  0  0  0
 86171  1  0  0  0
 86172  1  0  0  0
 87 89  1  0  0  0
 87173  1  0  0  0
 87174  1  0  0  0
 88175  1  0  0  0
 89176  1  0  0  0
 89177  1  0  0  0
M  CHG  1  89   1
M  ISO  4   1 100  68 101  79 101  88 100
M  END
> <chiral flag>
0

> <version>
0

> <s_m_source_file>
/data/baiqing/PycharmProjects/Reinvent-master-3.2/result/LINK_invent/BTK/process_docking_weight1_custom_sum_contain_oxygen_bond_distance_aromatic_linkinvent_7_9_3/rearranged_h_0033.sdf

> <i_m_source_file_index>
3

> <r_mmod_Potential_Energy-OPLS-2005>
-200.082855224609

> <r_mmod_Stretch_Energy-OPLS-2005>
30.3610858917236

> <r_mmod_Bend_Energy-OPLS-2005>
88.4964294433594

> <r_mmod_Torsional_Energy-OPLS-2005>
269.789276123047

> <r_mmod_Improper_Torsional_Energy-OPLS-2005>
14.0085592269897

> <r_mmod_Van_der_Waal_Energy-OPLS-2005>
147.455657958984

> <r_mmod_Electrostatic_Energy-OPLS-2005>
-334.671508789062

> <r_mmod_Solvation_Energy-OPLS-2005>
-435.219421386719

> <b_mmod_Minimization_Converged-OPLS-2005>
0

> <r_mmod_RMS_Derivative-OPLS-2005>
3.2131929397583

$$$$
3
                    3D
 Structure written by MMmdl.
158166  0  0  1  0            999 V2000
  -30.0604  -16.3463   20.2774 C   0  0  0  0  0  0
  -30.3553  -13.6221   19.5478 C   0  0  0  0  0  0
  -29.5726  -12.8746   18.4019 C   0  0  0  0  0  0
  -28.2099  -12.3622   18.8736 C   0  0  0  0  0  0
  -27.5807  -13.3992   19.8176 C   0  0  2  0  0  0
  -28.5420  -14.0257   20.8867 C   0  0  0  0  0  0
  -25.2213  -13.8424   20.5913 C   0  0  0  0  0  0
  -24.1688  -13.0452   20.9324 C   0  0  0  0  0  0
  -24.6516  -11.7006   20.8749 C   0  0  0  0  0  0
  -23.9230  -10.4314   21.0353 C   0  0  0  0  0  0
  -24.3723   -9.4221   21.9154 C   0  0  0  0  0  0
  -23.6354   -8.2276   22.0749 C   0  0  0  0  0  0
  -22.4336   -8.0312   21.3540 C   0  0  0  0  0  0
  -22.0003   -9.0295   20.4638 C   0  0  0  0  0  0
  -22.7376  -10.2154   20.3026 C   0  0  0  0  0  0
  -21.6880   -6.0764   22.5277 C   0  0  0  0  0  0
  -21.4028   -6.5656   23.8211 C   0  0  0  0  0  0
  -21.3668   -5.6801   24.9171 C   0  0  0  0  0  0
  -21.6040   -4.3063   24.7216 C   0  0  0  0  0  0
  -21.8820   -3.8165   23.4334 C   0  0  0  0  0  0
  -21.9197   -4.6987   22.3395 C   0  0  0  0  0  0
  -22.7672  -13.5102   21.1920 C   0  0  0  0  0  0
  -22.1664   -4.2166   21.0973 F   0  0  0  0  0  0
  -21.5625   -3.4546   25.7729 F   0  0  0  0  0  0
  -29.6029  -14.8592   20.1955 N   0  0  0  0  0  0
  -26.2798  -12.9948   20.3406 N   0  0  0  0  0  0
  -25.9510  -11.6907   20.5686 N   0  0  0  0  0  0
  -22.0381  -12.8060   22.0485 N   0  0  0  0  0  0
  -25.3647  -15.2181   20.4347 N   0  0  0  0  0  0
  -31.3033  -16.1520   20.1654 O   0  0  0  0  0  0
  -21.6679   -6.8919   21.4246 O   0  0  0  0  0  0
  -22.3307  -14.5385   20.6753 O   0  0  0  0  0  0
  -24.7296  -31.7460   23.1163 C   0  0  0  0  0  0
  -25.9642  -32.4220   23.7905 C   0  0  1  0  0  0
  -27.2826  -26.2381   20.2605 C   0  0  0  0  0  0
  -25.6019  -33.8078   24.1728 N   0  0  0  0  0  0
  -23.5824  -30.3241   21.4822 C   0  0  2  0  0  0
  -25.0553  -28.5763   20.1343 C   0  0  0  0  0  0
  -22.7993  -29.4007   22.4610 C   0  0  0  0  0  0
  -18.0363  -28.1462   22.8443 C   0  0  0  0  0  0
  -24.1474  -36.7027   23.2672 C   0  0  0  0  0  0
  -26.1801  -30.3232   21.4582 C   0  0  0  0  0  0
  -26.2459  -28.8340   20.8228 C   0  0  0  0  0  0
  -27.3118  -27.7114   20.8569 C   0  0  0  0  0  0
  -26.0658  -26.3355   19.4890 C   0  0  0  0  0  0
  -25.0324  -27.3517   19.4412 C   0  0  0  0  0  0
  -23.8653  -29.5798   20.1374 C   0  0  0  0  0  0
  -25.4136  -36.2744   24.0255 C   0  0  1  0  0  0
  -20.6026  -28.3821   23.1067 C   0  0  2  0  0  0
  -20.6800  -26.9439   22.5413 C   0  0  0  0  0  0
  -19.5771  -26.6359   21.5239 C   0  0  0  0  0  0
  -18.1958  -26.7981   22.1636 C   0  0  0  0  0  0
  -19.1654  -28.8977   23.2710 C   0  0  0  0  0  0
  -18.9540  -30.1560   23.8765 C   0  0  0  0  0  0
  -17.6525  -30.6621   24.0553 C   0  0  0  0  0  0
  -25.9159  -34.9152   23.4863 C   0  0  0  0  0  0
  -16.5412  -29.9098   23.6377 C   0  0  0  0  0  0
  -16.7343  -28.6531   23.0376 C   0  0  0  0  0  0
  -26.4657  -31.6459   25.0717 C   0  0  0  0  0  0
  -25.3593  -31.3913   26.1223 C   0  0  0  0  0  0
  -27.0640  -30.2756   24.6924 C   0  0  0  0  0  0
  -27.6017  -32.4428   25.7550 C   0  0  0  0  0  0
  -27.5525  -37.1660   24.8469 C   0  0  0  0  0  0
  -21.4598  -29.2983   22.3335 N   0  0  0  0  0  0
  -26.4220  -37.3557   23.9421 N   0  0  0  0  0  0
  -24.8609  -30.8426   22.0716 N   0  0  0  0  0  0
  -23.4221  -28.7684   23.3166 O   0  0  0  0  0  0
  -28.0413  -24.6785   20.2517 O   0  0  0  0  0  0
  -26.5865  -34.8824   22.4532 O   0  0  0  0  0  0
  -23.6213  -32.0744   23.5798 O   0  0  0  0  0  0
  -28.0114  -22.8279   21.5980 C   0  0  0  0  0  0
  -28.5434  -24.4215   22.3057 C   0  0  0  0  0  0
  -28.7717  -21.9685   20.2892 C   0  0  0  0  0  0
  -29.6759  -25.4827   21.3399 C   0  0  0  0  0  0
  -29.5899  -23.2151   19.3826 C   0  0  0  0  0  0
  -31.8356  -26.4106   22.3730 C   0  0  0  0  0  0
  -29.0410  -24.2244   23.6720 C   0  0  0  0  0  0
  -29.4142  -19.9328   20.1312 C   0  0  0  0  0  0
  -30.4191  -26.7042   21.8595 C   0  0  0  0  0  0
  -30.1743  -23.3068   23.2117 C   0  0  0  0  0  0
  -30.2624  -23.3276   21.6154 C   0  0  0  0  0  0
  -30.1441  -24.7761   19.8403 N   0  0  0  0  0  0
  -29.3412  -17.9163   20.3121 N   0  0  0  0  0  0
  -30.3308  -22.6653   17.9272 Cl  0  0  0  0  0  0
  -31.2889  -13.9734   19.1072 H   0  0  0  0  0  0
  -30.6816  -12.9159   20.3130 H   0  0  0  0  0  0
  -30.1686  -12.0525   18.0028 H   0  0  0  0  0  0
  -29.4220  -13.5725   17.5767 H   0  0  0  0  0  0
  -28.3572  -11.4239   19.4075 H   0  0  0  0  0  0
  -27.5592  -12.1473   18.0243 H   0  0  0  0  0  0
  -27.3536  -14.2227   19.1379 H   0  0  0  0  0  0
  -28.9490  -13.2760   21.5672 H   0  0  0  0  0  0
  -27.9753  -14.7078   21.5212 H   0  0  0  0  0  0
  -25.2854   -9.5689   22.4750 H   0  0  0  0  0  0
  -24.0047   -7.4678   22.7489 H   0  0  0  0  0  0
  -21.0921   -8.8825   19.8957 H   0  0  0  0  0  0
  -22.3815  -10.9687   19.6139 H   0  0  0  0  0  0
  -21.2032   -7.6164   23.9715 H   0  0  0  0  0  0
  -21.1483   -6.0536   25.9071 H   0  0  0  0  0  0
  -22.0592   -2.7623   23.2831 H   0  0  0  0  0  0
  -22.4068  -11.9753   22.4858 H   0  0  0  0  0  0
  -21.0973  -13.1002   22.2690 H   0  0  0  0  0  0
  -24.5851  -15.8584   20.5420 H   0  0  0  0  0  0
  -26.2070  -15.6714   20.1053 H   0  0  0  0  0  0
  -26.7814  -32.4582   23.0690 H   0  0  0  0  0  0
  -24.9994  -33.9071   24.9765 H   0  0  0  0  0  0
  -22.9319  -31.1686   21.2506 H   0  0  0  0  0  0
  -23.3779  -35.9315   23.3248 H   0  0  0  0  0  0
  -24.3532  -36.8799   22.2109 H   0  0  0  0  0  0
  -23.7192  -37.6151   23.6842 H   0  0  0  0  0  0
  -26.4228  -31.0104   20.6469 H   0  0  0  0  0  0
  -27.0198  -30.4163   22.1314 H   0  0  0  0  0  0
  -28.1651  -27.9679   21.4595 H   0  0  0  0  0  0
  -25.8316  -25.4439   18.9226 H   0  0  0  0  0  0
  -24.1582  -27.1350   18.8440 H   0  0  0  0  0  0
  -24.0714  -30.3226   19.3658 H   0  0  0  0  0  0
  -22.9635  -29.0616   19.8073 H   0  0  0  0  0  0
  -25.1365  -36.1456   25.0742 H   0  0  0  0  0  0
  -21.0089  -28.3477   24.1207 H   0  0  0  0  0  0
  -20.5623  -26.2460   23.3714 H   0  0  0  0  0  0
  -21.6638  -26.7267   22.1255 H   0  0  0  0  0  0
  -19.6890  -25.6234   21.1343 H   0  0  0  0  0  0
  -19.6739  -27.3108   20.6728 H   0  0  0  0  0  0
  -17.4225  -26.6753   21.4041 H   0  0  0  0  0  0
  -18.0298  -26.0147   22.9051 H   0  0  0  0  0  0
  -19.8008  -30.7422   24.2082 H   0  0  0  0  0  0
  -17.5059  -31.6295   24.5178 H   0  0  0  0  0  0
  -15.5401  -30.2962   23.7762 H   0  0  0  0  0  0
  -15.8746  -28.0814   22.7147 H   0  0  0  0  0  0
  -24.5855  -30.7193   25.7497 H   0  0  0  0  0  0
  -24.8698  -32.3172   26.4265 H   0  0  0  0  0  0
  -25.7644  -30.9335   27.0252 H   0  0  0  0  0  0
  -26.3436  -29.6233   24.1988 H   0  0  0  0  0  0
  -27.3963  -29.7385   25.5812 H   0  0  0  0  0  0
  -27.9449  -30.3788   24.0590 H   0  0  0  0  0  0
  -27.2517  -33.3863   26.1746 H   0  0  0  0  0  0
  -28.4017  -32.6781   25.0520 H   0  0  0  0  0  0
  -28.0477  -31.8828   26.5777 H   0  0  0  0  0  0
  -28.2484  -38.0003   24.7510 H   0  0  0  0  0  0
  -28.1070  -36.2522   24.6289 H   0  0  0  0  0  0
  -27.2246  -37.1263   25.8871 H   0  0  0  0  0  0
  -21.0030  -29.8577   21.6264 H   0  0  0  0  0  0
  -26.0005  -38.2580   24.1482 H   0  0  0  0  0  0
  -27.5611  -22.1675   22.3243 H   0  0  0  0  0  0
  -31.8138  -25.7969   23.2727 H   0  0  0  0  0  0
  -32.3550  -27.3350   22.6280 H   0  0  0  0  0  0
  -32.4323  -25.8945   21.6199 H   0  0  0  0  0  0
  -28.3104  -23.7289   24.3123 H   0  0  0  0  0  0
  -29.3921  -25.1523   24.1250 H   0  0  0  0  0  0
  -29.6241  -19.9574   19.0607 H   0  0  0  0  0  0
  -30.3976  -20.0712   20.5798 H   0  0  0  0  0  0
  -29.8363  -27.1597   22.6605 H   0  0  0  0  0  0
  -30.4653  -27.4340   21.0527 H   0  0  0  0  0  0
  -29.9762  -22.2861   23.5451 H   0  0  0  0  0  0
  -31.1251  -23.5846   23.6740 H   0  0  0  0  0  0
  -30.6736  -22.3357   21.3883 H   0  0  0  0  0  0
  -31.2743  -23.7603   21.5180 H   0  0  0  0  0  0
  -28.3555  -17.6996   20.3958 H   0  0  0  0  0  0
  1 25  1  0  0  0
  1 30  2  0  0  0
  1 83  1  0  0  0
  2  3  1  0  0  0
  2 25  1  0  0  0
  2 85  1  0  0  0
  2 86  1  0  0  0
  3  4  1  0  0  0
  3 87  1  0  0  0
  3 88  1  0  0  0
  4  5  1  0  0  0
  4 89  1  0  0  0
  4 90  1  0  0  0
  5  6  1  0  0  0
  5 26  1  0  0  0
  5 91  1  0  0  0
  6 25  1  0  0  0
  6 92  1  0  0  0
  6 93  1  0  0  0
  7  8  2  0  0  0
  7 26  1  0  0  0
  7 29  1  0  0  0
  8  9  1  0  0  0
  8 22  1  0  0  0
  9 10  1  0  0  0
  9 27  2  0  0  0
 10 11  2  0  0  0
 10 15  1  0  0  0
 11 12  1  0  0  0
 11 94  1  0  0  0
 12 13  2  0  0  0
 12 95  1  0  0  0
 13 14  1  0  0  0
 13 31  1  0  0  0
 14 15  2  0  0  0
 14 96  1  0  0  0
 15 97  1  0  0  0
 16 17  2  0  0  0
 16 21  1  0  0  0
 16 31  1  0  0  0
 17 18  1  0  0  0
 17 98  1  0  0  0
 18 19  2  0  0  0
 18 99  1  0  0  0
 19 20  1  0  0  0
 19 24  1  0  0  0
 20 21  2  0  0  0
 20100  1  0  0  0
 21 23  1  0  0  0
 22 28  1  0  0  0
 22 32  2  0  0  0
 26 27  1  0  0  0
 28101  1  0  0  0
 28102  1  0  0  0
 29103  1  0  0  0
 29104  1  0  0  0
 33 34  1  0  0  0
 33 66  1  0  0  0
 33 70  2  0  0  0
 34 36  1  0  0  0
 34 59  1  0  0  0
 34105  1  0  0  0
 35 44  2  0  0  0
 35 45  1  0  0  0
 35 68  1  0  0  0
 36 56  1  0  0  0
 36106  1  0  0  0
 37 39  1  0  0  0
 37 47  1  0  0  0
 37 66  1  0  0  0
 37107  1  0  0  0
 38 43  2  0  0  0
 38 46  1  0  0  0
 38 47  1  0  0  0
 39 64  1  0  0  0
 39 67  2  0  0  0
 40 52  1  0  0  0
 40 53  2  0  0  0
 40 58  1  0  0  0
 41108  1  0  0  0
 41109  1  0  0  0
 41110  1  0  0  0
 41 48  1  0  0  0
 42 43  1  0  0  0
 42 66  1  0  0  0
 42111  1  0  0  0
 42112  1  0  0  0
 43 44  1  0  0  0
 44113  1  0  0  0
 45 46  2  0  0  0
 45114  1  0  0  0
 46115  1  0  0  0
 47116  1  0  0  0
 47117  1  0  0  0
 48 56  1  0  0  0
 48 65  1  0  0  0
 48118  1  0  0  0
 49 50  1  0  0  0
 49 53  1  0  0  0
 49 64  1  0  0  0
 49119  1  0  0  0
 50 51  1  0  0  0
 50120  1  0  0  0
 50121  1  0  0  0
 51 52  1  0  0  0
 51122  1  0  0  0
 51123  1  0  0  0
 52124  1  0  0  0
 52125  1  0  0  0
 53 54  1  0  0  0
 54 55  2  0  0  0
 54126  1  0  0  0
 55 57  1  0  0  0
 55127  1  0  0  0
 56 69  2  0  0  0
 57 58  2  0  0  0
 57128  1  0  0  0
 58129  1  0  0  0
 59 60  1  0  0  0
 59 61  1  0  0  0
 59 62  1  0  0  0
 60130  1  0  0  0
 60131  1  0  0  0
 60132  1  0  0  0
 61133  1  0  0  0
 61134  1  0  0  0
 61135  1  0  0  0
 62136  1  0  0  0
 62137  1  0  0  0
 62138  1  0  0  0
 63 65  1  0  0  0
 63139  1  0  0  0
 63140  1  0  0  0
 63141  1  0  0  0
 64142  1  0  0  0
 65143  1  0  0  0
 68 81  1  0  0  0
 71 72  2  0  0  0
 71 73  1  0  0  0
 71144  1  0  0  0
 72 74  1  0  0  0
 72 77  1  0  0  0
 73 75  2  0  0  0
 73 78  1  0  0  0
 74 79  1  0  0  0
 74 82  2  0  0  0
 75 82  1  0  0  0
 75 84  1  0  0  0
 76 79  1  0  0  0
 76145  1  0  0  0
 76146  1  0  0  0
 76147  1  0  0  0
 77 80  1  0  0  0
 77148  1  0  0  0
 77149  1  0  0  0
 78 83  1  0  0  0
 78150  1  0  0  0
 78151  1  0  0  0
 79152  1  0  0  0
 79153  1  0  0  0
 80 81  1  0  0  0
 80154  1  0  0  0
 80155  1  0  0  0
 81156  1  0  0  0
 81157  1  0  0  0
 83158  1  0  0  0
M  ISO  4   1 100  68 101  81 101  83 100
M  END
> <chiral flag>
0

> <version>
0

> <s_m_source_file>
/data/baiqing/PycharmProjects/Reinvent-master-3.2/result/LINK_invent/BTK/process_docking_weight1_custom_sum_contain_oxygen_bond_distance_aromatic_linkinvent_7_9_3/rearranged_h_0033.sdf

> <i_m_source_file_index>
4

> <r_mmod_Potential_Energy-OPLS-2005>
11704.2724609375

> <r_mmod_Stretch_Energy-OPLS-2005>
6783.55224609375

> <r_mmod_Bend_Energy-OPLS-2005>
992.499267578125

> <r_mmod_Torsional_Energy-OPLS-2005>
357.430572509766

> <r_mmod_Improper_Torsional_Energy-OPLS-2005>
35.6775512695312

> <r_mmod_Van_der_Waal_Energy-OPLS-2005>
1954.85705566406

> <r_mmod_Electrostatic_Energy-OPLS-2005>
-451.201354980469

> <r_mmod_Solvation_Energy-OPLS-2005>
-250.037261962891

> <b_mmod_Minimization_Converged-OPLS-2005>
0

> <r_mmod_RMS_Derivative-OPLS-2005>
4.19491386413574

$$$$
4
                    3D
 Structure written by MMmdl.
176184  0  0  1  0            999 V2000
  -30.7076  -14.4280   20.5708 C   0  0  0  0  0  0
  -30.4147  -12.2831   19.4135 C   0  0  0  0  0  0
  -29.4957  -12.5227   18.1982 C   0  0  0  0  0  0
  -28.0135  -12.3931   18.6010 C   0  0  0  0  0  0
  -27.6692  -13.2019   19.8812 C   0  0  2  0  0  0
  -28.7081  -12.9524   20.9997 C   0  0  0  0  0  0
  -25.2661  -13.8134   20.5672 C   0  0  0  0  0  0
  -24.1899  -13.0419   20.9154 C   0  0  0  0  0  0
  -24.6440  -11.6879   20.8699 C   0  0  0  0  0  0
  -23.9085  -10.4276   21.0384 C   0  0  0  0  0  0
  -24.3625   -9.4199   21.9175 C   0  0  0  0  0  0
  -23.6300   -8.2242   22.0768 C   0  0  0  0  0  0
  -22.4285   -8.0287   21.3562 C   0  0  0  0  0  0
  -21.9916   -9.0249   20.4659 C   0  0  0  0  0  0
  -22.7248  -10.2123   20.3056 C   0  0  0  0  0  0
  -21.6875   -6.0747   22.5280 C   0  0  0  0  0  0
  -21.4008   -6.5650   23.8207 C   0  0  0  0  0  0
  -21.3657   -5.6800   24.9164 C   0  0  0  0  0  0
  -21.6056   -4.3067   24.7229 C   0  0  0  0  0  0
  -21.8819   -3.8156   23.4351 C   0  0  0  0  0  0
  -21.9200   -4.6972   22.3402 C   0  0  0  0  0  0
  -22.7933  -13.5237   21.1782 C   0  0  0  0  0  0
  -22.1678   -4.2154   21.0984 F   0  0  0  0  0  0
  -21.5623   -3.4550   25.7742 F   0  0  0  0  0  0
  -30.0413  -13.2523   20.4541 N   0  0  0  0  0  0
  -26.3081  -12.9288   20.3367 N   0  0  0  0  0  0
  -25.9363  -11.6442   20.5725 N   0  0  0  0  0  0
  -22.0577  -12.8238   22.0343 N   0  0  0  0  0  0
  -25.4393  -15.1852   20.4075 N   0  0  0  0  0  0
  -31.8340  -14.6081   20.0949 O   0  0  0  0  0  0
  -21.6662   -6.8885   21.4246 O   0  0  0  0  0  0
  -22.3630  -14.5553   20.6636 O   0  0  0  0  0  0
  -24.6066  -31.8708   23.2156 C   0  0  0  0  0  0
  -25.8986  -32.4828   23.8420 C   0  0  1  0  0  0
  -27.2370  -27.4883   20.0762 C   0  0  0  0  0  0
  -25.5867  -33.8630   24.2332 N   0  0  0  0  0  0
  -23.3930  -30.4909   21.5575 C   0  0  2  0  0  0
  -24.8405  -28.9715   20.1068 C   0  0  0  0  0  0
  -22.7371  -29.4623   22.5053 C   0  0  0  0  0  0
  -18.0265  -28.1360   22.8506 C   0  0  0  0  0  0
  -24.1475  -36.7313   23.2641 C   0  0  0  0  0  0
  -25.9166  -30.8486   21.3667 C   0  0  0  0  0  0
  -25.9946  -29.4927   20.7035 C   0  0  0  0  0  0
  -27.1974  -28.7585   20.6832 C   0  0  0  0  0  0
  -26.0696  -26.9691   19.4730 C   0  0  0  0  0  0
  -24.8726  -27.7085   19.4868 C   0  0  0  0  0  0
  -23.5936  -29.8247   20.1689 C   0  0  0  0  0  0
  -25.4094  -36.3114   24.0332 C   0  0  1  0  0  0
  -20.5837  -28.3615   23.1375 C   0  0  2  0  0  0
  -20.6755  -26.9360   22.5464 C   0  0  0  0  0  0
  -19.5735  -26.6369   21.5257 C   0  0  0  0  0  0
  -18.1900  -26.7912   22.1639 C   0  0  0  0  0  0
  -19.1504  -28.8808   23.2928 C   0  0  0  0  0  0
  -18.9431  -30.1433   23.8908 C   0  0  0  0  0  0
  -17.6429  -30.6573   24.0551 C   0  0  0  0  0  0
  -25.9021  -34.9482   23.5141 C   0  0  0  0  0  0
  -16.5319  -29.9059   23.6343 C   0  0  0  0  0  0
  -16.7251  -28.6473   23.0364 C   0  0  0  0  0  0
  -26.4443  -31.6596   25.0745 C   0  0  0  0  0  0
  -25.3725  -31.3704   26.1515 C   0  0  0  0  0  0
  -27.0249  -30.3010   24.6141 C   0  0  0  0  0  0
  -27.6005  -32.4343   25.7492 C   0  0  0  0  0  0
  -27.5573  -37.1804   24.8461 C   0  0  0  0  0  0
  -21.4098  -29.2980   22.3774 N   0  0  0  0  0  0
  -26.4286  -37.3786   23.9407 N   0  0  0  0  0  0
  -24.6558  -31.0830   22.1060 N   0  0  0  0  0  0
  -23.4152  -28.8160   23.3076 O   0  0  0  0  0  0
  -28.4063  -26.7720   20.1026 O   0  0  0  0  0  0
  -26.5596  -34.8928   22.4711 O   0  0  0  0  0  0
  -23.5263  -32.1460   23.7592 O   0  0  0  0  0  0
  -29.1258  -25.1822   23.1343 C   0  0  0  0  0  0
  -26.8696  -25.9505   22.7772 C   0  0  0  0  0  0
  -28.1095  -25.5588   22.2389 C   0  0  0  0  0  0
  -28.8676  -25.1797   24.5270 C   0  0  0  0  0  0
  -27.5819  -25.5934   24.9574 C   0  0  0  0  0  0
  -26.2163  -24.4190   26.7395 C   0  0  0  0  0  0
  -29.9328  -24.7662   25.5491 C   0  0  0  0  0  0
  -28.3292  -25.4902   20.7282 C   0  0  0  0  0  0
  -27.1525  -25.5950   26.4210 C   0  0  0  0  0  0
  -31.2162  -24.1287   24.9906 C   0  0  0  0  0  0
  -31.0332  -22.7095   24.4144 C   0  0  0  0  0  0
  -32.0565  -22.4342   23.3037 C   0  0  0  0  0  0
  -32.1680  -20.9716   22.8437 C   0  0  0  0  0  0
  -30.8331  -20.2914   22.4914 C   0  0  0  0  0  0
  -31.0240  -19.0974   21.5384 C   0  0  0  0  0  0
  -30.1836  -17.8485   21.8639 C   0  0  0  0  0  0
  -30.2459  -16.8533   20.6900 C   0  0  0  0  0  0
  -26.6168  -25.9793   24.0992 N   0  0  0  0  0  0
  -29.9826  -15.4536   21.0465 N   0  0  0  0  0  0
  -31.4601  -12.3711   19.1150 H   0  0  0  0  0  0
  -30.2924  -11.2652   19.7868 H   0  0  0  0  0  0
  -29.7266  -11.8091   17.4057 H   0  0  0  0  0  0
  -29.6846  -13.5152   17.7831 H   0  0  0  0  0  0
  -27.7981  -11.3360   18.7488 H   0  0  0  0  0  0
  -27.3751  -12.7179   17.7775 H   0  0  0  0  0  0
  -27.7228  -14.2560   19.6103 H   0  0  0  0  0  0
  -28.6776  -11.9094   21.3194 H   0  0  0  0  0  0
  -28.4784  -13.5424   21.8865 H   0  0  0  0  0  0
  -25.2776   -9.5682   22.4729 H   0  0  0  0  0  0
  -24.0027   -7.4639   22.7496 H   0  0  0  0  0  0
  -21.0844   -8.8751   19.8954 H   0  0  0  0  0  0
  -22.3704  -10.9652   19.6155 H   0  0  0  0  0  0
  -21.1989   -7.6159   23.9714 H   0  0  0  0  0  0
  -21.1489   -6.0529   25.9060 H   0  0  0  0  0  0
  -22.0602   -2.7619   23.2854 H   0  0  0  0  0  0
  -22.4230  -11.9900   22.4690 H   0  0  0  0  0  0
  -21.1193  -13.1246   22.2547 H   0  0  0  0  0  0
  -24.6671  -15.8341   20.5106 H   0  0  0  0  0  0
  -26.2911  -15.6282   20.0824 H   0  0  0  0  0  0
  -26.7038  -32.5512   23.1156 H   0  0  0  0  0  0
  -24.9978  -33.9811   25.0444 H   0  0  0  0  0  0
  -22.6768  -31.3026   21.4231 H   0  0  0  0  0  0
  -23.3744  -35.9639   23.3329 H   0  0  0  0  0  0
  -24.3552  -36.8933   22.2055 H   0  0  0  0  0  0
  -23.7257  -37.6531   23.6644 H   0  0  0  0  0  0
  -26.0377  -31.6275   20.6121 H   0  0  0  0  0  0
  -26.7977  -30.8815   21.9944 H   0  0  0  0  0  0
  -28.0877  -29.1551   21.1495 H   0  0  0  0  0  0
  -26.0850  -26.0016   18.9906 H   0  0  0  0  0  0
  -23.9875  -27.3091   19.0104 H   0  0  0  0  0  0
  -23.6637  -30.5996   19.4039 H   0  0  0  0  0  0
  -22.7251  -29.2240   19.8956 H   0  0  0  0  0  0
  -25.1277  -36.1970   25.0822 H   0  0  0  0  0  0
  -20.9909  -28.3175   24.1500 H   0  0  0  0  0  0
  -20.5696  -26.2195   23.3626 H   0  0  0  0  0  0
  -21.6616  -26.7430   22.1214 H   0  0  0  0  0  0
  -19.6889  -25.6296   21.1253 H   0  0  0  0  0  0
  -19.6698  -27.3202   20.6809 H   0  0  0  0  0  0
  -17.4187  -26.6697   21.4021 H   0  0  0  0  0  0
  -18.0250  -26.0048   22.9020 H   0  0  0  0  0  0
  -19.7911  -30.7272   24.2243 H   0  0  0  0  0  0
  -17.4981  -31.6263   24.5155 H   0  0  0  0  0  0
  -15.5316  -30.2948   23.7697 H   0  0  0  0  0  0
  -15.8649  -28.0809   22.7073 H   0  0  0  0  0  0
  -24.5867  -30.7081   25.7882 H   0  0  0  0  0  0
  -24.8940  -32.2858   26.4999 H   0  0  0  0  0  0
  -25.8089  -30.8854   27.0255 H   0  0  0  0  0  0
  -26.2791  -29.6809   24.1150 H   0  0  0  0  0  0
  -27.3935  -29.7206   25.4616 H   0  0  0  0  0  0
  -27.8660  -30.4300   23.9324 H   0  0  0  0  0  0
  -27.2581  -33.3608   26.2099 H   0  0  0  0  0  0
  -28.3762  -32.6994   25.0301 H   0  0  0  0  0  0
  -28.0710  -31.8477   26.5392 H   0  0  0  0  0  0
  -28.2600  -38.0092   24.7503 H   0  0  0  0  0  0
  -28.1057  -36.2634   24.6265 H   0  0  0  0  0  0
  -27.2288  -37.1446   25.8864 H   0  0  0  0  0  0
  -20.9237  -29.8666   21.6981 H   0  0  0  0  0  0
  -26.0187  -38.2857   24.1426 H   0  0  0  0  0  0
  -30.0834  -24.8830   22.7382 H   0  0  0  0  0  0
  -26.0453  -26.2419   22.1435 H   0  0  0  0  0  0
  -25.8996  -24.4364   27.7836 H   0  0  0  0  0  0
  -26.6986  -23.4605   26.5450 H   0  0  0  0  0  0
  -25.3221  -24.4636   26.1171 H   0  0  0  0  0  0
  -29.4925  -24.0789   26.2739 H   0  0  0  0  0  0
  -30.2078  -25.6710   26.0971 H   0  0  0  0  0  0
  -27.5577  -24.8664   20.2777 H   0  0  0  0  0  0
  -29.2652  -24.9717   20.5215 H   0  0  0  0  0  0
  -26.6455  -26.5349   26.6450 H   0  0  0  0  0  0
  -28.0092  -25.5712   27.0939 H   0  0  0  0  0  0
  -31.9601  -24.0728   25.7872 H   0  0  0  0  0  0
  -31.6594  -24.8028   24.2569 H   0  0  0  0  0  0
  -30.0287  -22.5777   24.0096 H   0  0  0  0  0  0
  -31.1312  -21.9787   25.2178 H   0  0  0  0  0  0
  -33.0431  -22.7586   23.6352 H   0  0  0  0  0  0
  -31.8072  -23.0596   22.4458 H   0  0  0  0  0  0
  -32.6807  -20.3870   23.6084 H   0  0  0  0  0  0
  -32.8273  -20.9548   21.9734 H   0  0  0  0  0  0
  -30.1755  -21.0176   22.0102 H   0  0  0  0  0  0
  -30.3291  -19.9817   23.4078 H   0  0  0  0  0  0
  -32.0724  -18.7969   21.5275 H   0  0  0  0  0  0
  -30.8090  -19.4307   20.5212 H   0  0  0  0  0  0
  -29.1471  -18.1356   22.0467 H   0  0  0  0  0  0
  -30.5480  -17.3955   22.7863 H   0  0  0  0  0  0
  -29.5103  -17.1478   19.9400 H   0  0  0  0  0  0
  -31.2133  -16.9518   20.1930 H   0  0  0  0  0  0
  -29.0729  -15.2269   21.4194 H   0  0  0  0  0  0
  1 25  1  0  0  0
  1 30  2  0  0  0
  1 89  1  0  0  0
  2  3  1  0  0  0
  2 25  1  0  0  0
  2 90  1  0  0  0
  2 91  1  0  0  0
  3  4  1  0  0  0
  3 92  1  0  0  0
  3 93  1  0  0  0
  4  5  1  0  0  0
  4 94  1  0  0  0
  4 95  1  0  0  0
  5  6  1  0  0  0
  5 26  1  0  0  0
  5 96  1  0  0  0
  6 25  1  0  0  0
  6 97  1  0  0  0
  6 98  1  0  0  0
  7  8  2  0  0  0
  7 26  1  0  0  0
  7 29  1  0  0  0
  8  9  1  0  0  0
  8 22  1  0  0  0
  9 10  1  0  0  0
  9 27  2  0  0  0
 10 11  2  0  0  0
 10 15  1  0  0  0
 11 12  1  0  0  0
 11 99  1  0  0  0
 12 13  2  0  0  0
 12100  1  0  0  0
 13 14  1  0  0  0
 13 31  1  0  0  0
 14 15  2  0  0  0
 14101  1  0  0  0
 15102  1  0  0  0
 16 17  2  0  0  0
 16 21  1  0  0  0
 16 31  1  0  0  0
 17 18  1  0  0  0
 17103  1  0  0  0
 18 19  2  0  0  0
 18104  1  0  0  0
 19 20  1  0  0  0
 19 24  1  0  0  0
 20 21  2  0  0  0
 20105  1  0  0  0
 21 23  1  0  0  0
 22 28  1  0  0  0
 22 32  2  0  0  0
 26 27  1  0  0  0
 28106  1  0  0  0
 28107  1  0  0  0
 29108  1  0  0  0
 29109  1  0  0  0
 33 34  1  0  0  0
 33 66  1  0  0  0
 33 70  2  0  0  0
 34 36  1  0  0  0
 34 59  1  0  0  0
 34110  1  0  0  0
 35 44  2  0  0  0
 35 45  1  0  0  0
 35 68  1  0  0  0
 36 56  1  0  0  0
 36111  1  0  0  0
 37 39  1  0  0  0
 37 47  1  0  0  0
 37 66  1  0  0  0
 37112  1  0  0  0
 38 43  2  0  0  0
 38 46  1  0  0  0
 38 47  1  0  0  0
 39 64  1  0  0  0
 39 67  2  0  0  0
 40 52  1  0  0  0
 40 53  2  0  0  0
 40 58  1  0  0  0
 41113  1  0  0  0
 41114  1  0  0  0
 41115  1  0  0  0
 41 48  1  0  0  0
 42 43  1  0  0  0
 42 66  1  0  0  0
 42116  1  0  0  0
 42117  1  0  0  0
 43 44  1  0  0  0
 44118  1  0  0  0
 45 46  2  0  0  0
 45119  1  0  0  0
 46120  1  0  0  0
 47121  1  0  0  0
 47122  1  0  0  0
 48 56  1  0  0  0
 48 65  1  0  0  0
 48123  1  0  0  0
 49 50  1  0  0  0
 49 53  1  0  0  0
 49 64  1  0  0  0
 49124  1  0  0  0
 50 51  1  0  0  0
 50125  1  0  0  0
 50126  1  0  0  0
 51 52  1  0  0  0
 51127  1  0  0  0
 51128  1  0  0  0
 52129  1  0  0  0
 52130  1  0  0  0
 53 54  1  0  0  0
 54 55  2  0  0  0
 54131  1  0  0  0
 55 57  1  0  0  0
 55132  1  0  0  0
 56 69  2  0  0  0
 57 58  2  0  0  0
 57133  1  0  0  0
 58134  1  0  0  0
 59 60  1  0  0  0
 59 61  1  0  0  0
 59 62  1  0  0  0
 60135  1  0  0  0
 60136  1  0  0  0
 60137  1  0  0  0
 61138  1  0  0  0
 61139  1  0  0  0
 61140  1  0  0  0
 62141  1  0  0  0
 62142  1  0  0  0
 62143  1  0  0  0
 63 65  1  0  0  0
 63144  1  0  0  0
 63145  1  0  0  0
 63146  1  0  0  0
 64147  1  0  0  0
 65148  1  0  0  0
 68 78  1  0  0  0
 71 73  2  0  0  0
 71 74  1  0  0  0
 71149  1  0  0  0
 72 73  1  0  0  0
 72 88  2  0  0  0
 72150  1  0  0  0
 73 78  1  0  0  0
 74 75  2  0  0  0
 74 77  1  0  0  0
 75 79  1  0  0  0
 75 88  1  0  0  0
 76 79  1  0  0  0
 76151  1  0  0  0
 76152  1  0  0  0
 76153  1  0  0  0
 77 80  1  0  0  0
 77154  1  0  0  0
 77155  1  0  0  0
 78156  1  0  0  0
 78157  1  0  0  0
 79158  1  0  0  0
 79159  1  0  0  0
 80 81  1  0  0  0
 80160  1  0  0  0
 80161  1  0  0  0
 81 82  1  0  0  0
 81162  1  0  0  0
 81163  1  0  0  0
 82 83  1  0  0  0
 82164  1  0  0  0
 82165  1  0  0  0
 83 84  1  0  0  0
 83166  1  0  0  0
 83167  1  0  0  0
 84 85  1  0  0  0
 84168  1  0  0  0
 84169  1  0  0  0
 85 86  1  0  0  0
 85170  1  0  0  0
 85171  1  0  0  0
 86 87  1  0  0  0
 86172  1  0  0  0
 86173  1  0  0  0
 87 89  1  0  0  0
 87174  1  0  0  0
 87175  1  0  0  0
 89176  1  0  0  0
M  ISO  4   1 100  68 101  78 101  89 100
M  END
> <chiral flag>
0

> <version>
0

> <s_m_source_file>
/data/baiqing/PycharmProjects/Reinvent-master-3.2/result/LINK_invent/BTK/process_docking_weight1_custom_sum_contain_oxygen_bond_distance_aromatic_linkinvent_7_9_3/rearranged_h_0033.sdf

> <i_m_source_file_index>
5

> <r_mmod_Potential_Energy-OPLS-2005>
-171.036315917969

> <r_mmod_Stretch_Energy-OPLS-2005>
32.9179496765137

> <r_mmod_Bend_Energy-OPLS-2005>
97.1283569335938

> <r_mmod_Torsional_Energy-OPLS-2005>
248.543869018555

> <r_mmod_Improper_Torsional_Energy-OPLS-2005>
5.94667911529541

> <r_mmod_Van_der_Waal_Energy-OPLS-2005>
156.718368530273

> <r_mmod_Electrostatic_Energy-OPLS-2005>
-508.178588867188

> <r_mmod_Solvation_Energy-OPLS-2005>
-214.149597167969

> <b_mmod_Minimization_Converged-OPLS-2005>
0

> <r_mmod_RMS_Derivative-OPLS-2005>
3.98506283760071

$$$$
5
                    3D
 Structure written by MMmdl.
165174  0  0  1  0            999 V2000
  -30.7771  -14.3610   20.6927 C   0  0  0  0  0  0
  -30.4154  -12.2937   19.3938 C   0  0  0  0  0  0
  -29.4801  -12.5225   18.1929 C   0  0  0  0  0  0
  -28.0057  -12.3779   18.6123 C   0  0  0  0  0  0
  -27.6651  -13.2040   19.8797 C   0  0  2  0  0  0
  -28.7034  -12.9529   20.9943 C   0  0  0  0  0  0
  -25.2599  -13.8166   20.5681 C   0  0  0  0  0  0
  -24.1842  -13.0453   20.9169 C   0  0  0  0  0  0
  -24.6391  -11.6915   20.8739 C   0  0  0  0  0  0
  -23.9059  -10.4299   21.0413 C   0  0  0  0  0  0
  -24.3616   -9.4215   21.9189 C   0  0  0  0  0  0
  -23.6294   -8.2251   22.0759 C   0  0  0  0  0  0
  -22.4276   -8.0287   21.3550 C   0  0  0  0  0  0
  -21.9910   -9.0260   20.4649 C   0  0  0  0  0  0
  -22.7235  -10.2141   20.3056 C   0  0  0  0  0  0
  -21.6852   -6.0741   22.5285 C   0  0  0  0  0  0
  -21.4012   -6.5645   23.8219 C   0  0  0  0  0  0
  -21.3658   -5.6795   24.9181 C   0  0  0  0  0  0
  -21.6041   -4.3058   24.7229 C   0  0  0  0  0  0
  -21.8819   -3.8153   23.4349 C   0  0  0  0  0  0
  -21.9193   -4.6970   22.3407 C   0  0  0  0  0  0
  -22.7865  -13.5250   21.1836 C   0  0  0  0  0  0
  -22.1660   -4.2157   21.0982 F   0  0  0  0  0  0
  -21.5629   -3.4539   25.7741 F   0  0  0  0  0  0
  -30.0463  -13.2413   20.4552 N   0  0  0  0  0  0
  -26.3042  -12.9334   20.3393 N   0  0  0  0  0  0
  -25.9317  -11.6492   20.5776 N   0  0  0  0  0  0
  -22.0503  -12.8241   22.0392 N   0  0  0  0  0  0
  -25.4341  -15.1883   20.4094 N   0  0  0  0  0  0
  -31.7920  -14.6594   20.0554 O   0  0  0  0  0  0
  -21.6638   -6.8886   21.4246 O   0  0  0  0  0  0
  -22.3549  -14.5559   20.6691 O   0  0  0  0  0  0
  -24.6110  -31.8698   23.2121 C   0  0  0  0  0  0
  -25.9018  -32.4832   23.8417 C   0  0  1  0  0  0
  -27.2430  -27.4588   20.0965 C   0  0  0  0  0  0
  -25.5880  -33.8627   24.2340 N   0  0  0  0  0  0
  -23.3998  -30.4909   21.5510 C   0  0  2  0  0  0
  -24.8509  -28.9524   20.1243 C   0  0  0  0  0  0
  -22.7388  -29.4666   22.5007 C   0  0  0  0  0  0
  -18.0267  -28.1366   22.8496 C   0  0  0  0  0  0
  -24.1489  -36.7320   23.2638 C   0  0  0  0  0  0
  -25.9259  -30.8374   21.3666 C   0  0  0  0  0  0
  -26.0066  -29.4686   20.7267 C   0  0  0  0  0  0
  -27.2075  -28.7235   20.7229 C   0  0  0  0  0  0
  -26.0780  -26.9497   19.4909 C   0  0  0  0  0  0
  -24.8781  -27.6869   19.5116 C   0  0  0  0  0  0
  -23.6105  -29.8173   20.1682 C   0  0  0  0  0  0
  -25.4106  -36.3116   24.0337 C   0  0  1  0  0  0
  -20.5850  -28.3647   23.1323 C   0  0  2  0  0  0
  -20.6750  -26.9388   22.5414 C   0  0  0  0  0  0
  -19.5733  -26.6380   21.5202 C   0  0  0  0  0  0
  -18.1913  -26.7917   22.1620 C   0  0  0  0  0  0
  -19.1514  -28.8827   23.2904 C   0  0  0  0  0  0
  -18.9455  -30.1440   23.8907 C   0  0  0  0  0  0
  -17.6459  -30.6580   24.0563 C   0  0  0  0  0  0
  -25.9026  -34.9478   23.5139 C   0  0  0  0  0  0
  -16.5347  -29.9082   23.6324 C   0  0  0  0  0  0
  -16.7258  -28.6496   23.0344 C   0  0  0  0  0  0
  -26.4458  -31.6609   25.0737 C   0  0  0  0  0  0
  -25.3738  -31.3707   26.1502 C   0  0  0  0  0  0
  -27.0297  -30.3060   24.6092 C   0  0  0  0  0  0
  -27.6030  -32.4337   25.7500 C   0  0  0  0  0  0
  -27.5586  -37.1811   24.8462 C   0  0  0  0  0  0
  -21.4117  -29.3020   22.3732 N   0  0  0  0  0  0
  -26.4295  -37.3793   23.9408 N   0  0  0  0  0  0
  -24.6631  -31.0816   22.1009 N   0  0  0  0  0  0
  -23.4171  -28.8213   23.3043 O   0  0  0  0  0  0
  -28.4015  -26.7351   19.9803 O   0  0  0  0  0  0
  -26.5597  -34.8923   22.4704 O   0  0  0  0  0  0
  -23.5306  -32.1439   23.7524 O   0  0  0  0  0  0
  -30.1142  -20.4334   21.2874 C   0  0  0  0  0  0
  -29.8257  -21.8099   21.2355 C   0  0  0  0  0  0
  -28.5190  -22.2434   21.5596 C   0  0  0  0  0  0
  -29.1107  -19.5305   21.6923 C   0  0  0  0  0  0
  -27.5692  -21.2636   21.9303 C   0  0  0  0  0  0
  -30.9150  -22.7940   20.8373 C   0  0  0  0  0  0
  -28.1464  -23.7318   21.5411 C   0  0  0  0  0  0
  -30.6224  -24.2269   21.3046 C   0  0  0  0  0  0
  -29.2034  -24.6585   20.9000 C   0  0  2  0  0  0
  -26.1414  -21.6253   22.2963 C   0  0  0  0  0  0
  -29.3501  -18.0276   21.8537 C   0  0  0  0  0  0
  -28.9274  -26.1612   21.1722 C   0  0  0  0  0  0
  -30.8238  -17.5768   21.7658 C   0  0  0  0  0  0
  -31.1135  -16.1843   22.3613 C   0  0  0  0  0  0
  -27.8633  -19.9472   21.9964 N   0  0  0  0  0  0
  -30.3659  -15.0953   21.7341 N   0  0  0  0  0  0
  -31.4570  -12.3973   19.0843 H   0  0  0  0  0  0
  -30.3194  -11.2724   19.7650 H   0  0  0  0  0  0
  -29.7115  -11.8163   17.3946 H   0  0  0  0  0  0
  -29.6472  -13.5187   17.7809 H   0  0  0  0  0  0
  -27.8120  -11.3200   18.7961 H   0  0  0  0  0  0
  -27.3500  -12.6675   17.7903 H   0  0  0  0  0  0
  -27.7221  -14.2572   19.6038 H   0  0  0  0  0  0
  -28.6651  -11.9118   21.3186 H   0  0  0  0  0  0
  -28.4478  -13.5373   21.8781 H   0  0  0  0  0  0
  -25.2766   -9.5692   22.4759 H   0  0  0  0  0  0
  -24.0005   -7.4644   22.7481 H   0  0  0  0  0  0
  -21.0845   -8.8781   19.8954 H   0  0  0  0  0  0
  -22.3702  -10.9680   19.6164 H   0  0  0  0  0  0
  -21.2003   -7.6153   23.9726 H   0  0  0  0  0  0
  -21.1475   -6.0524   25.9083 H   0  0  0  0  0  0
  -22.0597   -2.7616   23.2848 H   0  0  0  0  0  0
  -22.4111  -11.9886   22.4756 H   0  0  0  0  0  0
  -21.1137  -13.1283   22.2623 H   0  0  0  0  0  0
  -24.6757  -15.8510   20.5281 H   0  0  0  0  0  0
  -26.2968  -15.6237   20.1083 H   0  0  0  0  0  0
  -26.7088  -32.5558   23.1190 H   0  0  0  0  0  0
  -25.0045  -33.9792   25.0500 H   0  0  0  0  0  0
  -22.6890  -31.3073   21.4082 H   0  0  0  0  0  0
  -23.3744  -35.9662   23.3308 H   0  0  0  0  0  0
  -24.3589  -36.8921   22.2049 H   0  0  0  0  0  0
  -23.7250  -37.6528   23.6656 H   0  0  0  0  0  0
  -26.0362  -31.5993   20.5936 H   0  0  0  0  0  0
  -26.8132  -30.8954   21.9839 H   0  0  0  0  0  0
  -28.1055  -29.1258   21.1726 H   0  0  0  0  0  0
  -26.1051  -25.9878   18.9967 H   0  0  0  0  0  0
  -23.9914  -27.2825   19.0428 H   0  0  0  0  0  0
  -23.7186  -30.5887   19.4051 H   0  0  0  0  0  0
  -22.7355  -29.2340   19.8741 H   0  0  0  0  0  0
  -25.1284  -36.1985   25.0827 H   0  0  0  0  0  0
  -20.9946  -28.3205   24.1441 H   0  0  0  0  0  0
  -20.5642  -26.2254   23.3596 H   0  0  0  0  0  0
  -21.6623  -26.7428   22.1216 H   0  0  0  0  0  0
  -19.6893  -25.6288   21.1233 H   0  0  0  0  0  0
  -19.6676  -27.3186   20.6729 H   0  0  0  0  0  0
  -17.4180  -26.6663   21.4024 H   0  0  0  0  0  0
  -18.0315  -26.0060   22.9017 H   0  0  0  0  0  0
  -19.7936  -30.7237   24.2281 H   0  0  0  0  0  0
  -17.5024  -31.6263   24.5153 H   0  0  0  0  0  0
  -15.5350  -30.2984   23.7652 H   0  0  0  0  0  0
  -15.8658  -28.0821   22.7052 H   0  0  0  0  0  0
  -24.5892  -30.7069   25.7856 H   0  0  0  0  0  0
  -24.8959  -32.2864   26.4997 H   0  0  0  0  0  0
  -25.8104  -30.8857   27.0241 H   0  0  0  0  0  0
  -26.2842  -29.6821   24.1154 H   0  0  0  0  0  0
  -27.4082  -29.7288   25.4538 H   0  0  0  0  0  0
  -27.8670  -30.4389   23.9234 H   0  0  0  0  0  0
  -27.2634  -33.3615   26.2115 H   0  0  0  0  0  0
  -28.3826  -32.6930   25.0326 H   0  0  0  0  0  0
  -28.0721  -31.8453   26.5393 H   0  0  0  0  0  0
  -28.2600  -38.0115   24.7518 H   0  0  0  0  0  0
  -28.1081  -36.2642   24.6280 H   0  0  0  0  0  0
  -27.2301  -37.1445   25.8863 H   0  0  0  0  0  0
  -20.9269  -29.8776   21.6985 H   0  0  0  0  0  0
  -26.0188  -38.2871   24.1407 H   0  0  0  0  0  0
  -31.1069  -20.0903   21.0318 H   0  0  0  0  0  0
  -31.0082  -22.7746   19.7501 H   0  0  0  0  0  0
  -31.8758  -22.4641   21.2352 H   0  0  0  0  0  0
  -27.9930  -24.0277   22.5805 H   0  0  0  0  0  0
  -27.1923  -23.8760   21.0330 H   0  0  0  0  0  0
  -31.3674  -24.9004   20.8815 H   0  0  0  0  0  0
  -30.7283  -24.2886   22.3885 H   0  0  0  0  0  0
  -29.1532  -24.5062   19.8202 H   0  0  0  0  0  0
  -26.1211  -22.3133   23.1419 H   0  0  0  0  0  0
  -25.5634  -20.7420   22.5715 H   0  0  0  0  0  0
  -25.6371  -22.0976   21.4534 H   0  0  0  0  0  0
  -28.7585  -17.4931   21.1087 H   0  0  0  0  0  0
  -28.9503  -17.7349   22.8265 H   0  0  0  0  0  0
  -29.8517  -26.6908   21.4072 H   0  0  0  0  0  0
  -28.2670  -26.2968   22.0317 H   0  0  0  0  0  0
  -31.4381  -18.2776   22.3320 H   0  0  0  0  0  0
  -31.1685  -17.6341   20.7327 H   0  0  0  0  0  0
  -30.8745  -16.1856   23.4256 H   0  0  0  0  0  0
  -32.1851  -15.9807   22.3029 H   0  0  0  0  0  0
  -29.5375  -14.7689   22.2100 H   0  0  0  0  0  0
  1 25  1  0  0  0
  1 30  2  0  0  0
  1 86  1  0  0  0
  2  3  1  0  0  0
  2 25  1  0  0  0
  2 87  1  0  0  0
  2 88  1  0  0  0
  3  4  1  0  0  0
  3 89  1  0  0  0
  3 90  1  0  0  0
  4  5  1  0  0  0
  4 91  1  0  0  0
  4 92  1  0  0  0
  5  6  1  0  0  0
  5 26  1  0  0  0
  5 93  1  0  0  0
  6 25  1  0  0  0
  6 94  1  0  0  0
  6 95  1  0  0  0
  7  8  2  0  0  0
  7 26  1  0  0  0
  7 29  1  0  0  0
  8  9  1  0  0  0
  8 22  1  0  0  0
  9 10  1  0  0  0
  9 27  2  0  0  0
 10 11  2  0  0  0
 10 15  1  0  0  0
 11 12  1  0  0  0
 11 96  1  0  0  0
 12 13  2  0  0  0
 12 97  1  0  0  0
 13 14  1  0  0  0
 13 31  1  0  0  0
 14 15  2  0  0  0
 14 98  1  0  0  0
 15 99  1  0  0  0
 16 17  2  0  0  0
 16 21  1  0  0  0
 16 31  1  0  0  0
 17 18  1  0  0  0
 17100  1  0  0  0
 18 19  2  0  0  0
 18101  1  0  0  0
 19 20  1  0  0  0
 19 24  1  0  0  0
 20 21  2  0  0  0
 20102  1  0  0  0
 21 23  1  0  0  0
 22 28  1  0  0  0
 22 32  2  0  0  0
 26 27  1  0  0  0
 28103  1  0  0  0
 28104  1  0  0  0
 29105  1  0  0  0
 29106  1  0  0  0
 33 34  1  0  0  0
 33 66  1  0  0  0
 33 70  2  0  0  0
 34 36  1  0  0  0
 34 59  1  0  0  0
 34107  1  0  0  0
 35 44  2  0  0  0
 35 45  1  0  0  0
 35 68  1  0  0  0
 36 56  1  0  0  0
 36108  1  0  0  0
 37 39  1  0  0  0
 37 47  1  0  0  0
 37 66  1  0  0  0
 37109  1  0  0  0
 38 43  2  0  0  0
 38 46  1  0  0  0
 38 47  1  0  0  0
 39 64  1  0  0  0
 39 67  2  0  0  0
 40 52  1  0  0  0
 40 53  2  0  0  0
 40 58  1  0  0  0
 41110  1  0  0  0
 41111  1  0  0  0
 41112  1  0  0  0
 41 48  1  0  0  0
 42 43  1  0  0  0
 42 66  1  0  0  0
 42113  1  0  0  0
 42114  1  0  0  0
 43 44  1  0  0  0
 44115  1  0  0  0
 45 46  2  0  0  0
 45116  1  0  0  0
 46117  1  0  0  0
 47118  1  0  0  0
 47119  1  0  0  0
 48 56  1  0  0  0
 48 65  1  0  0  0
 48120  1  0  0  0
 49 50  1  0  0  0
 49 53  1  0  0  0
 49 64  1  0  0  0
 49121  1  0  0  0
 50 51  1  0  0  0
 50122  1  0  0  0
 50123  1  0  0  0
 51 52  1  0  0  0
 51124  1  0  0  0
 51125  1  0  0  0
 52126  1  0  0  0
 52127  1  0  0  0
 53 54  1  0  0  0
 54 55  2  0  0  0
 54128  1  0  0  0
 55 57  1  0  0  0
 55129  1  0  0  0
 56 69  2  0  0  0
 57 58  2  0  0  0
 57130  1  0  0  0
 58131  1  0  0  0
 59 60  1  0  0  0
 59 61  1  0  0  0
 59 62  1  0  0  0
 60132  1  0  0  0
 60133  1  0  0  0
 60134  1  0  0  0
 61135  1  0  0  0
 61136  1  0  0  0
 61137  1  0  0  0
 62138  1  0  0  0
 62139  1  0  0  0
 62140  1  0  0  0
 63 65  1  0  0  0
 63141  1  0  0  0
 63142  1  0  0  0
 63143  1  0  0  0
 64144  1  0  0  0
 65145  1  0  0  0
 68 82  1  0  0  0
 71 72  2  0  0  0
 71 74  1  0  0  0
 71146  1  0  0  0
 72 73  1  0  0  0
 72 76  1  0  0  0
 73 75  2  0  0  0
 73 77  1  0  0  0
 74 81  1  0  0  0
 74 85  2  0  0  0
 75 80  1  0  0  0
 75 85  1  0  0  0
 76 78  1  0  0  0
 76147  1  0  0  0
 76148  1  0  0  0
 77 79  1  0  0  0
 77149  1  0  0  0
 77150  1  0  0  0
 78 79  1  0  0  0
 78151  1  0  0  0
 78152  1  0  0  0
 79 82  1  0  0  0
 79153  1  0  0  0
 80154  1  0  0  0
 80155  1  0  0  0
 80156  1  0  0  0
 81 83  1  0  0  0
 81157  1  0  0  0
 81158  1  0  0  0
 82159  1  0  0  0
 82160  1  0  0  0
 83 84  1  0  0  0
 83161  1  0  0  0
 83162  1  0  0  0
 84 86  1  0  0  0
 84163  1  0  0  0
 84164  1  0  0  0
 86165  1  0  0  0
M  ISO  4   1 100  68 101  82 101  86 100
M  END
> <chiral flag>
0

> <version>
0

> <s_m_source_file>
/data/baiqing/PycharmProjects/Reinvent-master-3.2/result/LINK_invent/BTK/process_docking_weight1_custom_sum_contain_oxygen_bond_distance_aromatic_linkinvent_7_9_3/rearranged_h_0033.sdf

> <i_m_source_file_index>
6

> <r_mmod_Potential_Energy-OPLS-2005>
-233.148559570312

> <r_mmod_Stretch_Energy-OPLS-2005>
33.5409660339355

> <r_mmod_Bend_Energy-OPLS-2005>
95.4733428955078

> <r_mmod_Torsional_Energy-OPLS-2005>
236.364959716797

> <r_mmod_Improper_Torsional_Energy-OPLS-2005>
2.39424562454224

> <r_mmod_Van_der_Waal_Energy-OPLS-2005>
158.692596435547

> <r_mmod_Electrostatic_Energy-OPLS-2005>
-546.552062988281

> <r_mmod_Solvation_Energy-OPLS-2005>
-219.565139770508

> <b_mmod_Minimization_Converged-OPLS-2005>
0

> <r_mmod_RMS_Derivative-OPLS-2005>
1.48895347118378

$$$$
6
                    3D
 Structure written by MMmdl.
150158  0  0  1  0            999 V2000
  -30.5308  -14.9075   20.4398 C   0  0  0  0  0  0
  -30.4464  -12.5558   19.4934 C   0  0  0  0  0  0
  -29.5235  -12.5315   18.2517 C   0  0  0  0  0  0
  -28.0535  -12.3214   18.6642 C   0  0  0  0  0  0
  -27.6356  -13.2417   19.8402 C   0  0  2  0  0  0
  -28.6776  -13.2327   20.9776 C   0  0  0  0  0  0
  -25.2494  -13.8204   20.5696 C   0  0  0  0  0  0
  -24.1797  -13.0435   20.9207 C   0  0  0  0  0  0
  -24.6403  -11.6919   20.8737 C   0  0  0  0  0  0
  -23.9083  -10.4291   21.0401 C   0  0  0  0  0  0
  -24.3629   -9.4206   21.9182 C   0  0  0  0  0  0
  -23.6296   -8.2246   22.0756 C   0  0  0  0  0  0
  -22.4278   -8.0283   21.3545 C   0  0  0  0  0  0
  -21.9917   -9.0260   20.4648 C   0  0  0  0  0  0
  -22.7252  -10.2135   20.3054 C   0  0  0  0  0  0
  -21.6856   -6.0736   22.5278 C   0  0  0  0  0  0
  -21.4017   -6.5640   23.8211 C   0  0  0  0  0  0
  -21.3658   -5.6794   24.9174 C   0  0  0  0  0  0
  -21.6043   -4.3056   24.7226 C   0  0  0  0  0  0
  -21.8820   -3.8147   23.4347 C   0  0  0  0  0  0
  -21.9194   -4.6963   22.3402 C   0  0  0  0  0  0
  -22.7818  -13.5211   21.1871 C   0  0  0  0  0  0
  -22.1661   -4.2147   21.0980 F   0  0  0  0  0  0
  -21.5627   -3.4540   25.7739 F   0  0  0  0  0  0
  -29.9654  -13.6353   20.3989 N   0  0  0  0  0  0
  -26.2915  -12.9425   20.3232 N   0  0  0  0  0  0
  -25.9334  -11.6560   20.5719 N   0  0  0  0  0  0
  -22.0473  -12.8197   22.0431 N   0  0  0  0  0  0
  -25.4175  -15.1932   20.4140 N   0  0  0  0  0  0
  -31.7258  -14.9831   20.1279 O   0  0  0  0  0  0
  -21.6641   -6.8879   21.4239 O   0  0  0  0  0  0
  -22.3498  -14.5516   20.6720 O   0  0  0  0  0  0
  -24.6416  -31.8461   23.1905 C   0  0  0  0  0  0
  -25.9197  -32.4706   23.8283 C   0  0  1  0  0  0
  -27.2141  -27.1519   20.1503 C   0  0  0  0  0  0
  -25.5954  -33.8510   24.2202 N   0  0  0  0  0  0
  -23.4441  -30.4668   21.5360 C   0  0  2  0  0  0
  -24.8927  -28.8962   20.1130 C   0  0  0  0  0  0
  -22.7558  -29.4558   22.4869 C   0  0  0  0  0  0
  -18.0304  -28.1391   22.8471 C   0  0  0  0  0  0
  -24.1494  -36.7261   23.2642 C   0  0  0  0  0  0
  -25.9995  -30.7242   21.3882 C   0  0  0  0  0  0
  -26.0703  -29.3365   20.7311 C   0  0  0  0  0  0
  -27.2334  -28.4808   20.7323 C   0  0  0  0  0  0
  -26.0139  -26.8149   19.4860 C   0  0  0  0  0  0
  -24.8764  -27.6476   19.4755 C   0  0  0  0  0  0
  -23.6699  -29.7975   20.1550 C   0  0  0  0  0  0
  -25.4125  -36.3037   24.0317 C   0  0  1  0  0  0
  -20.5915  -28.3715   23.1234 C   0  0  2  0  0  0
  -20.6790  -26.9422   22.5397 C   0  0  0  0  0  0
  -19.5765  -26.6377   21.5204 C   0  0  0  0  0  0
  -18.1945  -26.7929   22.1616 C   0  0  0  0  0  0
  -19.1559  -28.8870   23.2845 C   0  0  0  0  0  0
  -18.9478  -30.1466   23.8870 C   0  0  0  0  0  0
  -17.6475  -30.6587   24.0556 C   0  0  0  0  0  0
  -25.9072  -34.9411   23.5065 C   0  0  0  0  0  0
  -16.5366  -29.9081   23.6333 C   0  0  0  0  0  0
  -16.7290  -28.6501   23.0350 C   0  0  0  0  0  0
  -26.4521  -31.6571   25.0721 C   0  0  0  0  0  0
  -25.3707  -31.3756   26.1417 C   0  0  0  0  0  0
  -27.0394  -30.2972   24.6295 C   0  0  0  0  0  0
  -27.6054  -32.4336   25.7504 C   0  0  0  0  0  0
  -27.5579  -37.1787   24.8464 C   0  0  0  0  0  0
  -21.4252  -29.3048   22.3615 N   0  0  0  0  0  0
  -26.4289  -37.3747   23.9407 N   0  0  0  0  0  0
  -24.7148  -31.0331   22.0934 N   0  0  0  0  0  0
  -23.4208  -28.8102   23.3012 O   0  0  0  0  0  0
  -28.2746  -26.1794   20.1856 O   0  0  0  0  0  0
  -26.5656  -34.8902   22.4644 O   0  0  0  0  0  0
  -23.5540  -32.1333   23.7132 O   0  0  0  0  0  0
  -29.3070  -19.0651   20.7440 C   0  0  0  0  0  0
  -30.2047  -19.3083   18.2245 C   0  0  0  0  0  0
  -29.7848  -17.8009   20.1276 C   0  0  0  0  0  0
  -30.2114  -18.0064   18.7875 C   0  0  0  0  0  0
  -29.2944  -20.3888   20.0832 C   0  0  0  0  0  0
  -29.6961  -16.2968   20.8093 C   0  0  0  0  0  0
  -28.5709  -21.7743   20.5807 C   0  0  0  0  0  0
  -28.9671  -23.3445   20.1357 C   0  0  0  0  0  0
  -27.9839  -24.6720   20.4287 C   0  0  0  0  0  0
  -29.7615  -20.4446   18.8218 N   0  0  0  0  0  0
  -30.6782  -16.7041   17.7512 Cl  0  0  0  0  0  0
  -31.4812  -12.7104   19.1842 H   0  0  0  0  0  0
  -30.4302  -11.5925   20.0057 H   0  0  0  0  0  0
  -29.8355  -11.7448   17.5634 H   0  0  0  0  0  0
  -29.6198  -13.4719   17.7067 H   0  0  0  0  0  0
  -27.9400  -11.2766   18.9565 H   0  0  0  0  0  0
  -27.3928  -12.4713   17.8096 H   0  0  0  0  0  0
  -27.6102  -14.2506   19.4285 H   0  0  0  0  0  0
  -28.7490  -12.2446   21.4345 H   0  0  0  0  0  0
  -28.3832  -13.9159   21.7754 H   0  0  0  0  0  0
  -25.2775   -9.5682   22.4755 H   0  0  0  0  0  0
  -24.0003   -7.4640   22.7480 H   0  0  0  0  0  0
  -21.0847   -8.8782   19.8957 H   0  0  0  0  0  0
  -22.3710  -10.9673   19.6161 H   0  0  0  0  0  0
  -21.2011   -7.6150   23.9714 H   0  0  0  0  0  0
  -21.1478   -6.0525   25.9077 H   0  0  0  0  0  0
  -22.0599   -2.7607   23.2850 H   0  0  0  0  0  0
  -22.4097  -11.9859   22.4813 H   0  0  0  0  0  0
  -21.1093  -13.1219   22.2646 H   0  0  0  0  0  0
  -24.6496  -15.8455   20.5304 H   0  0  0  0  0  0
  -26.2641  -15.6365   20.0816 H   0  0  0  0  0  0
  -26.7265  -32.5317   23.1015 H   0  0  0  0  0  0
  -25.0078  -33.9630   25.0333 H   0  0  0  0  0  0
  -22.7454  -31.2918   21.3829 H   0  0  0  0  0  0
  -23.3759  -35.9594   23.3291 H   0  0  0  0  0  0
  -24.3578  -36.8904   22.2058 H   0  0  0  0  0  0
  -23.7248  -37.6453   23.6687 H   0  0  0  0  0  0
  -26.1527  -31.4784   20.6153 H   0  0  0  0  0  0
  -26.8705  -30.7743   22.0298 H   0  0  0  0  0  0
  -28.1317  -28.8138   21.2327 H   0  0  0  0  0  0
  -25.9260  -25.8750   18.9635 H   0  0  0  0  0  0
  -23.9809  -27.3097   18.9722 H   0  0  0  0  0  0
  -23.8072  -30.5721   19.3998 H   0  0  0  0  0  0
  -22.7848  -29.2396   19.8441 H   0  0  0  0  0  0
  -25.1311  -36.1868   25.0811 H   0  0  0  0  0  0
  -21.0002  -28.3305   24.1357 H   0  0  0  0  0  0
  -20.5679  -26.2331   23.3616 H   0  0  0  0  0  0
  -21.6659  -26.7431   22.1198 H   0  0  0  0  0  0
  -19.6928  -25.6281   21.1251 H   0  0  0  0  0  0
  -19.6702  -27.3172   20.6721 H   0  0  0  0  0  0
  -17.4214  -26.6664   21.4023 H   0  0  0  0  0  0
  -18.0353  -26.0076   22.9020 H   0  0  0  0  0  0
  -19.7957  -30.7284   24.2231 H   0  0  0  0  0  0
  -17.5032  -31.6264   24.5161 H   0  0  0  0  0  0
  -15.5365  -30.2974   23.7673 H   0  0  0  0  0  0
  -15.8691  -28.0812   22.7079 H   0  0  0  0  0  0
  -24.5891  -30.7097   25.7735 H   0  0  0  0  0  0
  -24.8885  -32.2937   26.4783 H   0  0  0  0  0  0
  -25.7986  -30.8965   27.0232 H   0  0  0  0  0  0
  -26.3015  -29.6689   24.1294 H   0  0  0  0  0  0
  -27.4005  -29.7272   25.4867 H   0  0  0  0  0  0
  -27.8921  -30.4214   23.9618 H   0  0  0  0  0  0
  -27.2652  -33.3659   26.2025 H   0  0  0  0  0  0
  -28.3895  -32.6861   25.0354 H   0  0  0  0  0  0
  -28.0692  -31.8499   26.5465 H   0  0  0  0  0  0
  -28.2584  -38.0095   24.7513 H   0  0  0  0  0  0
  -28.1085  -36.2621   24.6291 H   0  0  0  0  0  0
  -27.2293  -37.1432   25.8866 H   0  0  0  0  0  0
  -20.9461  -29.8773   21.6805 H   0  0  0  0  0  0
  -26.0156  -38.2817   24.1409 H   0  0  0  0  0  0
  -28.8849  -19.0060   21.7383 H   0  0  0  0  0  0
  -30.5346  -19.4382   17.2041 H   0  0  0  0  0  0
  -28.6417  -16.0371   20.7392 H   0  0  0  0  0  0
  -29.8690  -16.4484   21.8739 H   0  0  0  0  0  0
  -28.5788  -21.7409   21.6700 H   0  0  0  0  0  0
  -27.5221  -21.6397   20.3153 H   0  0  0  0  0  0
  -29.1292  -23.3247   19.0581 H   0  0  0  0  0  0
  -29.9480  -23.5580   20.5593 H   0  0  0  0  0  0
  -27.7383  -24.6240   21.4900 H   0  0  0  0  0  0
  -27.0492  -24.4172   19.9364 H   0  0  0  0  0  0
  1 25  1  0  0  0
  1 30  2  0  0  0
  1 76  1  0  0  0
  2  3  1  0  0  0
  2 25  1  0  0  0
  2 82  1  0  0  0
  2 83  1  0  0  0
  3  4  1  0  0  0
  3 84  1  0  0  0
  3 85  1  0  0  0
  4  5  1  0  0  0
  4 86  1  0  0  0
  4 87  1  0  0  0
  5  6  1  0  0  0
  5 26  1  0  0  0
  5 88  1  0  0  0
  6 25  1  0  0  0
  6 89  1  0  0  0
  6 90  1  0  0  0
  7  8  2  0  0  0
  7 26  1  0  0  0
  7 29  1  0  0  0
  8  9  1  0  0  0
  8 22  1  0  0  0
  9 10  1  0  0  0
  9 27  2  0  0  0
 10 11  2  0  0  0
 10 15  1  0  0  0
 11 12  1  0  0  0
 11 91  1  0  0  0
 12 13  2  0  0  0
 12 92  1  0  0  0
 13 14  1  0  0  0
 13 31  1  0  0  0
 14 15  2  0  0  0
 14 93  1  0  0  0
 15 94  1  0  0  0
 16 17  2  0  0  0
 16 21  1  0  0  0
 16 31  1  0  0  0
 17 18  1  0  0  0
 17 95  1  0  0  0
 18 19  2  0  0  0
 18 96  1  0  0  0
 19 20  1  0  0  0
 19 24  1  0  0  0
 20 21  2  0  0  0
 20 97  1  0  0  0
 21 23  1  0  0  0
 22 28  1  0  0  0
 22 32  2  0  0  0
 26 27  1  0  0  0
 28 98  1  0  0  0
 28 99  1  0  0  0
 29100  1  0  0  0
 29101  1  0  0  0
 33 34  1  0  0  0
 33 66  1  0  0  0
 33 70  2  0  0  0
 34 36  1  0  0  0
 34 59  1  0  0  0
 34102  1  0  0  0
 35 44  2  0  0  0
 35 45  1  0  0  0
 35 68  1  0  0  0
 36 56  1  0  0  0
 36103  1  0  0  0
 37 39  1  0  0  0
 37 47  1  0  0  0
 37 66  1  0  0  0
 37104  1  0  0  0
 38 43  2  0  0  0
 38 46  1  0  0  0
 38 47  1  0  0  0
 39 64  1  0  0  0
 39 67  2  0  0  0
 40 52  1  0  0  0
 40 53  2  0  0  0
 40 58  1  0  0  0
 41105  1  0  0  0
 41106  1  0  0  0
 41107  1  0  0  0
 41 48  1  0  0  0
 42 43  1  0  0  0
 42 66  1  0  0  0
 42108  1  0  0  0
 42109  1  0  0  0
 43 44  1  0  0  0
 44110  1  0  0  0
 45 46  2  0  0  0
 45111  1  0  0  0
 46112  1  0  0  0
 47113  1  0  0  0
 47114  1  0  0  0
 48 56  1  0  0  0
 48 65  1  0  0  0
 48115  1  0  0  0
 49 50  1  0  0  0
 49 53  1  0  0  0
 49 64  1  0  0  0
 49116  1  0  0  0
 50 51  1  0  0  0
 50117  1  0  0  0
 50118  1  0  0  0
 51 52  1  0  0  0
 51119  1  0  0  0
 51120  1  0  0  0
 52121  1  0  0  0
 52122  1  0  0  0
 53 54  1  0  0  0
 54 55  2  0  0  0
 54123  1  0  0  0
 55 57  1  0  0  0
 55124  1  0  0  0
 56 69  2  0  0  0
 57 58  2  0  0  0
 57125  1  0  0  0
 58126  1  0  0  0
 59 60  1  0  0  0
 59 61  1  0  0  0
 59 62  1  0  0  0
 60127  1  0  0  0
 60128  1  0  0  0
 60129  1  0  0  0
 61130  1  0  0  0
 61131  1  0  0  0
 61132  1  0  0  0
 62133  1  0  0  0
 62134  1  0  0  0
 62135  1  0  0  0
 63 65  1  0  0  0
 63136  1  0  0  0
 63137  1  0  0  0
 63138  1  0  0  0
 64139  1  0  0  0
 65140  1  0  0  0
 68 79  1  0  0  0
 71 73  2  0  0  0
 71 75  1  0  0  0
 71141  1  0  0  0
 72 74  2  0  0  0
 72 80  1  0  0  0
 72142  1  0  0  0
 73 74  1  0  0  0
 73 76  1  0  0  0
 74 81  1  0  0  0
 75 77  1  0  0  0
 75 80  2  0  0  0
 76143  1  0  0  0
 76144  1  0  0  0
 77 78  1  0  0  0
 77145  1  0  0  0
 77146  1  0  0  0
 78 79  1  0  0  0
 78147  1  0  0  0
 78148  1  0  0  0
 79149  1  0  0  0
 79150  1  0  0  0
M  ISO  4   1 100  68 101  76 100  79 101
M  END
> <chiral flag>
0

> <version>
0

> <s_m_source_file>
/data/baiqing/PycharmProjects/Reinvent-master-3.2/result/LINK_invent/BTK/process_docking_weight1_custom_sum_contain_oxygen_bond_distance_aromatic_linkinvent_7_9_3/rearranged_h_0033.sdf

> <i_m_source_file_index>
7

> <r_mmod_Potential_Energy-OPLS-2005>
372.903533935547

> <r_mmod_Stretch_Energy-OPLS-2005>
241.879241943359

> <r_mmod_Bend_Energy-OPLS-2005>
243.254592895508

> <r_mmod_Torsional_Energy-OPLS-2005>
190.552673339844

> <r_mmod_Improper_Torsional_Energy-OPLS-2005>
3.45693683624268

> <r_mmod_Van_der_Waal_Energy-OPLS-2005>
133.892761230469

> <r_mmod_Electrostatic_Energy-OPLS-2005>
-391.659118652344

> <r_mmod_Solvation_Energy-OPLS-2005>
-215.197174072266

> <b_mmod_Minimization_Converged-OPLS-2005>
0

> <r_mmod_RMS_Derivative-OPLS-2005>
0.508323013782501

$$$$
7
                    3D
 Structure written by MMmdl.
158166  0  0  1  0            999 V2000
  -30.6862  -14.5888   20.5006 C   0  0  0  0  0  0
  -30.4544  -12.3645   19.4489 C   0  0  0  0  0  0
  -29.5211  -12.4613   18.2212 C   0  0  0  0  0  0
  -28.0456  -12.3148   18.6455 C   0  0  0  0  0  0
  -27.6659  -13.2174   19.8509 C   0  0  2  0  0  0
  -28.7106  -13.0828   20.9843 C   0  0  0  0  0  0
  -25.2607  -13.8175   20.5692 C   0  0  0  0  0  0
  -24.1838  -13.0449   20.9190 C   0  0  0  0  0  0
  -24.6421  -11.6916   20.8706 C   0  0  0  0  0  0
  -23.9085  -10.4301   21.0402 C   0  0  0  0  0  0
  -24.3611   -9.4199   21.9165 C   0  0  0  0  0  0
  -23.6281   -8.2246   22.0743 C   0  0  0  0  0  0
  -22.4265   -8.0273   21.3539 C   0  0  0  0  0  0
  -21.9918   -9.0276   20.4684 C   0  0  0  0  0  0
  -22.7253  -10.2136   20.3075 C   0  0  0  0  0  0
  -21.6856   -6.0712   22.5275 C   0  0  0  0  0  0
  -21.4018   -6.5620   23.8218 C   0  0  0  0  0  0
  -21.3655   -5.6757   24.9157 C   0  0  0  0  0  0
  -21.6035   -4.3027   24.7221 C   0  0  0  0  0  0
  -21.8807   -3.8127   23.4335 C   0  0  0  0  0  0
  -21.9191   -4.6949   22.3402 C   0  0  0  0  0  0
  -22.7863  -13.5267   21.1772 C   0  0  0  0  0  0
  -22.1647   -4.2126   21.0965 F   0  0  0  0  0  0
  -21.5652   -3.4522   25.7730 F   0  0  0  0  0  0
  -30.0328  -13.3892   20.4230 N   0  0  0  0  0  0
  -26.3069  -12.9377   20.3278 N   0  0  0  0  0  0
  -25.9355  -11.6540   20.5725 N   0  0  0  0  0  0
  -22.0452  -12.8333   22.0351 N   0  0  0  0  0  0
  -25.4311  -15.1910   20.4153 N   0  0  0  0  0  0
  -31.8491  -14.7118   20.1097 O   0  0  0  0  0  0
  -21.6646   -6.8866   21.4242 O   0  0  0  0  0  0
  -22.3545  -14.5577   20.6579 O   0  0  0  0  0  0
  -24.6178  -31.8674   23.2043 C   0  0  0  0  0  0
  -25.9031  -32.4843   23.8359 C   0  0  1  0  0  0
  -27.2274  -27.4225   20.0904 C   0  0  0  0  0  0
  -25.5856  -33.8630   24.2319 N   0  0  0  0  0  0
  -23.4111  -30.4896   21.5484 C   0  0  2  0  0  0
  -24.8542  -28.9588   20.1141 C   0  0  0  0  0  0
  -22.7478  -29.4634   22.4968 C   0  0  0  0  0  0
  -18.0296  -28.1421   22.8502 C   0  0  0  0  0  0
  -24.1474  -36.7294   23.2645 C   0  0  0  0  0  0
  -25.9410  -30.8380   21.3539 C   0  0  0  0  0  0
  -26.0188  -29.4733   20.6975 C   0  0  0  0  0  0
  -27.2178  -28.7201   20.6604 C   0  0  0  0  0  0
  -26.0392  -26.9232   19.5226 C   0  0  0  0  0  0
  -24.8578  -27.6856   19.5260 C   0  0  0  0  0  0
  -23.6174  -29.8237   20.1642 C   0  0  0  0  0  0
  -25.4099  -36.3125   24.0345 C   0  0  1  0  0  0
  -20.5891  -28.3676   23.1339 C   0  0  2  0  0  0
  -20.6757  -26.9384   22.5464 C   0  0  0  0  0  0
  -19.5718  -26.6403   21.5266 C   0  0  0  0  0  0
  -18.1903  -26.7948   22.1661 C   0  0  0  0  0  0
  -19.1557  -28.8854   23.2924 C   0  0  0  0  0  0
  -18.9452  -30.1466   23.8928 C   0  0  0  0  0  0
  -17.6460  -30.6599   24.0601 C   0  0  0  0  0  0
  -25.9035  -34.9497   23.5154 C   0  0  0  0  0  0
  -16.5348  -29.9122   23.6332 C   0  0  0  0  0  0
  -16.7293  -28.6550   23.0324 C   0  0  0  0  0  0
  -26.4422  -31.6631   25.0702 C   0  0  0  0  0  0
  -25.3687  -31.3810   26.1473 C   0  0  0  0  0  0
  -27.0194  -30.3038   24.6094 C   0  0  0  0  0  0
  -27.6026  -32.4355   25.7436 C   0  0  0  0  0  0
  -27.5598  -37.1787   24.8446 C   0  0  0  0  0  0
  -21.4180  -29.3033   22.3739 N   0  0  0  0  0  0
  -26.4290  -37.3818   23.9433 N   0  0  0  0  0  0
  -24.6767  -31.0790   22.0946 N   0  0  0  0  0  0
  -23.4229  -28.8163   23.2995 O   0  0  0  0  0  0
  -28.3831  -26.6631   20.0726 O   0  0  0  0  0  0
  -26.5633  -34.8948   22.4732 O   0  0  0  0  0  0
  -23.5362  -32.1397   23.7438 O   0  0  0  0  0  0
  -29.2260  -19.4480   20.4873 C   0  0  0  0  0  0
  -29.4252  -20.7778   20.9542 C   0  0  0  0  0  0
  -30.1002  -18.3846   20.8766 C   0  0  0  0  0  0
  -30.5230  -20.9914   21.8280 C   0  0  0  0  0  0
  -31.1207  -18.7268   21.7969 C   0  0  0  0  0  0
  -30.9521  -22.3707   22.3292 C   0  0  0  0  0  0
  -28.4637  -21.9361   20.5618 C   0  0  0  0  0  0
  -30.0714  -17.0222   20.1129 C   0  0  0  0  0  0
  -28.9609  -22.8853   19.4337 C   0  0  0  0  0  0
  -28.2198  -24.2544   19.2448 C   0  0  0  0  0  0
  -28.2597  -25.2629   20.4293 C   0  0  0  0  0  0
  -31.3106  -19.9850   22.2538 N   0  0  0  0  0  0
  -29.9211  -15.6830   20.7752 N   0  0  0  0  0  0
  -32.2768  -17.5558   22.3367 Cl  0  0  0  0  0  0
  -31.4912  -12.4988   19.1302 H   0  0  0  0  0  0
  -30.4018  -11.3731   19.9020 H   0  0  0  0  0  0
  -29.7829  -11.6757   17.5066 H   0  0  0  0  0  0
  -29.6655  -13.4072   17.7038 H   0  0  0  0  0  0
  -27.9028  -11.2695   18.9204 H   0  0  0  0  0  0
  -27.3807  -12.5040   17.8022 H   0  0  0  0  0  0
  -27.6896  -14.2483   19.4866 H   0  0  0  0  0  0
  -28.7066  -12.0707   21.3932 H   0  0  0  0  0  0
  -28.4690  -13.7448   21.8129 H   0  0  0  0  0  0
  -25.2748   -9.5695   22.4727 H   0  0  0  0  0  0
  -23.9960   -7.4689   22.7497 H   0  0  0  0  0  0
  -21.0818   -8.8857   19.9072 H   0  0  0  0  0  0
  -22.3708  -10.9673   19.6204 H   0  0  0  0  0  0
  -21.2001   -7.6131   23.9688 H   0  0  0  0  0  0
  -21.1502   -6.0507   25.9055 H   0  0  0  0  0  0
  -22.0596   -2.7603   23.2846 H   0  0  0  0  0  0
  -22.3973  -12.0045   22.4920 H   0  0  0  0  0  0
  -21.1115  -13.1484   22.2513 H   0  0  0  0  0  0
  -24.6805  -15.8550   20.5646 H   0  0  0  0  0  0
  -26.2732  -15.6310   20.0710 H   0  0  0  0  0  0
  -26.7099  -32.5555   23.1138 H   0  0  0  0  0  0
  -24.9894  -33.9746   25.0384 H   0  0  0  0  0  0
  -22.7032  -31.3086   21.4126 H   0  0  0  0  0  0
  -23.3781  -35.9580   23.3281 H   0  0  0  0  0  0
  -24.3585  -36.8937   22.2066 H   0  0  0  0  0  0
  -23.7147  -37.6463   23.6657 H   0  0  0  0  0  0
  -26.0598  -31.6133   20.5964 H   0  0  0  0  0  0
  -26.8259  -30.8857   21.9764 H   0  0  0  0  0  0
  -28.1249  -29.1272   21.0827 H   0  0  0  0  0  0
  -26.0164  -25.9437   19.0724 H   0  0  0  0  0  0
  -23.9579  -27.2828   19.0808 H   0  0  0  0  0  0
  -23.7184  -30.5967   19.4002 H   0  0  0  0  0  0
  -22.7468  -29.2316   19.8767 H   0  0  0  0  0  0
  -25.1277  -36.1987   25.0834 H   0  0  0  0  0  0
  -21.0028  -28.3227   24.1458 H   0  0  0  0  0  0
  -20.5641  -26.2275   23.3664 H   0  0  0  0  0  0
  -21.6617  -26.7385   22.1285 H   0  0  0  0  0  0
  -19.6837  -25.6334   21.1269 H   0  0  0  0  0  0
  -19.6661  -27.3244   20.6820 H   0  0  0  0  0  0
  -17.4194  -26.6771   21.4047 H   0  0  0  0  0  0
  -18.0234  -26.0117   22.9064 H   0  0  0  0  0  0
  -19.7922  -30.7302   24.2303 H   0  0  0  0  0  0
  -17.4997  -31.6266   24.5235 H   0  0  0  0  0  0
  -15.5345  -30.3030   23.7605 H   0  0  0  0  0  0
  -15.8718  -28.0911   22.6951 H   0  0  0  0  0  0
  -24.5845  -30.7138   25.7856 H   0  0  0  0  0  0
  -24.8875  -32.3000   26.4836 H   0  0  0  0  0  0
  -25.8046  -30.9061   27.0273 H   0  0  0  0  0  0
  -26.2696  -29.6878   24.1099 H   0  0  0  0  0  0
  -27.3858  -29.7198   25.4551 H   0  0  0  0  0  0
  -27.8601  -30.4302   23.9271 H   0  0  0  0  0  0
  -27.2642  -33.3660   26.1998 H   0  0  0  0  0  0
  -28.3808  -32.6918   25.0240 H   0  0  0  0  0  0
  -28.0700  -31.8483   26.5353 H   0  0  0  0  0  0
  -28.2625  -38.0091   24.7607 H   0  0  0  0  0  0
  -28.1105  -36.2654   24.6142 H   0  0  0  0  0  0
  -27.2354  -37.1298   25.8858 H   0  0  0  0  0  0
  -20.9337  -29.8807   21.7001 H   0  0  0  0  0  0
  -26.0191  -38.2886   24.1514 H   0  0  0  0  0  0
  -28.4274  -19.2561   19.7854 H   0  0  0  0  0  0
  -31.9838  -22.5743   22.0326 H   0  0  0  0  0  0
  -30.9143  -22.4065   23.4178 H   0  0  0  0  0  0
  -30.3422  -23.1848   21.9469 H   0  0  0  0  0  0
  -28.2468  -22.5093   21.4621 H   0  0  0  0  0  0
  -27.4977  -21.5317   20.2495 H   0  0  0  0  0  0
  -30.9736  -17.0308   19.5026 H   0  0  0  0  0  0
  -29.2515  -17.0802   19.3948 H   0  0  0  0  0  0
  -28.8716  -22.3465   18.4897 H   0  0  0  0  0  0
  -30.0231  -23.0825   19.5676 H   0  0  0  0  0  0
  -27.1804  -24.0660   18.9631 H   0  0  0  0  0  0
  -28.6614  -24.7289   18.3661 H   0  0  0  0  0  0
  -29.1141  -25.0366   21.0658 H   0  0  0  0  0  0
  -27.3846  -25.1058   21.0612 H   0  0  0  0  0  0
  -28.9837  -15.4482   21.0665 H   0  0  0  0  0  0
  1 25  1  0  0  0
  1 30  2  0  0  0
  1 83  1  0  0  0
  2  3  1  0  0  0
  2 25  1  0  0  0
  2 85  1  0  0  0
  2 86  1  0  0  0
  3  4  1  0  0  0
  3 87  1  0  0  0
  3 88  1  0  0  0
  4  5  1  0  0  0
  4 89  1  0  0  0
  4 90  1  0  0  0
  5  6  1  0  0  0
  5 26  1  0  0  0
  5 91  1  0  0  0
  6 25  1  0  0  0
  6 92  1  0  0  0
  6 93  1  0  0  0
  7  8  2  0  0  0
  7 26  1  0  0  0
  7 29  1  0  0  0
  8  9  1  0  0  0
  8 22  1  0  0  0
  9 10  1  0  0  0
  9 27  2  0  0  0
 10 11  2  0  0  0
 10 15  1  0  0  0
 11 12  1  0  0  0
 11 94  1  0  0  0
 12 13  2  0  0  0
 12 95  1  0  0  0
 13 14  1  0  0  0
 13 31  1  0  0  0
 14 15  2  0  0  0
 14 96  1  0  0  0
 15 97  1  0  0  0
 16 17  2  0  0  0
 16 21  1  0  0  0
 16 31  1  0  0  0
 17 18  1  0  0  0
 17 98  1  0  0  0
 18 19  2  0  0  0
 18 99  1  0  0  0
 19 20  1  0  0  0
 19 24  1  0  0  0
 20 21  2  0  0  0
 20100  1  0  0  0
 21 23  1  0  0  0
 22 28  1  0  0  0
 22 32  2  0  0  0
 26 27  1  0  0  0
 28101  1  0  0  0
 28102  1  0  0  0
 29103  1  0  0  0
 29104  1  0  0  0
 33 34  1  0  0  0
 33 66  1  0  0  0
 33 70  2  0  0  0
 34 36  1  0  0  0
 34 59  1  0  0  0
 34105  1  0  0  0
 35 44  2  0  0  0
 35 45  1  0  0  0
 35 68  1  0  0  0
 36 56  1  0  0  0
 36106  1  0  0  0
 37 39  1  0  0  0
 37 47  1  0  0  0
 37 66  1  0  0  0
 37107  1  0  0  0
 38 43  2  0  0  0
 38 46  1  0  0  0
 38 47  1  0  0  0
 39 64  1  0  0  0
 39 67  2  0  0  0
 40 52  1  0  0  0
 40 53  2  0  0  0
 40 58  1  0  0  0
 41108  1  0  0  0
 41109  1  0  0  0
 41110  1  0  0  0
 41 48  1  0  0  0
 42 43  1  0  0  0
 42 66  1  0  0  0
 42111  1  0  0  0
 42112  1  0  0  0
 43 44  1  0  0  0
 44113  1  0  0  0
 45 46  2  0  0  0
 45114  1  0  0  0
 46115  1  0  0  0
 47116  1  0  0  0
 47117  1  0  0  0
 48 56  1  0  0  0
 48 65  1  0  0  0
 48118  1  0  0  0
 49 50  1  0  0  0
 49 53  1  0  0  0
 49 64  1  0  0  0
 49119  1  0  0  0
 50 51  1  0  0  0
 50120  1  0  0  0
 50121  1  0  0  0
 51 52  1  0  0  0
 51122  1  0  0  0
 51123  1  0  0  0
 52124  1  0  0  0
 52125  1  0  0  0
 53 54  1  0  0  0
 54 55  2  0  0  0
 54126  1  0  0  0
 55 57  1  0  0  0
 55127  1  0  0  0
 56 69  2  0  0  0
 57 58  2  0  0  0
 57128  1  0  0  0
 58129  1  0  0  0
 59 60  1  0  0  0
 59 61  1  0  0  0
 59 62  1  0  0  0
 60130  1  0  0  0
 60131  1  0  0  0
 60132  1  0  0  0
 61133  1  0  0  0
 61134  1  0  0  0
 61135  1  0  0  0
 62136  1  0  0  0
 62137  1  0  0  0
 62138  1  0  0  0
 63 65  1  0  0  0
 63139  1  0  0  0
 63140  1  0  0  0
 63141  1  0  0  0
 64142  1  0  0  0
 65143  1  0  0  0
 68 81  1  0  0  0
 71 72  2  0  0  0
 71 73  1  0  0  0
 71144  1  0  0  0
 72 74  1  0  0  0
 72 77  1  0  0  0
 73 75  2  0  0  0
 73 78  1  0  0  0
 74 76  1  0  0  0
 74 82  2  0  0  0
 75 82  1  0  0  0
 75 84  1  0  0  0
 76145  1  0  0  0
 76146  1  0  0  0
 76147  1  0  0  0
 77 79  1  0  0  0
 77148  1  0  0  0
 77149  1  0  0  0
 78 83  1  0  0  0
 78150  1  0  0  0
 78151  1  0  0  0
 79 80  1  0  0  0
 79152  1  0  0  0
 79153  1  0  0  0
 80 81  1  0  0  0
 80154  1  0  0  0
 80155  1  0  0  0
 81156  1  0  0  0
 81157  1  0  0  0
 83158  1  0  0  0
M  ISO  4   1 100  68 101  81 101  83 100
M  END
> <chiral flag>
0

> <version>
0

> <s_m_source_file>
/data/baiqing/PycharmProjects/Reinvent-master-3.2/result/LINK_invent/BTK/process_docking_weight1_custom_sum_contain_oxygen_bond_distance_aromatic_linkinvent_7_9_3/rearranged_h_0033.sdf

> <i_m_source_file_index>
8

> <r_mmod_Potential_Energy-OPLS-2005>
-117.50048828125

> <r_mmod_Stretch_Energy-OPLS-2005>
54.0644035339355

> <r_mmod_Bend_Energy-OPLS-2005>
123.925430297852

> <r_mmod_Torsional_Energy-OPLS-2005>
240.833511352539

> <r_mmod_Improper_Torsional_Energy-OPLS-2005>
9.83170986175537

> <r_mmod_Van_der_Waal_Energy-OPLS-2005>
143.903793334961

> <r_mmod_Electrostatic_Energy-OPLS-2005>
-495.99365234375

> <r_mmod_Solvation_Energy-OPLS-2005>
-221.833068847656

> <b_mmod_Minimization_Converged-OPLS-2005>
0

> <r_mmod_RMS_Derivative-OPLS-2005>
7.76196670532227

$$$$
8
                    3D
 Structure written by MMmdl.
166174  0  0  1  0            999 V2000
  -30.5051  -14.7807   20.4776 C   0  0  0  0  0  0
  -30.4501  -12.4815   19.4652 C   0  0  0  0  0  0
  -29.5064  -12.5147   18.2375 C   0  0  0  0  0  0
  -28.0371  -12.3132   18.6571 C   0  0  0  0  0  0
  -27.6395  -13.2127   19.8570 C   0  0  2  0  0  0
  -28.6835  -13.1104   20.9911 C   0  0  0  0  0  0
  -25.2474  -13.8168   20.5625 C   0  0  0  0  0  0
  -24.1777  -13.0450   20.9216 C   0  0  0  0  0  0
  -24.6353  -11.6917   20.8796 C   0  0  0  0  0  0
  -23.9049  -10.4306   21.0477 C   0  0  0  0  0  0
  -24.3607   -9.4210   21.9233 C   0  0  0  0  0  0
  -23.6288   -8.2243   22.0772 C   0  0  0  0  0  0
  -22.4276   -8.0300   21.3558 C   0  0  0  0  0  0
  -21.9916   -9.0278   20.4665 C   0  0  0  0  0  0
  -22.7241  -10.2156   20.3107 C   0  0  0  0  0  0
  -21.6853   -6.0751   22.5285 C   0  0  0  0  0  0
  -21.4008   -6.5653   23.8218 C   0  0  0  0  0  0
  -21.3651   -5.6797   24.9184 C   0  0  0  0  0  0
  -21.6053   -4.3068   24.7222 C   0  0  0  0  0  0
  -21.8811   -3.8166   23.4350 C   0  0  0  0  0  0
  -21.9178   -4.6979   22.3412 C   0  0  0  0  0  0
  -22.7808  -13.5260   21.1885 C   0  0  0  0  0  0
  -22.1656   -4.2177   21.0988 F   0  0  0  0  0  0
  -21.5621   -3.4556   25.7734 F   0  0  0  0  0  0
  -29.9782  -13.5083   20.4205 N   0  0  0  0  0  0
  -26.2886  -12.9338   20.3311 N   0  0  0  0  0  0
  -25.9276  -11.6510   20.5819 N   0  0  0  0  0  0
  -22.0444  -12.8251   22.0448 N   0  0  0  0  0  0
  -25.4136  -15.1861   20.3830 N   0  0  0  0  0  0
  -31.6884  -14.9768   20.1700 O   0  0  0  0  0  0
  -21.6638   -6.8900   21.4254 O   0  0  0  0  0  0
  -22.3503  -14.5579   20.6747 O   0  0  0  0  0  0
  -24.6292  -31.8512   23.1905 C   0  0  0  0  0  0
  -25.9109  -32.4720   23.8259 C   0  0  1  0  0  0
  -27.2368  -27.2516   20.1321 C   0  0  0  0  0  0
  -25.5899  -33.8536   24.2190 N   0  0  0  0  0  0
  -23.4244  -30.4679   21.5330 C   0  0  2  0  0  0
  -24.8785  -28.9009   20.1073 C   0  0  0  0  0  0
  -22.7464  -29.4573   22.4911 C   0  0  0  0  0  0
  -18.0282  -28.1291   22.8438 C   0  0  0  0  0  0
  -24.1495  -36.7289   23.2648 C   0  0  0  0  0  0
  -25.9702  -30.7597   21.3703 C   0  0  0  0  0  0
  -26.0457  -29.3783   20.7167 C   0  0  0  0  0  0
  -27.2225  -28.5663   20.7181 C   0  0  0  0  0  0
  -26.0499  -26.8345   19.4959 C   0  0  0  0  0  0
  -24.8879  -27.6373   19.4865 C   0  0  0  0  0  0
  -23.6428  -29.7846   20.1549 C   0  0  0  0  0  0
  -25.4113  -36.3065   24.0330 C   0  0  1  0  0  0
  -20.5872  -28.3628   23.1253 C   0  0  2  0  0  0
  -20.6750  -26.9356   22.5376 C   0  0  0  0  0  0
  -19.5747  -26.6313   21.5146 C   0  0  0  0  0  0
  -18.1924  -26.7827   22.1570 C   0  0  0  0  0  0
  -19.1539  -28.8771   23.2837 C   0  0  0  0  0  0
  -18.9491  -30.1368   23.8859 C   0  0  0  0  0  0
  -17.6506  -30.6529   24.0511 C   0  0  0  0  0  0
  -25.9059  -34.9436   23.5069 C   0  0  0  0  0  0
  -16.5383  -29.9010   23.6325 C   0  0  0  0  0  0
  -16.7274  -28.6418   23.0345 C   0  0  0  0  0  0
  -26.4465  -31.6572   25.0685 C   0  0  0  0  0  0
  -25.3692  -31.3730   26.1431 C   0  0  0  0  0  0
  -27.0347  -30.3000   24.6176 C   0  0  0  0  0  0
  -27.6025  -32.4338   25.7436 C   0  0  0  0  0  0
  -27.5585  -37.1766   24.8439 C   0  0  0  0  0  0
  -21.4189  -29.3025   22.3689 N   0  0  0  0  0  0
  -26.4265  -37.3780   23.9442 N   0  0  0  0  0  0
  -24.6940  -31.0431   22.0871 N   0  0  0  0  0  0
  -23.4189  -28.8120   23.3011 O   0  0  0  0  0  0
  -28.3666  -26.4080   20.2243 O   0  0  0  0  0  0
  -26.5637  -34.8926   22.4644 O   0  0  0  0  0  0
  -23.5437  -32.1347   23.7190 O   0  0  0  0  0  0
  -28.8261  -19.1641   21.9211 C   0  0  0  0  0  0
  -29.5383  -18.3356   19.9822 C   0  0  0  0  0  0
  -29.0116  -17.8082   22.1068 C   0  0  0  0  0  0
  -29.5218  -17.2641   20.8837 C   0  0  0  0  0  0
  -23.5988  -17.9753   23.2352 C   0  0  0  0  0  0
  -28.6575  -17.0577   23.3748 C   0  0  0  0  0  0
  -24.7431  -17.0565   23.6742 C   0  0  0  0  0  0
  -27.2230  -16.4881   23.3968 C   0  0  0  0  0  0
  -26.1106  -17.5252   23.1539 C   0  0  0  0  0  0
  -29.0511  -22.3087   20.7646 C   0  0  0  0  0  0
  -28.1641  -23.6933   20.6932 C   0  0  0  0  0  0
  -28.7214  -20.9108   19.9984 C   0  0  0  0  0  0
  -28.4671  -24.9796   19.7499 C   0  0  0  0  0  0
  -29.0836  -19.5400   20.6097 N   0  0  0  0  0  0
  -29.5630  -15.7910   20.6557 N   0  0  0  0  0  0
  -31.4821  -12.6613   19.1568 H   0  0  0  0  0  0
  -30.4436  -11.4965   19.9333 H   0  0  0  0  0  0
  -29.7952  -11.7463   17.5190 H   0  0  0  0  0  0
  -29.6096  -13.4716   17.7228 H   0  0  0  0  0  0
  -27.9107  -11.2648   18.9304 H   0  0  0  0  0  0
  -27.3693  -12.4888   17.8151 H   0  0  0  0  0  0
  -27.6386  -14.2341   19.4791 H   0  0  0  0  0  0
  -28.7312  -12.0947   21.3817 H   0  0  0  0  0  0
  -28.4086  -13.7388   21.8393 H   0  0  0  0  0  0
  -25.2754   -9.5697   22.4802 H   0  0  0  0  0  0
  -24.0013   -7.4642   22.7491 H   0  0  0  0  0  0
  -21.0853   -8.8812   19.8969 H   0  0  0  0  0  0
  -22.3721  -10.9710   19.6225 H   0  0  0  0  0  0
  -21.2003   -7.6160   23.9737 H   0  0  0  0  0  0
  -21.1482   -6.0533   25.9083 H   0  0  0  0  0  0
  -22.0587   -2.7635   23.2844 H   0  0  0  0  0  0
  -22.4029  -11.9857   22.4763 H   0  0  0  0  0  0
  -21.1107  -13.1353   22.2765 H   0  0  0  0  0  0
  -24.6391  -15.8301   20.4893 H   0  0  0  0  0  0
  -26.2372  -15.6284   19.9979 H   0  0  0  0  0  0
  -26.7196  -32.5356   23.1005 H   0  0  0  0  0  0
  -25.0081  -33.9685   25.0356 H   0  0  0  0  0  0
  -22.7213  -31.2896   21.3785 H   0  0  0  0  0  0
  -23.3792  -35.9574   23.3211 H   0  0  0  0  0  0
  -24.3624  -36.8998   22.2089 H   0  0  0  0  0  0
  -23.7205  -37.6444   23.6724 H   0  0  0  0  0  0
  -26.1079  -31.5204   20.6018 H   0  0  0  0  0  0
  -26.8463  -30.8106   22.0039 H   0  0  0  0  0  0
  -28.1172  -28.9257   21.2092 H   0  0  0  0  0  0
  -25.9959  -25.8626   19.0293 H   0  0  0  0  0  0
  -24.0001  -27.2611   18.9980 H   0  0  0  0  0  0
  -23.7522  -30.5527   19.3905 H   0  0  0  0  0  0
  -22.7638  -29.2097   19.8572 H   0  0  0  0  0  0
  -25.1277  -36.1893   25.0810 H   0  0  0  0  0  0
  -20.9950  -28.3174   24.1384 H   0  0  0  0  0  0
  -20.5557  -26.2250   23.3578 H   0  0  0  0  0  0
  -21.6635  -26.7277   22.1253 H   0  0  0  0  0  0
  -19.6925  -25.6201   21.1220 H   0  0  0  0  0  0
  -19.6687  -27.3090   20.6646 H   0  0  0  0  0  0
  -17.4186  -26.6569   21.3990 H   0  0  0  0  0  0
  -18.0345  -25.9908   22.8925 H   0  0  0  0  0  0
  -19.8003  -30.7151   24.2211 H   0  0  0  0  0  0
  -17.5096  -31.6225   24.5087 H   0  0  0  0  0  0
  -15.5397  -30.2919   23.7649 H   0  0  0  0  0  0
  -15.8670  -28.0739   22.7073 H   0  0  0  0  0  0
  -24.5865  -30.7047   25.7800 H   0  0  0  0  0  0
  -24.8891  -32.2910   26.4853 H   0  0  0  0  0  0
  -25.8041  -30.8946   27.0224 H   0  0  0  0  0  0
  -26.2933  -29.6730   24.1215 H   0  0  0  0  0  0
  -27.4087  -29.7272   25.4667 H   0  0  0  0  0  0
  -27.8738  -30.4302   23.9345 H   0  0  0  0  0  0
  -27.2643  -33.3703   26.1888 H   0  0  0  0  0  0
  -28.3872  -32.6801   25.0267 H   0  0  0  0  0  0
  -28.0617  -31.8541   26.5459 H   0  0  0  0  0  0
  -28.2493  -38.0173   24.7658 H   0  0  0  0  0  0
  -28.1213  -36.2728   24.6041 H   0  0  0  0  0  0
  -27.2361  -37.1119   25.8848 H   0  0  0  0  0  0
  -20.9363  -29.8863   21.7008 H   0  0  0  0  0  0
  -26.0142  -38.2832   24.1544 H   0  0  0  0  0  0
  -28.4242  -19.8903   22.6156 H   0  0  0  0  0  0
  -29.7475  -18.3412   18.9224 H   0  0  0  0  0  0
  -22.6698  -17.7200   23.7452 H   0  0  0  0  0  0
  -23.4216  -17.8922   22.1637 H   0  0  0  0  0  0
  -23.8161  -19.0189   23.4555 H   0  0  0  0  0  0
  -28.7783  -17.7396   24.2194 H   0  0  0  0  0  0
  -29.3746  -16.2510   23.5295 H   0  0  0  0  0  0
  -24.5388  -16.0421   23.3316 H   0  0  0  0  0  0
  -24.7723  -17.0088   24.7642 H   0  0  0  0  0  0
  -27.0617  -16.0082   24.3632 H   0  0  0  0  0  0
  -27.1278  -15.6946   22.6533 H   0  0  0  0  0  0
  -26.3665  -18.4663   23.6421 H   0  0  0  0  0  0
  -26.0492  -17.7426   22.0873 H   0  0  0  0  0  0
  -29.0213  -22.0360   21.8207 H   0  0  0  0  0  0
  -30.0999  -22.5550   20.5974 H   0  0  0  0  0  0
  -28.2510  -24.1103   21.6978 H   0  0  0  0  0  0
  -27.1057  -23.4400   20.6161 H   0  0  0  0  0  0
  -29.1667  -20.9569   19.0055 H   0  0  0  0  0  0
  -27.6452  -20.8766   19.8212 H   0  0  0  0  0  0
  -27.9428  -24.8733   18.7986 H   0  0  0  0  0  0
  -29.5174  -24.8860   19.4763 H   0  0  0  0  0  0
  -28.6668  -15.3655   20.8325 H   0  0  0  0  0  0
  1 25  1  0  0  0
  1 30  2  0  0  0
  1 85  1  0  0  0
  2  3  1  0  0  0
  2 25  1  0  0  0
  2 86  1  0  0  0
  2 87  1  0  0  0
  3  4  1  0  0  0
  3 88  1  0  0  0
  3 89  1  0  0  0
  4  5  1  0  0  0
  4 90  1  0  0  0
  4 91  1  0  0  0
  5  6  1  0  0  0
  5 26  1  0  0  0
  5 92  1  0  0  0
  6 25  1  0  0  0
  6 93  1  0  0  0
  6 94  1  0  0  0
  7  8  2  0  0  0
  7 26  1  0  0  0
  7 29  1  0  0  0
  8  9  1  0  0  0
  8 22  1  0  0  0
  9 10  1  0  0  0
  9 27  2  0  0  0
 10 11  2  0  0  0
 10 15  1  0  0  0
 11 12  1  0  0  0
 11 95  1  0  0  0
 12 13  2  0  0  0
 12 96  1  0  0  0
 13 14  1  0  0  0
 13 31  1  0  0  0
 14 15  2  0  0  0
 14 97  1  0  0  0
 15 98  1  0  0  0
 16 17  2  0  0  0
 16 21  1  0  0  0
 16 31  1  0  0  0
 17 18  1  0  0  0
 17 99  1  0  0  0
 18 19  2  0  0  0
 18100  1  0  0  0
 19 20  1  0  0  0
 19 24  1  0  0  0
 20 21  2  0  0  0
 20101  1  0  0  0
 21 23  1  0  0  0
 22 28  1  0  0  0
 22 32  2  0  0  0
 26 27  1  0  0  0
 28102  1  0  0  0
 28103  1  0  0  0
 29104  1  0  0  0
 29105  1  0  0  0
 33 34  1  0  0  0
 33 66  1  0  0  0
 33 70  2  0  0  0
 34 36  1  0  0  0
 34 59  1  0  0  0
 34106  1  0  0  0
 35 44  2  0  0  0
 35 45  1  0  0  0
 35 68  1  0  0  0
 36 56  1  0  0  0
 36107  1  0  0  0
 37 39  1  0  0  0
 37 47  1  0  0  0
 37 66  1  0  0  0
 37108  1  0  0  0
 38 43  2  0  0  0
 38 46  1  0  0  0
 38 47  1  0  0  0
 39 64  1  0  0  0
 39 67  2  0  0  0
 40 52  1  0  0  0
 40 53  2  0  0  0
 40 58  1  0  0  0
 41109  1  0  0  0
 41110  1  0  0  0
 41111  1  0  0  0
 41 48  1  0  0  0
 42 43  1  0  0  0
 42 66  1  0  0  0
 42112  1  0  0  0
 42113  1  0  0  0
 43 44  1  0  0  0
 44114  1  0  0  0
 45 46  2  0  0  0
 45115  1  0  0  0
 46116  1  0  0  0
 47117  1  0  0  0
 47118  1  0  0  0
 48 56  1  0  0  0
 48 65  1  0  0  0
 48119  1  0  0  0
 49 50  1  0  0  0
 49 53  1  0  0  0
 49 64  1  0  0  0
 49120  1  0  0  0
 50 51  1  0  0  0
 50121  1  0  0  0
 50122  1  0  0  0
 51 52  1  0  0  0
 51123  1  0  0  0
 51124  1  0  0  0
 52125  1  0  0  0
 52126  1  0  0  0
 53 54  1  0  0  0
 54 55  2  0  0  0
 54127  1  0  0  0
 55 57  1  0  0  0
 55128  1  0  0  0
 56 69  2  0  0  0
 57 58  2  0  0  0
 57129  1  0  0  0
 58130  1  0  0  0
 59 60  1  0  0  0
 59 61  1  0  0  0
 59 62  1  0  0  0
 60131  1  0  0  0
 60132  1  0  0  0
 60133  1  0  0  0
 61134  1  0  0  0
 61135  1  0  0  0
 61136  1  0  0  0
 62137  1  0  0  0
 62138  1  0  0  0
 62139  1  0  0  0
 63 65  1  0  0  0
 63140  1  0  0  0
 63141  1  0  0  0
 63142  1  0  0  0
 64143  1  0  0  0
 65144  1  0  0  0
 68 83  1  0  0  0
 71 73  2  0  0  0
 71 84  1  0  0  0
 71145  1  0  0  0
 72 74  2  0  0  0
 72 84  1  0  0  0
 72146  1  0  0  0
 73 74  1  0  0  0
 73 76  1  0  0  0
 74 85  1  0  0  0
 75 77  1  0  0  0
 75147  1  0  0  0
 75148  1  0  0  0
 75149  1  0  0  0
 76 78  1  0  0  0
 76150  1  0  0  0
 76151  1  0  0  0
 77 79  1  0  0  0
 77152  1  0  0  0
 77153  1  0  0  0
 78 79  1  0  0  0
 78154  1  0  0  0
 78155  1  0  0  0
 79156  1  0  0  0
 79157  1  0  0  0
 80 81  1  0  0  0
 80 82  1  0  0  0
 80158  1  0  0  0
 80159  1  0  0  0
 81 83  1  0  0  0
 81160  1  0  0  0
 81161  1  0  0  0
 82 84  1  0  0  0
 82162  1  0  0  0
 82163  1  0  0  0
 83164  1  0  0  0
 83165  1  0  0  0
 85166  1  0  0  0
M  ISO  4   1 100  68 101  83 101  85 100
M  END
> <chiral flag>
0

> <version>
0

> <s_m_source_file>
/data/baiqing/PycharmProjects/Reinvent-master-3.2/result/LINK_invent/BTK/process_docking_weight1_custom_sum_contain_oxygen_bond_distance_aromatic_linkinvent_7_9_3/rearranged_h_0033.sdf

> <i_m_source_file_index>
9

> <r_mmod_Potential_Energy-OPLS-2005>
278.114288330078

> <r_mmod_Stretch_Energy-OPLS-2005>
133.65168762207

> <r_mmod_Bend_Energy-OPLS-2005>
233.466201782227

> <r_mmod_Torsional_Energy-OPLS-2005>
272.752380371094

> <r_mmod_Improper_Torsional_Energy-OPLS-2005>
12.247368812561

> <r_mmod_Van_der_Waal_Energy-OPLS-2005>
92.6970977783203

> <r_mmod_Electrostatic_Energy-OPLS-2005>
-364.295196533203

> <r_mmod_Solvation_Energy-OPLS-2005>
-201.302703857422

> <b_mmod_Minimization_Converged-OPLS-2005>
0

> <r_mmod_RMS_Derivative-OPLS-2005>
4.77859020233154

$$$$
9
                    3D
 Structure written by MMmdl.
158166  0  0  1  0            999 V2000
  -30.6146  -14.5929   20.5079 C   0  0  0  0  0  0
  -30.4233  -12.3664   19.4500 C   0  0  0  0  0  0
  -29.5002  -12.5069   18.2201 C   0  0  0  0  0  0
  -28.0198  -12.3673   18.6247 C   0  0  0  0  0  0
  -27.6489  -13.2212   19.8681 C   0  0  2  0  0  0
  -28.6844  -13.0511   21.0007 C   0  0  0  0  0  0
  -25.2528  -13.8195   20.5693 C   0  0  0  0  0  0
  -24.1786  -13.0428   20.9181 C   0  0  0  0  0  0
  -24.6386  -11.6912   20.8735 C   0  0  0  0  0  0
  -23.9067  -10.4283   21.0411 C   0  0  0  0  0  0
  -24.3613   -9.4204   21.9197 C   0  0  0  0  0  0
  -23.6272   -8.2248   22.0766 C   0  0  0  0  0  0
  -22.4263   -8.0286   21.3546 C   0  0  0  0  0  0
  -21.9911   -9.0266   20.4651 C   0  0  0  0  0  0
  -22.7246  -10.2134   20.3060 C   0  0  0  0  0  0
  -21.6868   -6.0732   22.5274 C   0  0  0  0  0  0
  -21.4012   -6.5631   23.8208 C   0  0  0  0  0  0
  -21.3653   -5.6788   24.9167 C   0  0  0  0  0  0
  -21.6046   -4.3052   24.7229 C   0  0  0  0  0  0
  -21.8820   -3.8137   23.4348 C   0  0  0  0  0  0
  -21.9185   -4.6950   22.3395 C   0  0  0  0  0  0
  -22.7819  -13.5212   21.1833 C   0  0  0  0  0  0
  -22.1658   -4.2144   21.0977 F   0  0  0  0  0  0
  -21.5627   -3.4525   25.7735 F   0  0  0  0  0  0
  -29.9999  -13.3758   20.4420 N   0  0  0  0  0  0
  -26.2963  -12.9382   20.3316 N   0  0  0  0  0  0
  -25.9315  -11.6540   20.5745 N   0  0  0  0  0  0
  -22.0465  -12.8208   22.0410 N   0  0  0  0  0  0
  -25.4216  -15.1905   20.4116 N   0  0  0  0  0  0
  -31.7777  -14.7477   20.1273 O   0  0  0  0  0  0
  -21.6635   -6.8871   21.4233 O   0  0  0  0  0  0
  -22.3508  -14.5534   20.6703 O   0  0  0  0  0  0
  -24.6282  -31.8637   23.1975 C   0  0  0  0  0  0
  -25.9153  -32.4782   23.8321 C   0  0  1  0  0  0
  -27.2085  -27.3175   20.0903 C   0  0  0  0  0  0
  -25.5963  -33.8575   24.2261 N   0  0  0  0  0  0
  -23.4201  -30.4855   21.5458 C   0  0  2  0  0  0
  -24.8648  -28.9461   20.1022 C   0  0  0  0  0  0
  -22.7468  -29.4653   22.4956 C   0  0  0  0  0  0
  -18.0295  -28.1354   22.8438 C   0  0  0  0  0  0
  -24.1515  -36.7267   23.2642 C   0  0  0  0  0  0
  -25.9609  -30.7872   21.3706 C   0  0  0  0  0  0
  -26.0372  -29.4153   20.7110 C   0  0  0  0  0  0
  -27.2186  -28.6118   20.6985 C   0  0  0  0  0  0
  -26.0202  -26.9185   19.4426 C   0  0  0  0  0  0
  -24.8590  -27.7020   19.4564 C   0  0  0  0  0  0
  -23.6297  -29.8211   20.1617 C   0  0  0  0  0  0
  -25.4139  -36.3068   24.0309 C   0  0  1  0  0  0
  -20.5887  -28.3708   23.1239 C   0  0  2  0  0  0
  -20.6802  -26.9457   22.5344 C   0  0  0  0  0  0
  -19.5793  -26.6378   21.5132 C   0  0  0  0  0  0
  -18.1969  -26.7895   22.1553 C   0  0  0  0  0  0
  -19.1544  -28.8836   23.2829 C   0  0  0  0  0  0
  -18.9471  -30.1428   23.8890 C   0  0  0  0  0  0
  -17.6508  -30.6586   24.0537 C   0  0  0  0  0  0
  -25.9074  -34.9452   23.5079 C   0  0  0  0  0  0
  -16.5374  -29.9072   23.6336 C   0  0  0  0  0  0
  -16.7278  -28.6465   23.0350 C   0  0  0  0  0  0
  -26.4527  -31.6565   25.0660 C   0  0  0  0  0  0
  -25.3727  -31.3656   26.1346 C   0  0  0  0  0  0
  -27.0415  -30.3030   24.6034 C   0  0  0  0  0  0
  -27.6091  -32.4302   25.7416 C   0  0  0  0  0  0
  -27.5608  -37.1776   24.8459 C   0  0  0  0  0  0
  -21.4186  -29.3052   22.3652 N   0  0  0  0  0  0
  -26.4329  -37.3751   23.9393 N   0  0  0  0  0  0
  -24.6902  -31.0612   22.0954 N   0  0  0  0  0  0
  -23.4167  -28.8220   23.3068 O   0  0  0  0  0  0
  -28.2668  -26.4004   20.1160 O   0  0  0  0  0  0
  -26.5660  -34.8926   22.4657 O   0  0  0  0  0  0
  -23.5437  -32.1474   23.7275 O   0  0  0  0  0  0
  -29.7667  -21.6664   20.9420 C   0  0  0  0  0  0
  -29.4471  -23.0223   21.1951 C   0  0  0  0  0  0
  -28.4942  -23.7126   20.3880 C   0  0  0  0  0  0
  -29.1330  -20.9519   19.9125 C   0  0  0  0  0  0
  -27.9141  -22.9081   19.3576 C   0  0  0  0  0  0
  -30.1044  -23.6699   22.3964 C   0  0  0  0  0  0
  -26.8185  -23.4556   18.4653 C   0  0  0  0  0  0
  -27.9316  -25.1346   20.8109 C   0  0  0  0  0  0
  -29.5991  -19.4976   19.5745 C   0  0  0  0  0  0
  -29.1104  -18.2447   20.4068 C   0  0  0  0  0  0
  -30.1899  -17.0799   20.4033 C   0  0  0  0  0  0
  -28.2253  -21.5891   19.1276 N   0  0  0  0  0  0
  -29.8216  -15.6779   20.7743 N   0  0  0  0  0  0
  -31.4674  -12.4876   19.1510 H   0  0  0  0  0  0
  -30.3489  -11.3631   19.8718 H   0  0  0  0  0  0
  -29.7530  -11.7581   17.4694 H   0  0  0  0  0  0
  -29.6651  -13.4776   17.7487 H   0  0  0  0  0  0
  -27.8280  -11.3124   18.8258 H   0  0  0  0  0  0
  -27.3763  -12.6347   17.7873 H   0  0  0  0  0  0
  -27.6753  -14.2633   19.5481 H   0  0  0  0  0  0
  -28.6807  -12.0288   21.3799 H   0  0  0  0  0  0
  -28.4423  -13.6886   21.8539 H   0  0  0  0  0  0
  -25.2754   -9.5665   22.4782 H   0  0  0  0  0  0
  -23.9974   -7.4637   22.7500 H   0  0  0  0  0  0
  -21.0854   -8.8783   19.8956 H   0  0  0  0  0  0
  -22.3717  -10.9672   19.6167 H   0  0  0  0  0  0
  -21.2022   -7.6142   23.9704 H   0  0  0  0  0  0
  -21.1475   -6.0520   25.9075 H   0  0  0  0  0  0
  -22.0611   -2.7600   23.2850 H   0  0  0  0  0  0
  -22.4058  -11.9817   22.4732 H   0  0  0  0  0  0
  -21.1108  -13.1253   22.2653 H   0  0  0  0  0  0
  -24.6502  -15.8418   20.5213 H   0  0  0  0  0  0
  -26.2692  -15.6375   20.0855 H   0  0  0  0  0  0
  -26.7236  -32.5465   23.1082 H   0  0  0  0  0  0
  -25.0077  -33.9681   25.0385 H   0  0  0  0  0  0
  -22.7129  -31.3067   21.4054 H   0  0  0  0  0  0
  -23.3777  -35.9603   23.3294 H   0  0  0  0  0  0
  -24.3612  -36.8900   22.2070 H   0  0  0  0  0  0
  -23.7283  -37.6452   23.6701 H   0  0  0  0  0  0
  -26.0799  -31.5523   20.6024 H   0  0  0  0  0  0
  -26.8452  -30.8451   21.9933 H   0  0  0  0  0  0
  -28.1202  -28.9585   21.1864 H   0  0  0  0  0  0
  -25.9741  -25.9739   18.9271 H   0  0  0  0  0  0
  -23.9653  -27.3392   18.9626 H   0  0  0  0  0  0
  -23.7408  -30.5969   19.4023 H   0  0  0  0  0  0
  -22.7463  -29.2485   19.8727 H   0  0  0  0  0  0
  -25.1337  -36.1913   25.0802 H   0  0  0  0  0  0
  -20.9941  -28.3291   24.1359 H   0  0  0  0  0  0
  -20.5702  -26.2335   23.3530 H   0  0  0  0  0  0
  -21.6688  -26.7519   22.1152 H   0  0  0  0  0  0
  -19.7018  -25.6269   21.1203 H   0  0  0  0  0  0
  -19.6716  -27.3151   20.6625 H   0  0  0  0  0  0
  -17.4222  -26.6574   21.3978 H   0  0  0  0  0  0
  -18.0454  -26.0012   22.8956 H   0  0  0  0  0  0
  -19.7994  -30.7200   24.2233 H   0  0  0  0  0  0
  -17.5095  -31.6262   24.5170 H   0  0  0  0  0  0
  -15.5393  -30.3000   23.7674 H   0  0  0  0  0  0
  -15.8649  -28.0809   22.7093 H   0  0  0  0  0  0
  -24.5972  -30.6934   25.7627 H   0  0  0  0  0  0
  -24.8786  -32.2781   26.4711 H   0  0  0  0  0  0
  -25.8007  -30.8876   27.0159 H   0  0  0  0  0  0
  -26.2972  -29.6667   24.1208 H   0  0  0  0  0  0
  -27.4382  -29.7371   25.4469 H   0  0  0  0  0  0
  -27.8724  -30.4358   23.9078 H   0  0  0  0  0  0
  -27.2773  -33.3708   26.1823 H   0  0  0  0  0  0
  -28.3964  -32.6671   25.0243 H   0  0  0  0  0  0
  -28.0673  -31.8497   26.5426 H   0  0  0  0  0  0
  -28.2557  -38.0136   24.7607 H   0  0  0  0  0  0
  -28.1179  -36.2670   24.6206 H   0  0  0  0  0  0
  -27.2299  -37.1295   25.8844 H   0  0  0  0  0  0
  -20.9395  -29.8733   21.6819 H   0  0  0  0  0  0
  -26.0198  -38.2807   24.1454 H   0  0  0  0  0  0
  -30.5073  -21.1620   21.5472 H   0  0  0  0  0  0
  -30.9020  -23.0407   22.7946 H   0  0  0  0  0  0
  -29.3658  -23.8043   23.1875 H   0  0  0  0  0  0
  -30.5376  -24.6324   22.1284 H   0  0  0  0  0  0
  -27.1610  -24.3376   17.9264 H   0  0  0  0  0  0
  -25.9578  -23.7239   19.0764 H   0  0  0  0  0  0
  -26.4819  -22.7292   17.7237 H   0  0  0  0  0  0
  -28.2323  -25.3233   21.8398 H   0  0  0  0  0  0
  -26.8546  -25.0058   20.9026 H   0  0  0  0  0  0
  -30.6843  -19.5359   19.6663 H   0  0  0  0  0  0
  -29.4266  -19.2862   18.5140 H   0  0  0  0  0  0
  -28.1542  -17.9104   20.0000 H   0  0  0  0  0  0
  -28.9115  -18.5434   21.4391 H   0  0  0  0  0  0
  -31.0249  -17.3797   21.0385 H   0  0  0  0  0  0
  -30.5908  -17.0232   19.3904 H   0  0  0  0  0  0
  -28.8954  -15.4988   21.1369 H   0  0  0  0  0  0
  1 25  1  0  0  0
  1 30  2  0  0  0
  1 83  1  0  0  0
  2  3  1  0  0  0
  2 25  1  0  0  0
  2 84  1  0  0  0
  2 85  1  0  0  0
  3  4  1  0  0  0
  3 86  1  0  0  0
  3 87  1  0  0  0
  4  5  1  0  0  0
  4 88  1  0  0  0
  4 89  1  0  0  0
  5  6  1  0  0  0
  5 26  1  0  0  0
  5 90  1  0  0  0
  6 25  1  0  0  0
  6 91  1  0  0  0
  6 92  1  0  0  0
  7  8  2  0  0  0
  7 26  1  0  0  0
  7 29  1  0  0  0
  8  9  1  0  0  0
  8 22  1  0  0  0
  9 10  1  0  0  0
  9 27  2  0  0  0
 10 11  2  0  0  0
 10 15  1  0  0  0
 11 12  1  0  0  0
 11 93  1  0  0  0
 12 13  2  0  0  0
 12 94  1  0  0  0
 13 14  1  0  0  0
 13 31  1  0  0  0
 14 15  2  0  0  0
 14 95  1  0  0  0
 15 96  1  0  0  0
 16 17  2  0  0  0
 16 21  1  0  0  0
 16 31  1  0  0  0
 17 18  1  0  0  0
 17 97  1  0  0  0
 18 19  2  0  0  0
 18 98  1  0  0  0
 19 20  1  0  0  0
 19 24  1  0  0  0
 20 21  2  0  0  0
 20 99  1  0  0  0
 21 23  1  0  0  0
 22 28  1  0  0  0
 22 32  2  0  0  0
 26 27  1  0  0  0
 28100  1  0  0  0
 28101  1  0  0  0
 29102  1  0  0  0
 29103  1  0  0  0
 33 34  1  0  0  0
 33 66  1  0  0  0
 33 70  2  0  0  0
 34 36  1  0  0  0
 34 59  1  0  0  0
 34104  1  0  0  0
 35 44  2  0  0  0
 35 45  1  0  0  0
 35 68  1  0  0  0
 36 56  1  0  0  0
 36105  1  0  0  0
 37 39  1  0  0  0
 37 47  1  0  0  0
 37 66  1  0  0  0
 37106  1  0  0  0
 38 43  2  0  0  0
 38 46  1  0  0  0
 38 47  1  0  0  0
 39 64  1  0  0  0
 39 67  2  0  0  0
 40 52  1  0  0  0
 40 53  2  0  0  0
 40 58  1  0  0  0
 41107  1  0  0  0
 41108  1  0  0  0
 41109  1  0  0  0
 41 48  1  0  0  0
 42 43  1  0  0  0
 42 66  1  0  0  0
 42110  1  0  0  0
 42111  1  0  0  0
 43 44  1  0  0  0
 44112  1  0  0  0
 45 46  2  0  0  0
 45113  1  0  0  0
 46114  1  0  0  0
 47115  1  0  0  0
 47116  1  0  0  0
 48 56  1  0  0  0
 48 65  1  0  0  0
 48117  1  0  0  0
 49 50  1  0  0  0
 49 53  1  0  0  0
 49 64  1  0  0  0
 49118  1  0  0  0
 50 51  1  0  0  0
 50119  1  0  0  0
 50120  1  0  0  0
 51 52  1  0  0  0
 51121  1  0  0  0
 51122  1  0  0  0
 52123  1  0  0  0
 52124  1  0  0  0
 53 54  1  0  0  0
 54 55  2  0  0  0
 54125  1  0  0  0
 55 57  1  0  0  0
 55126  1  0  0  0
 56 69  2  0  0  0
 57 58  2  0  0  0
 57127  1  0  0  0
 58128  1  0  0  0
 59 60  1  0  0  0
 59 61  1  0  0  0
 59 62  1  0  0  0
 60129  1  0  0  0
 60130  1  0  0  0
 60131  1  0  0  0
 61132  1  0  0  0
 61133  1  0  0  0
 61134  1  0  0  0
 62135  1  0  0  0
 62136  1  0  0  0
 62137  1  0  0  0
 63 65  1  0  0  0
 63138  1  0  0  0
 63139  1  0  0  0
 63140  1  0  0  0
 64141  1  0  0  0
 65142  1  0  0  0
 68 78  1  0  0  0
 71 72  2  0  0  0
 71 74  1  0  0  0
 71143  1  0  0  0
 72 73  1  0  0  0
 72 76  1  0  0  0
 73 75  2  0  0  0
 73 78  1  0  0  0
 74 79  1  0  0  0
 74 82  2  0  0  0
 75 77  1  0  0  0
 75 82  1  0  0  0
 76144  1  0  0  0
 76145  1  0  0  0
 76146  1  0  0  0
 77147  1  0  0  0
 77148  1  0  0  0
 77149  1  0  0  0
 78150  1  0  0  0
 78151  1  0  0  0
 79 80  1  0  0  0
 79152  1  0  0  0
 79153  1  0  0  0
 80 81  1  0  0  0
 80154  1  0  0  0
 80155  1  0  0  0
 81 83  1  0  0  0
 81156  1  0  0  0
 81157  1  0  0  0
 83158  1  0  0  0
M  ISO  4   1 100  68 101  78 101  83 100
M  END
> <chiral flag>
0

> <version>
0

> <s_m_source_file>
/data/baiqing/PycharmProjects/Reinvent-master-3.2/result/LINK_invent/BTK/process_docking_weight1_custom_sum_contain_oxygen_bond_distance_aromatic_linkinvent_7_9_3/rearranged_h_0033.sdf

> <i_m_source_file_index>
10

> <r_mmod_Potential_Energy-OPLS-2005>
-69.8850708007812

> <r_mmod_Stretch_Energy-OPLS-2005>
74.0974884033203

> <r_mmod_Bend_Energy-OPLS-2005>
140.26823425293

> <r_mmod_Torsional_Energy-OPLS-2005>
242.555999755859

> <r_mmod_Improper_Torsional_Energy-OPLS-2005>
8.48051357269287

> <r_mmod_Van_der_Waal_Energy-OPLS-2005>
151.260467529297

> <r_mmod_Electrostatic_Energy-OPLS-2005>
-510.772247314453

> <r_mmod_Solvation_Energy-OPLS-2005>
-223.56852722168

> <b_mmod_Minimization_Converged-OPLS-2005>
0

> <r_mmod_RMS_Derivative-OPLS-2005>
6.03589725494385

$$$$
10
                    3D
 Structure written by MMmdl.
165173  0  0  1  0            999 V2000
  -30.6129  -14.7427   20.4822 C   0  0  0  0  0  0
  -30.4028  -12.4466   19.4881 C   0  0  0  0  0  0
  -29.4946  -12.5515   18.2371 C   0  0  0  0  0  0
  -28.0285  -12.3426   18.6508 C   0  0  0  0  0  0
  -27.6382  -13.2271   19.8609 C   0  0  2  0  0  0
  -28.6788  -13.1475   21.0050 C   0  0  0  0  0  0
  -25.2502  -13.8140   20.5734 C   0  0  0  0  0  0
  -24.1759  -13.0440   20.9172 C   0  0  0  0  0  0
  -24.6308  -11.6905   20.8729 C   0  0  0  0  0  0
  -23.8982  -10.4307   21.0393 C   0  0  0  0  0  0
  -24.3568   -9.4247   21.9160 C   0  0  0  0  0  0
  -23.6267   -8.2287   22.0780 C   0  0  0  0  0  0
  -22.4271   -8.0255   21.3560 C   0  0  0  0  0  0
  -21.9839   -9.0200   20.4663 C   0  0  0  0  0  0
  -22.7158  -10.2092   20.3056 C   0  0  0  0  0  0
  -21.6840   -6.0688   22.5284 C   0  0  0  0  0  0
  -21.3973   -6.5609   23.8198 C   0  0  0  0  0  0
  -21.3692   -5.6786   24.9157 C   0  0  0  0  0  0
  -21.6094   -4.3052   24.7241 C   0  0  0  0  0  0
  -21.8807   -3.8106   23.4359 C   0  0  0  0  0  0
  -21.9182   -4.6907   22.3399 C   0  0  0  0  0  0
  -22.7808  -13.5241   21.1831 C   0  0  0  0  0  0
  -22.1695   -4.2094   21.0997 F   0  0  0  0  0  0
  -21.5621   -3.4566   25.7769 F   0  0  0  0  0  0
  -29.9929  -13.5040   20.4497 N   0  0  0  0  0  0
  -26.2885  -12.9342   20.3298 N   0  0  0  0  0  0
  -25.9233  -11.6495   20.5676 N   0  0  0  0  0  0
  -22.0479  -12.8226   22.0386 N   0  0  0  0  0  0
  -25.4220  -15.1873   20.4266 N   0  0  0  0  0  0
  -31.7530  -14.8619   20.0211 O   0  0  0  0  0  0
  -21.6676   -6.8811   21.4254 O   0  0  0  0  0  0
  -22.3553  -14.5586   20.6684 O   0  0  0  0  0  0
  -24.6319  -31.8570   23.2003 C   0  0  0  0  0  0
  -25.9212  -32.4760   23.8276 C   0  0  1  0  0  0
  -27.2153  -27.2815   20.0751 C   0  0  0  0  0  0
  -25.6060  -33.8555   24.2222 N   0  0  0  0  0  0
  -23.4257  -30.4887   21.5355 C   0  0  2  0  0  0
  -24.8680  -28.9233   20.1240 C   0  0  0  0  0  0
  -22.7479  -29.4670   22.4796 C   0  0  0  0  0  0
  -18.0293  -28.1498   22.8509 C   0  0  0  0  0  0
  -24.1476  -36.7215   23.2619 C   0  0  0  0  0  0
  -25.9767  -30.7671   21.3869 C   0  0  0  0  0  0
  -26.0410  -29.3896   20.7311 C   0  0  0  0  0  0
  -27.2185  -28.5686   20.7174 C   0  0  0  0  0  0
  -26.0135  -26.8969   19.4378 C   0  0  0  0  0  0
  -24.8447  -27.6768   19.4922 C   0  0  0  0  0  0
  -23.6526  -29.8236   20.1541 C   0  0  0  0  0  0
  -25.4131  -36.3030   24.0286 C   0  0  1  0  0  0
  -20.5933  -28.3792   23.1289 C   0  0  2  0  0  0
  -20.6821  -26.9506   22.5422 C   0  0  0  0  0  0
  -19.5780  -26.6474   21.5231 C   0  0  0  0  0  0
  -18.1966  -26.8034   22.1623 C   0  0  0  0  0  0
  -19.1566  -28.8892   23.2915 C   0  0  0  0  0  0
  -18.9495  -30.1499   23.8941 C   0  0  0  0  0  0
  -17.6520  -30.6690   24.0587 C   0  0  0  0  0  0
  -25.9089  -34.9420   23.5032 C   0  0  0  0  0  0
  -16.5396  -29.9232   23.6377 C   0  0  0  0  0  0
  -16.7280  -28.6636   23.0392 C   0  0  0  0  0  0
  -26.4547  -31.6624   25.0683 C   0  0  0  0  0  0
  -25.3807  -31.3942   26.1438 C   0  0  0  0  0  0
  -27.0331  -30.2986   24.6285 C   0  0  0  0  0  0
  -27.6024  -32.4387   25.7573 C   0  0  0  0  0  0
  -27.5568  -37.1777   24.8482 C   0  0  0  0  0  0
  -21.4173  -29.3106   22.3568 N   0  0  0  0  0  0
  -26.4251  -37.3761   23.9460 N   0  0  0  0  0  0
  -24.6943  -31.0601   22.0920 N   0  0  0  0  0  0
  -23.4115  -28.8235   23.2921 O   0  0  0  0  0  0
  -28.3369  -26.4145   20.0802 O   0  0  0  0  0  0
  -26.5550  -34.8842   22.4524 O   0  0  0  0  0  0
  -23.5493  -32.1347   23.7320 O   0  0  0  0  0  0
  -29.8589  -19.9282   20.1879 C   0  0  0  0  0  0
  -30.7781  -18.8286   22.1200 C   0  0  0  0  0  0
  -30.1642  -18.6837   20.8611 C   0  0  0  0  0  0
  -30.2073  -21.2527   20.6723 C   0  0  0  0  0  0
  -30.8998  -21.3336   21.9319 C   0  0  0  0  0  0
  -31.1004  -20.1098   22.6517 C   0  0  0  0  0  0
  -33.9769  -22.0474   22.1037 C   0  0  0  0  0  0
  -30.4087  -23.3945   23.4452 C   0  0  0  0  0  0
  -29.9958  -22.5335   19.7483 C   0  0  0  0  0  0
  -29.8581  -17.2559   20.2035 C   0  0  0  0  0  0
  -32.9196  -22.7728   22.9789 C   0  0  0  0  0  0
  -29.1472  -23.8369   20.2572 C   0  0  0  0  0  0
  -28.2010  -24.9960   19.6161 C   0  0  0  0  0  0
  -31.4225  -22.7116   22.4724 C   0  0  1  0  0  0
  -29.8886  -15.8659   20.8610 N   0  0  0  0  0  0
  -31.7380  -20.1048   24.2534 Cl  0  0  0  0  0  0
  -30.2859  -11.4576   19.9419 H   0  0  0  0  0  0
  -31.4510  -12.5238   19.2053 H   0  0  0  0  0  0
  -29.7768  -11.8186   17.4803 H   0  0  0  0  0  0
  -29.5888  -13.5317   17.7632 H   0  0  0  0  0  0
  -27.8902  -11.2848   18.8896 H   0  0  0  0  0  0
  -27.3619  -12.5458   17.8134 H   0  0  0  0  0  0
  -27.6408  -14.2554   19.5015 H   0  0  0  0  0  0
  -28.6979  -12.1440   21.4342 H   0  0  0  0  0  0
  -28.4009  -13.8034   21.8278 H   0  0  0  0  0  0
  -25.2692   -9.5757   22.4746 H   0  0  0  0  0  0
  -24.0000   -7.4672   22.7515 H   0  0  0  0  0  0
  -21.0731   -8.8644   19.8976 H   0  0  0  0  0  0
  -22.3533  -10.9597   19.6189 H   0  0  0  0  0  0
  -21.1980   -7.6143   23.9626 H   0  0  0  0  0  0
  -21.1544   -6.0573   25.9038 H   0  0  0  0  0  0
  -22.0553   -2.7583   23.2880 H   0  0  0  0  0  0
  -22.4123  -11.9938   22.4829 H   0  0  0  0  0  0
  -21.1093  -13.1193   22.2609 H   0  0  0  0  0  0
  -24.6393  -15.8232   20.5497 H   0  0  0  0  0  0
  -26.2680  -15.6376   20.1036 H   0  0  0  0  0  0
  -26.7199  -32.5453   23.0919 H   0  0  0  0  0  0
  -25.0456  -33.9721   25.0537 H   0  0  0  0  0  0
  -22.7205  -31.3112   21.3769 H   0  0  0  0  0  0
  -23.3723  -35.9552   23.3287 H   0  0  0  0  0  0
  -24.3520  -36.8787   22.2016 H   0  0  0  0  0  0
  -23.7158  -37.6382   23.6590 H   0  0  0  0  0  0
  -26.1414  -31.5216   20.6174 H   0  0  0  0  0  0
  -26.8440  -30.8144   22.0334 H   0  0  0  0  0  0
  -28.1162  -28.9044   21.2127 H   0  0  0  0  0  0
  -25.9297  -25.9849   18.8653 H   0  0  0  0  0  0
  -23.9300  -27.3092   19.0427 H   0  0  0  0  0  0
  -23.8238  -30.5888   19.3933 H   0  0  0  0  0  0
  -22.7676  -29.2757   19.8277 H   0  0  0  0  0  0
  -25.1295  -36.1819   25.0751 H   0  0  0  0  0  0
  -21.0075  -28.3398   24.1390 H   0  0  0  0  0  0
  -20.5832  -26.2376   23.3617 H   0  0  0  0  0  0
  -21.6694  -26.7637   22.1134 H   0  0  0  0  0  0
  -19.6967  -25.6363   21.1297 H   0  0  0  0  0  0
  -19.6764  -27.3221   20.6717 H   0  0  0  0  0  0
  -17.4251  -26.6738   21.4030 H   0  0  0  0  0  0
  -18.0363  -26.0231   22.9054 H   0  0  0  0  0  0
  -19.7968  -30.7307   24.2362 H   0  0  0  0  0  0
  -17.5110  -31.6402   24.5151 H   0  0  0  0  0  0
  -15.5412  -30.3178   23.7743 H   0  0  0  0  0  0
  -15.8663  -28.1001   22.7182 H   0  0  0  0  0  0
  -24.5955  -30.7254   25.7930 H   0  0  0  0  0  0
  -24.9081  -32.3229   26.4692 H   0  0  0  0  0  0
  -25.8241  -30.9314   27.0276 H   0  0  0  0  0  0
  -26.2946  -29.6774   24.1214 H   0  0  0  0  0  0
  -27.3754  -29.7266   25.4916 H   0  0  0  0  0  0
  -27.8930  -30.4087   23.9674 H   0  0  0  0  0  0
  -27.2494  -33.3660   26.2114 H   0  0  0  0  0  0
  -28.3992  -32.6996   25.0607 H   0  0  0  0  0  0
  -28.0469  -31.8514   26.5602 H   0  0  0  0  0  0
  -28.2592  -38.0070   24.7575 H   0  0  0  0  0  0
  -28.1010  -36.2602   24.6258 H   0  0  0  0  0  0
  -27.2286  -37.1427   25.8869 H   0  0  0  0  0  0
  -20.9331  -29.8796   21.6776 H   0  0  0  0  0  0
  -26.0073  -38.2757   24.1575 H   0  0  0  0  0  0
  -29.3711  -19.8620   19.2250 H   0  0  0  0  0  0
  -31.0147  -17.9484   22.6949 H   0  0  0  0  0  0
  -34.9314  -21.8692   22.6137 H   0  0  0  0  0  0
  -34.1962  -22.6236   21.2025 H   0  0  0  0  0  0
  -33.6219  -21.0712   21.7844 H   0  0  0  0  0  0
  -30.2943  -24.4580   23.1947 H   0  0  0  0  0  0
  -30.6503  -23.3624   24.5132 H   0  0  0  0  0  0
  -29.4199  -22.9422   23.3654 H   0  0  0  0  0  0
  -29.6266  -22.1642   18.7835 H   0  0  0  0  0  0
  -31.0209  -22.8299   19.4818 H   0  0  0  0  0  0
  -30.4075  -17.2027   19.2664 H   0  0  0  0  0  0
  -28.8178  -17.3544   19.8897 H   0  0  0  0  0  0
  -33.2373  -23.8145   23.0794 H   0  0  0  0  0  0
  -32.9920  -22.3834   23.9945 H   0  0  0  0  0  0
  -28.3712  -23.2026   19.8214 H   0  0  0  0  0  0
  -29.9233  -24.4261   19.7693 H   0  0  0  0  0  0
  -27.1696  -24.6825   19.7941 H   0  0  0  0  0  0
  -28.2770  -24.9990   18.5202 H   0  0  0  0  0  0
  -31.4435  -23.3825   21.6122 H   0  0  0  0  0  0
  -29.0279  -15.6499   21.3451 H   0  0  0  0  0  0
  1 25  1  0  0  0
  1 30  2  0  0  0
  1 85  1  0  0  0
  2  3  1  0  0  0
  2 25  1  0  0  0
  2 87  1  0  0  0
  2 88  1  0  0  0
  3  4  1  0  0  0
  3 89  1  0  0  0
  3 90  1  0  0  0
  4  5  1  0  0  0
  4 91  1  0  0  0
  4 92  1  0  0  0
  5  6  1  0  0  0
  5 26  1  0  0  0
  5 93  1  0  0  0
  6 25  1  0  0  0
  6 94  1  0  0  0
  6 95  1  0  0  0
  7  8  2  0  0  0
  7 26  1  0  0  0
  7 29  1  0  0  0
  8  9  1  0  0  0
  8 22  1  0  0  0
  9 10  1  0  0  0
  9 27  2  0  0  0
 10 11  2  0  0  0
 10 15  1  0  0  0
 11 12  1  0  0  0
 11 96  1  0  0  0
 12 13  2  0  0  0
 12 97  1  0  0  0
 13 14  1  0  0  0
 13 31  1  0  0  0
 14 15  2  0  0  0
 14 98  1  0  0  0
 15 99  1  0  0  0
 16 17  2  0  0  0
 16 21  1  0  0  0
 16 31  1  0  0  0
 17 18  1  0  0  0
 17100  1  0  0  0
 18 19  2  0  0  0
 18101  1  0  0  0
 19 20  1  0  0  0
 19 24  1  0  0  0
 20 21  2  0  0  0
 20102  1  0  0  0
 21 23  1  0  0  0
 22 28  1  0  0  0
 22 32  2  0  0  0
 26 27  1  0  0  0
 28103  1  0  0  0
 28104  1  0  0  0
 29105  1  0  0  0
 29106  1  0  0  0
 33 34  1  0  0  0
 33 66  1  0  0  0
 33 70  2  0  0  0
 34 36  1  0  0  0
 34 59  1  0  0  0
 34107  1  0  0  0
 35 44  2  0  0  0
 35 45  1  0  0  0
 35 68  1  0  0  0
 36 56  1  0  0  0
 36108  1  0  0  0
 37 39  1  0  0  0
 37 47  1  0  0  0
 37 66  1  0  0  0
 37109  1  0  0  0
 38 43  2  0  0  0
 38 46  1  0  0  0
 38 47  1  0  0  0
 39 64  1  0  0  0
 39 67  2  0  0  0
 40 52  1  0  0  0
 40 53  2  0  0  0
 40 58  1  0  0  0
 41110  1  0  0  0
 41111  1  0  0  0
 41112  1  0  0  0
 41 48  1  0  0  0
 42 43  1  0  0  0
 42 66  1  0  0  0
 42113  1  0  0  0
 42114  1  0  0  0
 43 44  1  0  0  0
 44115  1  0  0  0
 45 46  2  0  0  0
 45116  1  0  0  0
 46117  1  0  0  0
 47118  1  0  0  0
 47119  1  0  0  0
 48 56  1  0  0  0
 48 65  1  0  0  0
 48120  1  0  0  0
 49 50  1  0  0  0
 49 53  1  0  0  0
 49 64  1  0  0  0
 49121  1  0  0  0
 50 51  1  0  0  0
 50122  1  0  0  0
 50123  1  0  0  0
 51 52  1  0  0  0
 51124  1  0  0  0
 51125  1  0  0  0
 52126  1  0  0  0
 52127  1  0  0  0
 53 54  1  0  0  0
 54 55  2  0  0  0
 54128  1  0  0  0
 55 57  1  0  0  0
 55129  1  0  0  0
 56 69  2  0  0  0
 57 58  2  0  0  0
 57130  1  0  0  0
 58131  1  0  0  0
 59 60  1  0  0  0
 59 61  1  0  0  0
 59 62  1  0  0  0
 60132  1  0  0  0
 60133  1  0  0  0
 60134  1  0  0  0
 61135  1  0  0  0
 61136  1  0  0  0
 61137  1  0  0  0
 62138  1  0  0  0
 62139  1  0  0  0
 62140  1  0  0  0
 63 65  1  0  0  0
 63141  1  0  0  0
 63142  1  0  0  0
 63143  1  0  0  0
 64144  1  0  0  0
 65145  1  0  0  0
 68 83  1  0  0  0
 71 73  2  0  0  0
 71 74  1  0  0  0
 71146  1  0  0  0
 72 73  1  0  0  0
 72 76  2  0  0  0
 72147  1  0  0  0
 73 80  1  0  0  0
 74 75  2  0  0  0
 74 79  1  0  0  0
 75 76  1  0  0  0
 75 84  1  0  0  0
 76 86  1  0  0  0
 77 81  1  0  0  0
 77148  1  0  0  0
 77149  1  0  0  0
 77150  1  0  0  0
 78151  1  0  0  0
 78152  1  0  0  0
 78153  1  0  0  0
 78 84  1  0  0  0
 79 82  1  0  0  0
 79154  1  0  0  0
 79155  1  0  0  0
 80 85  1  0  0  0
 80156  1  0  0  0
 80157  1  0  0  0
 81 84  1  0  0  0
 81158  1  0  0  0
 81159  1  0  0  0
 82 83  1  0  0  0
 82160  1  0  0  0
 82161  1  0  0  0
 83162  1  0  0  0
 83163  1  0  0  0
 84164  1  0  0  0
 85165  1  0  0  0
M  ISO  4   1 100  68 101  83 101  85 100
M  END
> <chiral flag>
0

> <version>
0

> <s_m_source_file>
/data/baiqing/PycharmProjects/Reinvent-master-3.2/result/LINK_invent/BTK/process_docking_weight1_custom_sum_contain_oxygen_bond_distance_aromatic_linkinvent_7_9_3/rearranged_h_0033.sdf

> <i_m_source_file_index>
11

> <r_mmod_Potential_Energy-OPLS-2005>
440.824615478516

> <r_mmod_Stretch_Energy-OPLS-2005>
144.337585449219

> <r_mmod_Bend_Energy-OPLS-2005>
420.185668945312

> <r_mmod_Torsional_Energy-OPLS-2005>
240.024917602539

> <r_mmod_Improper_Torsional_Energy-OPLS-2005>
6.60904693603516

> <r_mmod_Van_der_Waal_Energy-OPLS-2005>
160.577392578125

> <r_mmod_Electrostatic_Energy-OPLS-2005>
-398.208282470703

> <r_mmod_Solvation_Energy-OPLS-2005>
-209.731094360352

> <b_mmod_Minimization_Converged-OPLS-2005>
0

> <r_mmod_RMS_Derivative-OPLS-2005>
13.3996744155884

$$$$
11
                    3D
 Structure written by MMmdl.
162170  0  0  1  0            999 V2000
  -30.6939  -14.4165   20.5793 C   0  0  0  0  0  0
  -30.4265  -12.2643   19.4290 C   0  0  0  0  0  0
  -29.5028  -12.4904   18.2156 C   0  0  0  0  0  0
  -28.0186  -12.3594   18.6155 C   0  0  0  0  0  0
  -27.6633  -13.1924   19.8769 C   0  0  2  0  0  0
  -28.6983  -12.9360   20.9985 C   0  0  0  0  0  0
  -25.2607  -13.8148   20.5678 C   0  0  0  0  0  0
  -24.1832  -13.0445   20.9163 C   0  0  0  0  0  0
  -24.6347  -11.6909   20.8693 C   0  0  0  0  0  0
  -23.9000  -10.4301   21.0340 C   0  0  0  0  0  0
  -24.3571   -9.4234   21.9121 C   0  0  0  0  0  0
  -23.6289   -8.2247   22.0704 C   0  0  0  0  0  0
  -22.4272   -8.0252   21.3517 C   0  0  0  0  0  0
  -21.9873   -9.0203   20.4607 C   0  0  0  0  0  0
  -22.7164  -10.2106   20.3009 C   0  0  0  0  0  0
  -21.6850   -6.0710   22.5277 C   0  0  0  0  0  0
  -21.4005   -6.5616   23.8206 C   0  0  0  0  0  0
  -21.3685   -5.6768   24.9170 C   0  0  0  0  0  0
  -21.6056   -4.3031   24.7217 C   0  0  0  0  0  0
  -21.8827   -3.8123   23.4336 C   0  0  0  0  0  0
  -21.9206   -4.6942   22.3393 C   0  0  0  0  0  0
  -22.7862  -13.5247   21.1864 C   0  0  0  0  0  0
  -22.1666   -4.2119   21.0965 F   0  0  0  0  0  0
  -21.5645   -3.4519   25.7731 F   0  0  0  0  0  0
  -30.0416  -13.2312   20.4660 N   0  0  0  0  0  0
  -26.3014  -12.9277   20.3324 N   0  0  0  0  0  0
  -25.9269  -11.6453   20.5710 N   0  0  0  0  0  0
  -22.0508  -12.8230   22.0407 N   0  0  0  0  0  0
  -25.4400  -15.1866   20.4174 N   0  0  0  0  0  0
  -31.7993  -14.6438   20.0805 O   0  0  0  0  0  0
  -21.6651   -6.8847   21.4233 O   0  0  0  0  0  0
  -22.3542  -14.5556   20.6722 O   0  0  0  0  0  0
  -24.6120  -31.8723   23.2142 C   0  0  0  0  0  0
  -25.9046  -32.4816   23.8380 C   0  0  1  0  0  0
  -27.2064  -27.4717   20.0514 C   0  0  0  0  0  0
  -25.5921  -33.8615   24.2327 N   0  0  0  0  0  0
  -23.3887  -30.5078   21.5570 C   0  0  2  0  0  0
  -24.8195  -28.9749   20.1149 C   0  0  0  0  0  0
  -22.7353  -29.4746   22.4998 C   0  0  0  0  0  0
  -18.0274  -28.1397   22.8478 C   0  0  0  0  0  0
  -24.1491  -36.7322   23.2632 C   0  0  0  0  0  0
  -25.9170  -30.8467   21.3558 C   0  0  0  0  0  0
  -25.9849  -29.4865   20.6973 C   0  0  0  0  0  0
  -27.1836  -28.7419   20.6606 C   0  0  0  0  0  0
  -26.0172  -26.9578   19.4858 C   0  0  0  0  0  0
  -24.8263  -27.7075   19.5119 C   0  0  0  0  0  0
  -23.5874  -29.8486   20.1675 C   0  0  0  0  0  0
  -25.4100  -36.3092   24.0337 C   0  0  1  0  0  0
  -20.5851  -28.3687   23.1312 C   0  0  2  0  0  0
  -20.6762  -26.9430   22.5409 C   0  0  0  0  0  0
  -19.5760  -26.6403   21.5192 C   0  0  0  0  0  0
  -18.1930  -26.7950   22.1590 C   0  0  0  0  0  0
  -19.1507  -28.8848   23.2900 C   0  0  0  0  0  0
  -18.9460  -30.1450   23.8918 C   0  0  0  0  0  0
  -17.6463  -30.6598   24.0579 C   0  0  0  0  0  0
  -25.9034  -34.9466   23.5122 C   0  0  0  0  0  0
  -16.5362  -29.9113   23.6328 C   0  0  0  0  0  0
  -16.7256  -28.6535   23.0336 C   0  0  0  0  0  0
  -26.4503  -31.6591   25.0695 C   0  0  0  0  0  0
  -25.3796  -31.3690   26.1462 C   0  0  0  0  0  0
  -27.0313  -30.3038   24.6026 C   0  0  0  0  0  0
  -27.6071  -32.4306   25.7460 C   0  0  0  0  0  0
  -27.5599  -37.1785   24.8444 C   0  0  0  0  0  0
  -21.4090  -29.3059   22.3716 N   0  0  0  0  0  0
  -26.4278  -37.3784   23.9441 N   0  0  0  0  0  0
  -24.6581  -31.0878   22.1011 N   0  0  0  0  0  0
  -23.4167  -28.8276   23.3005 O   0  0  0  0  0  0
  -28.3979  -26.7897   19.9924 O   0  0  0  0  0  0
  -26.5586  -34.8932   22.4673 O   0  0  0  0  0  0
  -23.5344  -32.1467   23.7598 O   0  0  0  0  0  0
  -29.8913  -23.9201   22.5359 C   0  0  0  0  0  0
  -29.7203  -22.2956   20.7231 C   0  0  0  0  0  0
  -29.8046  -23.6322   21.1622 C   0  0  0  0  0  0
  -29.8995  -22.8850   23.4865 C   0  0  0  0  0  0
  -29.7308  -21.2473   21.6711 C   0  0  0  0  0  0
  -29.8361  -21.5420   23.0551 C   0  0  0  0  0  0
  -29.9573  -23.2373   24.9615 C   0  0  0  0  0  0
  -29.7279  -24.8001   20.2008 C   0  0  0  0  0  0
  -29.6039  -19.8075   21.2012 C   0  0  0  0  0  0
  -30.9670  -19.1377   20.9336 C   0  0  0  0  0  0
  -31.0086  -17.6701   21.4028 C   0  0  0  0  0  0
  -30.0005  -16.7912   20.6400 C   0  0  0  0  0  0
  -28.3159  -25.3872   20.1952 C   0  0  0  0  0  0
  -29.9451  -15.4019   21.0903 N   0  0  0  0  0  0
  -29.8916  -20.2687   24.2308 Cl  0  0  0  0  0  0
  -31.4704  -12.3718   19.1308 H   0  0  0  0  0  0
  -30.3251  -11.2449   19.8060 H   0  0  0  0  0  0
  -29.7445  -11.7779   17.4260 H   0  0  0  0  0  0
  -29.6853  -13.4842   17.8064 H   0  0  0  0  0  0
  -27.8217  -11.3042   18.8094 H   0  0  0  0  0  0
  -27.3759  -12.6399   17.7799 H   0  0  0  0  0  0
  -27.7188  -14.2430   19.5929 H   0  0  0  0  0  0
  -28.6549  -11.8904   21.3056 H   0  0  0  0  0  0
  -28.4627  -13.5088   21.8960 H   0  0  0  0  0  0
  -25.2700   -9.5752   22.4702 H   0  0  0  0  0  0
  -24.0026   -7.4635   22.7412 H   0  0  0  0  0  0
  -21.0804   -8.8679   19.8914 H   0  0  0  0  0  0
  -22.3567  -10.9626   19.6124 H   0  0  0  0  0  0
  -21.1968   -7.6118   23.9702 H   0  0  0  0  0  0
  -21.1518   -6.0489   25.9074 H   0  0  0  0  0  0
  -22.0595   -2.7586   23.2837 H   0  0  0  0  0  0
  -22.4117  -11.9915   22.4840 H   0  0  0  0  0  0
  -21.1096  -13.1199   22.2566 H   0  0  0  0  0  0
  -24.6875  -15.8516   20.5570 H   0  0  0  0  0  0
  -26.3075  -15.6231   20.1327 H   0  0  0  0  0  0
  -26.7102  -32.5520   23.1118 H   0  0  0  0  0  0
  -25.0075  -33.9761   25.0474 H   0  0  0  0  0  0
  -22.6776  -31.3272   21.4298 H   0  0  0  0  0  0
  -23.3740  -35.9658   23.3235 H   0  0  0  0  0  0
  -24.3611  -36.8993   22.2058 H   0  0  0  0  0  0
  -23.7256  -37.6518   23.6679 H   0  0  0  0  0  0
  -26.0248  -31.6180   20.5911 H   0  0  0  0  0  0
  -26.8078  -30.8915   21.9703 H   0  0  0  0  0  0
  -28.0883  -29.1456   21.0910 H   0  0  0  0  0  0
  -25.9873  -25.9986   18.9933 H   0  0  0  0  0  0
  -23.9241  -27.3130   19.0625 H   0  0  0  0  0  0
  -23.6984  -30.6292   19.4141 H   0  0  0  0  0  0
  -22.7020  -29.2822   19.8700 H   0  0  0  0  0  0
  -25.1280  -36.1906   25.0827 H   0  0  0  0  0  0
  -20.9945  -28.3254   24.1429 H   0  0  0  0  0  0
  -20.5636  -26.2313   23.3589 H   0  0  0  0  0  0
  -21.6653  -26.7470   22.1228 H   0  0  0  0  0  0
  -19.6930  -25.6304   21.1236 H   0  0  0  0  0  0
  -19.6722  -27.3195   20.6707 H   0  0  0  0  0  0
  -17.4210  -26.6678   21.3989 H   0  0  0  0  0  0
  -18.0354  -26.0096   22.8990 H   0  0  0  0  0  0
  -19.7947  -30.7248   24.2296 H   0  0  0  0  0  0
  -17.5049  -31.6281   24.5185 H   0  0  0  0  0  0
  -15.5364  -30.3039   23.7660 H   0  0  0  0  0  0
  -15.8654  -28.0877   22.7032 H   0  0  0  0  0  0
  -24.5944  -30.7057   25.7834 H   0  0  0  0  0  0
  -24.9023  -32.2850   26.4957 H   0  0  0  0  0  0
  -25.8188  -30.8844   27.0190 H   0  0  0  0  0  0
  -26.2816  -29.6763   24.1197 H   0  0  0  0  0  0
  -27.4244  -29.7308   25.4438 H   0  0  0  0  0  0
  -27.8587  -30.4374   23.9044 H   0  0  0  0  0  0
  -27.2669  -33.3576   26.2093 H   0  0  0  0  0  0
  -28.3856  -32.6920   25.0276 H   0  0  0  0  0  0
  -28.0763  -31.8398   26.5336 H   0  0  0  0  0  0
  -28.2534  -38.0164   24.7583 H   0  0  0  0  0  0
  -28.1184  -36.2703   24.6121 H   0  0  0  0  0  0
  -27.2357  -37.1247   25.8853 H   0  0  0  0  0  0
  -20.9214  -29.8820   21.6986 H   0  0  0  0  0  0
  -26.0150  -38.2844   24.1502 H   0  0  0  0  0  0
  -29.9273  -24.9525   22.8577 H   0  0  0  0  0  0
  -29.6268  -22.0707   19.6671 H   0  0  0  0  0  0
  -30.0965  -24.3091   25.1057 H   0  0  0  0  0  0
  -30.7935  -22.7314   25.4418 H   0  0  0  0  0  0
  -29.0355  -22.9495   25.4710 H   0  0  0  0  0  0
  -30.0314  -24.5232   19.1920 H   0  0  0  0  0  0
  -30.4411  -25.5555   20.5369 H   0  0  0  0  0  0
  -28.9728  -19.7533   20.3127 H   0  0  0  0  0  0
  -29.0493  -19.2560   21.9602 H   0  0  0  0  0  0
  -31.7547  -19.6784   21.4606 H   0  0  0  0  0  0
  -31.2136  -19.2180   19.8726 H   0  0  0  0  0  0
  -30.8025  -17.6390   22.4721 H   0  0  0  0  0  0
  -32.0227  -17.2839   21.2789 H   0  0  0  0  0  0
  -30.2063  -16.8293   19.5677 H   0  0  0  0  0  0
  -28.9928  -17.1907   20.7589 H   0  0  0  0  0  0
  -27.8396  -25.2345   21.1650 H   0  0  0  0  0  0
  -27.7149  -24.8650   19.4503 H   0  0  0  0  0  0
  -29.0760  -15.1045   21.5107 H   0  0  0  0  0  0
  1 25  1  0  0  0
  1 30  2  0  0  0
  1 84  1  0  0  0
  2  3  1  0  0  0
  2 25  1  0  0  0
  2 86  1  0  0  0
  2 87  1  0  0  0
  3  4  1  0  0  0
  3 88  1  0  0  0
  3 89  1  0  0  0
  4  5  1  0  0  0
  4 90  1  0  0  0
  4 91  1  0  0  0
  5  6  1  0  0  0
  5 26  1  0  0  0
  5 92  1  0  0  0
  6 25  1  0  0  0
  6 93  1  0  0  0
  6 94  1  0  0  0
  7  8  2  0  0  0
  7 26  1  0  0  0
  7 29  1  0  0  0
  8  9  1  0  0  0
  8 22  1  0  0  0
  9 10  1  0  0  0
  9 27  2  0  0  0
 10 11  2  0  0  0
 10 15  1  0  0  0
 11 12  1  0  0  0
 11 95  1  0  0  0
 12 13  2  0  0  0
 12 96  1  0  0  0
 13 14  1  0  0  0
 13 31  1  0  0  0
 14 15  2  0  0  0
 14 97  1  0  0  0
 15 98  1  0  0  0
 16 17  2  0  0  0
 16 21  1  0  0  0
 16 31  1  0  0  0
 17 18  1  0  0  0
 17 99  1  0  0  0
 18 19  2  0  0  0
 18100  1  0  0  0
 19 20  1  0  0  0
 19 24  1  0  0  0
 20 21  2  0  0  0
 20101  1  0  0  0
 21 23  1  0  0  0
 22 28  1  0  0  0
 22 32  2  0  0  0
 26 27  1  0  0  0
 28102  1  0  0  0
 28103  1  0  0  0
 29104  1  0  0  0
 29105  1  0  0  0
 33 34  1  0  0  0
 33 66  1  0  0  0
 33 70  2  0  0  0
 34 36  1  0  0  0
 34 59  1  0  0  0
 34106  1  0  0  0
 35 44  2  0  0  0
 35 45  1  0  0  0
 35 68  1  0  0  0
 36 56  1  0  0  0
 36107  1  0  0  0
 37 39  1  0  0  0
 37 47  1  0  0  0
 37 66  1  0  0  0
 37108  1  0  0  0
 38 43  2  0  0  0
 38 46  1  0  0  0
 38 47  1  0  0  0
 39 64  1  0  0  0
 39 67  2  0  0  0
 40 52  1  0  0  0
 40 53  2  0  0  0
 40 58  1  0  0  0
 41109  1  0  0  0
 41110  1  0  0  0
 41111  1  0  0  0
 41 48  1  0  0  0
 42 43  1  0  0  0
 42 66  1  0  0  0
 42112  1  0  0  0
 42113  1  0  0  0
 43 44  1  0  0  0
 44114  1  0  0  0
 45 46  2  0  0  0
 45115  1  0  0  0
 46116  1  0  0  0
 47117  1  0  0  0
 47118  1  0  0  0
 48 56  1  0  0  0
 48 65  1  0  0  0
 48119  1  0  0  0
 49 50  1  0  0  0
 49 53  1  0  0  0
 49 64  1  0  0  0
 49120  1  0  0  0
 50 51  1  0  0  0
 50121  1  0  0  0
 50122  1  0  0  0
 51 52  1  0  0  0
 51123  1  0  0  0
 51124  1  0  0  0
 52125  1  0  0  0
 52126  1  0  0  0
 53 54  1  0  0  0
 54 55  2  0  0  0
 54127  1  0  0  0
 55 57  1  0  0  0
 55128  1  0  0  0
 56 69  2  0  0  0
 57 58  2  0  0  0
 57129  1  0  0  0
 58130  1  0  0  0
 59 60  1  0  0  0
 59 61  1  0  0  0
 59 62  1  0  0  0
 60131  1  0  0  0
 60132  1  0  0  0
 60133  1  0  0  0
 61134  1  0  0  0
 61135  1  0  0  0
 61136  1  0  0  0
 62137  1  0  0  0
 62138  1  0  0  0
 62139  1  0  0  0
 63 65  1  0  0  0
 63140  1  0  0  0
 63141  1  0  0  0
 63142  1  0  0  0
 64143  1  0  0  0
 65144  1  0  0  0
 68 83  1  0  0  0
 71 73  2  0  0  0
 71 74  1  0  0  0
 71145  1  0  0  0
 72 73  1  0  0  0
 72 75  2  0  0  0
 72146  1  0  0  0
 73 78  1  0  0  0
 74 76  2  0  0  0
 74 77  1  0  0  0
 75 76  1  0  0  0
 75 79  1  0  0  0
 76 85  1  0  0  0
 77147  1  0  0  0
 77148  1  0  0  0
 77149  1  0  0  0
 78 83  1  0  0  0
 78150  1  0  0  0
 78151  1  0  0  0
 79 80  1  0  0  0
 79152  1  0  0  0
 79153  1  0  0  0
 80 81  1  0  0  0
 80154  1  0  0  0
 80155  1  0  0  0
 81 82  1  0  0  0
 81156  1  0  0  0
 81157  1  0  0  0
 82 84  1  0  0  0
 82158  1  0  0  0
 82159  1  0  0  0
 83160  1  0  0  0
 83161  1  0  0  0
 84162  1  0  0  0
M  ISO  4   1 100  68 101  83 101  84 100
M  END
> <chiral flag>
0

> <version>
0

> <s_m_source_file>
/data/baiqing/PycharmProjects/Reinvent-master-3.2/result/LINK_invent/BTK/process_docking_weight1_custom_sum_contain_oxygen_bond_distance_aromatic_linkinvent_7_9_3/rearranged_h_0033.sdf

> <i_m_source_file_index>
12

> <r_mmod_Potential_Energy-OPLS-2005>
-42.8288040161133

> <r_mmod_Stretch_Energy-OPLS-2005>
30.7605304718018

> <r_mmod_Bend_Energy-OPLS-2005>
87.8455963134766

> <r_mmod_Torsional_Energy-OPLS-2005>
228.32341003418

> <r_mmod_Improper_Torsional_Energy-OPLS-2005>
6.57382917404175

> <r_mmod_Van_der_Waal_Energy-OPLS-2005>
160.206069946289

> <r_mmod_Electrostatic_Energy-OPLS-2005>
-364.145965576172

> <r_mmod_Solvation_Energy-OPLS-2005>
-203.550201416016

> <b_mmod_Minimization_Converged-OPLS-2005>
0

> <r_mmod_RMS_Derivative-OPLS-2005>
4.10478401184082

$$$$
12
                    3D
 Structure written by MMmdl.
149157  0  0  1  0            999 V2000
  -29.0610  -18.1743   19.7820 C   0  0  0  0  0  0
  -29.9073  -14.9921   19.3045 C   0  0  0  0  0  0
  -29.4830  -13.6350   18.4467 C   0  0  0  0  0  0
  -28.3833  -12.7655   19.0531 C   0  0  0  0  0  0
  -27.5200  -13.7677   19.8093 C   0  0  2  0  0  0
  -28.2591  -15.0236   20.6202 C   0  0  0  0  0  0
  -25.1641  -13.9172   20.6132 C   0  0  0  0  0  0
  -24.1574  -13.0659   20.9443 C   0  0  0  0  0  0
  -24.6948  -11.7425   20.8668 C   0  0  0  0  0  0
  -23.9714  -10.4493   21.0184 C   0  0  0  0  0  0
  -24.4030   -9.4365   21.9065 C   0  0  0  0  0  0
  -23.6552   -8.2452   22.0733 C   0  0  0  0  0  0
  -22.4515   -8.0469   21.3546 C   0  0  0  0  0  0
  -22.0279   -9.0470   20.4609 C   0  0  0  0  0  0
  -22.7773  -10.2279   20.2931 C   0  0  0  0  0  0
  -21.6957   -6.0855   22.5270 C   0  0  0  0  0  0
  -21.4092   -6.5711   23.8215 C   0  0  0  0  0  0
  -21.3682   -5.6835   24.9157 C   0  0  0  0  0  0
  -21.6040   -4.3096   24.7190 C   0  0  0  0  0  0
  -21.8809   -3.8214   23.4301 C   0  0  0  0  0  0
  -21.9224   -4.7059   22.3373 C   0  0  0  0  0  0
  -22.7430  -13.4911   21.1977 C   0  0  0  0  0  0
  -22.1674   -4.2236   21.0950 F   0  0  0  0  0  0
  -21.5608   -3.4561   25.7690 F   0  0  0  0  0  0
  -28.9053  -16.3273   19.7925 N   0  0  0  0  0  0
  -26.2876  -13.1657   20.3864 N   0  0  0  0  0  0
  -26.0091  -11.8173   20.5535 N   0  0  0  0  0  0
  -22.0280  -12.7757   22.0552 N   0  0  0  0  0  0
  -25.2048  -15.2934   20.4289 N   0  0  0  0  0  0
  -30.3259  -17.7560   19.8522 O   0  0  0  0  0  0
  -21.6801   -6.9079   21.4266 O   0  0  0  0  0  0
  -22.2877  -14.5117   20.6807 O   0  0  0  0  0  0
  -24.8934  -31.5958   22.5904 C   0  0  0  0  0  0
  -26.0122  -32.3289   23.5281 C   0  0  1  0  0  0
  -28.3841  -25.3929   20.9764 C   0  0  0  0  0  0
  -25.5585  -33.7086   23.9232 N   0  0  0  0  0  0
  -23.5055  -29.7906   21.1475 C   0  0  2  0  0  0
  -24.8188  -26.6732   20.2855 C   0  0  0  0  0  0
  -22.6859  -29.4651   22.4333 C   0  0  0  0  0  0
  -18.0109  -28.1647   22.8314 C   0  0  0  0  0  0
  -24.1444  -36.6661   23.2736 C   0  0  0  0  0  0
  -26.5895  -30.1739   20.4113 C   0  0  0  0  0  0
  -27.1316  -28.1522   19.8546 C   0  0  0  0  0  0
  -28.5468  -27.1023   20.1254 C   0  0  0  0  0  0
  -26.7455  -24.4698   21.2084 C   0  0  0  0  0  0
  -25.0797  -25.1326   20.8468 C   0  0  0  0  0  0
  -23.3069  -27.9267   20.5915 C   0  0  0  0  0  0
  -25.4239  -36.2126   23.9975 C   0  0  1  0  0  0
  -20.5546  -28.4112   23.1669 C   0  0  2  0  0  0
  -20.5826  -26.9211   22.7403 C   0  0  0  0  0  0
  -19.6057  -26.6186   21.5983 C   0  0  0  0  0  0
  -18.1790  -26.8291   22.1174 C   0  0  0  0  0  0
  -19.1253  -28.9173   23.2930 C   0  0  0  0  0  0
  -18.9153  -30.1703   23.9008 C   0  0  0  0  0  0
  -17.6135  -30.6735   24.0645 C   0  0  0  0  0  0
  -25.9378  -34.8779   23.3863 C   0  0  0  0  0  0
  -16.5097  -29.9173   23.6330 C   0  0  0  0  0  0
  -16.7082  -28.6659   23.0229 C   0  0  0  0  0  0
  -26.3795  -31.6960   24.9768 C   0  0  0  0  0  0
  -25.1996  -31.5372   25.9676 C   0  0  0  0  0  0
  -26.9703  -30.3163   24.9028 C   0  0  0  0  0  0
  -27.4852  -32.5282   25.6925 C   0  0  0  0  0  0
  -27.5459  -37.1407   24.8450 C   0  0  0  0  0  0
  -21.3619  -29.2867   22.3031 N   0  0  0  0  0  0
  -26.4113  -37.3203   23.9444 N   0  0  0  0  0  0
  -25.0215  -30.7378   21.3585 N   0  0  0  0  0  0
  -23.2755  -29.0718   23.4367 O   0  0  0  0  0  0
  -28.3627  -25.5688   22.4720 O   0  0  0  0  0  0
  -26.6751  -34.9104   22.4039 O   0  0  0  0  0  0
  -23.7836  -31.9061   23.0956 O   0  0  0  0  0  0
  -26.6855  -26.7224   21.3906 C   0  0  0  0  0  0
  -25.8539  -27.0469   18.3216 C   0  0  0  0  0  0
  -26.7620  -25.6660   19.2856 C   0  0  0  0  0  0
  -26.5690  -27.9896   22.1431 C   0  0  0  0  0  0
  -25.4677  -28.4179   21.4937 C   0  0  0  0  0  0
  -27.6754  -22.8909   19.2101 C   0  0  0  0  0  0
  -25.4048  -27.2587   23.0859 C   0  0  0  0  0  0
  -26.9638  -25.9892   23.5870 C   0  0  0  0  0  0
  -25.1043  -28.5694   19.2849 N   0  0  0  0  0  0
  -28.2107  -20.2196   19.5873 N   0  0  0  0  0  0
  -28.0087  -28.9978   22.6065 Cl  0  0  0  0  0  0
  -30.6116  -15.4843   18.6329 H   0  0  0  0  0  0
  -30.5808  -14.7044   20.1170 H   0  0  0  0  0  0
  -30.3659  -13.0249   18.2520 H   0  0  0  0  0  0
  -29.1414  -13.9687   17.4656 H   0  0  0  0  0  0
  -28.8089  -12.0445   19.7519 H   0  0  0  0  0  0
  -27.8281  -12.2133   18.2933 H   0  0  0  0  0  0
  -27.1008  -14.3165   18.9632 H   0  0  0  0  0  0
  -28.9207  -14.6304   21.3975 H   0  0  0  0  0  0
  -27.5202  -15.5026   21.2562 H   0  0  0  0  0  0
  -25.3132   -9.5799   22.4719 H   0  0  0  0  0  0
  -24.0185   -7.4881   22.7535 H   0  0  0  0  0  0
  -21.1192   -8.9075   19.8924 H   0  0  0  0  0  0
  -22.4229  -10.9804   19.6028 H   0  0  0  0  0  0
  -21.2122   -7.6222   23.9748 H   0  0  0  0  0  0
  -21.1497   -6.0551   25.9064 H   0  0  0  0  0  0
  -22.0553   -2.7674   23.2774 H   0  0  0  0  0  0
  -22.4132  -11.9549   22.4983 H   0  0  0  0  0  0
  -21.0809  -13.0516   22.2722 H   0  0  0  0  0  0
  -24.3778  -15.8760   20.5055 H   0  0  0  0  0  0
  -26.0222  -15.7939   20.1042 H   0  0  0  0  0  0
  -26.9254  -32.3904   22.9339 H   0  0  0  0  0  0
  -24.8858  -33.7389   24.6743 H   0  0  0  0  0  0
  -22.8730  -30.4026   20.5040 H   0  0  0  0  0  0
  -23.3812  -35.8866   23.3040 H   0  0  0  0  0  0
  -24.3358  -36.8938   22.2238 H   0  0  0  0  0  0
  -23.7144  -37.5542   23.7377 H   0  0  0  0  0  0
  -26.5072  -30.6970   19.4574 H   0  0  0  0  0  0
  -27.4477  -30.6916   20.8365 H   0  0  0  0  0  0
  -29.4933  -27.6077   20.2570 H   0  0  0  0  0  0
  -26.7800  -23.5366   21.7540 H   0  0  0  0  0  0
  -24.2250  -24.5498   21.1601 H   0  0  0  0  0  0
  -22.7153  -27.9377   19.6730 H   0  0  0  0  0  0
  -22.6733  -27.3508   21.2329 H   0  0  0  0  0  0
  -25.1650  -36.0277   25.0425 H   0  0  0  0  0  0
  -20.9669  -28.4598   24.1774 H   0  0  0  0  0  0
  -20.2289  -26.3509   23.6012 H   0  0  0  0  0  0
  -21.5719  -26.5013   22.6101 H   0  0  0  0  0  0
  -19.7272  -25.5945   21.2447 H   0  0  0  0  0  0
  -19.8090  -27.2737   20.7502 H   0  0  0  0  0  0
  -17.4722  -26.7613   21.2890 H   0  0  0  0  0  0
  -17.9148  -26.0330   22.8150 H   0  0  0  0  0  0
  -19.7597  -30.7506   24.2477 H   0  0  0  0  0  0
  -17.4602  -31.6368   24.5315 H   0  0  0  0  0  0
  -15.5072  -30.3002   23.7657 H   0  0  0  0  0  0
  -15.8523  -28.0979   22.6839 H   0  0  0  0  0  0
  -24.4389  -30.8581   25.5798 H   0  0  0  0  0  0
  -24.7061  -32.4890   26.1632 H   0  0  0  0  0  0
  -25.5169  -31.1515   26.9376 H   0  0  0  0  0  0
  -26.3285  -29.6749   24.3114 H   0  0  0  0  0  0
  -27.0392  -29.8434   25.8837 H   0  0  0  0  0  0
  -28.0016  -30.3869   24.5691 H   0  0  0  0  0  0
  -27.1295  -33.5133   25.9955 H   0  0  0  0  0  0
  -28.3490  -32.6853   25.0448 H   0  0  0  0  0  0
  -27.8429  -32.0396   26.6003 H   0  0  0  0  0  0
  -28.2273  -37.9883   24.7609 H   0  0  0  0  0  0
  -28.1142  -36.2387   24.6129 H   0  0  0  0  0  0
  -27.2192  -37.0814   25.8847 H   0  0  0  0  0  0
  -20.9235  -29.5970   21.4470 H   0  0  0  0  0  0
  -25.9691  -38.2081   24.1658 H   0  0  0  0  0  0
  -27.4802  -27.1574   21.8856 H   0  0  0  0  0  0
  -25.6214  -26.9535   17.2709 H   0  0  0  0  0  0
  -28.7272  -23.1604   19.1173 H   0  0  0  0  0  0
  -27.3349  -22.7435   18.1854 H   0  0  0  0  0  0
  -24.5018  -26.6488   23.0012 H   0  0  0  0  0  0
  -25.1927  -27.8244   23.9995 H   0  0  0  0  0  0
  -26.5394  -25.0614   23.9710 H   0  0  0  0  0  0
  -27.4469  -26.4367   24.4565 H   0  0  0  0  0  0
  -27.2494  -19.8985   19.6094 H   0  0  0  0  0  0
  1 25  1  0  0  0
  1 30  2  0  0  0
  1 80  1  0  0  0
  2  3  1  0  0  0
  2 25  1  0  0  0
  2 82  1  0  0  0
  2 83  1  0  0  0
  3  4  1  0  0  0
  3 84  1  0  0  0
  3 85  1  0  0  0
  4  5  1  0  0  0
  4 86  1  0  0  0
  4 87  1  0  0  0
  5  6  1  0  0  0
  5 26  1  0  0  0
  5 88  1  0  0  0
  6 25  1  0  0  0
  6 89  1  0  0  0
  6 90  1  0  0  0
  7  8  2  0  0  0
  7 26  1  0  0  0
  7 29  1  0  0  0
  8  9  1  0  0  0
  8 22  1  0  0  0
  9 10  1  0  0  0
  9 27  2  0  0  0
 10 11  2  0  0  0
 10 15  1  0  0  0
 11 12  1  0  0  0
 11 91  1  0  0  0
 12 13  2  0  0  0
 12 92  1  0  0  0
 13 14  1  0  0  0
 13 31  1  0  0  0
 14 15  2  0  0  0
 14 93  1  0  0  0
 15 94  1  0  0  0
 16 17  2  0  0  0
 16 21  1  0  0  0
 16 31  1  0  0  0
 17 18  1  0  0  0
 17 95  1  0  0  0
 18 19  2  0  0  0
 18 96  1  0  0  0
 19 20  1  0  0  0
 19 24  1  0  0  0
 20 21  2  0  0  0
 20 97  1  0  0  0
 21 23  1  0  0  0
 22 28  1  0  0  0
 22 32  2  0  0  0
 26 27  1  0  0  0
 28 98  1  0  0  0
 28 99  1  0  0  0
 29100  1  0  0  0
 29101  1  0  0  0
 33 34  1  0  0  0
 33 66  1  0  0  0
 33 70  2  0  0  0
 34 36  1  0  0  0
 34 59  1  0  0  0
 34102  1  0  0  0
 35 44  2  0  0  0
 35 45  1  0  0  0
 35 68  1  0  0  0
 36 56  1  0  0  0
 36103  1  0  0  0
 37 39  1  0  0  0
 37 47  1  0  0  0
 37 66  1  0  0  0
 37104  1  0  0  0
 38 43  2  0  0  0
 38 46  1  0  0  0
 38 47  1  0  0  0
 39 64  1  0  0  0
 39 67  2  0  0  0
 40 52  1  0  0  0
 40 53  2  0  0  0
 40 58  1  0  0  0
 41105  1  0  0  0
 41106  1  0  0  0
 41107  1  0  0  0
 41 48  1  0  0  0
 42 43  1  0  0  0
 42 66  1  0  0  0
 42108  1  0  0  0
 42109  1  0  0  0
 43 44  1  0  0  0
 44110  1  0  0  0
 45 46  2  0  0  0
 45111  1  0  0  0
 46112  1  0  0  0
 47113  1  0  0  0
 47114  1  0  0  0
 48 56  1  0  0  0
 48 65  1  0  0  0
 48115  1  0  0  0
 49 50  1  0  0  0
 49 53  1  0  0  0
 49 64  1  0  0  0
 49116  1  0  0  0
 50 51  1  0  0  0
 50117  1  0  0  0
 50118  1  0  0  0
 51 52  1  0  0  0
 51119  1  0  0  0
 51120  1  0  0  0
 52121  1  0  0  0
 52122  1  0  0  0
 53 54  1  0  0  0
 54 55  2  0  0  0
 54123  1  0  0  0
 55 57  1  0  0  0
 55124  1  0  0  0
 56 69  2  0  0  0
 57 58  2  0  0  0
 57125  1  0  0  0
 58126  1  0  0  0
 59 60  1  0  0  0
 59 61  1  0  0  0
 59 62  1  0  0  0
 60127  1  0  0  0
 60128  1  0  0  0
 60129  1  0  0  0
 61130  1  0  0  0
 61131  1  0  0  0
 61132  1  0  0  0
 62133  1  0  0  0
 62134  1  0  0  0
 62135  1  0  0  0
 63 65  1  0  0  0
 63136  1  0  0  0
 63137  1  0  0  0
 63138  1  0  0  0
 64139  1  0  0  0
 65140  1  0  0  0
 68 78  1  0  0  0
 71 73  2  0  0  0
 71 74  1  0  0  0
 71141  1  0  0  0
 72 73  1  0  0  0
 72 79  2  0  0  0
 72142  1  0  0  0
 73 76  1  0  0  0
 74 75  2  0  0  0
 74 81  1  0  0  0
 75 77  1  0  0  0
 75 79  1  0  0  0
 76 80  1  0  0  0
 76143  1  0  0  0
 76144  1  0  0  0
 77 78  1  0  0  0
 77145  1  0  0  0
 77146  1  0  0  0
 78147  1  0  0  0
 78148  1  0  0  0
 80149  1  0  0  0
M  ISO  4   1 100  68 101  78 101  80 100
M  END
> <chiral flag>
0

> <version>
0

> <s_m_source_file>
/data/baiqing/PycharmProjects/Reinvent-master-3.2/result/LINK_invent/BTK/process_docking_weight1_custom_sum_contain_oxygen_bond_distance_aromatic_linkinvent_7_9_3/rearranged_h_0033.sdf

> <i_m_source_file_index>
13

> <r_mmod_Potential_Energy-OPLS-2005>
40241.2890625

> <r_mmod_Stretch_Energy-OPLS-2005>
20304.884765625

> <r_mmod_Bend_Energy-OPLS-2005>
2586.96997070312

> <r_mmod_Torsional_Energy-OPLS-2005>
710.526611328125

> <r_mmod_Improper_Torsional_Energy-OPLS-2005>
127.365707397461

> <r_mmod_Van_der_Waal_Energy-OPLS-2005>
6107.9541015625

> <r_mmod_Electrostatic_Energy-OPLS-2005>
-447.772308349609

> <r_mmod_Solvation_Energy-OPLS-2005>
-257.909851074219

> <b_mmod_Minimization_Converged-OPLS-2005>
0

> <r_mmod_RMS_Derivative-OPLS-2005>
1.2459409236908

$$$$
13
                    3D
 Structure written by MMmdl.
171179  0  0  1  0            999 V2000
  -30.6537  -14.5422   20.5830 C   0  0  0  0  0  0
  -30.4298  -12.3477   19.4452 C   0  0  0  0  0  0
  -29.4945  -12.5069   18.2266 C   0  0  0  0  0  0
  -28.0161  -12.3589   18.6351 C   0  0  0  0  0  0
  -27.6580  -13.2075   19.8821 C   0  0  2  0  0  0
  -28.6945  -13.0181   21.0113 C   0  0  0  0  0  0
  -25.2571  -13.8194   20.5690 C   0  0  0  0  0  0
  -24.1849  -13.0467   20.9210 C   0  0  0  0  0  0
  -24.6398  -11.6933   20.8794 C   0  0  0  0  0  0
  -23.9071  -10.4307   21.0451 C   0  0  0  0  0  0
  -24.3621   -9.4211   21.9214 C   0  0  0  0  0  0
  -23.6298   -8.2249   22.0782 C   0  0  0  0  0  0
  -22.4283   -8.0299   21.3574 C   0  0  0  0  0  0
  -21.9914   -9.0280   20.4686 C   0  0  0  0  0  0
  -22.7246  -10.2158   20.3089 C   0  0  0  0  0  0
  -21.6858   -6.0779   22.5310 C   0  0  0  0  0  0
  -21.4027   -6.5679   23.8241 C   0  0  0  0  0  0
  -21.3630   -5.6823   24.9186 C   0  0  0  0  0  0
  -21.6007   -4.3077   24.7219 C   0  0  0  0  0  0
  -21.8816   -3.8186   23.4326 C   0  0  0  0  0  0
  -21.9174   -4.7013   22.3400 C   0  0  0  0  0  0
  -22.7853  -13.5285   21.1814 C   0  0  0  0  0  0
  -22.1656   -4.2214   21.0974 F   0  0  0  0  0  0
  -21.5580   -3.4543   25.7710 F   0  0  0  0  0  0
  -30.0212  -13.3378   20.4613 N   0  0  0  0  0  0
  -26.2999  -12.9339   20.3399 N   0  0  0  0  0  0
  -25.9314  -11.6513   20.5808 N   0  0  0  0  0  0
  -22.0461  -12.8338   22.0364 N   0  0  0  0  0  0
  -25.4369  -15.1898   20.4100 N   0  0  0  0  0  0
  -31.7879  -14.7363   20.1363 O   0  0  0  0  0  0
  -21.6639   -6.8909   21.4270 O   0  0  0  0  0  0
  -22.3576  -14.5590   20.6621 O   0  0  0  0  0  0
  -24.6143  -31.8602   23.2037 C   0  0  0  0  0  0
  -25.9022  -32.4746   23.8361 C   0  0  1  0  0  0
  -27.2250  -27.3760   20.0986 C   0  0  0  0  0  0
  -25.5862  -33.8571   24.2286 N   0  0  0  0  0  0
  -23.4058  -30.4879   21.5431 C   0  0  2  0  0  0
  -24.8506  -28.9372   20.1184 C   0  0  0  0  0  0
  -22.7450  -29.4600   22.4929 C   0  0  0  0  0  0
  -18.0264  -28.1410   22.8457 C   0  0  0  0  0  0
  -24.1523  -36.7303   23.2652 C   0  0  0  0  0  0
  -25.9402  -30.8081   21.3610 C   0  0  0  0  0  0
  -26.0183  -29.4354   20.7145 C   0  0  0  0  0  0
  -27.2045  -28.6620   20.7023 C   0  0  0  0  0  0
  -26.0292  -26.8965   19.5166 C   0  0  0  0  0  0
  -24.8502  -27.6659   19.5250 C   0  0  0  0  0  0
  -23.6203  -29.8178   20.1598 C   0  0  0  0  0  0
  -25.4135  -36.3079   24.0339 C   0  0  1  0  0  0
  -20.5854  -28.3670   23.1291 C   0  0  2  0  0  0
  -20.6716  -26.9404   22.5399 C   0  0  0  0  0  0
  -19.5676  -26.6402   21.5196 C   0  0  0  0  0  0
  -18.1872  -26.7953   22.1624 C   0  0  0  0  0  0
  -19.1512  -28.8846   23.2875 C   0  0  0  0  0  0
  -18.9425  -30.1448   23.8894 C   0  0  0  0  0  0
  -17.6426  -30.6588   24.0523 C   0  0  0  0  0  0
  -25.9045  -34.9428   23.5152 C   0  0  0  0  0  0
  -16.5324  -29.9084   23.6308 C   0  0  0  0  0  0
  -16.7236  -28.6520   23.0293 C   0  0  0  0  0  0
  -26.4433  -31.6534   25.0693 C   0  0  0  0  0  0
  -25.3775  -31.3797   26.1524 C   0  0  0  0  0  0
  -27.0111  -30.2899   24.6072 C   0  0  0  0  0  0
  -27.6119  -32.4154   25.7356 C   0  0  0  0  0  0
  -27.5602  -37.1803   24.8473 C   0  0  0  0  0  0
  -21.4171  -29.3023   22.3728 N   0  0  0  0  0  0
  -26.4340  -37.3740   23.9392 N   0  0  0  0  0  0
  -24.6724  -31.0700   22.0942 N   0  0  0  0  0  0
  -23.4203  -28.8129   23.2965 O   0  0  0  0  0  0
  -28.4072  -26.6485   20.0974 O   0  0  0  0  0  0
  -26.5656  -34.8909   22.4753 O   0  0  0  0  0  0
  -23.5336  -32.1385   23.7414 O   0  0  0  0  0  0
  -28.2467  -22.8331   20.8036 C   0  0  0  0  0  0
  -27.9157  -24.7886   22.2051 C   0  0  0  0  0  0
  -28.1945  -24.2546   20.9387 C   0  0  0  0  0  0
  -28.0912  -21.9580   21.9249 C   0  0  0  0  0  0
  -27.8907  -22.5470   23.2233 C   0  0  0  0  0  0
  -27.7356  -23.9609   23.3132 C   0  0  0  0  0  0
  -29.6858  -25.5564   26.5660 C   0  0  0  0  0  0
  -27.9648  -20.4160   21.6832 C   0  0  0  0  0  0
  -27.7758  -21.6726   24.4932 C   0  0  0  0  0  0
  -28.4323  -25.2300   19.7681 C   0  0  0  0  0  0
  -29.2589  -24.2084   27.1756 C   0  0  0  0  0  0
  -29.2359  -19.5480   21.3296 C   0  0  0  0  0  0
  -27.9314  -22.3459   25.8941 C   0  0  0  0  0  0
  -29.2881  -23.0382   26.1594 C   0  0  0  0  0  0
  -29.0265  -17.9816   21.4475 C   0  0  0  0  0  0
  -30.1979  -17.0226   21.0040 C   0  0  0  0  0  0
  -29.8969  -15.5625   21.0719 N   0  0  0  0  0  0
  -27.3599  -24.5806   24.4566 F   0  0  0  0  0  0
  -31.4691  -12.4753   19.1332 H   0  0  0  0  0  0
  -30.3593  -11.3375   19.8555 H   0  0  0  0  0  0
  -29.7406  -11.7789   17.4514 H   0  0  0  0  0  0
  -29.6460  -13.4858   17.7738 H   0  0  0  0  0  0
  -27.8239  -11.3056   18.8354 H   0  0  0  0  0  0
  -27.3634  -12.6232   17.8023 H   0  0  0  0  0  0
  -27.6870  -14.2509   19.5655 H   0  0  0  0  0  0
  -28.6709  -11.9896   21.3839 H   0  0  0  0  0  0
  -28.4430  -13.6350   21.8740 H   0  0  0  0  0  0
  -25.2747   -9.5673   22.4810 H   0  0  0  0  0  0
  -24.0002   -7.4632   22.7488 H   0  0  0  0  0  0
  -21.0841   -8.8805   19.8989 H   0  0  0  0  0  0
  -22.3708  -10.9714   19.6213 H   0  0  0  0  0  0
  -21.2082   -7.6205   23.9764 H   0  0  0  0  0  0
  -21.1434   -6.0552   25.9094 H   0  0  0  0  0  0
  -22.0612   -2.7661   23.2803 H   0  0  0  0  0  0
  -22.4048  -12.0019   22.4822 H   0  0  0  0  0  0
  -21.1102  -13.1464   22.2525 H   0  0  0  0  0  0
  -24.6798  -15.8559   20.5215 H   0  0  0  0  0  0
  -26.2909  -15.6144   20.0702 H   0  0  0  0  0  0
  -26.7066  -32.5453   23.1111 H   0  0  0  0  0  0
  -24.9906  -33.9741   25.0342 H   0  0  0  0  0  0
  -22.6897  -31.3038   21.4041 H   0  0  0  0  0  0
  -23.3754  -35.9659   23.3303 H   0  0  0  0  0  0
  -24.3647  -36.8942   22.2066 H   0  0  0  0  0  0
  -23.7322  -37.6532   23.6692 H   0  0  0  0  0  0
  -26.0501  -31.5554   20.5753 H   0  0  0  0  0  0
  -26.8332  -30.8698   21.9741 H   0  0  0  0  0  0
  -28.1113  -29.0352   21.1602 H   0  0  0  0  0  0
  -25.9637  -25.9247   19.0548 H   0  0  0  0  0  0
  -23.9504  -27.2633   19.0795 H   0  0  0  0  0  0
  -23.7475  -30.5871   19.3980 H   0  0  0  0  0  0
  -22.7384  -29.2474   19.8583 H   0  0  0  0  0  0
  -25.1354  -36.1935   25.0833 H   0  0  0  0  0  0
  -20.9907  -28.3254   24.1424 H   0  0  0  0  0  0
  -20.5600  -26.2274   23.3575 H   0  0  0  0  0  0
  -21.6595  -26.7430   22.1216 H   0  0  0  0  0  0
  -19.6778  -25.6321   21.1231 H   0  0  0  0  0  0
  -19.6591  -27.3196   20.6721 H   0  0  0  0  0  0
  -17.4148  -26.6646   21.4026 H   0  0  0  0  0  0
  -18.0244  -26.0149   22.9048 H   0  0  0  0  0  0
  -19.7889  -30.7249   24.2309 H   0  0  0  0  0  0
  -17.4962  -31.6251   24.5160 H   0  0  0  0  0  0
  -15.5297  -30.2902   23.7701 H   0  0  0  0  0  0
  -15.8654  -28.0836   22.6964 H   0  0  0  0  0  0
  -24.5750  -30.7347   25.7958 H   0  0  0  0  0  0
  -24.9257  -32.3070   26.5046 H   0  0  0  0  0  0
  -25.8071  -30.8859   27.0256 H   0  0  0  0  0  0
  -26.2719  -29.6908   24.0773 H   0  0  0  0  0  0
  -27.3556  -29.6889   25.4496 H   0  0  0  0  0  0
  -27.8661  -30.4125   23.9442 H   0  0  0  0  0  0
  -27.2838  -33.3470   26.1908 H   0  0  0  0  0  0
  -28.3912  -32.6668   25.0167 H   0  0  0  0  0  0
  -28.0785  -31.8226   26.5211 H   0  0  0  0  0  0
  -28.2630  -38.0095   24.7576 H   0  0  0  0  0  0
  -28.1113  -36.2644   24.6273 H   0  0  0  0  0  0
  -27.2327  -37.1401   25.8881 H   0  0  0  0  0  0
  -20.9356  -29.8853   21.7017 H   0  0  0  0  0  0
  -26.0211  -38.2842   24.1321 H   0  0  0  0  0  0
  -28.3929  -22.4010   19.8209 H   0  0  0  0  0  0
  -27.8084  -25.8527   22.3445 H   0  0  0  0  0  0
  -29.7164  -26.3500   27.3142 H   0  0  0  0  0  0
  -28.9856  -25.8843   25.7961 H   0  0  0  0  0  0
  -30.6775  -25.4959   26.1137 H   0  0  0  0  0  0
  -27.2587  -20.2935   20.8576 H   0  0  0  0  0  0
  -27.4552  -19.9647   22.5342 H   0  0  0  0  0  0
  -28.5115  -20.8694   24.4359 H   0  0  0  0  0  0
  -26.7981  -21.1949   24.4566 H   0  0  0  0  0  0
  -27.8042  -24.9809   18.9153 H   0  0  0  0  0  0
  -29.4464  -25.0369   19.4194 H   0  0  0  0  0  0
  -28.2677  -24.3187   27.6174 H   0  0  0  0  0  0
  -29.9331  -23.9862   28.0056 H   0  0  0  0  0  0
  -29.5315  -19.7908   20.3073 H   0  0  0  0  0  0
  -30.0748  -19.8488   21.9619 H   0  0  0  0  0  0
  -27.8059  -21.5762   26.6563 H   0  0  0  0  0  0
  -27.0978  -23.0228   26.0782 H   0  0  0  0  0  0
  -29.9875  -22.2797   26.5123 H   0  0  0  0  0  0
  -29.7150  -23.3954   25.2234 H   0  0  0  0  0  0
  -28.1439  -17.7205   20.8656 H   0  0  0  0  0  0
  -28.7785  -17.7379   22.4792 H   0  0  0  0  0  0
  -31.0810  -17.2358   21.6061 H   0  0  0  0  0  0
  -30.4802  -17.2288   19.9735 H   0  0  0  0  0  0
  -28.9845  -15.2948   21.4071 H   0  0  0  0  0  0
  1 25  1  0  0  0
  1 30  2  0  0  0
  1 87  1  0  0  0
  2  3  1  0  0  0
  2 25  1  0  0  0
  2 89  1  0  0  0
  2 90  1  0  0  0
  3  4  1  0  0  0
  3 91  1  0  0  0
  3 92  1  0  0  0
  4  5  1  0  0  0
  4 93  1  0  0  0
  4 94  1  0  0  0
  5  6  1  0  0  0
  5 26  1  0  0  0
  5 95  1  0  0  0
  6 25  1  0  0  0
  6 96  1  0  0  0
  6 97  1  0  0  0
  7  8  2  0  0  0
  7 26  1  0  0  0
  7 29  1  0  0  0
  8  9  1  0  0  0
  8 22  1  0  0  0
  9 10  1  0  0  0
  9 27  2  0  0  0
 10 11  2  0  0  0
 10 15  1  0  0  0
 11 12  1  0  0  0
 11 98  1  0  0  0
 12 13  2  0  0  0
 12 99  1  0  0  0
 13 14  1  0  0  0
 13 31  1  0  0  0
 14 15  2  0  0  0
 14100  1  0  0  0
 15101  1  0  0  0
 16 17  2  0  0  0
 16 21  1  0  0  0
 16 31  1  0  0  0
 17 18  1  0  0  0
 17102  1  0  0  0
 18 19  2  0  0  0
 18103  1  0  0  0
 19 20  1  0  0  0
 19 24  1  0  0  0
 20 21  2  0  0  0
 20104  1  0  0  0
 21 23  1  0  0  0
 22 28  1  0  0  0
 22 32  2  0  0  0
 26 27  1  0  0  0
 28105  1  0  0  0
 28106  1  0  0  0
 29107  1  0  0  0
 29108  1  0  0  0
 33 34  1  0  0  0
 33 66  1  0  0  0
 33 70  2  0  0  0
 34 36  1  0  0  0
 34 59  1  0  0  0
 34109  1  0  0  0
 35 44  2  0  0  0
 35 45  1  0  0  0
 35 68  1  0  0  0
 36 56  1  0  0  0
 36110  1  0  0  0
 37 39  1  0  0  0
 37 47  1  0  0  0
 37 66  1  0  0  0
 37111  1  0  0  0
 38 43  2  0  0  0
 38 46  1  0  0  0
 38 47  1  0  0  0
 39 64  1  0  0  0
 39 67  2  0  0  0
 40 52  1  0  0  0
 40 53  2  0  0  0
 40 58  1  0  0  0
 41112  1  0  0  0
 41113  1  0  0  0
 41114  1  0  0  0
 41 48  1  0  0  0
 42 43  1  0  0  0
 42 66  1  0  0  0
 42115  1  0  0  0
 42116  1  0  0  0
 43 44  1  0  0  0
 44117  1  0  0  0
 45 46  2  0  0  0
 45118  1  0  0  0
 46119  1  0  0  0
 47120  1  0  0  0
 47121  1  0  0  0
 48 56  1  0  0  0
 48 65  1  0  0  0
 48122  1  0  0  0
 49 50  1  0  0  0
 49 53  1  0  0  0
 49 64  1  0  0  0
 49123  1  0  0  0
 50 51  1  0  0  0
 50124  1  0  0  0
 50125  1  0  0  0
 51 52  1  0  0  0
 51126  1  0  0  0
 51127  1  0  0  0
 52128  1  0  0  0
 52129  1  0  0  0
 53 54  1  0  0  0
 54 55  2  0  0  0
 54130  1  0  0  0
 55 57  1  0  0  0
 55131  1  0  0  0
 56 69  2  0  0  0
 57 58  2  0  0  0
 57132  1  0  0  0
 58133  1  0  0  0
 59 60  1  0  0  0
 59 61  1  0  0  0
 59 62  1  0  0  0
 60134  1  0  0  0
 60135  1  0  0  0
 60136  1  0  0  0
 61137  1  0  0  0
 61138  1  0  0  0
 61139  1  0  0  0
 62140  1  0  0  0
 62141  1  0  0  0
 62142  1  0  0  0
 63 65  1  0  0  0
 63143  1  0  0  0
 63144  1  0  0  0
 63145  1  0  0  0
 64146  1  0  0  0
 65147  1  0  0  0
 68 80  1  0  0  0
 71 73  2  0  0  0
 71 74  1  0  0  0
 71148  1  0  0  0
 72 73  1  0  0  0
 72 76  2  0  0  0
 72149  1  0  0  0
 73 80  1  0  0  0
 74 75  2  0  0  0
 74 78  1  0  0  0
 75 76  1  0  0  0
 75 79  1  0  0  0
 76 88  1  0  0  0
 77 81  1  0  0  0
 77150  1  0  0  0
 77151  1  0  0  0
 77152  1  0  0  0
 78 82  1  0  0  0
 78153  1  0  0  0
 78154  1  0  0  0
 79 83  1  0  0  0
 79155  1  0  0  0
 79156  1  0  0  0
 80157  1  0  0  0
 80158  1  0  0  0
 81 84  1  0  0  0
 81159  1  0  0  0
 81160  1  0  0  0
 82 85  1  0  0  0
 82161  1  0  0  0
 82162  1  0  0  0
 83 84  1  0  0  0
 83163  1  0  0  0
 83164  1  0  0  0
 84165  1  0  0  0
 84166  1  0  0  0
 85 86  1  0  0  0
 85167  1  0  0  0
 85168  1  0  0  0
 86 87  1  0  0  0
 86169  1  0  0  0
 86170  1  0  0  0
 87171  1  0  0  0
M  ISO  4   1 100  68 101  80 101  87 100
M  END
> <chiral flag>
0

> <version>
0

> <s_m_source_file>
/data/baiqing/PycharmProjects/Reinvent-master-3.2/result/LINK_invent/BTK/process_docking_weight1_custom_sum_contain_oxygen_bond_distance_aromatic_linkinvent_7_9_3/rearranged_h_0033.sdf

> <i_m_source_file_index>
14

> <r_mmod_Potential_Energy-OPLS-2005>
41.2222328186035

> <r_mmod_Stretch_Energy-OPLS-2005>
65.3637008666992

> <r_mmod_Bend_Energy-OPLS-2005>
131.109252929688

> <r_mmod_Torsional_Energy-OPLS-2005>
226.185913085938

> <r_mmod_Improper_Torsional_Energy-OPLS-2005>
4.72993659973145

> <r_mmod_Van_der_Waal_Energy-OPLS-2005>
148.082565307617

> <r_mmod_Electrostatic_Energy-OPLS-2005>
-358.380767822266

> <r_mmod_Solvation_Energy-OPLS-2005>
-198.60498046875

> <b_mmod_Minimization_Converged-OPLS-2005>
0

> <r_mmod_RMS_Derivative-OPLS-2005>
6.53806495666504

$$$$
14
                    3D
 Structure written by MMmdl.
168178  0  0  1  0            999 V2000
  -30.2845  -14.4333   20.8533 C   0  0  0  0  0  0
  -30.5251  -12.3950   19.3842 C   0  0  0  0  0  0
  -29.5620  -12.4985   18.1600 C   0  0  0  0  0  0
  -28.0752  -12.2303   18.5080 C   0  0  0  0  0  0
  -27.7552  -12.9446   19.8065 C   0  0  2  0  0  0
  -28.7297  -12.4863   20.9028 C   0  0  0  0  0  0
  -25.6266  -14.0938   20.1704 C   0  0  0  0  0  0
  -24.4539  -13.9143   20.7423 C   0  0  0  0  0  0
  -24.4450  -12.3206   20.8770 C   0  0  0  0  0  0
  -23.7118  -10.9150   21.1185 C   0  0  0  0  0  0
  -24.2469   -9.8277   21.9277 C   0  0  0  0  0  0
  -23.6471   -8.5244   22.0609 C   0  0  0  0  0  0
  -22.4634   -8.1996   21.3567 C   0  0  0  0  0  0
  -21.9857   -9.1955   20.4756 C   0  0  0  0  0  0
  -22.5905  -10.4863   20.3561 C   0  0  0  0  0  0
  -21.7539   -6.1404   22.5088 C   0  0  0  0  0  0
  -21.4508   -6.6091   23.8075 C   0  0  0  0  0  0
  -21.3801   -5.7120   24.8964 C   0  0  0  0  0  0
  -21.6015   -4.3352   24.6992 C   0  0  0  0  0  0
  -21.8748   -3.8548   23.4075 C   0  0  0  0  0  0
  -21.9398   -4.7479   22.3200 C   0  0  0  0  0  0
  -23.7527  -15.5030   20.8510 C   0  0  0  0  0  0
  -22.1754   -4.2544   21.0799 F   0  0  0  0  0  0
  -21.5493   -3.4771   25.7468 F   0  0  0  0  0  0
  -29.9652  -13.1437   20.5345 N   0  0  0  0  0  0
  -26.3700  -12.9683   20.1770 N   0  0  0  0  0  0
  -25.6978  -11.8992   20.5953 N   0  0  0  0  0  0
  -23.7505  -17.0131   23.1181 N   0  0  0  0  0  0
  -26.1261  -15.2843   19.6796 N   0  0  0  0  0  0
  -31.3587  -14.8928   20.4105 O   0  0  0  0  0  0
  -21.7847   -6.9807   21.4061 O   0  0  0  0  0  0
  -22.8511  -15.4162   19.9761 O   0  0  0  0  0  0
  -24.7350  -31.7141   23.1173 C   0  0  0  0  0  0
  -25.9743  -32.3938   23.7827 C   0  0  1  0  0  0
  -26.1842  -25.6655   20.5234 C   0  0  0  0  0  0
  -25.6142  -33.7868   24.1590 N   0  0  0  0  0  0
  -23.5390  -30.3467   21.4866 C   0  0  2  0  0  0
  -24.8339  -28.5273   20.0915 C   0  0  0  0  0  0
  -22.7737  -29.3956   22.4488 C   0  0  0  0  0  0
  -18.0288  -28.1413   22.8426 C   0  0  0  0  0  0
  -24.1491  -36.6951   23.2666 C   0  0  0  0  0  0
  -26.0903  -30.0467   21.5547 C   0  0  0  0  0  0
  -25.9362  -28.5324   20.9309 C   0  0  0  0  0  0
  -26.6141  -27.1311   21.1075 C   0  0  0  0  0  0
  -25.4004  -26.1473   19.4371 C   0  0  0  0  0  0
  -24.7065  -27.3951   19.2774 C   0  0  0  0  0  0
  -23.7903  -29.6670   20.1011 C   0  0  0  0  0  0
  -25.4170  -36.2610   24.0229 C   0  0  1  0  0  0
  -20.5915  -28.3759   23.1065 C   0  0  2  0  0  0
  -20.6732  -26.9390   22.5402 C   0  0  0  0  0  0
  -19.5734  -26.6320   21.5201 C   0  0  0  0  0  0
  -18.1906  -26.7931   22.1591 C   0  0  0  0  0  0
  -19.1561  -28.8915   23.2727 C   0  0  0  0  0  0
  -18.9502  -30.1491   23.8794 C   0  0  0  0  0  0
  -17.6505  -30.6609   24.0533 C   0  0  0  0  0  0
  -25.9222  -34.9015   23.4779 C   0  0  0  0  0  0
  -16.5379  -29.9106   23.6343 C   0  0  0  0  0  0
  -16.7277  -28.6515   23.0374 C   0  0  0  0  0  0
  -26.4704  -31.6361   25.0790 C   0  0  0  0  0  0
  -25.3610  -31.3942   26.1305 C   0  0  0  0  0  0
  -27.0753  -30.2610   24.7391 C   0  0  0  0  0  0
  -27.6061  -32.4389   25.7570 C   0  0  0  0  0  0
  -27.5544  -37.1615   24.8448 C   0  0  0  0  0  0
  -21.4367  -29.2942   22.3304 N   0  0  0  0  0  0
  -26.4201  -37.3489   23.9450 N   0  0  0  0  0  0
  -24.8347  -30.7745   22.0927 N   0  0  0  0  0  0
  -23.3993  -28.7545   23.2977 O   0  0  0  0  0  0
  -26.3215  -23.8941   20.6830 O   0  0  0  0  0  0
  -26.5908  -34.8735   22.4431 O   0  0  0  0  0  0
  -23.6320  -32.0810   23.5691 O   0  0  0  0  0  0
  -22.0298  -16.0956   22.2404 C   0  0  0  0  0  0
  -23.0197  -17.7887   21.2069 C   0  0  0  0  0  0
  -23.4743  -14.9151   23.0103 C   0  0  0  0  0  0
  -24.8044  -17.7877   21.3091 C   0  0  0  0  0  0
  -20.6300  -15.6646   22.5168 C   0  0  0  0  0  0
  -22.8413  -19.5318   20.9789 C   0  0  0  0  0  0
  -23.1642  -13.7303   23.8385 C   0  0  0  0  0  0
  -25.6821  -19.6896   21.1241 C   0  0  0  0  0  0
  -20.6845  -14.1374   22.8440 C   0  0  0  0  0  0
  -23.8841  -21.0062   20.4941 C   0  0  0  0  0  0
  -21.6125  -13.6757   24.0313 C   0  0  0  0  0  0
  -25.4025  -21.8514   20.9895 C   0  0  2  0  0  0
  -25.1991  -22.1996   22.4664 C   0  0  0  0  0  0
  -26.9121  -16.0169   22.7606 C   0  0  0  0  0  0
  -28.0268  -14.9371   22.3545 C   0  0  0  0  0  0
  -25.4376  -16.0044   22.3217 N   0  0  0  0  0  0
  -29.3018  -15.2134   21.5047 N   0  0  0  0  0  0
  -31.5107  -12.7689   19.1042 H   0  0  0  0  0  0
  -30.6840  -11.3485   19.6518 H   0  0  0  0  0  0
  -29.8887  -11.8267   17.3658 H   0  0  0  0  0  0
  -29.6478  -13.5054   17.7489 H   0  0  0  0  0  0
  -27.8938  -11.1617   18.6191 H   0  0  0  0  0  0
  -27.4252  -12.5734   17.7027 H   0  0  0  0  0  0
  -28.0248  -13.9600   19.5446 H   0  0  0  0  0  0
  -28.8259  -11.4012   20.8348 H   0  0  0  0  0  0
  -28.4841  -12.5664   21.9529 H   0  0  0  0  0  0
  -25.1532  -10.0195   22.4842 H   0  0  0  0  0  0
  -24.1040   -7.7914   22.7105 H   0  0  0  0  0  0
  -21.1136   -8.9779   19.8746 H   0  0  0  0  0  0
  -22.1578  -11.1858   19.6546 H   0  0  0  0  0  0
  -21.2738   -7.6621   23.9700 H   0  0  0  0  0  0
  -21.1585   -6.0830   25.8866 H   0  0  0  0  0  0
  -22.0310   -2.7993   23.2470 H   0  0  0  0  0  0
  -24.3736  -16.7695   23.8667 H   0  0  0  0  0  0
  -23.1479  -17.8177   23.1534 H   0  0  0  0  0  0
  -25.6589  -16.1829   19.7174 H   0  0  0  0  0  0
  -27.0337  -15.3551   19.2409 H   0  0  0  0  0  0
  -26.7867  -32.4120   23.0539 H   0  0  0  0  0  0
  -25.0224  -33.8834   24.9706 H   0  0  0  0  0  0
  -22.9127  -31.2223   21.3020 H   0  0  0  0  0  0
  -23.3803  -35.9217   23.3149 H   0  0  0  0  0  0
  -24.3551  -36.8860   22.2117 H   0  0  0  0  0  0
  -23.7187  -37.6018   23.6940 H   0  0  0  0  0  0
  -26.4756  -30.6736   20.7486 H   0  0  0  0  0  0
  -26.9058  -30.0244   22.2583 H   0  0  0  0  0  0
  -27.3716  -27.1076   21.8783 H   0  0  0  0  0  0
  -25.0704  -25.3771   18.7550 H   0  0  0  0  0  0
  -23.9487  -27.4220   18.5066 H   0  0  0  0  0  0
  -24.1163  -30.4204   19.3847 H   0  0  0  0  0  0
  -22.8493  -29.2833   19.7050 H   0  0  0  0  0  0
  -25.1396  -36.1260   25.0712 H   0  0  0  0  0  0
  -21.0008  -28.3433   24.1191 H   0  0  0  0  0  0
  -20.5518  -26.2420   23.3701 H   0  0  0  0  0  0
  -21.6604  -26.7260   22.1273 H   0  0  0  0  0  0
  -19.6901  -25.6196   21.1319 H   0  0  0  0  0  0
  -19.6704  -27.3061   20.6676 H   0  0  0  0  0  0
  -17.4177  -26.6643   21.3990 H   0  0  0  0  0  0
  -18.0296  -26.0083   22.8997 H   0  0  0  0  0  0
  -19.7990  -30.7293   24.2150 H   0  0  0  0  0  0
  -17.5077  -31.6289   24.5152 H   0  0  0  0  0  0
  -15.5387  -30.3016   23.7741 H   0  0  0  0  0  0
  -15.8642  -28.0826   22.7196 H   0  0  0  0  0  0
  -24.5821  -30.7249   25.7637 H   0  0  0  0  0  0
  -24.8779  -32.3241   26.4309 H   0  0  0  0  0  0
  -25.7645  -30.9374   27.0353 H   0  0  0  0  0  0
  -26.3395  -29.5719   24.3236 H   0  0  0  0  0  0
  -27.4543  -29.7740   25.6389 H   0  0  0  0  0  0
  -27.9312  -30.3458   24.0699 H   0  0  0  0  0  0
  -27.2533  -33.3793   26.1811 H   0  0  0  0  0  0
  -28.4013  -32.6760   25.0492 H   0  0  0  0  0  0
  -28.0602  -31.8788   26.5759 H   0  0  0  0  0  0
  -28.2384  -38.0070   24.7614 H   0  0  0  0  0  0
  -28.1204  -36.2586   24.6104 H   0  0  0  0  0  0
  -27.2294  -37.1037   25.8850 H   0  0  0  0  0  0
  -20.9743  -29.8661   21.6375 H   0  0  0  0  0  0
  -25.9934  -38.2467   24.1593 H   0  0  0  0  0  0
  -20.0072  -15.8596   21.6435 H   0  0  0  0  0  0
  -20.2262  -16.2340   23.3543 H   0  0  0  0  0  0
  -22.4082  -19.8325   21.9326 H   0  0  0  0  0  0
  -21.9977  -19.5797   20.2895 H   0  0  0  0  0  0
  -23.6721  -13.7806   24.8017 H   0  0  0  0  0  0
  -23.5135  -12.8259   23.3466 H   0  0  0  0  0  0
  -26.2554  -19.5434   20.2095 H   0  0  0  0  0  0
  -26.4583  -19.6431   21.8887 H   0  0  0  0  0  0
  -20.9851  -13.6013   21.9409 H   0  0  0  0  0  0
  -19.6675  -13.8036   23.0502 H   0  0  0  0  0  0
  -23.1527  -21.8120   20.5253 H   0  0  0  0  0  0
  -24.0311  -20.8572   19.4239 H   0  0  0  0  0  0
  -21.3560  -14.2966   24.8895 H   0  0  0  0  0  0
  -21.3411  -12.6597   24.3196 H   0  0  0  0  0  0
  -24.7735  -21.3646   23.0246 H   0  0  0  0  0  0
  -24.5415  -23.0602   22.5822 H   0  0  0  0  0  0
  -26.1500  -22.4521   22.9340 H   0  0  0  0  0  0
  -27.2970  -16.9988   22.4870 H   0  0  0  0  0  0
  -26.8790  -16.0488   23.8491 H   0  0  0  0  0  0
  -27.3771  -14.1724   22.0068 H   0  0  0  0  0  0
  -28.4224  -14.5434   23.2912 H   0  0  0  0  0  0
  -29.5867  -16.1807   21.5531 H   0  0  0  0  0  0
  1 25  1  0  0  0
  1 30  2  0  0  0
  1 87  1  0  0  0
  2  3  1  0  0  0
  2 25  1  0  0  0
  2 88  1  0  0  0
  2 89  1  0  0  0
  3  4  1  0  0  0
  3 90  1  0  0  0
  3 91  1  0  0  0
  4  5  1  0  0  0
  4 92  1  0  0  0
  4 93  1  0  0  0
  5  6  1  0  0  0
  5 26  1  0  0  0
  5 94  1  0  0  0
  6 25  1  0  0  0
  6 95  1  0  0  0
  6 96  1  0  0  0
  7  8  2  0  0  0
  7 26  1  0  0  0
  7 29  1  0  0  0
  8  9  1  0  0  0
  8 22  1  0  0  0
  9 10  1  0  0  0
  9 27  2  0  0  0
 10 11  2  0  0  0
 10 15  1  0  0  0
 11 12  1  0  0  0
 11 97  1  0  0  0
 12 13  2  0  0  0
 12 98  1  0  0  0
 13 14  1  0  0  0
 13 31  1  0  0  0
 14 15  2  0  0  0
 14 99  1  0  0  0
 15100  1  0  0  0
 16 17  2  0  0  0
 16 21  1  0  0  0
 16 31  1  0  0  0
 17 18  1  0  0  0
 17101  1  0  0  0
 18 19  2  0  0  0
 18102  1  0  0  0
 19 20  1  0  0  0
 19 24  1  0  0  0
 20 21  2  0  0  0
 20103  1  0  0  0
 21 23  1  0  0  0
 22 28  1  0  0  0
 22 32  2  0  0  0
 26 27  1  0  0  0
 28104  1  0  0  0
 28105  1  0  0  0
 29106  1  0  0  0
 29107  1  0  0  0
 33 34  1  0  0  0
 33 66  1  0  0  0
 33 70  2  0  0  0
 34 36  1  0  0  0
 34 59  1  0  0  0
 34108  1  0  0  0
 35 44  2  0  0  0
 35 45  1  0  0  0
 35 68  1  0  0  0
 36 56  1  0  0  0
 36109  1  0  0  0
 37 39  1  0  0  0
 37 47  1  0  0  0
 37 66  1  0  0  0
 37110  1  0  0  0
 38 43  2  0  0  0
 38 46  1  0  0  0
 38 47  1  0  0  0
 39 64  1  0  0  0
 39 67  2  0  0  0
 40 52  1  0  0  0
 40 53  2  0  0  0
 40 58  1  0  0  0
 41111  1  0  0  0
 41112  1  0  0  0
 41113  1  0  0  0
 41 48  1  0  0  0
 42 43  1  0  0  0
 42 66  1  0  0  0
 42114  1  0  0  0
 42115  1  0  0  0
 43 44  1  0  0  0
 44116  1  0  0  0
 45 46  2  0  0  0
 45117  1  0  0  0
 46118  1  0  0  0
 47119  1  0  0  0
 47120  1  0  0  0
 48 56  1  0  0  0
 48 65  1  0  0  0
 48121  1  0  0  0
 49 50  1  0  0  0
 49 53  1  0  0  0
 49 64  1  0  0  0
 49122  1  0  0  0
 50 51  1  0  0  0
 50123  1  0  0  0
 50124  1  0  0  0
 51 52  1  0  0  0
 51125  1  0  0  0
 51126  1  0  0  0
 52127  1  0  0  0
 52128  1  0  0  0
 53 54  1  0  0  0
 54 55  2  0  0  0
 54129  1  0  0  0
 55 57  1  0  0  0
 55130  1  0  0  0
 56 69  2  0  0  0
 57 58  2  0  0  0
 57131  1  0  0  0
 58132  1  0  0  0
 59 60  1  0  0  0
 59 61  1  0  0  0
 59 62  1  0  0  0
 60133  1  0  0  0
 60134  1  0  0  0
 60135  1  0  0  0
 61136  1  0  0  0
 61137  1  0  0  0
 61138  1  0  0  0
 62139  1  0  0  0
 62140  1  0  0  0
 62141  1  0  0  0
 63 65  1  0  0  0
 63142  1  0  0  0
 63143  1  0  0  0
 63144  1  0  0  0
 64145  1  0  0  0
 65146  1  0  0  0
 68 82  1  0  0  0
 71 72  1  0  0  0
 71 73  2  0  0  0
 71 75  1  0  0  0
 72 74  2  0  0  0
 72 76  1  0  0  0
 73 77  1  0  0  0
 73 86  1  0  0  0
 74 78  1  0  0  0
 74 86  1  0  0  0
 75 79  1  0  0  0
 75147  1  0  0  0
 75148  1  0  0  0
 76 80  1  0  0  0
 76149  1  0  0  0
 76150  1  0  0  0
 77 81  1  0  0  0
 77151  1  0  0  0
 77152  1  0  0  0
 78 82  1  0  0  0
 78153  1  0  0  0
 78154  1  0  0  0
 79 81  1  0  0  0
 79155  1  0  0  0
 79156  1  0  0  0
 80 82  1  0  0  0
 80157  1  0  0  0
 80158  1  0  0  0
 81159  1  0  0  0
 81160  1  0  0  0
 82 83  1  0  0  0
 83161  1  0  0  0
 83162  1  0  0  0
 83163  1  0  0  0
 84 85  1  0  0  0
 84 86  1  0  0  0
 84164  1  0  0  0
 84165  1  0  0  0
 85 87  1  0  0  0
 85166  1  0  0  0
 85167  1  0  0  0
 87168  1  0  0  0
M  ISO  4   1 100  68 101  82 101  87 100
M  END
> <chiral flag>
0

> <version>
0

> <s_m_source_file>
/data/baiqing/PycharmProjects/Reinvent-master-3.2/result/LINK_invent/BTK/process_docking_weight1_custom_sum_contain_oxygen_bond_distance_aromatic_linkinvent_7_9_3/rearranged_h_0033.sdf

> <i_m_source_file_index>
15

> <r_mmod_Potential_Energy-OPLS-2005>
23279.5

> <r_mmod_Stretch_Energy-OPLS-2005>
12352.201171875

> <r_mmod_Bend_Energy-OPLS-2005>
1642.93505859375

> <r_mmod_Torsional_Energy-OPLS-2005>
435.758270263672

> <r_mmod_Improper_Torsional_Energy-OPLS-2005>
64.2534942626953

> <r_mmod_Van_der_Waal_Energy-OPLS-2005>
3626.61840820312

> <r_mmod_Electrostatic_Energy-OPLS-2005>
-363.092376708984

> <r_mmod_Solvation_Energy-OPLS-2005>
-212.269439697266

> <b_mmod_Minimization_Converged-OPLS-2005>
0

> <r_mmod_RMS_Derivative-OPLS-2005>
5.95740985870361

$$$$
15
                    3D
 Structure written by MMmdl.
153161  0  0  1  0            999 V2000
  -30.6057  -14.8595   20.4406 C   0  0  0  0  0  0
  -30.4322  -12.5302   19.5060 C   0  0  0  0  0  0
  -29.5240  -12.5151   18.2578 C   0  0  0  0  0  0
  -28.0499  -12.3282   18.6657 C   0  0  0  0  0  0
  -27.6327  -13.2513   19.8417 C   0  0  2  0  0  0
  -28.6726  -13.2627   20.9832 C   0  0  0  0  0  0
  -25.2452  -13.8229   20.5692 C   0  0  0  0  0  0
  -24.1768  -13.0449   20.9225 C   0  0  0  0  0  0
  -24.6392  -11.6940   20.8757 C   0  0  0  0  0  0
  -23.9086  -10.4310   21.0416 C   0  0  0  0  0  0
  -24.3640   -9.4215   21.9192 C   0  0  0  0  0  0
  -23.6310   -8.2246   22.0751 C   0  0  0  0  0  0
  -22.4287   -8.0291   21.3543 C   0  0  0  0  0  0
  -21.9936   -9.0269   20.4649 C   0  0  0  0  0  0
  -22.7270  -10.2151   20.3063 C   0  0  0  0  0  0
  -21.6863   -6.0742   22.5279 C   0  0  0  0  0  0
  -21.4017   -6.5641   23.8215 C   0  0  0  0  0  0
  -21.3663   -5.6795   24.9176 C   0  0  0  0  0  0
  -21.6045   -4.3055   24.7225 C   0  0  0  0  0  0
  -21.8816   -3.8152   23.4347 C   0  0  0  0  0  0
  -21.9190   -4.6976   22.3398 C   0  0  0  0  0  0
  -22.7791  -13.5218   21.1895 C   0  0  0  0  0  0
  -22.1654   -4.2157   21.0984 F   0  0  0  0  0  0
  -21.5639   -3.4534   25.7739 F   0  0  0  0  0  0
  -29.9640  -13.6312   20.3905 N   0  0  0  0  0  0
  -26.2899  -12.9465   20.3260 N   0  0  0  0  0  0
  -25.9331  -11.6598   20.5736 N   0  0  0  0  0  0
  -22.0430  -12.8204   22.0456 N   0  0  0  0  0  0
  -25.4112  -15.1957   20.4094 N   0  0  0  0  0  0
  -31.8074  -14.8952   20.1587 O   0  0  0  0  0  0
  -21.6644   -6.8894   21.4243 O   0  0  0  0  0  0
  -22.3479  -14.5534   20.6766 O   0  0  0  0  0  0
  -24.6377  -31.8492   23.1916 C   0  0  0  0  0  0
  -25.9176  -32.4724   23.8296 C   0  0  1  0  0  0
  -27.2183  -27.1955   20.1349 C   0  0  0  0  0  0
  -25.5958  -33.8522   24.2210 N   0  0  0  0  0  0
  -23.4345  -30.4700   21.5366 C   0  0  2  0  0  0
  -24.8844  -28.9048   20.1105 C   0  0  0  0  0  0
  -22.7513  -29.4572   22.4883 C   0  0  0  0  0  0
  -18.0295  -28.1382   22.8483 C   0  0  0  0  0  0
  -24.1485  -36.7231   23.2639 C   0  0  0  0  0  0
  -25.9869  -30.7451   21.3753 C   0  0  0  0  0  0
  -26.0614  -29.3600   20.7171 C   0  0  0  0  0  0
  -27.2309  -28.5215   20.7109 C   0  0  0  0  0  0
  -26.0134  -26.8233   19.4992 C   0  0  0  0  0  0
  -24.8699  -27.6481   19.4872 C   0  0  0  0  0  0
  -23.6561  -29.7988   20.1552 C   0  0  0  0  0  0
  -25.4112  -36.3025   24.0315 C   0  0  1  0  0  0
  -20.5902  -28.3691   23.1250 C   0  0  2  0  0  0
  -20.6764  -26.9402   22.5390 C   0  0  0  0  0  0
  -19.5748  -26.6386   21.5189 C   0  0  0  0  0  0
  -18.1934  -26.7930   22.1614 C   0  0  0  0  0  0
  -19.1551  -28.8853   23.2871 C   0  0  0  0  0  0
  -18.9477  -30.1450   23.8893 C   0  0  0  0  0  0
  -17.6482  -30.6586   24.0554 C   0  0  0  0  0  0
  -25.9078  -34.9410   23.5068 C   0  0  0  0  0  0
  -16.5364  -29.9071   23.6344 C   0  0  0  0  0  0
  -16.7286  -28.6483   23.0379 C   0  0  0  0  0  0
  -26.4548  -31.6561   25.0691 C   0  0  0  0  0  0
  -25.3772  -31.3715   26.1411 C   0  0  0  0  0  0
  -27.0400  -30.2975   24.6194 C   0  0  0  0  0  0
  -27.6098  -32.4303   25.7467 C   0  0  0  0  0  0
  -27.5559  -37.1764   24.8476 C   0  0  0  0  0  0
  -21.4213  -29.3040   22.3629 N   0  0  0  0  0  0
  -26.4271  -37.3737   23.9413 N   0  0  0  0  0  0
  -24.7060  -31.0404   22.0910 N   0  0  0  0  0  0
  -23.4195  -28.8132   23.3015 O   0  0  0  0  0  0
  -28.2970  -26.2578   20.1915 O   0  0  0  0  0  0
  -26.5635  -34.8898   22.4632 O   0  0  0  0  0  0
  -23.5499  -32.1343   23.7161 O   0  0  0  0  0  0
  -29.3935  -21.2262   21.5847 C   0  0  0  0  0  0
  -29.1535  -21.1544   19.2360 C   0  0  0  0  0  0
  -29.1586  -21.9901   20.3967 C   0  0  0  0  0  0
  -29.6835  -19.8056   21.6197 C   0  0  0  0  0  0
  -29.7487  -18.9812   20.4413 C   0  0  0  0  0  0
  -29.4300  -19.7309   19.2512 C   0  0  0  0  0  0
  -30.0347  -19.2031   22.9717 C   0  0  0  0  0  0
  -29.2312  -23.6266   20.3810 C   0  0  0  0  0  0
  -30.4670  -17.5039   20.4070 C   0  0  0  0  0  0
  -28.0501  -24.7429   20.0850 C   0  0  0  0  0  0
  -29.8943  -16.0667   20.5890 N   0  0  0  0  0  0
  -29.4786  -18.9276   17.7212 Cl  0  0  0  0  0  0
  -31.4735  -12.6576   19.2053 H   0  0  0  0  0  0
  -30.3876  -11.5764   20.0338 H   0  0  0  0  0  0
  -29.8283  -11.7185   17.5806 H   0  0  0  0  0  0
  -29.6418  -13.4503   17.7093 H   0  0  0  0  0  0
  -27.9213  -11.2858   18.9567 H   0  0  0  0  0  0
  -27.3958  -12.4900   17.8083 H   0  0  0  0  0  0
  -27.6030  -14.2598   19.4267 H   0  0  0  0  0  0
  -28.7319  -12.2908   21.4735 H   0  0  0  0  0  0
  -28.3875  -13.9828   21.7521 H   0  0  0  0  0  0
  -25.2777   -9.5700   22.4767 H   0  0  0  0  0  0
  -24.0025   -7.4642   22.7464 H   0  0  0  0  0  0
  -21.0858   -8.8799   19.8950 H   0  0  0  0  0  0
  -22.3721  -10.9696   19.6177 H   0  0  0  0  0  0
  -21.1996   -7.6147   23.9725 H   0  0  0  0  0  0
  -21.1495   -6.0515   25.9080 H   0  0  0  0  0  0
  -22.0588   -2.7611   23.2840 H   0  0  0  0  0  0
  -22.4033  -11.9867   22.4858 H   0  0  0  0  0  0
  -21.1054  -13.1234   22.2638 H   0  0  0  0  0  0
  -24.6444  -15.8501   20.5209 H   0  0  0  0  0  0
  -26.2521  -15.6330   20.0553 H   0  0  0  0  0  0
  -26.7228  -32.5350   23.1004 H   0  0  0  0  0  0
  -25.0155  -33.9677   25.0391 H   0  0  0  0  0  0
  -22.7334  -31.2937   21.3854 H   0  0  0  0  0  0
  -23.3761  -35.9559   23.3313 H   0  0  0  0  0  0
  -24.3573  -36.8844   22.2056 H   0  0  0  0  0  0
  -23.7231  -37.6425   23.6664 H   0  0  0  0  0  0
  -26.1300  -31.5045   20.6055 H   0  0  0  0  0  0
  -26.8606  -30.7963   22.0124 H   0  0  0  0  0  0
  -28.1317  -28.8721   21.1932 H   0  0  0  0  0  0
  -25.9245  -25.8627   19.0164 H   0  0  0  0  0  0
  -23.9685  -27.2934   19.0059 H   0  0  0  0  0  0
  -23.7760  -30.5733   19.3966 H   0  0  0  0  0  0
  -22.7732  -29.2334   19.8524 H   0  0  0  0  0  0
  -25.1299  -36.1853   25.0807 H   0  0  0  0  0  0
  -21.0008  -28.3257   24.1367 H   0  0  0  0  0  0
  -20.5623  -26.2302   23.3594 H   0  0  0  0  0  0
  -21.6634  -26.7396   22.1206 H   0  0  0  0  0  0
  -19.6899  -25.6298   21.1204 H   0  0  0  0  0  0
  -19.6677  -27.3204   20.6722 H   0  0  0  0  0  0
  -17.4184  -26.6681   21.4020 H   0  0  0  0  0  0
  -18.0343  -26.0067   22.9009 H   0  0  0  0  0  0
  -19.7954  -30.7252   24.2259 H   0  0  0  0  0  0
  -17.5039  -31.6275   24.5136 H   0  0  0  0  0  0
  -15.5360  -30.2973   23.7678 H   0  0  0  0  0  0
  -15.8683  -28.0781   22.7132 H   0  0  0  0  0  0
  -24.5992  -30.7004   25.7745 H   0  0  0  0  0  0
  -24.8926  -32.2883   26.4771 H   0  0  0  0  0  0
  -25.8116  -30.8959   27.0215 H   0  0  0  0  0  0
  -26.2990  -29.6700   24.1231 H   0  0  0  0  0  0
  -27.4099  -29.7252   25.4715 H   0  0  0  0  0  0
  -27.8855  -30.4235   23.9431 H   0  0  0  0  0  0
  -27.2730  -33.3638   26.1975 H   0  0  0  0  0  0
  -28.3956  -32.6794   25.0323 H   0  0  0  0  0  0
  -28.0712  -31.8464   26.5439 H   0  0  0  0  0  0
  -28.2586  -38.0060   24.7513 H   0  0  0  0  0  0
  -28.1053  -36.2580   24.6319 H   0  0  0  0  0  0
  -27.2280  -37.1420   25.8890 H   0  0  0  0  0  0
  -20.9384  -29.8761   21.6839 H   0  0  0  0  0  0
  -26.0138  -38.2794   24.1466 H   0  0  0  0  0  0
  -29.4501  -21.7764   22.5157 H   0  0  0  0  0  0
  -29.0167  -21.6241   18.2719 H   0  0  0  0  0  0
  -29.4268  -18.3209   23.1758 H   0  0  0  0  0  0
  -29.8596  -19.9086   23.7854 H   0  0  0  0  0  0
  -31.0885  -18.9198   23.0161 H   0  0  0  0  0  0
  -30.0237  -23.8473   19.6661 H   0  0  0  0  0  0
  -29.6594  -23.9019   21.3450 H   0  0  0  0  0  0
  -31.2704  -17.5642   21.1394 H   0  0  0  0  0  0
  -31.0147  -17.4729   19.4636 H   0  0  0  0  0  0
  -27.2109  -24.5115   20.7409 H   0  0  0  0  0  0
  -27.6984  -24.5508   19.0710 H   0  0  0  0  0  0
  -28.9088  -15.9907   20.7906 H   0  0  0  0  0  0
  1 25  1  0  0  0
  1 30  2  0  0  0
  1 81  1  0  0  0
  2  3  1  0  0  0
  2 25  1  0  0  0
  2 83  1  0  0  0
  2 84  1  0  0  0
  3  4  1  0  0  0
  3 85  1  0  0  0
  3 86  1  0  0  0
  4  5  1  0  0  0
  4 87  1  0  0  0
  4 88  1  0  0  0
  5  6  1  0  0  0
  5 26  1  0  0  0
  5 89  1  0  0  0
  6 25  1  0  0  0
  6 90  1  0  0  0
  6 91  1  0  0  0
  7  8  2  0  0  0
  7 26  1  0  0  0
  7 29  1  0  0  0
  8  9  1  0  0  0
  8 22  1  0  0  0
  9 10  1  0  0  0
  9 27  2  0  0  0
 10 11  2  0  0  0
 10 15  1  0  0  0
 11 12  1  0  0  0
 11 92  1  0  0  0
 12 13  2  0  0  0
 12 93  1  0  0  0
 13 14  1  0  0  0
 13 31  1  0  0  0
 14 15  2  0  0  0
 14 94  1  0  0  0
 15 95  1  0  0  0
 16 17  2  0  0  0
 16 21  1  0  0  0
 16 31  1  0  0  0
 17 18  1  0  0  0
 17 96  1  0  0  0
 18 19  2  0  0  0
 18 97  1  0  0  0
 19 20  1  0  0  0
 19 24  1  0  0  0
 20 21  2  0  0  0
 20 98  1  0  0  0
 21 23  1  0  0  0
 22 28  1  0  0  0
 22 32  2  0  0  0
 26 27  1  0  0  0
 28 99  1  0  0  0
 28100  1  0  0  0
 29101  1  0  0  0
 29102  1  0  0  0
 33 34  1  0  0  0
 33 66  1  0  0  0
 33 70  2  0  0  0
 34 36  1  0  0  0
 34 59  1  0  0  0
 34103  1  0  0  0
 35 44  2  0  0  0
 35 45  1  0  0  0
 35 68  1  0  0  0
 36 56  1  0  0  0
 36104  1  0  0  0
 37 39  1  0  0  0
 37 47  1  0  0  0
 37 66  1  0  0  0
 37105  1  0  0  0
 38 43  2  0  0  0
 38 46  1  0  0  0
 38 47  1  0  0  0
 39 64  1  0  0  0
 39 67  2  0  0  0
 40 52  1  0  0  0
 40 53  2  0  0  0
 40 58  1  0  0  0
 41106  1  0  0  0
 41107  1  0  0  0
 41108  1  0  0  0
 41 48  1  0  0  0
 42 43  1  0  0  0
 42 66  1  0  0  0
 42109  1  0  0  0
 42110  1  0  0  0
 43 44  1  0  0  0
 44111  1  0  0  0
 45 46  2  0  0  0
 45112  1  0  0  0
 46113  1  0  0  0
 47114  1  0  0  0
 47115  1  0  0  0
 48 56  1  0  0  0
 48 65  1  0  0  0
 48116  1  0  0  0
 49 50  1  0  0  0
 49 53  1  0  0  0
 49 64  1  0  0  0
 49117  1  0  0  0
 50 51  1  0  0  0
 50118  1  0  0  0
 50119  1  0  0  0
 51 52  1  0  0  0
 51120  1  0  0  0
 51121  1  0  0  0
 52122  1  0  0  0
 52123  1  0  0  0
 53 54  1  0  0  0
 54 55  2  0  0  0
 54124  1  0  0  0
 55 57  1  0  0  0
 55125  1  0  0  0
 56 69  2  0  0  0
 57 58  2  0  0  0
 57126  1  0  0  0
 58127  1  0  0  0
 59 60  1  0  0  0
 59 61  1  0  0  0
 59 62  1  0  0  0
 60128  1  0  0  0
 60129  1  0  0  0
 60130  1  0  0  0
 61131  1  0  0  0
 61132  1  0  0  0
 61133  1  0  0  0
 62134  1  0  0  0
 62135  1  0  0  0
 62136  1  0  0  0
 63 65  1  0  0  0
 63137  1  0  0  0
 63138  1  0  0  0
 63139  1  0  0  0
 64140  1  0  0  0
 65141  1  0  0  0
 68 80  1  0  0  0
 71 73  2  0  0  0
 71 74  1  0  0  0
 71142  1  0  0  0
 72 73  1  0  0  0
 72 76  2  0  0  0
 72143  1  0  0  0
 73 78  1  0  0  0
 74 75  2  0  0  0
 74 77  1  0  0  0
 75 76  1  0  0  0
 75 79  1  0  0  0
 76 82  1  0  0  0
 77144  1  0  0  0
 77145  1  0  0  0
 77146  1  0  0  0
 78 80  1  0  0  0
 78147  1  0  0  0
 78148  1  0  0  0
 79 81  1  0  0  0
 79149  1  0  0  0
 79150  1  0  0  0
 80151  1  0  0  0
 80152  1  0  0  0
 81153  1  0  0  0
M  ISO  4   1 100  68 101  80 101  81 100
M  END
> <chiral flag>
0

> <version>
0

> <s_m_source_file>
/data/baiqing/PycharmProjects/Reinvent-master-3.2/result/LINK_invent/BTK/process_docking_weight1_custom_sum_contain_oxygen_bond_distance_aromatic_linkinvent_7_9_3/rearranged_h_0033.sdf

> <i_m_source_file_index>
16

> <r_mmod_Potential_Energy-OPLS-2005>
345.334564208984

> <r_mmod_Stretch_Energy-OPLS-2005>
185.443450927734

> <r_mmod_Bend_Energy-OPLS-2005>
228.857711791992

> <r_mmod_Torsional_Energy-OPLS-2005>
224.347900390625

> <r_mmod_Improper_Torsional_Energy-OPLS-2005>
9.8148775100708

> <r_mmod_Van_der_Waal_Energy-OPLS-2005>
134.815475463867

> <r_mmod_Electrostatic_Energy-OPLS-2005>
-372.289489746094

> <r_mmod_Solvation_Energy-OPLS-2005>
-203.677627563477

> <b_mmod_Minimization_Converged-OPLS-2005>
0

> <r_mmod_RMS_Derivative-OPLS-2005>
3.00716829299927

$$$$
16
                    3D
 Structure written by MMmdl.
195203  0  0  1  0            999 V2000
  -30.8681  -14.2731   20.7402 C   0  0  0  0  0  0
  -30.4076  -12.2831   19.3777 C   0  0  0  0  0  0
  -29.4721  -12.5300   18.1852 C   0  0  0  0  0  0
  -28.0044  -12.3781   18.6151 C   0  0  0  0  0  0
  -27.6702  -13.2104   19.8798 C   0  0  2  0  0  0
  -28.7147  -12.9862   20.9998 C   0  0  0  0  0  0
  -25.2622  -13.8181   20.5683 C   0  0  0  0  0  0
  -24.1864  -13.0453   20.9172 C   0  0  0  0  0  0
  -24.6416  -11.6917   20.8733 C   0  0  0  0  0  0
  -23.9070  -10.4304   21.0402 C   0  0  0  0  0  0
  -24.3619   -9.4215   21.9175 C   0  0  0  0  0  0
  -23.6300   -8.2250   22.0747 C   0  0  0  0  0  0
  -22.4279   -8.0295   21.3535 C   0  0  0  0  0  0
  -21.9913   -9.0255   20.4639 C   0  0  0  0  0  0
  -22.7237  -10.2145   20.3044 C   0  0  0  0  0  0
  -21.6857   -6.0740   22.5273 C   0  0  0  0  0  0
  -21.4013   -6.5644   23.8210 C   0  0  0  0  0  0
  -21.3658   -5.6795   24.9170 C   0  0  0  0  0  0
  -21.6042   -4.3058   24.7222 C   0  0  0  0  0  0
  -21.8823   -3.8149   23.4340 C   0  0  0  0  0  0
  -21.9190   -4.6970   22.3402 C   0  0  0  0  0  0
  -22.7877  -13.5238   21.1819 C   0  0  0  0  0  0
  -22.1664   -4.2155   21.0978 F   0  0  0  0  0  0
  -21.5625   -3.4543   25.7734 F   0  0  0  0  0  0
  -30.0669  -13.2176   20.4588 N   0  0  0  0  0  0
  -26.3082  -12.9370   20.3423 N   0  0  0  0  0  0
  -25.9359  -11.6517   20.5794 N   0  0  0  0  0  0
  -22.0511  -12.8231   22.0393 N   0  0  0  0  0  0
  -25.4325  -15.1904   20.4097 N   0  0  0  0  0  0
  -31.7516  -14.6773   19.9797 O   0  0  0  0  0  0
  -21.6639   -6.8890   21.4244 O   0  0  0  0  0  0
  -22.3560  -14.5534   20.6666 O   0  0  0  0  0  0
  -24.6101  -31.8699   23.2142 C   0  0  0  0  0  0
  -25.9007  -32.4832   23.8423 C   0  0  1  0  0  0
  -27.2322  -27.4953   20.0516 C   0  0  0  0  0  0
  -25.5899  -33.8629   24.2336 N   0  0  0  0  0  0
  -23.3965  -30.4939   21.5542 C   0  0  2  0  0  0
  -24.8435  -28.9847   20.0926 C   0  0  0  0  0  0
  -22.7376  -29.4649   22.5012 C   0  0  0  0  0  0
  -18.0278  -28.1388   22.8489 C   0  0  0  0  0  0
  -24.1506  -36.7314   23.2642 C   0  0  0  0  0  0
  -25.9191  -30.8548   21.3587 C   0  0  0  0  0  0
  -26.0001  -29.5019   20.6874 C   0  0  0  0  0  0
  -27.1993  -28.7621   20.6715 C   0  0  0  0  0  0
  -26.0762  -27.0009   19.4160 C   0  0  0  0  0  0
  -24.8747  -27.7326   19.4535 C   0  0  0  0  0  0
  -23.5968  -29.8324   20.1647 C   0  0  0  0  0  0
  -25.4120  -36.3112   24.0352 C   0  0  1  0  0  0
  -20.5856  -28.3651   23.1344 C   0  0  2  0  0  0
  -20.6766  -26.9377   22.5456 C   0  0  0  0  0  0
  -19.5738  -26.6375   21.5247 C   0  0  0  0  0  0
  -18.1903  -26.7954   22.1623 C   0  0  0  0  0  0
  -19.1526  -28.8836   23.2919 C   0  0  0  0  0  0
  -18.9455  -30.1449   23.8917 C   0  0  0  0  0  0
  -17.6451  -30.6589   24.0566 C   0  0  0  0  0  0
  -25.9036  -34.9473   23.5132 C   0  0  0  0  0  0
  -16.5337  -29.9093   23.6330 C   0  0  0  0  0  0
  -16.7260  -28.6515   23.0333 C   0  0  0  0  0  0
  -26.4467  -31.6605   25.0732 C   0  0  0  0  0  0
  -25.3747  -31.3699   26.1481 C   0  0  0  0  0  0
  -27.0273  -30.3044   24.6079 C   0  0  0  0  0  0
  -27.6049  -32.4327   25.7480 C   0  0  0  0  0  0
  -27.5595  -37.1785   24.8455 C   0  0  0  0  0  0
  -21.4110  -29.3020   22.3753 N   0  0  0  0  0  0
  -26.4305  -37.3791   23.9413 N   0  0  0  0  0  0
  -24.6593  -31.0856   22.1012 N   0  0  0  0  0  0
  -23.4170  -28.8178   23.3021 O   0  0  0  0  0  0
  -28.3161  -26.6623   20.1953 O   0  0  0  0  0  0
  -26.5578  -34.8909   22.4685 O   0  0  0  0  0  0
  -23.5299  -32.1430   23.7569 O   0  0  0  0  0  0
  -27.0765  -25.3669   21.9084 C   0  0  0  0  0  0
  -29.6193  -25.2716   21.8227 C   0  0  0  0  0  0
  -27.1486  -25.0031   23.3786 C   0  0  0  0  0  0
  -29.3298  -23.9350   22.5635 C   0  0  0  0  0  0
  -28.3667  -26.1337   21.5338 C   0  0  1  0  0  0
  -28.2608  -23.9742   23.7102 C   0  0  1  0  0  0
  -26.6350  -23.5843   32.3796 C   0  0  0  0  0  0
  -28.9045  -24.4003   25.0666 C   0  0  0  0  0  0
  -27.5594  -22.5787   23.8011 C   0  0  0  0  0  0
  -26.3399  -23.7060   30.8806 C   0  0  0  0  0  0
  -27.8734  -24.6460   26.1958 C   0  0  0  0  0  0
  -28.3757  -21.3926   24.3571 C   0  0  0  0  0  0
  -27.5721  -24.1141   30.0558 C   0  0  0  0  0  0
  -28.3832  -24.4518   27.6294 C   0  0  0  0  0  0
  -27.4832  -20.1724   24.6679 C   0  0  0  0  0  0
  -27.1926  -24.4192   28.6015 C   0  0  0  0  0  0
  -28.1598  -19.1257   25.5709 C   0  0  0  0  0  0
  -29.2160  -18.3205   24.8074 C   0  0  0  0  0  0
  -29.8728  -17.1816   25.6051 C   0  0  0  0  0  0
  -30.3869  -16.0599   24.6862 C   0  0  0  0  0  0
  -31.3293  -16.5580   23.5739 C   0  0  0  0  0  0
  -31.8777  -15.4363   22.6857 C   0  0  0  0  0  0
  -30.8155  -14.6808   22.0140 N   0  0  0  0  0  0
  -31.4495  -12.3724   19.0636 H   0  0  0  0  0  0
  -30.3003  -11.2602   19.7407 H   0  0  0  0  0  0
  -29.6994  -11.8303   17.3797 H   0  0  0  0  0  0
  -29.6403  -13.5309   17.7833 H   0  0  0  0  0  0
  -27.8196  -11.3203   18.8058 H   0  0  0  0  0  0
  -27.3431  -12.6603   17.7944 H   0  0  0  0  0  0
  -27.7187  -14.2599   19.5884 H   0  0  0  0  0  0
  -28.6575  -11.9642   21.3783 H   0  0  0  0  0  0
  -28.4858  -13.6379   21.8439 H   0  0  0  0  0  0
  -25.2771   -9.5691   22.4746 H   0  0  0  0  0  0
  -24.0002   -7.4644   22.7470 H   0  0  0  0  0  0
  -21.0834   -8.8774   19.8953 H   0  0  0  0  0  0
  -22.3690  -10.9676   19.6151 H   0  0  0  0  0  0
  -21.2015   -7.6152   23.9716 H   0  0  0  0  0  0
  -21.1474   -6.0527   25.9074 H   0  0  0  0  0  0
  -22.0606   -2.7613   23.2840 H   0  0  0  0  0  0
  -22.4119  -11.9909   22.4807 H   0  0  0  0  0  0
  -21.1118  -13.1239   22.2564 H   0  0  0  0  0  0
  -24.6703  -15.8500   20.5226 H   0  0  0  0  0  0
  -26.2958  -15.6279   20.1102 H   0  0  0  0  0  0
  -26.7051  -32.5562   23.1167 H   0  0  0  0  0  0
  -25.0095  -33.9816   25.0515 H   0  0  0  0  0  0
  -22.6867  -31.3124   21.4192 H   0  0  0  0  0  0
  -23.3779  -35.9632   23.3314 H   0  0  0  0  0  0
  -24.3582  -36.8939   22.2051 H   0  0  0  0  0  0
  -23.7238  -37.6519   23.6638 H   0  0  0  0  0  0
  -26.0328  -31.6329   20.6022 H   0  0  0  0  0  0
  -26.8064  -30.8996   21.9790 H   0  0  0  0  0  0
  -28.0859  -29.1441   21.1601 H   0  0  0  0  0  0
  -26.0901  -26.0237   18.9537 H   0  0  0  0  0  0
  -23.9828  -27.3280   18.9960 H   0  0  0  0  0  0
  -23.6811  -30.6109   19.4067 H   0  0  0  0  0  0
  -22.7238  -29.2424   19.8797 H   0  0  0  0  0  0
  -25.1292  -36.1985   25.0847 H   0  0  0  0  0  0
  -20.9941  -28.3206   24.1463 H   0  0  0  0  0  0
  -20.5684  -26.2229   23.3636 H   0  0  0  0  0  0
  -21.6635  -26.7418   22.1225 H   0  0  0  0  0  0
  -19.6898  -25.6291   21.1259 H   0  0  0  0  0  0
  -19.6743  -27.3205   20.6800 H   0  0  0  0  0  0
  -17.4213  -26.6736   21.3997 H   0  0  0  0  0  0
  -18.0251  -26.0107   22.9013 H   0  0  0  0  0  0
  -19.7916  -30.7263   24.2291 H   0  0  0  0  0  0
  -17.5001  -31.6269   24.5156 H   0  0  0  0  0  0
  -15.5333  -30.2986   23.7681 H   0  0  0  0  0  0
  -15.8659  -28.0844   22.7030 H   0  0  0  0  0  0
  -24.5939  -30.7033   25.7823 H   0  0  0  0  0  0
  -24.8916  -32.2854   26.4893 H   0  0  0  0  0  0
  -25.8114  -30.8887   27.0243 H   0  0  0  0  0  0
  -26.2790  -29.6828   24.1135 H   0  0  0  0  0  0
  -27.4075  -29.7242   25.4506 H   0  0  0  0  0  0
  -27.8626  -30.4393   23.9191 H   0  0  0  0  0  0
  -27.2669  -33.3618   26.2073 H   0  0  0  0  0  0
  -28.3831  -32.6914   25.0286 H   0  0  0  0  0  0
  -28.0750  -31.8456   26.5381 H   0  0  0  0  0  0
  -28.2594  -38.0097   24.7499 H   0  0  0  0  0  0
  -28.1102  -36.2619   24.6271 H   0  0  0  0  0  0
  -27.2294  -37.1448   25.8852 H   0  0  0  0  0  0
  -20.9254  -29.8738   21.6979 H   0  0  0  0  0  0
  -26.0215  -38.2877   24.1421 H   0  0  0  0  0  0
  -26.1826  -25.9771   21.7977 H   0  0  0  0  0  0
  -26.9318  -24.4854   21.2831 H   0  0  0  0  0  0
  -30.1314  -25.0458   20.8862 H   0  0  0  0  0  0
  -30.3254  -25.8666   22.4026 H   0  0  0  0  0  0
  -26.1668  -24.6675   23.7167 H   0  0  0  0  0  0
  -27.3182  -25.9384   23.9130 H   0  0  0  0  0  0
  -30.2627  -23.5052   22.9281 H   0  0  0  0  0  0
  -28.9948  -23.2357   21.7966 H   0  0  0  0  0  0
  -28.4481  -26.9898   22.2071 H   0  0  0  0  0  0
  -25.7498  -23.2397   32.9175 H   0  0  0  0  0  0
  -26.9265  -24.5492   32.7990 H   0  0  0  0  0  0
  -27.4401  -22.8722   32.5691 H   0  0  0  0  0  0
  -29.4731  -25.3194   24.9249 H   0  0  0  0  0  0
  -29.6445  -23.6666   25.3819 H   0  0  0  0  0  0
  -27.1728  -22.3052   22.8171 H   0  0  0  0  0  0
  -26.6632  -22.6588   24.4139 H   0  0  0  0  0  0
  -25.5328  -24.4251   30.7310 H   0  0  0  0  0  0
  -25.9636  -22.7489   30.5152 H   0  0  0  0  0  0
  -27.0240  -23.9800   26.0623 H   0  0  0  0  0  0
  -27.4628  -25.6536   26.1113 H   0  0  0  0  0  0
  -28.8613  -21.6745   25.2876 H   0  0  0  0  0  0
  -29.1667  -21.1165   23.6569 H   0  0  0  0  0  0
  -28.3024  -23.3055   30.0889 H   0  0  0  0  0  0
  -28.0568  -24.9882   30.4930 H   0  0  0  0  0  0
  -29.0808  -25.2469   27.8978 H   0  0  0  0  0  0
  -28.9288  -23.5110   27.6983 H   0  0  0  0  0  0
  -27.1503  -19.7067   23.7396 H   0  0  0  0  0  0
  -26.5771  -20.5101   25.1718 H   0  0  0  0  0  0
  -26.6563  -25.3677   28.5561 H   0  0  0  0  0  0
  -26.4857  -23.6609   28.2608 H   0  0  0  0  0  0
  -27.3970  -18.4416   25.9458 H   0  0  0  0  0  0
  -28.5828  -19.6097   26.4521 H   0  0  0  0  0  0
  -29.9949  -18.9890   24.4417 H   0  0  0  0  0  0
  -28.7357  -17.9017   23.9239 H   0  0  0  0  0  0
  -29.1600  -16.7475   26.3077 H   0  0  0  0  0  0
  -30.6896  -17.5797   26.2093 H   0  0  0  0  0  0
  -29.5296  -15.5498   24.2442 H   0  0  0  0  0  0
  -30.9079  -15.3148   25.2885 H   0  0  0  0  0  0
  -32.1666  -17.0910   24.0284 H   0  0  0  0  0  0
  -30.8253  -17.2834   22.9346 H   0  0  0  0  0  0
  -32.4655  -14.7422   23.2888 H   0  0  0  0  0  0
  -32.5745  -15.8775   21.9714 H   0  0  0  0  0  0
  -30.0982  -14.2674   22.5910 H   0  0  0  0  0  0
  1 25  1  0  0  0
  1 30  2  0  0  0
  1 93  1  0  0  0
  2  3  1  0  0  0
  2 25  1  0  0  0
  2 94  1  0  0  0
  2 95  1  0  0  0
  3  4  1  0  0  0
  3 96  1  0  0  0
  3 97  1  0  0  0
  4  5  1  0  0  0
  4 98  1  0  0  0
  4 99  1  0  0  0
  5  6  1  0  0  0
  5 26  1  0  0  0
  5100  1  0  0  0
  6 25  1  0  0  0
  6101  1  0  0  0
  6102  1  0  0  0
  7  8  2  0  0  0
  7 26  1  0  0  0
  7 29  1  0  0  0
  8  9  1  0  0  0
  8 22  1  0  0  0
  9 10  1  0  0  0
  9 27  2  0  0  0
 10 11  2  0  0  0
 10 15  1  0  0  0
 11 12  1  0  0  0
 11103  1  0  0  0
 12 13  2  0  0  0
 12104  1  0  0  0
 13 14  1  0  0  0
 13 31  1  0  0  0
 14 15  2  0  0  0
 14105  1  0  0  0
 15106  1  0  0  0
 16 17  2  0  0  0
 16 21  1  0  0  0
 16 31  1  0  0  0
 17 18  1  0  0  0
 17107  1  0  0  0
 18 19  2  0  0  0
 18108  1  0  0  0
 19 20  1  0  0  0
 19 24  1  0  0  0
 20 21  2  0  0  0
 20109  1  0  0  0
 21 23  1  0  0  0
 22 28  1  0  0  0
 22 32  2  0  0  0
 26 27  1  0  0  0
 28110  1  0  0  0
 28111  1  0  0  0
 29112  1  0  0  0
 29113  1  0  0  0
 33 34  1  0  0  0
 33 66  1  0  0  0
 33 70  2  0  0  0
 34 36  1  0  0  0
 34 59  1  0  0  0
 34114  1  0  0  0
 35 44  2  0  0  0
 35 45  1  0  0  0
 35 68  1  0  0  0
 36 56  1  0  0  0
 36115  1  0  0  0
 37 39  1  0  0  0
 37 47  1  0  0  0
 37 66  1  0  0  0
 37116  1  0  0  0
 38 43  2  0  0  0
 38 46  1  0  0  0
 38 47  1  0  0  0
 39 64  1  0  0  0
 39 67  2  0  0  0
 40 52  1  0  0  0
 40 53  2  0  0  0
 40 58  1  0  0  0
 41117  1  0  0  0
 41118  1  0  0  0
 41119  1  0  0  0
 41 48  1  0  0  0
 42 43  1  0  0  0
 42 66  1  0  0  0
 42120  1  0  0  0
 42121  1  0  0  0
 43 44  1  0  0  0
 44122  1  0  0  0
 45 46  2  0  0  0
 45123  1  0  0  0
 46124  1  0  0  0
 47125  1  0  0  0
 47126  1  0  0  0
 48 56  1  0  0  0
 48 65  1  0  0  0
 48127  1  0  0  0
 49 50  1  0  0  0
 49 53  1  0  0  0
 49 64  1  0  0  0
 49128  1  0  0  0
 50 51  1  0  0  0
 50129  1  0  0  0
 50130  1  0  0  0
 51 52  1  0  0  0
 51131  1  0  0  0
 51132  1  0  0  0
 52133  1  0  0  0
 52134  1  0  0  0
 53 54  1  0  0  0
 54 55  2  0  0  0
 54135  1  0  0  0
 55 57  1  0  0  0
 55136  1  0  0  0
 56 69  2  0  0  0
 57 58  2  0  0  0
 57137  1  0  0  0
 58138  1  0  0  0
 59 60  1  0  0  0
 59 61  1  0  0  0
 59 62  1  0  0  0
 60139  1  0  0  0
 60140  1  0  0  0
 60141  1  0  0  0
 61142  1  0  0  0
 61143  1  0  0  0
 61144  1  0  0  0
 62145  1  0  0  0
 62146  1  0  0  0
 62147  1  0  0  0
 63 65  1  0  0  0
 63148  1  0  0  0
 63149  1  0  0  0
 63150  1  0  0  0
 64151  1  0  0  0
 65152  1  0  0  0
 68 75  1  0  0  0
 71 73  1  0  0  0
 71 75  1  0  0  0
 71153  1  0  0  0
 71154  1  0  0  0
 72 74  1  0  0  0
 72 75  1  0  0  0
 72155  1  0  0  0
 72156  1  0  0  0
 73 76  1  0  0  0
 73157  1  0  0  0
 73158  1  0  0  0
 74 76  1  0  0  0
 74159  1  0  0  0
 74160  1  0  0  0
 75161  1  0  0  0
 76 78  1  0  0  0
 76 79  1  0  0  0
 77 80  1  0  0  0
 77162  1  0  0  0
 77163  1  0  0  0
 77164  1  0  0  0
 78 81  1  0  0  0
 78165  1  0  0  0
 78166  1  0  0  0
 79 82  1  0  0  0
 79167  1  0  0  0
 79168  1  0  0  0
 80 83  1  0  0  0
 80169  1  0  0  0
 80170  1  0  0  0
 81 84  1  0  0  0
 81171  1  0  0  0
 81172  1  0  0  0
 82 85  1  0  0  0
 82173  1  0  0  0
 82174  1  0  0  0
 83 86  1  0  0  0
 83175  1  0  0  0
 83176  1  0  0  0
 84 86  1  0  0  0
 84177  1  0  0  0
 84178  1  0  0  0
 85 87  1  0  0  0
 85179  1  0  0  0
 85180  1  0  0  0
 86181  1  0  0  0
 86182  1  0  0  0
 87 88  1  0  0  0
 87183  1  0  0  0
 87184  1  0  0  0
 88 89  1  0  0  0
 88185  1  0  0  0
 88186  1  0  0  0
 89 90  1  0  0  0
 89187  1  0  0  0
 89188  1  0  0  0
 90 91  1  0  0  0
 90189  1  0  0  0
 90190  1  0  0  0
 91 92  1  0  0  0
 91191  1  0  0  0
 91192  1  0  0  0
 92 93  1  0  0  0
 92193  1  0  0  0
 92194  1  0  0  0
 93195  1  0  0  0
M  ISO  4   1 100  68 101  75 101  93 100
M  END
> <chiral flag>
0

> <version>
0

> <s_m_source_file>
/data/baiqing/PycharmProjects/Reinvent-master-3.2/result/LINK_invent/BTK/process_docking_weight1_custom_sum_contain_oxygen_bond_distance_aromatic_linkinvent_7_9_3/rearranged_h_0033.sdf

> <i_m_source_file_index>
17

> <r_mmod_Potential_Energy-OPLS-2005>
84.4473114013672

> <r_mmod_Stretch_Energy-OPLS-2005>
37.4454116821289

> <r_mmod_Bend_Energy-OPLS-2005>
110.158348083496

> <r_mmod_Torsional_Energy-OPLS-2005>
319.535583496094

> <r_mmod_Improper_Torsional_Energy-OPLS-2005>
6.72075605392456

> <r_mmod_Van_der_Waal_Energy-OPLS-2005>
159.524459838867

> <r_mmod_Electrostatic_Energy-OPLS-2005>
-391.581207275391

> <r_mmod_Solvation_Energy-OPLS-2005>
-173.419677734375

> <b_mmod_Minimization_Converged-OPLS-2005>
0

> <r_mmod_RMS_Derivative-OPLS-2005>
3.56029796600342

$$$$
17
                    3D
 Structure written by MMmdl.
175183  0  0  1  0            999 V2000
  -30.7207  -14.3620   20.6305 C   0  0  0  0  0  0
  -30.4190  -12.2536   19.4061 C   0  0  0  0  0  0
  -29.4908  -12.5003   18.2022 C   0  0  0  0  0  0
  -28.0083  -12.3808   18.6096 C   0  0  0  0  0  0
  -27.6680  -13.1946   19.8875 C   0  0  2  0  0  0
  -28.7053  -12.9164   20.9988 C   0  0  0  0  0  0
  -25.2629  -13.8152   20.5704 C   0  0  0  0  0  0
  -24.1853  -13.0430   20.9190 C   0  0  0  0  0  0
  -24.6401  -11.6898   20.8761 C   0  0  0  0  0  0
  -23.9071  -10.4288   21.0433 C   0  0  0  0  0  0
  -24.3626   -9.4201   21.9211 C   0  0  0  0  0  0
  -23.6293   -8.2243   22.0763 C   0  0  0  0  0  0
  -22.4273   -8.0304   21.3554 C   0  0  0  0  0  0
  -21.9924   -9.0278   20.4657 C   0  0  0  0  0  0
  -22.7253  -10.2154   20.3069 C   0  0  0  0  0  0
  -21.6845   -6.0762   22.5287 C   0  0  0  0  0  0
  -21.4000   -6.5653   23.8224 C   0  0  0  0  0  0
  -21.3651   -5.6800   24.9185 C   0  0  0  0  0  0
  -21.6037   -4.3064   24.7221 C   0  0  0  0  0  0
  -21.8810   -3.8162   23.4337 C   0  0  0  0  0  0
  -21.9185   -4.6993   22.3398 C   0  0  0  0  0  0
  -22.7881  -13.5269   21.1814 C   0  0  0  0  0  0
  -22.1655   -4.2177   21.0978 F   0  0  0  0  0  0
  -21.5638   -3.4543   25.7733 F   0  0  0  0  0  0
  -30.0402  -13.2047   20.4557 N   0  0  0  0  0  0
  -26.3060  -12.9286   20.3434 N   0  0  0  0  0  0
  -25.9323  -11.6458   20.5813 N   0  0  0  0  0  0
  -22.0498  -12.8276   22.0388 N   0  0  0  0  0  0
  -25.4361  -15.1860   20.4096 N   0  0  0  0  0  0
  -31.8216  -14.5627   20.1052 O   0  0  0  0  0  0
  -21.6622   -6.8910   21.4254 O   0  0  0  0  0  0
  -22.3575  -14.5566   20.6672 O   0  0  0  0  0  0
  -24.6080  -31.8663   23.2109 C   0  0  0  0  0  0
  -25.9006  -32.4818   23.8385 C   0  0  1  0  0  0
  -27.2411  -27.4980   20.0602 C   0  0  0  0  0  0
  -25.5863  -33.8615   24.2329 N   0  0  0  0  0  0
  -23.3956  -30.4871   21.5502 C   0  0  2  0  0  0
  -24.8443  -28.9628   20.1108 C   0  0  0  0  0  0
  -22.7387  -29.4617   22.5005 C   0  0  0  0  0  0
  -18.0263  -28.1358   22.8503 C   0  0  0  0  0  0
  -24.1491  -36.7335   23.2637 C   0  0  0  0  0  0
  -25.9202  -30.8512   21.3585 C   0  0  0  0  0  0
  -26.0020  -29.4944   20.6939 C   0  0  0  0  0  0
  -27.2084  -28.7711   20.6631 C   0  0  0  0  0  0
  -26.0785  -26.9773   19.4556 C   0  0  0  0  0  0
  -24.8725  -27.7018   19.4907 C   0  0  0  0  0  0
  -23.6005  -29.8135   20.1698 C   0  0  0  0  0  0
  -25.4097  -36.3088   24.0344 C   0  0  1  0  0  0
  -20.5845  -28.3602   23.1333 C   0  0  2  0  0  0
  -20.6760  -26.9378   22.5305 C   0  0  0  0  0  0
  -19.5673  -26.6322   21.5174 C   0  0  0  0  0  0
  -18.1916  -26.7868   22.1713 C   0  0  0  0  0  0
  -19.1525  -28.8794   23.2906 C   0  0  0  0  0  0
  -18.9462  -30.1409   23.8912 C   0  0  0  0  0  0
  -17.6486  -30.6577   24.0562 C   0  0  0  0  0  0
  -25.9024  -34.9464   23.5131 C   0  0  0  0  0  0
  -16.5355  -29.9110   23.6345 C   0  0  0  0  0  0
  -16.7257  -28.6528   23.0335 C   0  0  0  0  0  0
  -26.4470  -31.6581   25.0700 C   0  0  0  0  0  0
  -25.3785  -31.3698   26.1474 C   0  0  0  0  0  0
  -27.0252  -30.3015   24.6077 C   0  0  0  0  0  0
  -27.6023  -32.4301   25.7467 C   0  0  0  0  0  0
  -27.5579  -37.1771   24.8460 C   0  0  0  0  0  0
  -21.4103  -29.3039   22.3808 N   0  0  0  0  0  0
  -26.4284  -37.3759   23.9415 N   0  0  0  0  0  0
  -24.6590  -31.0813   22.0977 N   0  0  0  0  0  0
  -23.4183  -28.8139   23.3007 O   0  0  0  0  0  0
  -28.3817  -26.7429   20.0931 O   0  0  0  0  0  0
  -26.5562  -34.8909   22.4686 O   0  0  0  0  0  0
  -23.5291  -32.1330   23.7576 O   0  0  0  0  0  0
  -25.3484  -23.7813   22.0107 C   0  0  0  0  0  0
  -27.7393  -23.6907   20.5663 C   0  0  0  0  0  0
  -25.6451  -22.6408   21.2365 C   0  0  0  0  0  0
  -26.2317  -24.8812   22.0620 C   0  0  0  0  0  0
  -26.8670  -22.5902   20.5250 C   0  0  0  0  0  0
  -27.4520  -24.8340   21.3325 C   0  0  0  0  0  0
  -24.6490  -21.4910   21.2047 C   0  0  0  0  0  0
  -25.8005  -26.0818   22.8889 C   0  0  0  0  0  0
  -27.3369  -21.3421   19.8023 C   0  0  0  0  0  0
  -28.4749  -25.9689   21.2880 C   0  0  0  0  0  0
  -30.0581  -15.5003   21.4217 C   0  0  0  0  0  0
  -26.8176  -21.1523   18.3762 C   0  0  0  0  0  0
  -30.8166  -16.8330   21.2823 C   0  0  0  0  0  0
  -26.9331  -19.6916   17.8896 C   0  0  0  0  0  0
  -29.9492  -18.0723   21.5322 C   0  0  0  0  0  0
  -28.3296  -19.0375   18.0299 C   0  0  0  0  0  0
  -29.6838  -18.8582   20.2407 C   0  0  0  0  0  0
  -28.5727  -18.2627   19.3501 C   0  0  0  0  0  0
  -31.4615  -12.3599   19.1059 H   0  0  0  0  0  0
  -30.3253  -11.2292   19.7716 H   0  0  0  0  0  0
  -29.7128  -11.7880   17.4083 H   0  0  0  0  0  0
  -29.6854  -13.4899   17.7870 H   0  0  0  0  0  0
  -27.7901  -11.3251   18.7747 H   0  0  0  0  0  0
  -27.3674  -12.6964   17.7866 H   0  0  0  0  0  0
  -27.7326  -14.2505   19.6249 H   0  0  0  0  0  0
  -28.6594  -11.8664   21.2963 H   0  0  0  0  0  0
  -28.4835  -13.4815   21.9053 H   0  0  0  0  0  0
  -25.2776   -9.5657   22.4787 H   0  0  0  0  0  0
  -23.9990   -7.4613   22.7475 H   0  0  0  0  0  0
  -21.0854   -8.8824   19.8950 H   0  0  0  0  0  0
  -22.3754  -10.9711   19.6171 H   0  0  0  0  0  0
  -21.1995   -7.6156   23.9753 H   0  0  0  0  0  0
  -21.1476   -6.0518   25.9095 H   0  0  0  0  0  0
  -22.0598   -2.7626   23.2818 H   0  0  0  0  0  0
  -22.4087  -11.9921   22.4748 H   0  0  0  0  0  0
  -21.1131  -13.1337   22.2603 H   0  0  0  0  0  0
  -24.6722  -15.8396   20.5358 H   0  0  0  0  0  0
  -26.2928  -15.6309   20.1027 H   0  0  0  0  0  0
  -26.7090  -32.5590   23.1149 H   0  0  0  0  0  0
  -25.0056  -33.9783   25.0511 H   0  0  0  0  0  0
  -22.6849  -31.3024   21.4015 H   0  0  0  0  0  0
  -23.3745  -35.9681   23.3273 H   0  0  0  0  0  0
  -24.3581  -36.8966   22.2056 H   0  0  0  0  0  0
  -23.7274  -37.6548   23.6661 H   0  0  0  0  0  0
  -26.0293  -31.6285   20.6012 H   0  0  0  0  0  0
  -26.8074  -30.8959   21.9793 H   0  0  0  0  0  0
  -28.1050  -29.1854   21.1036 H   0  0  0  0  0  0
  -26.0998  -26.0045   18.9875 H   0  0  0  0  0  0
  -23.9836  -27.2878   19.0378 H   0  0  0  0  0  0
  -23.6922  -30.5778   19.3990 H   0  0  0  0  0  0
  -22.7335  -29.2143   19.8882 H   0  0  0  0  0  0
  -25.1281  -36.1942   25.0840 H   0  0  0  0  0  0
  -20.9874  -28.3055   24.1482 H   0  0  0  0  0  0
  -20.5733  -26.2208   23.3457 H   0  0  0  0  0  0
  -21.6592  -26.7461   22.0988 H   0  0  0  0  0  0
  -19.6780  -25.6183   21.1280 H   0  0  0  0  0  0
  -19.6558  -27.3080   20.6651 H   0  0  0  0  0  0
  -17.4062  -26.6457   21.4250 H   0  0  0  0  0  0
  -18.0530  -26.0100   22.9260 H   0  0  0  0  0  0
  -19.7945  -30.7205   24.2280 H   0  0  0  0  0  0
  -17.5074  -31.6290   24.5137 H   0  0  0  0  0  0
  -15.5359  -30.3033   23.7735 H   0  0  0  0  0  0
  -15.8645  -28.0878   22.7049 H   0  0  0  0  0  0
  -24.5979  -30.6977   25.7884 H   0  0  0  0  0  0
  -24.8978  -32.2872   26.4880 H   0  0  0  0  0  0
  -25.8220  -30.8928   27.0228 H   0  0  0  0  0  0
  -26.2720  -29.6823   24.1176 H   0  0  0  0  0  0
  -27.4045  -29.7207   25.4500 H   0  0  0  0  0  0
  -27.8585  -30.4320   23.9174 H   0  0  0  0  0  0
  -27.2570  -33.3587   26.2034 H   0  0  0  0  0  0
  -28.3843  -32.6859   25.0309 H   0  0  0  0  0  0
  -28.0695  -31.8451   26.5400 H   0  0  0  0  0  0
  -28.2528  -38.0118   24.7479 H   0  0  0  0  0  0
  -28.1103  -36.2611   24.6262 H   0  0  0  0  0  0
  -27.2301  -37.1396   25.8866 H   0  0  0  0  0  0
  -20.9184  -29.8960   21.7257 H   0  0  0  0  0  0
  -26.0185  -38.2858   24.1363 H   0  0  0  0  0  0
  -24.4266  -23.8181   22.5775 H   0  0  0  0  0  0
  -28.6684  -23.6590   20.0150 H   0  0  0  0  0  0
  -23.7438  -21.7316   21.7643 H   0  0  0  0  0  0
  -25.0777  -20.5911   21.6443 H   0  0  0  0  0  0
  -24.3444  -21.2629   20.1837 H   0  0  0  0  0  0
  -25.9035  -25.8568   23.9496 H   0  0  0  0  0  0
  -24.7516  -26.3121   22.6884 H   0  0  0  0  0  0
  -26.3602  -26.9878   22.6733 H   0  0  0  0  0  0
  -27.1079  -20.4789   20.4258 H   0  0  0  0  0  0
  -28.4194  -21.4116   19.7248 H   0  0  0  0  0  0
  -29.4722  -25.5286   21.3145 H   0  0  0  0  0  0
  -28.4296  -26.6057   22.1706 H   0  0  0  0  0  0
  -29.0432  -15.6385   21.0500 H   0  0  0  0  0  0
  -29.9702  -15.2177   22.4708 H   0  0  0  0  0  0
  -27.3539  -21.8163   17.6959 H   0  0  0  0  0  0
  -25.7719  -21.4533   18.3308 H   0  0  0  0  0  0
  -31.2577  -16.9140   20.2886 H   0  0  0  0  0  0
  -31.6682  -16.8312   21.9623 H   0  0  0  0  0  0
  -26.6646  -19.6831   16.8314 H   0  0  0  0  0  0
  -26.1865  -19.0737   18.3919 H   0  0  0  0  0  0
  -30.4852  -18.7239   22.2236 H   0  0  0  0  0  0
  -29.0135  -17.8262   22.0380 H   0  0  0  0  0  0
  -29.1139  -19.7757   17.8546 H   0  0  0  0  0  0
  -28.4304  -18.3219   17.2115 H   0  0  0  0  0  0
  -30.6050  -18.9728   19.6651 H   0  0  0  0  0  0
  -29.4223  -19.8573   20.5583 H   0  0  0  0  0  0
  -28.8452  -17.2372   19.0987 H   0  0  0  0  0  0
  -27.6472  -18.1777   19.9218 H   0  0  0  0  0  0
  1 25  1  0  0  0
  1 30  2  0  0  0
  1 81  1  0  0  0
  2  3  1  0  0  0
  2 25  1  0  0  0
  2 89  1  0  0  0
  2 90  1  0  0  0
  3  4  1  0  0  0
  3 91  1  0  0  0
  3 92  1  0  0  0
  4  5  1  0  0  0
  4 93  1  0  0  0
  4 94  1  0  0  0
  5  6  1  0  0  0
  5 26  1  0  0  0
  5 95  1  0  0  0
  6 25  1  0  0  0
  6 96  1  0  0  0
  6 97  1  0  0  0
  7  8  2  0  0  0
  7 26  1  0  0  0
  7 29  1  0  0  0
  8  9  1  0  0  0
  8 22  1  0  0  0
  9 10  1  0  0  0
  9 27  2  0  0  0
 10 11  2  0  0  0
 10 15  1  0  0  0
 11 12  1  0  0  0
 11 98  1  0  0  0
 12 13  2  0  0  0
 12 99  1  0  0  0
 13 14  1  0  0  0
 13 31  1  0  0  0
 14 15  2  0  0  0
 14100  1  0  0  0
 15101  1  0  0  0
 16 17  2  0  0  0
 16 21  1  0  0  0
 16 31  1  0  0  0
 17 18  1  0  0  0
 17102  1  0  0  0
 18 19  2  0  0  0
 18103  1  0  0  0
 19 20  1  0  0  0
 19 24  1  0  0  0
 20 21  2  0  0  0
 20104  1  0  0  0
 21 23  1  0  0  0
 22 28  1  0  0  0
 22 32  2  0  0  0
 26 27  1  0  0  0
 28105  1  0  0  0
 28106  1  0  0  0
 29107  1  0  0  0
 29108  1  0  0  0
 33 34  1  0  0  0
 33 66  1  0  0  0
 33 70  2  0  0  0
 34 36  1  0  0  0
 34 59  1  0  0  0
 34109  1  0  0  0
 35 44  2  0  0  0
 35 45  1  0  0  0
 35 68  1  0  0  0
 36 56  1  0  0  0
 36110  1  0  0  0
 37 39  1  0  0  0
 37 47  1  0  0  0
 37 66  1  0  0  0
 37111  1  0  0  0
 38 43  2  0  0  0
 38 46  1  0  0  0
 38 47  1  0  0  0
 39 64  1  0  0  0
 39 67  2  0  0  0
 40 52  1  0  0  0
 40 53  2  0  0  0
 40 58  1  0  0  0
 41112  1  0  0  0
 41113  1  0  0  0
 41114  1  0  0  0
 41 48  1  0  0  0
 42 43  1  0  0  0
 42 66  1  0  0  0
 42115  1  0  0  0
 42116  1  0  0  0
 43 44  1  0  0  0
 44117  1  0  0  0
 45 46  2  0  0  0
 45118  1  0  0  0
 46119  1  0  0  0
 47120  1  0  0  0
 47121  1  0  0  0
 48 56  1  0  0  0
 48 65  1  0  0  0
 48122  1  0  0  0
 49 50  1  0  0  0
 49 53  1  0  0  0
 49 64  1  0  0  0
 49123  1  0  0  0
 50 51  1  0  0  0
 50124  1  0  0  0
 50125  1  0  0  0
 51 52  1  0  0  0
 51126  1  0  0  0
 51127  1  0  0  0
 52128  1  0  0  0
 52129  1  0  0  0
 53 54  1  0  0  0
 54 55  2  0  0  0
 54130  1  0  0  0
 55 57  1  0  0  0
 55131  1  0  0  0
 56 69  2  0  0  0
 57 58  2  0  0  0
 57132  1  0  0  0
 58133  1  0  0  0
 59 60  1  0  0  0
 59 61  1  0  0  0
 59 62  1  0  0  0
 60134  1  0  0  0
 60135  1  0  0  0
 60136  1  0  0  0
 61137  1  0  0  0
 61138  1  0  0  0
 61139  1  0  0  0
 62140  1  0  0  0
 62141  1  0  0  0
 62142  1  0  0  0
 63 65  1  0  0  0
 63143  1  0  0  0
 63144  1  0  0  0
 63145  1  0  0  0
 64146  1  0  0  0
 65147  1  0  0  0
 68 80  1  0  0  0
 71 73  2  0  0  0
 71 74  1  0  0  0
 71148  1  0  0  0
 72 75  2  0  0  0
 72 76  1  0  0  0
 72149  1  0  0  0
 73 75  1  0  0  0
 73 77  1  0  0  0
 74 76  2  0  0  0
 74 78  1  0  0  0
 75 79  1  0  0  0
 76 80  1  0  0  0
 77150  1  0  0  0
 77151  1  0  0  0
 77152  1  0  0  0
 78153  1  0  0  0
 78154  1  0  0  0
 78155  1  0  0  0
 79 82  1  0  0  0
 79156  1  0  0  0
 79157  1  0  0  0
 80158  1  0  0  0
 80159  1  0  0  0
 81 83  1  0  0  0
 81160  1  0  0  0
 81161  1  0  0  0
 82 84  1  0  0  0
 82162  1  0  0  0
 82163  1  0  0  0
 83 85  1  0  0  0
 83164  1  0  0  0
 83165  1  0  0  0
 84 86  1  0  0  0
 84166  1  0  0  0
 84167  1  0  0  0
 85 87  1  0  0  0
 85168  1  0  0  0
 85169  1  0  0  0
 86 88  1  0  0  0
 86170  1  0  0  0
 86171  1  0  0  0
 87 88  1  0  0  0
 87172  1  0  0  0
 87173  1  0  0  0
 88174  1  0  0  0
 88175  1  0  0  0
M  ISO  4   1 100  68 101  80 101  81 100
M  END
> <chiral flag>
0

> <version>
0

> <s_m_source_file>
/data/baiqing/PycharmProjects/Reinvent-master-3.2/result/LINK_invent/BTK/process_docking_weight1_custom_sum_contain_oxygen_bond_distance_aromatic_linkinvent_7_9_3/rearranged_h_0033.sdf

> <i_m_source_file_index>
18

> <r_mmod_Potential_Energy-OPLS-2005>
41.0599975585938

> <r_mmod_Stretch_Energy-OPLS-2005>
32.3047523498535

> <r_mmod_Bend_Energy-OPLS-2005>
96.284912109375

> <r_mmod_Torsional_Energy-OPLS-2005>
242.523788452148

> <r_mmod_Improper_Torsional_Energy-OPLS-2005>
2.69915056228638

> <r_mmod_Van_der_Waal_Energy-OPLS-2005>
149.299423217773

> <r_mmod_Electrostatic_Energy-OPLS-2005>
-318.175537109375

> <r_mmod_Solvation_Energy-OPLS-2005>
-173.233520507812

> <b_mmod_Minimization_Converged-OPLS-2005>
0

> <r_mmod_RMS_Derivative-OPLS-2005>
4.2857403755188

$$$$
18
                    3D
 Structure written by MMmdl.
152160  0  0  1  0            999 V2000
  -30.4088  -15.2721   20.3442 C   0  0  0  0  0  0
  -30.4449  -12.7977   19.5423 C   0  0  0  0  0  0
  -29.5458  -12.5770   18.2974 C   0  0  0  0  0  0
  -28.0891  -12.3030   18.7122 C   0  0  0  0  0  0
  -27.6136  -13.2760   19.8187 C   0  0  2  0  0  0
  -28.6415  -13.4439   20.9554 C   0  0  0  0  0  0
  -25.2411  -13.8252   20.5739 C   0  0  0  0  0  0
  -24.1758  -13.0445   20.9246 C   0  0  0  0  0  0
  -24.6406  -11.6939   20.8746 C   0  0  0  0  0  0
  -23.9096  -10.4298   21.0392 C   0  0  0  0  0  0
  -24.3638   -9.4213   21.9175 C   0  0  0  0  0  0
  -23.6303   -8.2251   22.0750 C   0  0  0  0  0  0
  -22.4283   -8.0287   21.3544 C   0  0  0  0  0  0
  -21.9927   -9.0263   20.4646 C   0  0  0  0  0  0
  -22.7261  -10.2136   20.3049 C   0  0  0  0  0  0
  -21.6860   -6.0733   22.5278 C   0  0  0  0  0  0
  -21.4018   -6.5638   23.8210 C   0  0  0  0  0  0
  -21.3659   -5.6792   24.9175 C   0  0  0  0  0  0
  -21.6042   -4.3055   24.7229 C   0  0  0  0  0  0
  -21.8820   -3.8144   23.4354 C   0  0  0  0  0  0
  -21.9194   -4.6959   22.3405 C   0  0  0  0  0  0
  -22.7771  -13.5195   21.1900 C   0  0  0  0  0  0
  -22.1663   -4.2140   21.0986 F   0  0  0  0  0  0
  -21.5628   -3.4544   25.7746 F   0  0  0  0  0  0
  -29.8852  -13.9446   20.3497 N   0  0  0  0  0  0
  -26.2828  -12.9526   20.3173 N   0  0  0  0  0  0
  -25.9344  -11.6632   20.5689 N   0  0  0  0  0  0
  -22.0429  -12.8179   22.0454 N   0  0  0  0  0  0
  -25.4092  -15.1989   20.4213 N   0  0  0  0  0  0
  -31.6317  -15.2609   20.1338 O   0  0  0  0  0  0
  -21.6649   -6.8880   21.4239 O   0  0  0  0  0  0
  -22.3445  -14.5494   20.6736 O   0  0  0  0  0  0
  -24.6639  -31.8226   23.1698 C   0  0  0  0  0  0
  -25.9320  -32.4576   23.8163 C   0  0  1  0  0  0
  -27.2163  -26.9231   20.1805 C   0  0  0  0  0  0
  -25.5979  -33.8393   24.2063 N   0  0  0  0  0  0
  -23.4777  -30.4335   21.5208 C   0  0  2  0  0  0
  -24.9279  -28.8187   20.1123 C   0  0  0  0  0  0
  -22.7666  -29.4436   22.4804 C   0  0  0  0  0  0
  -18.0322  -28.1406   22.8457 C   0  0  0  0  0  0
  -24.1493  -36.7198   23.2647 C   0  0  0  0  0  0
  -26.0473  -30.6267   21.4004 C   0  0  0  0  0  0
  -26.1138  -29.2173   20.7421 C   0  0  0  0  0  0
  -27.2541  -28.2925   20.7456 C   0  0  0  0  0  0
  -25.9988  -26.6750   19.5085 C   0  0  0  0  0  0
  -24.8971  -27.5687   19.4733 C   0  0  0  0  0  0
  -23.7148  -29.7485   20.1470 C   0  0  0  0  0  0
  -25.4138  -36.2962   24.0295 C   0  0  1  0  0  0
  -20.5944  -28.3755   23.1184 C   0  0  2  0  0  0
  -20.6799  -26.9438   22.5400 C   0  0  0  0  0  0
  -19.5776  -26.6376   21.5206 C   0  0  0  0  0  0
  -18.1956  -26.7936   22.1610 C   0  0  0  0  0  0
  -19.1582  -28.8901   23.2804 C   0  0  0  0  0  0
  -18.9493  -30.1486   23.8839 C   0  0  0  0  0  0
  -17.6491  -30.6594   24.0545 C   0  0  0  0  0  0
  -25.9108  -34.9345   23.5008 C   0  0  0  0  0  0
  -16.5380  -29.9079   23.6343 C   0  0  0  0  0  0
  -16.7305  -28.6503   23.0358 C   0  0  0  0  0  0
  -26.4559  -31.6523   25.0702 C   0  0  0  0  0  0
  -25.3685  -31.3769   26.1358 C   0  0  0  0  0  0
  -27.0460  -30.2882   24.6461 C   0  0  0  0  0  0
  -27.6042  -32.4350   25.7498 C   0  0  0  0  0  0
  -27.5574  -37.1748   24.8464 C   0  0  0  0  0  0
  -21.4340  -29.3036   22.3533 N   0  0  0  0  0  0
  -26.4279  -37.3699   23.9411 N   0  0  0  0  0  0
  -24.7508  -30.9882   22.0838 N   0  0  0  0  0  0
  -23.4207  -28.8023   23.3063 O   0  0  0  0  0  0
  -28.2280  -25.8249   20.2371 O   0  0  0  0  0  0
  -26.5733  -34.8883   22.4612 O   0  0  0  0  0  0
  -23.5708  -32.1216   23.6783 O   0  0  0  0  0  0
  -32.4054  -20.1982   21.1482 C   0  0  0  0  0  0
  -31.3010  -18.1226   21.5491 C   0  0  0  0  0  0
  -31.3227  -20.6255   20.3649 C   0  0  0  0  0  0
  -30.2078  -18.4241   20.6962 C   0  0  0  0  0  0
  -30.0334  -19.9880   20.3887 C   0  0  0  0  0  0
  -32.3522  -18.9915   21.8277 C   0  0  0  0  0  0
  -31.6986  -21.7289   19.3898 C   0  0  0  0  0  0
  -29.5704  -16.8409   20.3745 C   0  0  0  0  0  0
  -27.9764  -24.1864   20.1946 C   0  0  0  0  0  0
  -29.0415  -22.7225   20.2181 C   0  0  0  0  0  0
  -28.9374  -21.0490   20.1784 O   0  0  0  0  0  0
  -33.6629  -18.4898   22.8324 Cl  0  0  0  0  0  0
  -31.4680  -12.9933   19.2187 H   0  0  0  0  0  0
  -30.5021  -11.8898   20.1452 H   0  0  0  0  0  0
  -29.9267  -11.7507   17.6954 H   0  0  0  0  0  0
  -29.5843  -13.4637   17.6627 H   0  0  0  0  0  0
  -28.0390  -11.2776   19.0811 H   0  0  0  0  0  0
  -27.4269  -12.3504   17.8470 H   0  0  0  0  0  0
  -27.5335  -14.2448   19.3242 H   0  0  0  0  0  0
  -28.8000  -12.5061   21.4911 H   0  0  0  0  0  0
  -28.2795  -14.1631   21.6914 H   0  0  0  0  0  0
  -25.2778   -9.5691   22.4755 H   0  0  0  0  0  0
  -24.0009   -7.4643   22.7473 H   0  0  0  0  0  0
  -21.0859   -8.8784   19.8952 H   0  0  0  0  0  0
  -22.3714  -10.9676   19.6163 H   0  0  0  0  0  0
  -21.2010   -7.6144   23.9713 H   0  0  0  0  0  0
  -21.1478   -6.0523   25.9076 H   0  0  0  0  0  0
  -22.0597   -2.7605   23.2860 H   0  0  0  0  0  0
  -22.4066  -11.9856   22.4854 H   0  0  0  0  0  0
  -21.1032  -13.1174   22.2636 H   0  0  0  0  0  0
  -24.6459  -15.8553   20.5438 H   0  0  0  0  0  0
  -26.2624  -15.6400   20.1033 H   0  0  0  0  0  0
  -26.7395  -32.5097   23.0881 H   0  0  0  0  0  0
  -25.0027  -33.9460   25.0143 H   0  0  0  0  0  0
  -22.7914  -31.2660   21.3522 H   0  0  0  0  0  0
  -23.3770  -35.9513   23.3276 H   0  0  0  0  0  0
  -24.3568  -36.8889   22.2069 H   0  0  0  0  0  0
  -23.7241  -37.6367   23.6735 H   0  0  0  0  0  0
  -26.2347  -31.3700   20.6240 H   0  0  0  0  0  0
  -26.9041  -30.6770   22.0604 H   0  0  0  0  0  0
  -28.1557  -28.6006   21.2551 H   0  0  0  0  0  0
  -25.8663  -25.7202   19.0219 H   0  0  0  0  0  0
  -23.9975  -27.2576   18.9597 H   0  0  0  0  0  0
  -23.8677  -30.5181   19.3897 H   0  0  0  0  0  0
  -22.8225  -29.2052   19.8313 H   0  0  0  0  0  0
  -25.1336  -36.1749   25.0787 H   0  0  0  0  0  0
  -21.0020  -28.3365   24.1312 H   0  0  0  0  0  0
  -20.5671  -26.2381   23.3646 H   0  0  0  0  0  0
  -21.6666  -26.7411   22.1211 H   0  0  0  0  0  0
  -19.6937  -25.6273   21.1270 H   0  0  0  0  0  0
  -19.6705  -27.3153   20.6710 H   0  0  0  0  0  0
  -17.4225  -26.6672   21.4014 H   0  0  0  0  0  0
  -18.0349  -26.0086   22.9016 H   0  0  0  0  0  0
  -19.7974  -30.7308   24.2180 H   0  0  0  0  0  0
  -17.5049  -31.6267   24.5166 H   0  0  0  0  0  0
  -15.5377  -30.2964   23.7703 H   0  0  0  0  0  0
  -15.8706  -28.0801   22.7106 H   0  0  0  0  0  0
  -24.5890  -30.7094   25.7666 H   0  0  0  0  0  0
  -24.8842  -32.2961   26.4658 H   0  0  0  0  0  0
  -25.7919  -30.9020   27.0220 H   0  0  0  0  0  0
  -26.3134  -29.6544   24.1453 H   0  0  0  0  0  0
  -27.3958  -29.7262   25.5131 H   0  0  0  0  0  0
  -27.9094  -30.4042   23.9909 H   0  0  0  0  0  0
  -27.2601  -33.3702   26.1926 H   0  0  0  0  0  0
  -28.3914  -32.6836   25.0369 H   0  0  0  0  0  0
  -28.0648  -31.8588   26.5531 H   0  0  0  0  0  0
  -28.2557  -38.0073   24.7536 H   0  0  0  0  0  0
  -28.1108  -36.2606   24.6265 H   0  0  0  0  0  0
  -27.2298  -37.1355   25.8865 H   0  0  0  0  0  0
  -20.9617  -29.8719   21.6642 H   0  0  0  0  0  0
  -26.0126  -38.2756   24.1425 H   0  0  0  0  0  0
  -33.3137  -20.7815   21.1919 H   0  0  0  0  0  0
  -31.4016  -17.1369   21.9759 H   0  0  0  0  0  0
  -31.7121  -22.7111   19.8617 H   0  0  0  0  0  0
  -31.0595  -21.7206   18.5071 H   0  0  0  0  0  0
  -32.7067  -21.5572   19.0102 H   0  0  0  0  0  0
  -29.0913  -16.9172   19.3989 H   0  0  0  0  0  0
  -28.7432  -16.7125   21.0720 H   0  0  0  0  0  0
  -27.2786  -24.0280   21.0160 H   0  0  0  0  0  0
  -27.3678  -24.0476   19.3011 H   0  0  0  0  0  0
  -29.7309  -22.9158   21.0393 H   0  0  0  0  0  0
  -29.5708  -22.9534   19.3021 H   0  0  0  0  0  0
  1 25  1  0  0  0
  1 30  2  0  0  0
  1 78  1  0  0  0
  2  3  1  0  0  0
  2 25  1  0  0  0
  2 83  1  0  0  0
  2 84  1  0  0  0
  3  4  1  0  0  0
  3 85  1  0  0  0
  3 86  1  0  0  0
  4  5  1  0  0  0
  4 87  1  0  0  0
  4 88  1  0  0  0
  5  6  1  0  0  0
  5 26  1  0  0  0
  5 89  1  0  0  0
  6 25  1  0  0  0
  6 90  1  0  0  0
  6 91  1  0  0  0
  7  8  2  0  0  0
  7 26  1  0  0  0
  7 29  1  0  0  0
  8  9  1  0  0  0
  8 22  1  0  0  0
  9 10  1  0  0  0
  9 27  2  0  0  0
 10 11  2  0  0  0
 10 15  1  0  0  0
 11 12  1  0  0  0
 11 92  1  0  0  0
 12 13  2  0  0  0
 12 93  1  0  0  0
 13 14  1  0  0  0
 13 31  1  0  0  0
 14 15  2  0  0  0
 14 94  1  0  0  0
 15 95  1  0  0  0
 16 17  2  0  0  0
 16 21  1  0  0  0
 16 31  1  0  0  0
 17 18  1  0  0  0
 17 96  1  0  0  0
 18 19  2  0  0  0
 18 97  1  0  0  0
 19 20  1  0  0  0
 19 24  1  0  0  0
 20 21  2  0  0  0
 20 98  1  0  0  0
 21 23  1  0  0  0
 22 28  1  0  0  0
 22 32  2  0  0  0
 26 27  1  0  0  0
 28 99  1  0  0  0
 28100  1  0  0  0
 29101  1  0  0  0
 29102  1  0  0  0
 33 34  1  0  0  0
 33 66  1  0  0  0
 33 70  2  0  0  0
 34 36  1  0  0  0
 34 59  1  0  0  0
 34103  1  0  0  0
 35 44  2  0  0  0
 35 45  1  0  0  0
 35 68  1  0  0  0
 36 56  1  0  0  0
 36104  1  0  0  0
 37 39  1  0  0  0
 37 47  1  0  0  0
 37 66  1  0  0  0
 37105  1  0  0  0
 38 43  2  0  0  0
 38 46  1  0  0  0
 38 47  1  0  0  0
 39 64  1  0  0  0
 39 67  2  0  0  0
 40 52  1  0  0  0
 40 53  2  0  0  0
 40 58  1  0  0  0
 41106  1  0  0  0
 41107  1  0  0  0
 41108  1  0  0  0
 41 48  1  0  0  0
 42 43  1  0  0  0
 42 66  1  0  0  0
 42109  1  0  0  0
 42110  1  0  0  0
 43 44  1  0  0  0
 44111  1  0  0  0
 45 46  2  0  0  0
 45112  1  0  0  0
 46113  1  0  0  0
 47114  1  0  0  0
 47115  1  0  0  0
 48 56  1  0  0  0
 48 65  1  0  0  0
 48116  1  0  0  0
 49 50  1  0  0  0
 49 53  1  0  0  0
 49 64  1  0  0  0
 49117  1  0  0  0
 50 51  1  0  0  0
 50118  1  0  0  0
 50119  1  0  0  0
 51 52  1  0  0  0
 51120  1  0  0  0
 51121  1  0  0  0
 52122  1  0  0  0
 52123  1  0  0  0
 53 54  1  0  0  0
 54 55  2  0  0  0
 54124  1  0  0  0
 55 57  1  0  0  0
 55125  1  0  0  0
 56 69  2  0  0  0
 57 58  2  0  0  0
 57126  1  0  0  0
 58127  1  0  0  0
 59 60  1  0  0  0
 59 61  1  0  0  0
 59 62  1  0  0  0
 60128  1  0  0  0
 60129  1  0  0  0
 60130  1  0  0  0
 61131  1  0  0  0
 61132  1  0  0  0
 61133  1  0  0  0
 62134  1  0  0  0
 62135  1  0  0  0
 62136  1  0  0  0
 63 65  1  0  0  0
 63137  1  0  0  0
 63138  1  0  0  0
 63139  1  0  0  0
 64140  1  0  0  0
 65141  1  0  0  0
 68 79  1  0  0  0
 71 73  2  0  0  0
 71 76  1  0  0  0
 71142  1  0  0  0
 72 74  1  0  0  0
 72 76  2  0  0  0
 72143  1  0  0  0
 73 75  1  0  0  0
 73 77  1  0  0  0
 74 75  2  0  0  0
 74 78  1  0  0  0
 75 81  1  0  0  0
 76 82  1  0  0  0
 77144  1  0  0  0
 77145  1  0  0  0
 77146  1  0  0  0
 78147  1  0  0  0
 78148  1  0  0  0
 79 80  1  0  0  0
 79149  1  0  0  0
 79150  1  0  0  0
 80 81  1  0  0  0
 80151  1  0  0  0
 80152  1  0  0  0
M  ISO  4   1 100  68 101  78 100  79 101
M  END
> <chiral flag>
0

> <version>
0

> <s_m_source_file>
/data/baiqing/PycharmProjects/Reinvent-master-3.2/result/LINK_invent/BTK/process_docking_weight1_custom_sum_contain_oxygen_bond_distance_aromatic_linkinvent_7_9_3/rearranged_h_0033.sdf

> <i_m_source_file_index>
19

> <r_mmod_Potential_Energy-OPLS-2005>
1580.55065917969

> <r_mmod_Stretch_Energy-OPLS-2005>
679.851013183594

> <r_mmod_Bend_Energy-OPLS-2005>
528.901245117188

> <r_mmod_Torsional_Energy-OPLS-2005>
287.304016113281

> <r_mmod_Improper_Torsional_Energy-OPLS-2005>
5.17897033691406

> <r_mmod_Van_der_Waal_Energy-OPLS-2005>
146.055572509766

> <r_mmod_Electrostatic_Energy-OPLS-2005>
-317.981384277344

> <r_mmod_Solvation_Energy-OPLS-2005>
-207.984466552734

> <b_mmod_Minimization_Converged-OPLS-2005>
0

> <r_mmod_RMS_Derivative-OPLS-2005>
1.20116686820984

$$$$
19
                    3D
 Structure written by MMmdl.
159167  0  0  1  0            999 V2000
  -30.6558  -14.8714   20.4886 C   0  0  0  0  0  0
  -30.3982  -12.5451   19.5802 C   0  0  0  0  0  0
  -29.5020  -12.5653   18.3346 C   0  0  0  0  0  0
  -28.0790  -12.2411   18.7790 C   0  0  0  0  0  0
  -27.6321  -13.2302   19.8717 C   0  0  2  0  0  0
  -28.6455  -13.3684   21.0349 C   0  0  0  0  0  0
  -25.2495  -13.8189   20.5733 C   0  0  0  0  0  0
  -24.1786  -13.0532   20.9245 C   0  0  0  0  0  0
  -24.6343  -11.6960   20.8795 C   0  0  0  0  0  0
  -23.9072  -10.4308   21.0447 C   0  0  0  0  0  0
  -24.3684   -9.4238   21.9254 C   0  0  0  0  0  0
  -23.6351   -8.2273   22.0788 C   0  0  0  0  0  0
  -22.4284   -8.0354   21.3566 C   0  0  0  0  0  0
  -21.9921   -9.0299   20.4618 C   0  0  0  0  0  0
  -22.7269  -10.2153   20.3082 C   0  0  0  0  0  0
  -21.6906   -6.0758   22.5278 C   0  0  0  0  0  0
  -21.4049   -6.5711   23.8202 C   0  0  0  0  0  0
  -21.3627   -5.6846   24.9177 C   0  0  0  0  0  0
  -21.6093   -4.3107   24.7218 C   0  0  0  0  0  0
  -21.8874   -3.8222   23.4335 C   0  0  0  0  0  0
  -21.9179   -4.7005   22.3401 C   0  0  0  0  0  0
  -22.7801  -13.5280   21.1897 C   0  0  0  0  0  0
  -22.1722   -4.2272   21.0951 F   0  0  0  0  0  0
  -21.5550   -3.4547   25.7675 F   0  0  0  0  0  0
  -29.9640  -13.6719   20.4521 N   0  0  0  0  0  0
  -26.2877  -12.9378   20.3360 N   0  0  0  0  0  0
  -25.9232  -11.6625   20.5899 N   0  0  0  0  0  0
  -22.0556  -12.8215   22.0350 N   0  0  0  0  0  0
  -25.4506  -15.1800   20.4140 N   0  0  0  0  0  0
  -31.8122  -14.8809   20.0657 O   0  0  0  0  0  0
  -21.6683   -6.8924   21.4249 O   0  0  0  0  0  0
  -22.3541  -14.5672   20.6772 O   0  0  0  0  0  0
  -24.6415  -31.8429   23.1926 C   0  0  0  0  0  0
  -25.9233  -32.4668   23.8304 C   0  0  1  0  0  0
  -27.2174  -27.1832   20.0773 C   0  0  0  0  0  0
  -25.5956  -33.8509   24.2207 N   0  0  0  0  0  0
  -23.4430  -30.4657   21.5448 C   0  0  2  0  0  0
  -24.8797  -28.9011   20.1049 C   0  0  0  0  0  0
  -22.7550  -29.4538   22.4955 C   0  0  0  0  0  0
  -18.0319  -28.1391   22.8505 C   0  0  0  0  0  0
  -24.1478  -36.7265   23.2652 C   0  0  0  0  0  0
  -26.0005  -30.7219   21.3833 C   0  0  0  0  0  0
  -26.0645  -29.3415   20.7173 C   0  0  0  0  0  0
  -27.2341  -28.4950   20.6948 C   0  0  0  0  0  0
  -26.0195  -26.8451   19.4130 C   0  0  0  0  0  0
  -24.8743  -27.6603   19.4465 C   0  0  0  0  0  0
  -23.6570  -29.7953   20.1587 C   0  0  0  0  0  0
  -25.4104  -36.3040   24.0341 C   0  0  1  0  0  0
  -20.5886  -28.3678   23.1280 C   0  0  2  0  0  0
  -20.6780  -26.9399   22.5402 C   0  0  0  0  0  0
  -19.5759  -26.6376   21.5213 C   0  0  0  0  0  0
  -18.1943  -26.7927   22.1642 C   0  0  0  0  0  0
  -19.1565  -28.8870   23.2860 C   0  0  0  0  0  0
  -18.9475  -30.1467   23.8884 C   0  0  0  0  0  0
  -17.6473  -30.6582   24.0560 C   0  0  0  0  0  0
  -25.9062  -34.9432   23.5079 C   0  0  0  0  0  0
  -16.5365  -29.9073   23.6337 C   0  0  0  0  0  0
  -16.7302  -28.6486   23.0359 C   0  0  0  0  0  0
  -26.4536  -31.6569   25.0777 C   0  0  0  0  0  0
  -25.3739  -31.3711   26.1461 C   0  0  0  0  0  0
  -27.0349  -30.3006   24.6270 C   0  0  0  0  0  0
  -27.6041  -32.4344   25.7525 C   0  0  0  0  0  0
  -27.5572  -37.1779   24.8478 C   0  0  0  0  0  0
  -21.4242  -29.3009   22.3684 N   0  0  0  0  0  0
  -26.4275  -37.3757   23.9424 N   0  0  0  0  0  0
  -24.7155  -31.0254   22.0969 N   0  0  0  0  0  0
  -23.4231  -28.8076   23.3099 O   0  0  0  0  0  0
  -28.2737  -26.2117   20.1354 O   0  0  0  0  0  0
  -26.5650  -34.8904   22.4683 O   0  0  0  0  0  0
  -23.5545  -32.1387   23.7130 O   0  0  0  0  0  0
  -29.8427  -21.0747   21.2452 C   0  0  0  0  0  0
  -29.9152  -19.6297   21.2553 C   0  0  0  0  0  0
  -28.8853  -21.0453   19.0832 C   0  0  0  0  0  0
  -29.3009  -21.8762   20.1645 C   0  0  0  0  0  0
  -29.4246  -18.8022   20.1892 C   0  0  0  0  0  0
  -28.9124  -19.6016   19.1029 C   0  0  0  0  0  0
  -28.3684  -18.8704   17.8901 C   0  0  0  0  0  0
  -26.2594  -23.2167   21.6743 C   0  0  0  0  0  0
  -29.1992  -23.5178   20.2320 C   0  0  0  0  0  0
  -29.2788  -17.1638   20.1716 C   0  0  0  0  0  0
  -27.0666  -24.5368   21.4822 C   0  0  0  0  0  0
  -27.9852  -24.6833   20.1983 C   0  0  1  0  0  0
  -30.0973  -16.0971   20.9217 N   0  0  0  0  0  0
  -31.4522  -12.6036   19.3041 H   0  0  0  0  0  0
  -30.2740  -11.6024   20.1259 H   0  0  0  0  0  0
  -29.8762  -11.8617   17.5889 H   0  0  0  0  0  0
  -29.4863  -13.5725   17.8947 H   0  0  0  0  0  0
  -28.1026  -11.2282   19.1959 H   0  0  0  0  0  0
  -27.3800  -12.2067   17.9484 H   0  0  0  0  0  0
  -27.5964  -14.2009   19.3789 H   0  0  0  0  0  0
  -28.6881  -12.4552   21.6324 H   0  0  0  0  0  0
  -28.3221  -14.1826   21.6968 H   0  0  0  0  0  0
  -25.2850   -9.5785   22.4759 H   0  0  0  0  0  0
  -24.0150   -7.4690   22.7545 H   0  0  0  0  0  0
  -21.0840   -8.8793   19.8923 H   0  0  0  0  0  0
  -22.3768  -10.9697   19.6164 H   0  0  0  0  0  0
  -21.2207   -7.6228   23.9799 H   0  0  0  0  0  0
  -21.1335   -6.0513   25.9063 H   0  0  0  0  0  0
  -22.0676   -2.7657   23.2756 H   0  0  0  0  0  0
  -22.4261  -11.9716   22.4327 H   0  0  0  0  0  0
  -21.1349  -13.1205   22.3164 H   0  0  0  0  0  0
  -24.7191  -15.8648   20.5769 H   0  0  0  0  0  0
  -26.3169  -15.5532   20.0347 H   0  0  0  0  0  0
  -26.7314  -32.5247   23.1016 H   0  0  0  0  0  0
  -25.0071  -33.9620   25.0323 H   0  0  0  0  0  0
  -22.7474  -31.2958   21.4003 H   0  0  0  0  0  0
  -23.3719  -35.9611   23.3319 H   0  0  0  0  0  0
  -24.3579  -36.8878   22.2057 H   0  0  0  0  0  0
  -23.7214  -37.6490   23.6659 H   0  0  0  0  0  0
  -26.1529  -31.4669   20.6023 H   0  0  0  0  0  0
  -26.8803  -30.7646   22.0117 H   0  0  0  0  0  0
  -28.1371  -28.8278   21.1898 H   0  0  0  0  0  0
  -25.9382  -25.9102   18.8774 H   0  0  0  0  0  0
  -23.9726  -27.3164   18.9515 H   0  0  0  0  0  0
  -23.7937  -30.5847   19.4153 H   0  0  0  0  0  0
  -22.7601  -29.2452   19.8480 H   0  0  0  0  0  0
  -25.1255  -36.1912   25.0830 H   0  0  0  0  0  0
  -21.0022  -28.3237   24.1379 H   0  0  0  0  0  0
  -20.5666  -26.2293   23.3604 H   0  0  0  0  0  0
  -21.6640  -26.7384   22.1186 H   0  0  0  0  0  0
  -19.6879  -25.6281   21.1241 H   0  0  0  0  0  0
  -19.6666  -27.3196   20.6746 H   0  0  0  0  0  0
  -17.4179  -26.6689   21.4054 H   0  0  0  0  0  0
  -18.0326  -26.0074   22.9058 H   0  0  0  0  0  0
  -19.7945  -30.7295   24.2239 H   0  0  0  0  0  0
  -17.5011  -31.6269   24.5149 H   0  0  0  0  0  0
  -15.5357  -30.2956   23.7661 H   0  0  0  0  0  0
  -15.8695  -28.0792   22.7072 H   0  0  0  0  0  0
  -24.5878  -30.7085   25.7784 H   0  0  0  0  0  0
  -24.8941  -32.2866   26.4988 H   0  0  0  0  0  0
  -25.8059  -30.8826   27.0217 H   0  0  0  0  0  0
  -26.2926  -29.6755   24.1268 H   0  0  0  0  0  0
  -27.4018  -29.7257   25.4786 H   0  0  0  0  0  0
  -27.8835  -30.4292   23.9523 H   0  0  0  0  0  0
  -27.2617  -33.3621   26.2160 H   0  0  0  0  0  0
  -28.3815  -32.6991   25.0325 H   0  0  0  0  0  0
  -28.0789  -31.8472   26.5408 H   0  0  0  0  0  0
  -28.2582  -38.0082   24.7528 H   0  0  0  0  0  0
  -28.1071  -36.2621   24.6280 H   0  0  0  0  0  0
  -27.2327  -37.1407   25.8896 H   0  0  0  0  0  0
  -20.9489  -29.8769   21.6875 H   0  0  0  0  0  0
  -26.0150  -38.2840   24.1435 H   0  0  0  0  0  0
  -30.2202  -21.5942   22.1153 H   0  0  0  0  0  0
  -30.3488  -19.1628   22.1240 H   0  0  0  0  0  0
  -28.4960  -21.5154   18.1916 H   0  0  0  0  0  0
  -27.6647  -18.0773   18.1798 H   0  0  0  0  0  0
  -29.2093  -18.4182   17.3707 H   0  0  0  0  0  0
  -27.8371  -19.5397   17.2230 H   0  0  0  0  0  0
  -25.5316  -23.3314   22.4831 H   0  0  0  0  0  0
  -26.8770  -22.3666   21.9721 H   0  0  0  0  0  0
  -25.7368  -22.9359   20.7604 H   0  0  0  0  0  0
  -29.9186  -23.8396   20.9876 H   0  0  0  0  0  0
  -28.4338  -22.9710   20.7336 H   0  0  0  0  0  0
  -29.2353  -16.8467   19.1205 H   0  0  0  0  0  0
  -28.2621  -17.0098   20.5270 H   0  0  0  0  0  0
  -27.7100  -24.6977   22.3476 H   0  0  0  0  0  0
  -26.3238  -25.3214   21.5265 H   0  0  0  0  0  0
  -27.4386  -24.4514   19.2899 H   0  0  0  0  0  0
  -30.8201  -16.5747   21.4456 H   0  0  0  0  0  0
  1 25  1  0  0  0
  1 30  2  0  0  0
  1 83  1  0  0  0
  2  3  1  0  0  0
  2 25  1  0  0  0
  2 84  1  0  0  0
  2 85  1  0  0  0
  3  4  1  0  0  0
  3 86  1  0  0  0
  3 87  1  0  0  0
  4  5  1  0  0  0
  4 88  1  0  0  0
  4 89  1  0  0  0
  5  6  1  0  0  0
  5 26  1  0  0  0
  5 90  1  0  0  0
  6 25  1  0  0  0
  6 91  1  0  0  0
  6 92  1  0  0  0
  7  8  2  0  0  0
  7 26  1  0  0  0
  7 29  1  0  0  0
  8  9  1  0  0  0
  8 22  1  0  0  0
  9 10  1  0  0  0
  9 27  2  0  0  0
 10 11  2  0  0  0
 10 15  1  0  0  0
 11 12  1  0  0  0
 11 93  1  0  0  0
 12 13  2  0  0  0
 12 94  1  0  0  0
 13 14  1  0  0  0
 13 31  1  0  0  0
 14 15  2  0  0  0
 14 95  1  0  0  0
 15 96  1  0  0  0
 16 17  2  0  0  0
 16 21  1  0  0  0
 16 31  1  0  0  0
 17 18  1  0  0  0
 17 97  1  0  0  0
 18 19  2  0  0  0
 18 98  1  0  0  0
 19 20  1  0  0  0
 19 24  1  0  0  0
 20 21  2  0  0  0
 20 99  1  0  0  0
 21 23  1  0  0  0
 22 28  1  0  0  0
 22 32  2  0  0  0
 26 27  1  0  0  0
 28100  1  0  0  0
 28101  1  0  0  0
 29102  1  0  0  0
 29103  1  0  0  0
 33 34  1  0  0  0
 33 66  1  0  0  0
 33 70  2  0  0  0
 34 36  1  0  0  0
 34 59  1  0  0  0
 34104  1  0  0  0
 35 44  2  0  0  0
 35 45  1  0  0  0
 35 68  1  0  0  0
 36 56  1  0  0  0
 36105  1  0  0  0
 37 39  1  0  0  0
 37 47  1  0  0  0
 37 66  1  0  0  0
 37106  1  0  0  0
 38 43  2  0  0  0
 38 46  1  0  0  0
 38 47  1  0  0  0
 39 64  1  0  0  0
 39 67  2  0  0  0
 40 52  1  0  0  0
 40 53  2  0  0  0
 40 58  1  0  0  0
 41107  1  0  0  0
 41108  1  0  0  0
 41109  1  0  0  0
 41 48  1  0  0  0
 42 43  1  0  0  0
 42 66  1  0  0  0
 42110  1  0  0  0
 42111  1  0  0  0
 43 44  1  0  0  0
 44112  1  0  0  0
 45 46  2  0  0  0
 45113  1  0  0  0
 46114  1  0  0  0
 47115  1  0  0  0
 47116  1  0  0  0
 48 56  1  0  0  0
 48 65  1  0  0  0
 48117  1  0  0  0
 49 50  1  0  0  0
 49 53  1  0  0  0
 49 64  1  0  0  0
 49118  1  0  0  0
 50 51  1  0  0  0
 50119  1  0  0  0
 50120  1  0  0  0
 51 52  1  0  0  0
 51121  1  0  0  0
 51122  1  0  0  0
 52123  1  0  0  0
 52124  1  0  0  0
 53 54  1  0  0  0
 54 55  2  0  0  0
 54125  1  0  0  0
 55 57  1  0  0  0
 55126  1  0  0  0
 56 69  2  0  0  0
 57 58  2  0  0  0
 57127  1  0  0  0
 58128  1  0  0  0
 59 60  1  0  0  0
 59 61  1  0  0  0
 59 62  1  0  0  0
 60129  1  0  0  0
 60130  1  0  0  0
 60131  1  0  0  0
 61132  1  0  0  0
 61133  1  0  0  0
 61134  1  0  0  0
 62135  1  0  0  0
 62136  1  0  0  0
 62137  1  0  0  0
 63 65  1  0  0  0
 63138  1  0  0  0
 63139  1  0  0  0
 63140  1  0  0  0
 64141  1  0  0  0
 65142  1  0  0  0
 68 82  1  0  0  0
 71 72  2  0  0  0
 71 74  1  0  0  0
 71143  1  0  0  0
 72 75  1  0  0  0
 72144  1  0  0  0
 73 74  2  0  0  0
 73 76  1  0  0  0
 73145  1  0  0  0
 74 79  1  0  0  0
 75 76  2  0  0  0
 75 80  1  0  0  0
 76 77  1  0  0  0
 77146  1  0  0  0
 77147  1  0  0  0
 77148  1  0  0  0
 78 81  1  0  0  0
 78149  1  0  0  0
 78150  1  0  0  0
 78151  1  0  0  0
 79152  1  0  0  0
 79153  1  0  0  0
 79 82  1  0  0  0
 80 83  1  0  0  0
 80154  1  0  0  0
 80155  1  0  0  0
 81 82  1  0  0  0
 81156  1  0  0  0
 81157  1  0  0  0
 82158  1  0  0  0
 83159  1  0  0  0
M  ISO  4   1 100  68 101  82 101  83 100
M  END
> <chiral flag>
0

> <version>
0

> <s_m_source_file>
/data/baiqing/PycharmProjects/Reinvent-master-3.2/result/LINK_invent/BTK/process_docking_weight1_custom_sum_contain_oxygen_bond_distance_aromatic_linkinvent_7_9_3/rearranged_h_0033.sdf

> <i_m_source_file_index>
20

> <r_mmod_Potential_Energy-OPLS-2005>
648.154479980469

> <r_mmod_Stretch_Energy-OPLS-2005>
212.35041809082

> <r_mmod_Bend_Energy-OPLS-2005>
429.286529541016

> <r_mmod_Torsional_Energy-OPLS-2005>
271.44775390625

> <r_mmod_Improper_Torsional_Energy-OPLS-2005>
6.81590700149536

> <r_mmod_Van_der_Waal_Energy-OPLS-2005>
164.499633789062

> <r_mmod_Electrostatic_Energy-OPLS-2005>
-399.574951171875

> <r_mmod_Solvation_Energy-OPLS-2005>
-200.105651855469

> <b_mmod_Minimization_Converged-OPLS-2005>
0

> <r_mmod_RMS_Derivative-OPLS-2005>
18.2852668762207

$$$$
20
                    3D
 Structure written by MMmdl.
165173  0  0  1  0            999 V2000
  -30.7891  -14.3324   20.6719 C   0  0  0  0  0  0
  -30.4524  -12.2515   19.4197 C   0  0  0  0  0  0
  -29.5376  -12.5321   18.2184 C   0  0  0  0  0  0
  -28.0520  -12.4047   18.6037 C   0  0  0  0  0  0
  -27.6931  -13.2019   19.8887 C   0  0  2  0  0  0
  -28.7262  -12.9305   21.0099 C   0  0  0  0  0  0
  -25.2791  -13.8185   20.5606 C   0  0  0  0  0  0
  -24.2042  -13.0483   20.9150 C   0  0  0  0  0  0
  -24.6539  -11.6928   20.8705 C   0  0  0  0  0  0
  -23.9165  -10.4325   21.0385 C   0  0  0  0  0  0
  -24.3695   -9.4234   21.9176 C   0  0  0  0  0  0
  -23.6332   -8.2302   22.0757 C   0  0  0  0  0  0
  -22.4309   -8.0337   21.3570 C   0  0  0  0  0  0
  -21.9969   -9.0319   20.4657 C   0  0  0  0  0  0
  -22.7329  -10.2174   20.3049 C   0  0  0  0  0  0
  -21.6854   -6.0761   22.5286 C   0  0  0  0  0  0
  -21.4002   -6.5654   23.8222 C   0  0  0  0  0  0
  -21.3661   -5.6789   24.9191 C   0  0  0  0  0  0
  -21.6060   -4.3056   24.7215 C   0  0  0  0  0  0
  -21.8832   -3.8175   23.4334 C   0  0  0  0  0  0
  -21.9216   -4.7008   22.3402 C   0  0  0  0  0  0
  -22.8040  -13.5272   21.1765 C   0  0  0  0  0  0
  -22.1675   -4.2189   21.0969 F   0  0  0  0  0  0
  -21.5634   -3.4526   25.7740 F   0  0  0  0  0  0
  -30.0779  -13.1949   20.4822 N   0  0  0  0  0  0
  -26.3254  -12.9332   20.3350 N   0  0  0  0  0  0
  -25.9489  -11.6505   20.5752 N   0  0  0  0  0  0
  -22.0614  -12.8287   22.0295 N   0  0  0  0  0  0
  -25.4556  -15.1913   20.4007 N   0  0  0  0  0  0
  -31.8106  -14.6141   20.0407 O   0  0  0  0  0  0
  -21.6647   -6.8953   21.4271 O   0  0  0  0  0  0
  -22.3747  -14.5547   20.6547 O   0  0  0  0  0  0
  -24.6205  -31.8725   23.2187 C   0  0  0  0  0  0
  -25.9095  -32.4823   23.8496 C   0  0  1  0  0  0
  -27.2086  -27.4351   20.0846 C   0  0  0  0  0  0
  -25.5998  -33.8645   24.2384 N   0  0  0  0  0  0
  -23.4002  -30.5081   21.5617 C   0  0  2  0  0  0
  -24.8387  -28.9925   20.1164 C   0  0  0  0  0  0
  -22.7410  -29.4719   22.5038 C   0  0  0  0  0  0
  -18.0261  -28.1411   22.8539 C   0  0  0  0  0  0
  -24.1496  -36.7371   23.2639 C   0  0  0  0  0  0
  -25.9348  -30.8417   21.3693 C   0  0  0  0  0  0
  -26.0019  -29.4753   20.7278 C   0  0  0  0  0  0
  -27.1858  -28.6966   20.7269 C   0  0  0  0  0  0
  -26.0298  -27.0073   19.4294 C   0  0  0  0  0  0
  -24.8481  -27.7555   19.4676 C   0  0  0  0  0  0
  -23.6019  -29.8572   20.1721 C   0  0  0  0  0  0
  -25.4089  -36.3118   24.0341 C   0  0  1  0  0  0
  -20.5858  -28.3707   23.1368 C   0  0  2  0  0  0
  -20.6795  -26.9455   22.5450 C   0  0  0  0  0  0
  -19.5753  -26.6423   21.5272 C   0  0  0  0  0  0
  -18.1911  -26.7964   22.1662 C   0  0  0  0  0  0
  -19.1511  -28.8885   23.2944 C   0  0  0  0  0  0
  -18.9433  -30.1504   23.8926 C   0  0  0  0  0  0
  -17.6429  -30.6627   24.0598 C   0  0  0  0  0  0
  -25.9041  -34.9483   23.5122 C   0  0  0  0  0  0
  -16.5329  -29.9126   23.6350 C   0  0  0  0  0  0
  -16.7255  -28.6551   23.0363 C   0  0  0  0  0  0
  -26.4455  -31.6614   25.0839 C   0  0  0  0  0  0
  -25.3701  -31.3815   26.1612 C   0  0  0  0  0  0
  -27.0292  -30.3067   24.6209 C   0  0  0  0  0  0
  -27.6043  -32.4324   25.7581 C   0  0  0  0  0  0
  -27.5548  -37.1832   24.8446 C   0  0  0  0  0  0
  -21.4126  -29.3087   22.3781 N   0  0  0  0  0  0
  -26.4252  -37.3826   23.9414 N   0  0  0  0  0  0
  -24.6714  -31.0874   22.1070 N   0  0  0  0  0  0
  -23.4173  -28.8164   23.3018 O   0  0  0  0  0  0
  -28.3986  -26.7243   20.0354 O   0  0  0  0  0  0
  -26.5566  -34.8915   22.4650 O   0  0  0  0  0  0
  -23.5383  -32.1502   23.7569 O   0  0  0  0  0  0
  -26.9650  -22.1214   18.5616 C   0  0  0  0  0  0
  -29.3338  -22.4714   18.9707 C   0  0  0  0  0  0
  -28.0240  -22.9870   18.8974 C   0  0  0  0  0  0
  -27.2081  -20.7793   18.2200 C   0  0  0  0  0  0
  -29.5912  -21.1141   18.6671 C   0  0  0  0  0  0
  -28.5290  -20.2838   18.2213 C   0  0  0  0  0  0
  -26.0404  -19.8716   17.8642 C   0  0  0  0  0  0
  -27.6959  -24.4589   19.0959 C   0  0  0  0  0  0
  -31.0172  -20.5891   18.8278 C   0  0  0  0  0  0
  -31.2199  -19.6971   20.0783 C   0  0  0  0  0  0
  -31.2148  -18.1872   19.7639 C   0  0  0  0  0  0
  -30.1253  -17.3887   20.5024 C   0  0  0  0  0  0
  -30.6635  -16.5751   21.7092 C   0  0  0  0  0  0
  -28.4329  -25.2850   20.1775 C   0  0  0  0  0  0
  -30.2776  -15.1751   21.5780 N   0  0  0  0  0  0
  -28.8029  -18.6795   17.6392 Cl  0  0  0  0  0  0
  -31.5015  -12.3486   19.1271 H   0  0  0  0  0  0
  -30.3506  -11.2212   19.7700 H   0  0  0  0  0  0
  -29.7816  -11.8735   17.3825 H   0  0  0  0  0  0
  -29.7425  -13.5485   17.8806 H   0  0  0  0  0  0
  -27.8226  -11.3475   18.7348 H   0  0  0  0  0  0
  -27.4391  -12.7511   17.7711 H   0  0  0  0  0  0
  -27.7564  -14.2590   19.6335 H   0  0  0  0  0  0
  -28.6804  -11.8913   21.3419 H   0  0  0  0  0  0
  -28.4790  -13.5184   21.8925 H   0  0  0  0  0  0
  -25.2853   -9.5686   22.4737 H   0  0  0  0  0  0
  -24.0043   -7.4692   22.7455 H   0  0  0  0  0  0
  -21.0905   -8.8860   19.8920 H   0  0  0  0  0  0
  -22.3833  -10.9723   19.6151 H   0  0  0  0  0  0
  -21.1933   -7.6141   23.9741 H   0  0  0  0  0  0
  -21.1479   -6.0489   25.9068 H   0  0  0  0  0  0
  -22.0608   -2.7636   23.2812 H   0  0  0  0  0  0
  -22.4093  -11.9897   22.4694 H   0  0  0  0  0  0
  -21.1235  -13.1406   22.2365 H   0  0  0  0  0  0
  -24.6954  -15.8540   20.4956 H   0  0  0  0  0  0
  -26.3197  -15.6260   20.0949 H   0  0  0  0  0  0
  -26.7206  -32.5510   23.1306 H   0  0  0  0  0  0
  -25.0340  -33.9848   25.0656 H   0  0  0  0  0  0
  -22.6923  -31.3303   21.4267 H   0  0  0  0  0  0
  -23.3736  -35.9741   23.3276 H   0  0  0  0  0  0
  -24.3622  -36.9015   22.2067 H   0  0  0  0  0  0
  -23.7242  -37.6576   23.6658 H   0  0  0  0  0  0
  -26.0255  -31.5997   20.5876 H   0  0  0  0  0  0
  -26.8336  -30.9040   21.9723 H   0  0  0  0  0  0
  -28.0799  -29.0573   21.2155 H   0  0  0  0  0  0
  -25.9673  -26.1503   18.7936 H   0  0  0  0  0  0
  -23.9748  -27.4013   18.9417 H   0  0  0  0  0  0
  -23.6964  -30.6397   19.4179 H   0  0  0  0  0  0
  -22.7259  -29.2801   19.8753 H   0  0  0  0  0  0
  -25.1200  -36.2041   25.0830 H   0  0  0  0  0  0
  -20.9919  -28.3267   24.1504 H   0  0  0  0  0  0
  -20.5811  -26.2287   23.3621 H   0  0  0  0  0  0
  -21.6636  -26.7593   22.1129 H   0  0  0  0  0  0
  -19.6906  -25.6327   21.1312 H   0  0  0  0  0  0
  -19.6688  -27.3255   20.6812 H   0  0  0  0  0  0
  -17.4179  -26.6827   21.4030 H   0  0  0  0  0  0
  -18.0245  -26.0081   22.9027 H   0  0  0  0  0  0
  -19.7919  -30.7364   24.2259 H   0  0  0  0  0  0
  -17.4978  -31.6277   24.5234 H   0  0  0  0  0  0
  -15.5336  -30.3022   23.7665 H   0  0  0  0  0  0
  -15.8649  -28.0880   22.7026 H   0  0  0  0  0  0
  -24.5837  -30.7138   25.8055 H   0  0  0  0  0  0
  -24.8918  -32.3022   26.5012 H   0  0  0  0  0  0
  -25.8032  -30.9083   27.0442 H   0  0  0  0  0  0
  -26.2883  -29.6871   24.1144 H   0  0  0  0  0  0
  -27.3972  -29.7230   25.4672 H   0  0  0  0  0  0
  -27.8729  -30.4428   23.9426 H   0  0  0  0  0  0
  -27.2682  -33.3678   26.2097 H   0  0  0  0  0  0
  -28.3872  -32.6813   25.0389 H   0  0  0  0  0  0
  -28.0669  -31.8477   26.5563 H   0  0  0  0  0  0
  -28.2517  -38.0167   24.7467 H   0  0  0  0  0  0
  -28.1039  -36.2675   24.6210 H   0  0  0  0  0  0
  -27.2280  -37.1410   25.8854 H   0  0  0  0  0  0
  -20.9272  -29.8855   21.7051 H   0  0  0  0  0  0
  -26.0147  -38.2912   24.1420 H   0  0  0  0  0  0
  -25.9519  -22.4975   18.5398 H   0  0  0  0  0  0
  -30.1510  -23.1200   19.2418 H   0  0  0  0  0  0
  -25.0787  -20.3754   17.9824 H   0  0  0  0  0  0
  -26.0436  -19.0118   18.5342 H   0  0  0  0  0  0
  -26.1092  -19.5108   16.8355 H   0  0  0  0  0  0
  -26.6612  -24.4162   19.4190 H   0  0  0  0  0  0
  -27.7380  -24.9523   18.1210 H   0  0  0  0  0  0
  -31.6770  -21.4497   18.9266 H   0  0  0  0  0  0
  -31.3391  -20.0896   17.9134 H   0  0  0  0  0  0
  -30.5037  -19.9611   20.8595 H   0  0  0  0  0  0
  -32.1881  -19.9330   20.5283 H   0  0  0  0  0  0
  -32.1973  -17.7524   19.9433 H   0  0  0  0  0  0
  -31.0890  -18.0303   18.6932 H   0  0  0  0  0  0
  -29.6569  -16.7165   19.7762 H   0  0  0  0  0  0
  -29.3059  -18.0432   20.8106 H   0  0  0  0  0  0
  -30.2558  -16.9597   22.6446 H   0  0  0  0  0  0
  -31.7515  -16.6414   21.8031 H   0  0  0  0  0  0
  -29.4941  -25.0414   20.1570 H   0  0  0  0  0  0
  -28.0846  -24.9845   21.1656 H   0  0  0  0  0  0
  -29.4529  -14.8666   22.0716 H   0  0  0  0  0  0
  1 25  1  0  0  0
  1 30  2  0  0  0
  1 85  1  0  0  0
  2  3  1  0  0  0
  2 25  1  0  0  0
  2 87  1  0  0  0
  2 88  1  0  0  0
  3  4  1  0  0  0
  3 89  1  0  0  0
  3 90  1  0  0  0
  4  5  1  0  0  0
  4 91  1  0  0  0
  4 92  1  0  0  0
  5  6  1  0  0  0
  5 26  1  0  0  0
  5 93  1  0  0  0
  6 25  1  0  0  0
  6 94  1  0  0  0
  6 95  1  0  0  0
  7  8  2  0  0  0
  7 26  1  0  0  0
  7 29  1  0  0  0
  8  9  1  0  0  0
  8 22  1  0  0  0
  9 10  1  0  0  0
  9 27  2  0  0  0
 10 11  2  0  0  0
 10 15  1  0  0  0
 11 12  1  0  0  0
 11 96  1  0  0  0
 12 13  2  0  0  0
 12 97  1  0  0  0
 13 14  1  0  0  0
 13 31  1  0  0  0
 14 15  2  0  0  0
 14 98  1  0  0  0
 15 99  1  0  0  0
 16 17  2  0  0  0
 16 21  1  0  0  0
 16 31  1  0  0  0
 17 18  1  0  0  0
 17100  1  0  0  0
 18 19  2  0  0  0
 18101  1  0  0  0
 19 20  1  0  0  0
 19 24  1  0  0  0
 20 21  2  0  0  0
 20102  1  0  0  0
 21 23  1  0  0  0
 22 28  1  0  0  0
 22 32  2  0  0  0
 26 27  1  0  0  0
 28103  1  0  0  0
 28104  1  0  0  0
 29105  1  0  0  0
 29106  1  0  0  0
 33 34  1  0  0  0
 33 66  1  0  0  0
 33 70  2  0  0  0
 34 36  1  0  0  0
 34 59  1  0  0  0
 34107  1  0  0  0
 35 44  2  0  0  0
 35 45  1  0  0  0
 35 68  1  0  0  0
 36 56  1  0  0  0
 36108  1  0  0  0
 37 39  1  0  0  0
 37 47  1  0  0  0
 37 66  1  0  0  0
 37109  1  0  0  0
 38 43  2  0  0  0
 38 46  1  0  0  0
 38 47  1  0  0  0
 39 64  1  0  0  0
 39 67  2  0  0  0
 40 52  1  0  0  0
 40 53  2  0  0  0
 40 58  1  0  0  0
 41110  1  0  0  0
 41111  1  0  0  0
 41112  1  0  0  0
 41 48  1  0  0  0
 42 43  1  0  0  0
 42 66  1  0  0  0
 42113  1  0  0  0
 42114  1  0  0  0
 43 44  1  0  0  0
 44115  1  0  0  0
 45 46  2  0  0  0
 45116  1  0  0  0
 46117  1  0  0  0
 47118  1  0  0  0
 47119  1  0  0  0
 48 56  1  0  0  0
 48 65  1  0  0  0
 48120  1  0  0  0
 49 50  1  0  0  0
 49 53  1  0  0  0
 49 64  1  0  0  0
 49121  1  0  0  0
 50 51  1  0  0  0
 50122  1  0  0  0
 50123  1  0  0  0
 51 52  1  0  0  0
 51124  1  0  0  0
 51125  1  0  0  0
 52126  1  0  0  0
 52127  1  0  0  0
 53 54  1  0  0  0
 54 55  2  0  0  0
 54128  1  0  0  0
 55 57  1  0  0  0
 55129  1  0  0  0
 56 69  2  0  0  0
 57 58  2  0  0  0
 57130  1  0  0  0
 58131  1  0  0  0
 59 60  1  0  0  0
 59 61  1  0  0  0
 59 62  1  0  0  0
 60132  1  0  0  0
 60133  1  0  0  0
 60134  1  0  0  0
 61135  1  0  0  0
 61136  1  0  0  0
 61137  1  0  0  0
 62138  1  0  0  0
 62139  1  0  0  0
 62140  1  0  0  0
 63 65  1  0  0  0
 63141  1  0  0  0
 63142  1  0  0  0
 63143  1  0  0  0
 64144  1  0  0  0
 65145  1  0  0  0
 68 84  1  0  0  0
 71 73  2  0  0  0
 71 74  1  0  0  0
 71146  1  0  0  0
 72 73  1  0  0  0
 72 75  2  0  0  0
 72147  1  0  0  0
 73 78  1  0  0  0
 74 76  2  0  0  0
 74 77  1  0  0  0
 75 76  1  0  0  0
 75 79  1  0  0  0
 76 86  1  0  0  0
 77148  1  0  0  0
 77149  1  0  0  0
 77150  1  0  0  0
 78 84  1  0  0  0
 78151  1  0  0  0
 78152  1  0  0  0
 79 80  1  0  0  0
 79153  1  0  0  0
 79154  1  0  0  0
 80 81  1  0  0  0
 80155  1  0  0  0
 80156  1  0  0  0
 81 82  1  0  0  0
 81157  1  0  0  0
 81158  1  0  0  0
 82 83  1  0  0  0
 82159  1  0  0  0
 82160  1  0  0  0
 83 85  1  0  0  0
 83161  1  0  0  0
 83162  1  0  0  0
 84163  1  0  0  0
 84164  1  0  0  0
 85165  1  0  0  0
M  ISO  4   1 100  68 101  84 101  85 100
M  END
> <chiral flag>
0

> <version>
0

> <s_m_source_file>
/data/baiqing/PycharmProjects/Reinvent-master-3.2/result/LINK_invent/BTK/process_docking_weight1_custom_sum_contain_oxygen_bond_distance_aromatic_linkinvent_7_9_3/rearranged_h_0033.sdf

> <i_m_source_file_index>
21

> <r_mmod_Potential_Energy-OPLS-2005>
34.0406761169434

> <r_mmod_Stretch_Energy-OPLS-2005>
36.8421859741211

> <r_mmod_Bend_Energy-OPLS-2005>
117.497863769531

> <r_mmod_Torsional_Energy-OPLS-2005>
250.756927490234

> <r_mmod_Improper_Torsional_Energy-OPLS-2005>
2.90997362136841

> <r_mmod_Van_der_Waal_Energy-OPLS-2005>
173.390258789062

> <r_mmod_Electrostatic_Energy-OPLS-2005>
-359.082336425781

> <r_mmod_Solvation_Energy-OPLS-2005>
-200.094619750977

> <b_mmod_Minimization_Converged-OPLS-2005>
0

> <r_mmod_RMS_Derivative-OPLS-2005>
7.548180103302

$$$$
22
                    3D
 Structure written by MMmdl.
156164  0  0  1  0            999 V2000
  -30.6305  -14.6828   20.4380 C   0  0  0  0  0  0
  -30.4315  -12.4053   19.4706 C   0  0  0  0  0  0
  -29.5126  -12.4962   18.2320 C   0  0  0  0  0  0
  -28.0333  -12.3447   18.6396 C   0  0  0  0  0  0
  -27.6500  -13.2295   19.8572 C   0  0  2  0  0  0
  -28.6963  -13.1254   20.9886 C   0  0  0  0  0  0
  -25.2523  -13.8203   20.5675 C   0  0  0  0  0  0
  -24.1809  -13.0445   20.9179 C   0  0  0  0  0  0
  -24.6397  -11.6924   20.8727 C   0  0  0  0  0  0
  -23.9072  -10.4302   21.0393 C   0  0  0  0  0  0
  -24.3622   -9.4212   21.9161 C   0  0  0  0  0  0
  -23.6300   -8.2244   22.0751 C   0  0  0  0  0  0
  -22.4277   -8.0276   21.3545 C   0  0  0  0  0  0
  -21.9908   -9.0252   20.4644 C   0  0  0  0  0  0
  -22.7247  -10.2134   20.3047 C   0  0  0  0  0  0
  -21.6863   -6.0718   22.5272 C   0  0  0  0  0  0
  -21.4020   -6.5627   23.8207 C   0  0  0  0  0  0
  -21.3668   -5.6785   24.9172 C   0  0  0  0  0  0
  -21.6057   -4.3049   24.7220 C   0  0  0  0  0  0
  -21.8825   -3.8133   23.4342 C   0  0  0  0  0  0
  -21.9193   -4.6944   22.3396 C   0  0  0  0  0  0
  -22.7820  -13.5214   21.1840 C   0  0  0  0  0  0
  -22.1653   -4.2128   21.0972 F   0  0  0  0  0  0
  -21.5631   -3.4532   25.7734 F   0  0  0  0  0  0
  -30.0090  -13.4588   20.4189 N   0  0  0  0  0  0
  -26.2972  -12.9412   20.3296 N   0  0  0  0  0  0
  -25.9334  -11.6553   20.5732 N   0  0  0  0  0  0
  -22.0476  -12.8213   22.0417 N   0  0  0  0  0  0
  -25.4204  -15.1935   20.4100 N   0  0  0  0  0  0
  -31.8001  -14.7981   20.0633 O   0  0  0  0  0  0
  -21.6655   -6.8867   21.4240 O   0  0  0  0  0  0
  -22.3486  -14.5493   20.6660 O   0  0  0  0  0  0
  -24.6265  -31.8597   23.2006 C   0  0  0  0  0  0
  -25.9088  -32.4782   23.8368 C   0  0  1  0  0  0
  -27.2241  -27.2926   20.1155 C   0  0  0  0  0  0
  -25.5888  -33.8582   24.2288 N   0  0  0  0  0  0
  -23.4236  -30.4819   21.5439 C   0  0  2  0  0  0
  -24.8712  -28.9369   20.1090 C   0  0  0  0  0  0
  -22.7486  -29.4614   22.4919 C   0  0  0  0  0  0
  -18.0298  -28.1377   22.8488 C   0  0  0  0  0  0
  -24.1485  -36.7303   23.2640 C   0  0  0  0  0  0
  -25.9676  -30.7786   21.3785 C   0  0  0  0  0  0
  -26.0420  -29.4053   20.7192 C   0  0  0  0  0  0
  -27.2202  -28.5944   20.7149 C   0  0  0  0  0  0
  -26.0305  -26.8947   19.4665 C   0  0  0  0  0  0
  -24.8692  -27.6882   19.4729 C   0  0  0  0  0  0
  -23.6399  -29.8192   20.1586 C   0  0  0  0  0  0
  -25.4106  -36.3091   24.0336 C   0  0  1  0  0  0
  -20.5896  -28.3679   23.1271 C   0  0  2  0  0  0
  -20.6780  -26.9401   22.5403 C   0  0  0  0  0  0
  -19.5760  -26.6371   21.5203 C   0  0  0  0  0  0
  -18.1939  -26.7920   22.1618 C   0  0  0  0  0  0
  -19.1545  -28.8848   23.2873 C   0  0  0  0  0  0
  -18.9464  -30.1451   23.8898 C   0  0  0  0  0  0
  -17.6459  -30.6580   24.0555 C   0  0  0  0  0  0
  -25.9043  -34.9460   23.5119 C   0  0  0  0  0  0
  -16.5359  -29.9081   23.6319 C   0  0  0  0  0  0
  -16.7278  -28.6492   23.0345 C   0  0  0  0  0  0
  -26.4455  -31.6595   25.0749 C   0  0  0  0  0  0
  -25.3677  -31.3762   26.1474 C   0  0  0  0  0  0
  -27.0282  -30.3016   24.6207 C   0  0  0  0  0  0
  -27.6020  -32.4332   25.7507 C   0  0  0  0  0  0
  -27.5583  -37.1799   24.8459 C   0  0  0  0  0  0
  -21.4193  -29.3036   22.3661 N   0  0  0  0  0  0
  -26.4290  -37.3777   23.9413 N   0  0  0  0  0  0
  -24.6915  -31.0584   22.0972 N   0  0  0  0  0  0
  -23.4192  -28.8154   23.3003 O   0  0  0  0  0  0
  -28.3271  -26.4120   20.1832 O   0  0  0  0  0  0
  -26.5626  -34.8931   22.4699 O   0  0  0  0  0  0
  -23.5414  -32.1409   23.7298 O   0  0  0  0  0  0
  -29.3038  -19.6897   20.0040 C   0  0  0  0  0  0
  -30.4860  -21.1612   21.5314 C   0  0  0  0  0  0
  -30.9486  -18.7423   21.5170 C   0  0  0  0  0  0
  -29.5206  -21.0275   20.5087 C   0  0  0  0  0  0
  -30.0048  -18.5231   20.4946 C   0  0  0  0  0  0
  -31.1979  -20.0402   22.0268 C   0  0  0  0  0  0
  -28.7405  -22.2935   19.9617 C   0  0  0  0  0  0
  -29.8969  -17.0936   19.8334 C   0  0  0  0  0  0
  -29.0948  -23.8025   20.4084 C   0  0  0  0  0  0
  -28.1068  -24.9617   19.9019 C   0  0  0  0  0  0
  -32.2901  -20.2363   23.0742 C   0  0  0  0  0  0
  -29.8418  -15.7957   20.6183 N   0  0  0  0  0  0
  -32.0526  -21.3085   23.8324 F   0  0  0  0  0  0
  -32.3822  -19.1733   23.8731 F   0  0  0  0  0  0
  -33.4622  -20.4035   22.4615 F   0  0  0  0  0  0
  -31.4768  -12.5051   19.1736 H   0  0  0  0  0  0
  -30.3467  -11.4239   19.9368 H   0  0  0  0  0  0
  -29.7791  -11.7229   17.5099 H   0  0  0  0  0  0
  -29.6624  -13.4532   17.7298 H   0  0  0  0  0  0
  -27.8697  -11.2943   18.8819 H   0  0  0  0  0  0
  -27.3846  -12.5641   17.7903 H   0  0  0  0  0  0
  -27.6551  -14.2585   19.4981 H   0  0  0  0  0  0
  -28.7098  -12.1168   21.4065 H   0  0  0  0  0  0
  -28.4447  -13.7930   21.8123 H   0  0  0  0  0  0
  -25.2777   -9.5682   22.4710 H   0  0  0  0  0  0
  -24.0007   -7.4650   22.7478 H   0  0  0  0  0  0
  -21.0826   -8.8781   19.8963 H   0  0  0  0  0  0
  -22.3708  -10.9654   19.6138 H   0  0  0  0  0  0
  -21.2019   -7.6134   23.9704 H   0  0  0  0  0  0
  -21.1482   -6.0506   25.9072 H   0  0  0  0  0  0
  -22.0595   -2.7586   23.2856 H   0  0  0  0  0  0
  -22.4116  -11.9910   22.4848 H   0  0  0  0  0  0
  -21.1082  -13.1233   22.2600 H   0  0  0  0  0  0
  -24.6533  -15.8471   20.5289 H   0  0  0  0  0  0
  -26.2622  -15.6375   20.0673 H   0  0  0  0  0  0
  -26.7159  -32.5442   23.1120 H   0  0  0  0  0  0
  -24.9985  -33.9730   25.0395 H   0  0  0  0  0  0
  -22.7179  -31.3025   21.4002 H   0  0  0  0  0  0
  -23.3748  -35.9632   23.3298 H   0  0  0  0  0  0
  -24.3590  -36.8931   22.2060 H   0  0  0  0  0  0
  -23.7234  -37.6501   23.6666 H   0  0  0  0  0  0
  -26.1046  -31.5391   20.6095 H   0  0  0  0  0  0
  -26.8450  -30.8258   22.0115 H   0  0  0  0  0  0
  -28.1146  -28.9473   21.2088 H   0  0  0  0  0  0
  -25.9602  -25.9470   18.9561 H   0  0  0  0  0  0
  -23.9758  -27.3252   18.9856 H   0  0  0  0  0  0
  -23.7625  -30.5973   19.4042 H   0  0  0  0  0  0
  -22.7600  -29.2503   19.8543 H   0  0  0  0  0  0
  -25.1281  -36.1955   25.0827 H   0  0  0  0  0  0
  -20.9996  -28.3258   24.1385 H   0  0  0  0  0  0
  -20.5664  -26.2298   23.3603 H   0  0  0  0  0  0
  -21.6651  -26.7421   22.1204 H   0  0  0  0  0  0
  -19.6916  -25.6276   21.1242 H   0  0  0  0  0  0
  -19.6699  -27.3172   20.6725 H   0  0  0  0  0  0
  -17.4207  -26.6659   21.4022 H   0  0  0  0  0  0
  -18.0353  -26.0058   22.9017 H   0  0  0  0  0  0
  -19.7940  -30.7261   24.2265 H   0  0  0  0  0  0
  -17.5021  -31.6261   24.5152 H   0  0  0  0  0  0
  -15.5361  -30.2979   23.7639 H   0  0  0  0  0  0
  -15.8680  -28.0811   22.7054 H   0  0  0  0  0  0
  -24.5836  -30.7125   25.7811 H   0  0  0  0  0  0
  -24.8878  -32.2936   26.4893 H   0  0  0  0  0  0
  -25.7987  -30.8945   27.0254 H   0  0  0  0  0  0
  -26.2861  -29.6810   24.1170 H   0  0  0  0  0  0
  -27.3897  -29.7244   25.4717 H   0  0  0  0  0  0
  -27.8772  -30.4314   23.9498 H   0  0  0  0  0  0
  -27.2629  -33.3628   26.2097 H   0  0  0  0  0  0
  -28.3810  -32.6893   25.0316 H   0  0  0  0  0  0
  -28.0700  -31.8448   26.5407 H   0  0  0  0  0  0
  -28.2577  -38.0114   24.7513 H   0  0  0  0  0  0
  -28.1100  -36.2639   24.6267 H   0  0  0  0  0  0
  -27.2315  -37.1450   25.8866 H   0  0  0  0  0  0
  -20.9367  -29.8796   21.6906 H   0  0  0  0  0  0
  -26.0178  -38.2856   24.1405 H   0  0  0  0  0  0
  -28.5985  -19.5607   19.1942 H   0  0  0  0  0  0
  -30.7075  -22.1386   21.9344 H   0  0  0  0  0  0
  -31.5363  -17.9126   21.8818 H   0  0  0  0  0  0
  -27.6876  -22.1159   20.1852 H   0  0  0  0  0  0
  -28.8069  -22.2522   18.8738 H   0  0  0  0  0  0
  -30.7316  -17.0271   19.1320 H   0  0  0  0  0  0
  -29.0120  -17.1045   19.1949 H   0  0  0  0  0  0
  -30.1070  -24.0356   20.0768 H   0  0  0  0  0  0
  -29.1200  -23.8538   21.4973 H   0  0  0  0  0  0
  -27.1347  -24.6810   20.3070 H   0  0  0  0  0  0
  -28.0227  -24.8670   18.8179 H   0  0  0  0  0  0
  -28.9339  -15.5872   21.0020 H   0  0  0  0  0  0
  1 25  1  0  0  0
  1 30  2  0  0  0
  1 82  1  0  0  0
  2  3  1  0  0  0
  2 25  1  0  0  0
  2 86  1  0  0  0
  2 87  1  0  0  0
  3  4  1  0  0  0
  3 88  1  0  0  0
  3 89  1  0  0  0
  4  5  1  0  0  0
  4 90  1  0  0  0
  4 91  1  0  0  0
  5  6  1  0  0  0
  5 26  1  0  0  0
  5 92  1  0  0  0
  6 25  1  0  0  0
  6 93  1  0  0  0
  6 94  1  0  0  0
  7  8  2  0  0  0
  7 26  1  0  0  0
  7 29  1  0  0  0
  8  9  1  0  0  0
  8 22  1  0  0  0
  9 10  1  0  0  0
  9 27  2  0  0  0
 10 11  2  0  0  0
 10 15  1  0  0  0
 11 12  1  0  0  0
 11 95  1  0  0  0
 12 13  2  0  0  0
 12 96  1  0  0  0
 13 14  1  0  0  0
 13 31  1  0  0  0
 14 15  2  0  0  0
 14 97  1  0  0  0
 15 98  1  0  0  0
 16 17  2  0  0  0
 16 21  1  0  0  0
 16 31  1  0  0  0
 17 18  1  0  0  0
 17 99  1  0  0  0
 18 19  2  0  0  0
 18100  1  0  0  0
 19 20  1  0  0  0
 19 24  1  0  0  0
 20 21  2  0  0  0
 20101  1  0  0  0
 21 23  1  0  0  0
 22 28  1  0  0  0
 22 32  2  0  0  0
 26 27  1  0  0  0
 28102  1  0  0  0
 28103  1  0  0  0
 29104  1  0  0  0
 29105  1  0  0  0
 33 34  1  0  0  0
 33 66  1  0  0  0
 33 70  2  0  0  0
 34 36  1  0  0  0
 34 59  1  0  0  0
 34106  1  0  0  0
 35 44  2  0  0  0
 35 45  1  0  0  0
 35 68  1  0  0  0
 36 56  1  0  0  0
 36107  1  0  0  0
 37 39  1  0  0  0
 37 47  1  0  0  0
 37 66  1  0  0  0
 37108  1  0  0  0
 38 43  2  0  0  0
 38 46  1  0  0  0
 38 47  1  0  0  0
 39 64  1  0  0  0
 39 67  2  0  0  0
 40 52  1  0  0  0
 40 53  2  0  0  0
 40 58  1  0  0  0
 41109  1  0  0  0
 41110  1  0  0  0
 41111  1  0  0  0
 41 48  1  0  0  0
 42 43  1  0  0  0
 42 66  1  0  0  0
 42112  1  0  0  0
 42113  1  0  0  0
 43 44  1  0  0  0
 44114  1  0  0  0
 45 46  2  0  0  0
 45115  1  0  0  0
 46116  1  0  0  0
 47117  1  0  0  0
 47118  1  0  0  0
 48 56  1  0  0  0
 48 65  1  0  0  0
 48119  1  0  0  0
 49 50  1  0  0  0
 49 53  1  0  0  0
 49 64  1  0  0  0
 49120  1  0  0  0
 50 51  1  0  0  0
 50121  1  0  0  0
 50122  1  0  0  0
 51 52  1  0  0  0
 51123  1  0  0  0
 51124  1  0  0  0
 52125  1  0  0  0
 52126  1  0  0  0
 53 54  1  0  0  0
 54 55  2  0  0  0
 54127  1  0  0  0
 55 57  1  0  0  0
 55128  1  0  0  0
 56 69  2  0  0  0
 57 58  2  0  0  0
 57129  1  0  0  0
 58130  1  0  0  0
 59 60  1  0  0  0
 59 61  1  0  0  0
 59 62  1  0  0  0
 60131  1  0  0  0
 60132  1  0  0  0
 60133  1  0  0  0
 61134  1  0  0  0
 61135  1  0  0  0
 61136  1  0  0  0
 62137  1  0  0  0
 62138  1  0  0  0
 62139  1  0  0  0
 63 65  1  0  0  0
 63140  1  0  0  0
 63141  1  0  0  0
 63142  1  0  0  0
 64143  1  0  0  0
 65144  1  0  0  0
 68 80  1  0  0  0
 71 74  2  0  0  0
 71 75  1  0  0  0
 71145  1  0  0  0
 72 74  1  0  0  0
 72 76  2  0  0  0
 72146  1  0  0  0
 73 75  2  0  0  0
 73 76  1  0  0  0
 73147  1  0  0  0
 74 77  1  0  0  0
 75 78  1  0  0  0
 76 81  1  0  0  0
 77 79  1  0  0  0
 77148  1  0  0  0
 77149  1  0  0  0
 78 82  1  0  0  0
 78150  1  0  0  0
 78151  1  0  0  0
 79 80  1  0  0  0
 79152  1  0  0  0
 79153  1  0  0  0
 80154  1  0  0  0
 80155  1  0  0  0
 81 83  1  0  0  0
 81 84  1  0  0  0
 81 85  1  0  0  0
 82156  1  0  0  0
M  ISO  4   1 100  68 101  80 101  82 100
M  END
> <chiral flag>
0

> <version>
0

> <s_m_source_file>
/data/baiqing/PycharmProjects/Reinvent-master-3.2/result/LINK_invent/BTK/process_docking_weight1_custom_sum_contain_oxygen_bond_distance_aromatic_linkinvent_7_9_3/rearranged_h_0033.sdf

> <i_m_source_file_index>
22

> <r_mmod_Potential_Energy-OPLS-2005>
92.0655288696289

> <r_mmod_Stretch_Energy-OPLS-2005>
98.5872955322266

> <r_mmod_Bend_Energy-OPLS-2005>
147.927886962891

> <r_mmod_Torsional_Energy-OPLS-2005>
214.358032226562

> <r_mmod_Improper_Torsional_Energy-OPLS-2005>
9.15847969055176

> <r_mmod_Van_der_Waal_Energy-OPLS-2005>
142.478317260742

> <r_mmod_Electrostatic_Energy-OPLS-2005>
-377.976287841797

> <r_mmod_Solvation_Energy-OPLS-2005>
-207.486587524414

> <b_mmod_Minimization_Converged-OPLS-2005>
0

> <r_mmod_RMS_Derivative-OPLS-2005>
2.59413194656372

$$$$
23
                    3D
 Structure written by MMmdl.
147155  0  0  1  0            999 V2000
  -30.2618  -15.8558   20.3124 C   0  0  0  0  0  0
  -30.3907  -13.2587   19.5231 C   0  0  0  0  0  0
  -29.5449  -12.7058   18.3362 C   0  0  0  0  0  0
  -28.1421  -12.3039   18.8026 C   0  0  0  0  0  0
  -27.5817  -13.3340   19.8059 C   0  0  2  0  0  0
  -28.5848  -13.7842   20.9011 C   0  0  0  0  0  0
  -25.2279  -13.8329   20.5855 C   0  0  0  0  0  0
  -24.1701  -13.0453   20.9310 C   0  0  0  0  0  0
  -24.6433  -11.6964   20.8765 C   0  0  0  0  0  0
  -23.9139  -10.4299   21.0387 C   0  0  0  0  0  0
  -24.3666   -9.4204   21.9171 C   0  0  0  0  0  0
  -23.6316   -8.2248   22.0746 C   0  0  0  0  0  0
  -22.4294   -8.0287   21.3538 C   0  0  0  0  0  0
  -21.9948   -9.0272   20.4644 C   0  0  0  0  0  0
  -22.7294  -10.2141   20.3041 C   0  0  0  0  0  0
  -21.6861   -6.0749   22.5279 C   0  0  0  0  0  0
  -21.4028   -6.5650   23.8213 C   0  0  0  0  0  0
  -21.3655   -5.6802   24.9180 C   0  0  0  0  0  0
  -21.6030   -4.3062   24.7227 C   0  0  0  0  0  0
  -21.8822   -3.8155   23.4346 C   0  0  0  0  0  0
  -21.9198   -4.6977   22.3407 C   0  0  0  0  0  0
  -22.7702  -13.5148   21.1926 C   0  0  0  0  0  0
  -22.1662   -4.2169   21.0983 F   0  0  0  0  0  0
  -21.5617   -3.4534   25.7729 F   0  0  0  0  0  0
  -29.7097  -14.4744   20.2085 N   0  0  0  0  0  0
  -26.2748  -12.9713   20.3290 N   0  0  0  0  0  0
  -25.9381  -11.6751   20.5706 N   0  0  0  0  0  0
  -22.0377  -12.8118   22.0485 N   0  0  0  0  0  0
  -25.3870  -15.2078   20.4320 N   0  0  0  0  0  0
  -31.4988  -15.6739   20.2239 O   0  0  0  0  0  0
  -21.6638   -6.8891   21.4237 O   0  0  0  0  0  0
  -22.3375  -14.5450   20.6757 O   0  0  0  0  0  0
  -24.6994  -31.7815   23.1389 C   0  0  0  0  0  0
  -25.9505  -32.4372   23.7983 C   0  0  1  0  0  0
  -27.2209  -26.5391   20.2288 C   0  0  0  0  0  0
  -25.6009  -33.8205   24.1856 N   0  0  0  0  0  0
  -23.5314  -30.3789   21.4968 C   0  0  2  0  0  0
  -24.9854  -28.6847   20.1229 C   0  0  0  0  0  0
  -22.7832  -29.4224   22.4670 C   0  0  0  0  0  0
  -18.0352  -28.1428   22.8450 C   0  0  0  0  0  0
  -24.1495  -36.7117   23.2666 C   0  0  0  0  0  0
  -26.1200  -30.4600   21.4266 C   0  0  0  0  0  0
  -26.1799  -29.0068   20.7786 C   0  0  0  0  0  0
  -27.2772  -27.9692   20.7887 C   0  0  0  0  0  0
  -25.9907  -26.4651   19.5162 C   0  0  0  0  0  0
  -24.9396  -27.4410   19.4667 C   0  0  0  0  0  0
  -23.7928  -29.6645   20.1377 C   0  0  0  0  0  0
  -25.4159  -36.2841   24.0270 C   0  0  1  0  0  0
  -20.5994  -28.3796   23.1110 C   0  0  2  0  0  0
  -20.6809  -26.9441   22.5402 C   0  0  0  0  0  0
  -19.5785  -26.6364   21.5215 C   0  0  0  0  0  0
  -18.1969  -26.7954   22.1619 C   0  0  0  0  0  0
  -19.1622  -28.8942   23.2757 C   0  0  0  0  0  0
  -18.9524  -30.1523   23.8809 C   0  0  0  0  0  0
  -17.6512  -30.6609   24.0549 C   0  0  0  0  0  0
  -25.9138  -34.9228   23.4910 C   0  0  0  0  0  0
  -16.5401  -29.9085   23.6358 C   0  0  0  0  0  0
  -16.7330  -28.6509   23.0368 C   0  0  0  0  0  0
  -26.4619  -31.6479   25.0682 C   0  0  0  0  0  0
  -25.3641  -31.3849   26.1270 C   0  0  0  0  0  0
  -27.0583  -30.2798   24.6705 C   0  0  0  0  0  0
  -27.6022  -32.4389   25.7521 C   0  0  0  0  0  0
  -27.5537  -37.1746   24.8493 C   0  0  0  0  0  0
  -21.4461  -29.3017   22.3407 N   0  0  0  0  0  0
  -26.4283  -37.3603   23.9371 N   0  0  0  0  0  0
  -24.8095  -30.9093   22.0740 N   0  0  0  0  0  0
  -23.4208  -28.7836   23.3084 O   0  0  0  0  0  0
  -28.1729  -25.2550   20.2564 O   0  0  0  0  0  0
  -26.5792  -34.8835   22.4540 O   0  0  0  0  0  0
  -23.5975  -32.0965   23.6240 O   0  0  0  0  0  0
  -29.9200  -20.4682   20.7343 C   0  0  0  0  0  0
  -27.9191  -19.9809   20.0087 C   0  0  0  0  0  0
  -30.4271  -18.8159   20.2454 C   0  0  0  0  0  0
  -28.3243  -18.2464   20.3743 C   0  0  0  0  0  0
  -28.7402  -21.5219   20.0581 C   0  0  0  0  0  0
  -28.0031  -23.4207   20.3392 C   0  0  0  0  0  0
  -29.6832  -17.3768   20.3026 N   0  0  0  0  0  0
  -29.1849  -21.6507   18.8073 F   0  0  0  0  0  0
  -31.3646  -13.5416   19.1213 H   0  0  0  0  0  0
  -30.6129  -12.4690   20.2438 H   0  0  0  0  0  0
  -30.0477  -11.8571   17.8722 H   0  0  0  0  0  0
  -29.4644  -13.4745   17.5667 H   0  0  0  0  0  0
  -28.2172  -11.3286   19.2868 H   0  0  0  0  0  0
  -27.4703  -12.1765   17.9527 H   0  0  0  0  0  0
  -27.4053  -14.2159   19.1874 H   0  0  0  0  0  0
  -28.9093  -12.9537   21.5301 H   0  0  0  0  0  0
  -28.1077  -14.5010   21.5707 H   0  0  0  0  0  0
  -25.2811   -9.5679   22.4753 H   0  0  0  0  0  0
  -24.0023   -7.4642   22.7468 H   0  0  0  0  0  0
  -21.0870   -8.8800   19.8952 H   0  0  0  0  0  0
  -22.3747  -10.9685   19.6151 H   0  0  0  0  0  0
  -21.2033   -7.6157   23.9731 H   0  0  0  0  0  0
  -21.1461   -6.0523   25.9083 H   0  0  0  0  0  0
  -22.0603   -2.7613   23.2835 H   0  0  0  0  0  0
  -22.4036  -11.9794   22.4879 H   0  0  0  0  0  0
  -21.0978  -13.1099   22.2692 H   0  0  0  0  0  0
  -24.6166  -15.8553   20.5526 H   0  0  0  0  0  0
  -26.2387  -15.6532   20.1186 H   0  0  0  0  0  0
  -26.7605  -32.4782   23.0703 H   0  0  0  0  0  0
  -25.0062  -33.9212   24.9941 H   0  0  0  0  0  0
  -22.8652  -31.2210   21.2963 H   0  0  0  0  0  0
  -23.3733  -35.9475   23.3370 H   0  0  0  0  0  0
  -24.3522  -36.8743   22.2069 H   0  0  0  0  0  0
  -23.7305  -37.6327   23.6728 H   0  0  0  0  0  0
  -26.3401  -31.1723   20.6301 H   0  0  0  0  0  0
  -26.9635  -30.5293   22.1008 H   0  0  0  0  0  0
  -28.1788  -28.2345   21.3213 H   0  0  0  0  0  0
  -25.7946  -25.5379   18.9968 H   0  0  0  0  0  0
  -24.0416  -27.1831   18.9203 H   0  0  0  0  0  0
  -23.9862  -30.4199   19.3756 H   0  0  0  0  0  0
  -22.8911  -29.1463   19.8084 H   0  0  0  0  0  0
  -25.1388  -36.1599   25.0762 H   0  0  0  0  0  0
  -21.0074  -28.3435   24.1237 H   0  0  0  0  0  0
  -20.5657  -26.2427   23.3677 H   0  0  0  0  0  0
  -21.6668  -26.7351   22.1233 H   0  0  0  0  0  0
  -19.6934  -25.6247   21.1312 H   0  0  0  0  0  0
  -19.6737  -27.3119   20.6701 H   0  0  0  0  0  0
  -17.4238  -26.6696   21.4023 H   0  0  0  0  0  0
  -18.0354  -26.0116   22.9036 H   0  0  0  0  0  0
  -19.8000  -30.7362   24.2133 H   0  0  0  0  0  0
  -17.5062  -31.6279   24.5167 H   0  0  0  0  0  0
  -15.5398  -30.2960   23.7726 H   0  0  0  0  0  0
  -15.8731  -28.0798   22.7129 H   0  0  0  0  0  0
  -24.5852  -30.7178   25.7562 H   0  0  0  0  0  0
  -24.8815  -32.3094   26.4448 H   0  0  0  0  0  0
  -25.7781  -30.9171   27.0214 H   0  0  0  0  0  0
  -26.3335  -29.6354   24.1727 H   0  0  0  0  0  0
  -27.3970  -29.7324   25.5510 H   0  0  0  0  0  0
  -27.9324  -30.3883   24.0284 H   0  0  0  0  0  0
  -27.2518  -33.3770   26.1838 H   0  0  0  0  0  0
  -28.3966  -32.6829   25.0458 H   0  0  0  0  0  0
  -28.0545  -31.8712   26.5663 H   0  0  0  0  0  0
  -28.2620  -37.9963   24.7360 H   0  0  0  0  0  0
  -28.0960  -36.2478   24.6562 H   0  0  0  0  0  0
  -27.2219  -37.1676   25.8888 H   0  0  0  0  0  0
  -20.9785  -29.8665   21.6444 H   0  0  0  0  0  0
  -26.0106  -38.2668   24.1277 H   0  0  0  0  0  0
  -30.8398  -21.0527   20.7093 H   0  0  0  0  0  0
  -29.6923  -20.4093   21.8005 H   0  0  0  0  0  0
  -27.0432  -20.1592   20.6326 H   0  0  0  0  0  0
  -27.4880  -19.9471   19.0081 H   0  0  0  0  0  0
  -31.3457  -18.6330   20.8029 H   0  0  0  0  0  0
  -30.7593  -18.9042   19.2088 H   0  0  0  0  0  0
  -27.5868  -17.6505   19.8386 H   0  0  0  0  0  0
  -28.0393  -18.1179   21.4199 H   0  0  0  0  0  0
  -27.6380  -23.3368   21.3619 H   0  0  0  0  0  0
  -27.0983  -23.3407   19.7371 H   0  0  0  0  0  0
  1 25  1  0  0  0
  1 30  2  0  0  0
  1 77  1  0  0  0
  2  3  1  0  0  0
  2 25  1  0  0  0
  2 79  1  0  0  0
  2 80  1  0  0  0
  3  4  1  0  0  0
  3 81  1  0  0  0
  3 82  1  0  0  0
  4  5  1  0  0  0
  4 83  1  0  0  0
  4 84  1  0  0  0
  5  6  1  0  0  0
  5 26  1  0  0  0
  5 85  1  0  0  0
  6 25  1  0  0  0
  6 86  1  0  0  0
  6 87  1  0  0  0
  7  8  2  0  0  0
  7 26  1  0  0  0
  7 29  1  0  0  0
  8  9  1  0  0  0
  8 22  1  0  0  0
  9 10  1  0  0  0
  9 27  2  0  0  0
 10 11  2  0  0  0
 10 15  1  0  0  0
 11 12  1  0  0  0
 11 88  1  0  0  0
 12 13  2  0  0  0
 12 89  1  0  0  0
 13 14  1  0  0  0
 13 31  1  0  0  0
 14 15  2  0  0  0
 14 90  1  0  0  0
 15 91  1  0  0  0
 16 17  2  0  0  0
 16 21  1  0  0  0
 16 31  1  0  0  0
 17 18  1  0  0  0
 17 92  1  0  0  0
 18 19  2  0  0  0
 18 93  1  0  0  0
 19 20  1  0  0  0
 19 24  1  0  0  0
 20 21  2  0  0  0
 20 94  1  0  0  0
 21 23  1  0  0  0
 22 28  1  0  0  0
 22 32  2  0  0  0
 26 27  1  0  0  0
 28 95  1  0  0  0
 28 96  1  0  0  0
 29 97  1  0  0  0
 29 98  1  0  0  0
 33 34  1  0  0  0
 33 66  1  0  0  0
 33 70  2  0  0  0
 34 36  1  0  0  0
 34 59  1  0  0  0
 34 99  1  0  0  0
 35 44  2  0  0  0
 35 45  1  0  0  0
 35 68  1  0  0  0
 36 56  1  0  0  0
 36100  1  0  0  0
 37 39  1  0  0  0
 37 47  1  0  0  0
 37 66  1  0  0  0
 37101  1  0  0  0
 38 43  2  0  0  0
 38 46  1  0  0  0
 38 47  1  0  0  0
 39 64  1  0  0  0
 39 67  2  0  0  0
 40 52  1  0  0  0
 40 53  2  0  0  0
 40 58  1  0  0  0
 41102  1  0  0  0
 41103  1  0  0  0
 41104  1  0  0  0
 41 48  1  0  0  0
 42 43  1  0  0  0
 42 66  1  0  0  0
 42105  1  0  0  0
 42106  1  0  0  0
 43 44  1  0  0  0
 44107  1  0  0  0
 45 46  2  0  0  0
 45108  1  0  0  0
 46109  1  0  0  0
 47110  1  0  0  0
 47111  1  0  0  0
 48 56  1  0  0  0
 48 65  1  0  0  0
 48112  1  0  0  0
 49 50  1  0  0  0
 49 53  1  0  0  0
 49 64  1  0  0  0
 49113  1  0  0  0
 50 51  1  0  0  0
 50114  1  0  0  0
 50115  1  0  0  0
 51 52  1  0  0  0
 51116  1  0  0  0
 51117  1  0  0  0
 52118  1  0  0  0
 52119  1  0  0  0
 53 54  1  0  0  0
 54 55  2  0  0  0
 54120  1  0  0  0
 55 57  1  0  0  0
 55121  1  0  0  0
 56 69  2  0  0  0
 57 58  2  0  0  0
 57122  1  0  0  0
 58123  1  0  0  0
 59 60  1  0  0  0
 59 61  1  0  0  0
 59 62  1  0  0  0
 60124  1  0  0  0
 60125  1  0  0  0
 60126  1  0  0  0
 61127  1  0  0  0
 61128  1  0  0  0
 61129  1  0  0  0
 62130  1  0  0  0
 62131  1  0  0  0
 62132  1  0  0  0
 63 65  1  0  0  0
 63133  1  0  0  0
 63134  1  0  0  0
 63135  1  0  0  0
 64136  1  0  0  0
 65137  1  0  0  0
 68 76  1  0  0  0
 71 73  1  0  0  0
 71 75  1  0  0  0
 71138  1  0  0  0
 71139  1  0  0  0
 72 74  1  0  0  0
 72 75  1  0  0  0
 72140  1  0  0  0
 72141  1  0  0  0
 73 77  1  0  0  0
 73142  1  0  0  0
 73143  1  0  0  0
 74 77  1  0  0  0
 74144  1  0  0  0
 74145  1  0  0  0
 75 76  1  0  0  0
 75 78  1  0  0  0
 76146  1  0  0  0
 76147  1  0  0  0
M  ISO  4   1 100  68 101  76 101  77 100
M  END
> <chiral flag>
0

> <version>
0

> <s_m_source_file>
/data/baiqing/PycharmProjects/Reinvent-master-3.2/result/LINK_invent/BTK/process_docking_weight1_custom_sum_contain_oxygen_bond_distance_aromatic_linkinvent_7_9_3/rearranged_h_0033.sdf

> <i_m_source_file_index>
23

> <r_mmod_Potential_Energy-OPLS-2005>
3582.63232421875

> <r_mmod_Stretch_Energy-OPLS-2005>
1374.22375488281

> <r_mmod_Bend_Energy-OPLS-2005>
980.475646972656

> <r_mmod_Torsional_Energy-OPLS-2005>
326.853576660156

> <r_mmod_Improper_Torsional_Energy-OPLS-2005>
5.15878438949585

> <r_mmod_Van_der_Waal_Energy-OPLS-2005>
122.476455688477

> <r_mmod_Electrostatic_Energy-OPLS-2005>
-268.065521240234

> <r_mmod_Solvation_Energy-OPLS-2005>
-213.6064453125

> <b_mmod_Minimization_Converged-OPLS-2005>
0

> <r_mmod_RMS_Derivative-OPLS-2005>
2.81171846389771

$$$$
24
                    3D
 Structure written by MMmdl.
163171  0  0  1  0            999 V2000
  -30.6902  -14.4469   20.6368 C   0  0  0  0  0  0
  -30.4341  -12.3145   19.3973 C   0  0  0  0  0  0
  -29.4917  -12.5218   18.1941 C   0  0  0  0  0  0
  -28.0142  -12.3741   18.6094 C   0  0  0  0  0  0
  -27.6669  -13.1980   19.8764 C   0  0  2  0  0  0
  -28.7094  -12.9419   20.9856 C   0  0  0  0  0  0
  -25.2625  -13.8140   20.5684 C   0  0  0  0  0  0
  -24.1862  -13.0425   20.9163 C   0  0  0  0  0  0
  -24.6404  -11.6890   20.8721 C   0  0  0  0  0  0
  -23.9059  -10.4284   21.0393 C   0  0  0  0  0  0
  -24.3617   -9.4203   21.9168 C   0  0  0  0  0  0
  -23.6297   -8.2236   22.0749 C   0  0  0  0  0  0
  -22.4278   -8.0275   21.3536 C   0  0  0  0  0  0
  -21.9913   -9.0243   20.4630 C   0  0  0  0  0  0
  -22.7233  -10.2126   20.3045 C   0  0  0  0  0  0
  -21.6850   -6.0732   22.5281 C   0  0  0  0  0  0
  -21.4009   -6.5645   23.8212 C   0  0  0  0  0  0
  -21.3664   -5.6799   24.9173 C   0  0  0  0  0  0
  -21.6046   -4.3061   24.7228 C   0  0  0  0  0  0
  -21.8823   -3.8146   23.4352 C   0  0  0  0  0  0
  -21.9194   -4.6957   22.3401 C   0  0  0  0  0  0
  -22.7885  -13.5218   21.1836 C   0  0  0  0  0  0
  -22.1664   -4.2141   21.0984 F   0  0  0  0  0  0
  -21.5627   -3.4549   25.7745 F   0  0  0  0  0  0
  -30.0400  -13.2661   20.4448 N   0  0  0  0  0  0
  -26.3056  -12.9291   20.3371 N   0  0  0  0  0  0
  -25.9328  -11.6463   20.5744 N   0  0  0  0  0  0
  -22.0527  -12.8208   22.0396 N   0  0  0  0  0  0
  -25.4363  -15.1860   20.4111 N   0  0  0  0  0  0
  -31.7803  -14.6885   20.1045 O   0  0  0  0  0  0
  -21.6633   -6.8877   21.4242 O   0  0  0  0  0  0
  -22.3570  -14.5522   20.6680 O   0  0  0  0  0  0
  -24.6111  -31.8716   23.2112 C   0  0  0  0  0  0
  -25.9019  -32.4851   23.8395 C   0  0  1  0  0  0
  -27.2463  -27.4556   20.0979 C   0  0  0  0  0  0
  -25.5895  -33.8652   24.2329 N   0  0  0  0  0  0
  -23.4002  -30.4929   21.5512 C   0  0  2  0  0  0
  -24.8531  -28.9596   20.1200 C   0  0  0  0  0  0
  -22.7392  -29.4672   22.4991 C   0  0  0  0  0  0
  -18.0273  -28.1381   22.8496 C   0  0  0  0  0  0
  -24.1495  -36.7322   23.2632 C   0  0  0  0  0  0
  -25.9266  -30.8389   21.3677 C   0  0  0  0  0  0
  -26.0083  -29.4707   20.7258 C   0  0  0  0  0  0
  -27.2070  -28.7231   20.7266 C   0  0  0  0  0  0
  -26.0795  -26.9612   19.4823 C   0  0  0  0  0  0
  -24.8808  -27.6986   19.5003 C   0  0  0  0  0  0
  -23.6113  -29.8226   20.1669 C   0  0  0  0  0  0
  -25.4120  -36.3136   24.0337 C   0  0  1  0  0  0
  -20.5857  -28.3674   23.1322 C   0  0  2  0  0  0
  -20.6767  -26.9408   22.5432 C   0  0  0  0  0  0
  -19.5760  -26.6388   21.5214 C   0  0  0  0  0  0
  -18.1926  -26.7934   22.1606 C   0  0  0  0  0  0
  -19.1520  -28.8840   23.2910 C   0  0  0  0  0  0
  -18.9446  -30.1445   23.8922 C   0  0  0  0  0  0
  -17.6453  -30.6596   24.0567 C   0  0  0  0  0  0
  -25.9046  -34.9502   23.5130 C   0  0  0  0  0  0
  -16.5346  -29.9100   23.6326 C   0  0  0  0  0  0
  -16.7261  -28.6509   23.0358 C   0  0  0  0  0  0
  -26.4463  -31.6612   25.0708 C   0  0  0  0  0  0
  -25.3728  -31.3697   26.1442 C   0  0  0  0  0  0
  -27.0292  -30.3056   24.6068 C   0  0  0  0  0  0
  -27.6027  -32.4333   25.7498 C   0  0  0  0  0  0
  -27.5605  -37.1812   24.8457 C   0  0  0  0  0  0
  -21.4120  -29.3038   22.3719 N   0  0  0  0  0  0
  -26.4310  -37.3813   23.9408 N   0  0  0  0  0  0
  -24.6632  -31.0829   22.1015 N   0  0  0  0  0  0
  -23.4165  -28.8221   23.3039 O   0  0  0  0  0  0
  -28.3686  -26.6642   20.0080 O   0  0  0  0  0  0
  -26.5604  -34.8943   22.4689 O   0  0  0  0  0  0
  -23.5307  -32.1465   23.7509 O   0  0  0  0  0  0
  -30.5006  -17.9933   20.7330 C   0  0  0  0  0  0
  -31.2484  -19.1410   21.1847 C   0  0  0  0  0  0
  -30.6662  -16.8893   21.5469 C   0  0  0  0  0  0
  -31.9528  -18.8777   22.3368 C   0  0  0  0  0  0
  -29.6200  -17.9722   19.5148 C   0  0  0  0  0  0
  -32.8271  -19.8066   23.1172 C   0  0  0  0  0  0
  -31.3195  -20.4905   20.4957 C   0  0  0  0  0  0
  -29.9910  -15.5381   21.4848 C   0  0  0  0  0  0
  -30.3107  -21.5478   21.0074 C   0  0  0  0  0  0
  -30.7262  -22.9915   20.6323 C   0  0  0  0  0  0
  -29.7242  -24.0959   21.0448 C   0  0  0  0  0  0
  -30.3031  -25.5222   20.8759 C   0  0  0  0  0  0
  -29.2953  -26.6735   21.0860 C   0  0  0  0  0  0
  -31.7432  -17.2351   22.8675 S   0  0  0  0  0  0
  -31.4722  -12.4430   19.0861 H   0  0  0  0  0  0
  -30.3597  -11.2930   19.7741 H   0  0  0  0  0  0
  -29.7294  -11.8109   17.4025 H   0  0  0  0  0  0
  -29.6543  -13.5147   17.7709 H   0  0  0  0  0  0
  -27.8226  -11.3158   18.7910 H   0  0  0  0  0  0
  -27.3630  -12.6629   17.7831 H   0  0  0  0  0  0
  -27.7215  -14.2498   19.5988 H   0  0  0  0  0  0
  -28.6859  -11.8928   21.2849 H   0  0  0  0  0  0
  -28.4616  -13.4986   21.8884 H   0  0  0  0  0  0
  -25.2765   -9.5678   22.4743 H   0  0  0  0  0  0
  -23.9992   -7.4643   22.7488 H   0  0  0  0  0  0
  -21.0837   -8.8759   19.8945 H   0  0  0  0  0  0
  -22.3677  -10.9670   19.6157 H   0  0  0  0  0  0
  -21.2003   -7.6154   23.9706 H   0  0  0  0  0  0
  -21.1488   -6.0535   25.9079 H   0  0  0  0  0  0
  -22.0602   -2.7601   23.2859 H   0  0  0  0  0  0
  -22.4143  -11.9871   22.4791 H   0  0  0  0  0  0
  -21.1140  -13.1222   22.2591 H   0  0  0  0  0  0
  -24.6724  -15.8439   20.5214 H   0  0  0  0  0  0
  -26.2935  -15.6245   20.1001 H   0  0  0  0  0  0
  -26.7085  -32.5598   23.1161 H   0  0  0  0  0  0
  -25.0064  -33.9826   25.0487 H   0  0  0  0  0  0
  -22.6870  -31.3081   21.4098 H   0  0  0  0  0  0
  -23.3781  -35.9630   23.3286 H   0  0  0  0  0  0
  -24.3585  -36.8954   22.2047 H   0  0  0  0  0  0
  -23.7220  -37.6508   23.6662 H   0  0  0  0  0  0
  -26.0344  -31.5997   20.5934 H   0  0  0  0  0  0
  -26.8150  -30.8995   21.9838 H   0  0  0  0  0  0
  -28.0920  -29.1330   21.1907 H   0  0  0  0  0  0
  -26.1024  -25.9987   18.9912 H   0  0  0  0  0  0
  -23.9946  -27.2981   19.0274 H   0  0  0  0  0  0
  -23.7142  -30.5957   19.4045 H   0  0  0  0  0  0
  -22.7381  -29.2371   19.8747 H   0  0  0  0  0  0
  -25.1285  -36.2017   25.0831 H   0  0  0  0  0  0
  -20.9956  -28.3265   24.1438 H   0  0  0  0  0  0
  -20.5681  -26.2277   23.3616 H   0  0  0  0  0  0
  -21.6649  -26.7467   22.1231 H   0  0  0  0  0  0
  -19.6936  -25.6302   21.1244 H   0  0  0  0  0  0
  -19.6722  -27.3195   20.6746 H   0  0  0  0  0  0
  -17.4215  -26.6711   21.3984 H   0  0  0  0  0  0
  -18.0303  -26.0059   22.8977 H   0  0  0  0  0  0
  -19.7923  -30.7255   24.2310 H   0  0  0  0  0  0
  -17.5012  -31.6283   24.5163 H   0  0  0  0  0  0
  -15.5348  -30.3020   23.7627 H   0  0  0  0  0  0
  -15.8656  -28.0836   22.7073 H   0  0  0  0  0  0
  -24.5935  -30.7010   25.7768 H   0  0  0  0  0  0
  -24.8877  -32.2846   26.4858 H   0  0  0  0  0  0
  -25.8082  -30.8896   27.0213 H   0  0  0  0  0  0
  -26.2832  -29.6848   24.1096 H   0  0  0  0  0  0
  -27.4025  -29.7262   25.4519 H   0  0  0  0  0  0
  -27.8685  -30.4361   23.9234 H   0  0  0  0  0  0
  -27.2615  -33.3598   26.2136 H   0  0  0  0  0  0
  -28.3823  -32.6962   25.0334 H   0  0  0  0  0  0
  -28.0719  -31.8429   26.5378 H   0  0  0  0  0  0
  -28.2599  -38.0131   24.7569 H   0  0  0  0  0  0
  -28.1123  -36.2674   24.6218 H   0  0  0  0  0  0
  -27.2325  -37.1399   25.8854 H   0  0  0  0  0  0
  -20.9270  -29.8747   21.6932 H   0  0  0  0  0  0
  -26.0215  -38.2891   24.1439 H   0  0  0  0  0  0
  -29.4721  -18.9626   19.0864 H   0  0  0  0  0  0
  -28.6278  -17.5850   19.7473 H   0  0  0  0  0  0
  -30.0455  -17.3415   18.7332 H   0  0  0  0  0  0
  -32.2744  -20.6920   23.4322 H   0  0  0  0  0  0
  -33.6802  -20.1353   22.5241 H   0  0  0  0  0  0
  -33.2159  -19.3233   24.0143 H   0  0  0  0  0  0
  -31.2115  -20.3798   19.4171 H   0  0  0  0  0  0
  -32.3266  -20.8900   20.6176 H   0  0  0  0  0  0
  -28.9751  -15.6732   21.1139 H   0  0  0  0  0  0
  -29.8892  -15.1530   22.4994 H   0  0  0  0  0  0
  -30.2405  -21.4859   22.0940 H   0  0  0  0  0  0
  -29.3155  -21.3201   20.6242 H   0  0  0  0  0  0
  -30.8870  -23.0516   19.5545 H   0  0  0  0  0  0
  -31.6933  -23.2006   21.0924 H   0  0  0  0  0  0
  -29.4245  -23.9564   22.0847 H   0  0  0  0  0  0
  -28.8164  -23.9929   20.4494 H   0  0  0  0  0  0
  -30.7467  -25.6243   19.8844 H   0  0  0  0  0  0
  -31.1235  -25.6485   21.5841 H   0  0  0  0  0  0
  -29.8299  -27.6242   21.0989 H   0  0  0  0  0  0
  -28.7840  -26.5673   22.0449 H   0  0  0  0  0  0
  1 25  1  0  0  0
  1 30  2  0  0  0
  1 78  1  0  0  0
  2  3  1  0  0  0
  2 25  1  0  0  0
  2 85  1  0  0  0
  2 86  1  0  0  0
  3  4  1  0  0  0
  3 87  1  0  0  0
  3 88  1  0  0  0
  4  5  1  0  0  0
  4 89  1  0  0  0
  4 90  1  0  0  0
  5  6  1  0  0  0
  5 26  1  0  0  0
  5 91  1  0  0  0
  6 25  1  0  0  0
  6 92  1  0  0  0
  6 93  1  0  0  0
  7  8  2  0  0  0
  7 26  1  0  0  0
  7 29  1  0  0  0
  8  9  1  0  0  0
  8 22  1  0  0  0
  9 10  1  0  0  0
  9 27  2  0  0  0
 10 11  2  0  0  0
 10 15  1  0  0  0
 11 12  1  0  0  0
 11 94  1  0  0  0
 12 13  2  0  0  0
 12 95  1  0  0  0
 13 14  1  0  0  0
 13 31  1  0  0  0
 14 15  2  0  0  0
 14 96  1  0  0  0
 15 97  1  0  0  0
 16 17  2  0  0  0
 16 21  1  0  0  0
 16 31  1  0  0  0
 17 18  1  0  0  0
 17 98  1  0  0  0
 18 19  2  0  0  0
 18 99  1  0  0  0
 19 20  1  0  0  0
 19 24  1  0  0  0
 20 21  2  0  0  0
 20100  1  0  0  0
 21 23  1  0  0  0
 22 28  1  0  0  0
 22 32  2  0  0  0
 26 27  1  0  0  0
 28101  1  0  0  0
 28102  1  0  0  0
 29103  1  0  0  0
 29104  1  0  0  0
 33 34  1  0  0  0
 33 66  1  0  0  0
 33 70  2  0  0  0
 34 36  1  0  0  0
 34 59  1  0  0  0
 34105  1  0  0  0
 35 44  2  0  0  0
 35 45  1  0  0  0
 35 68  1  0  0  0
 36 56  1  0  0  0
 36106  1  0  0  0
 37 39  1  0  0  0
 37 47  1  0  0  0
 37 66  1  0  0  0
 37107  1  0  0  0
 38 43  2  0  0  0
 38 46  1  0  0  0
 38 47  1  0  0  0
 39 64  1  0  0  0
 39 67  2  0  0  0
 40 52  1  0  0  0
 40 53  2  0  0  0
 40 58  1  0  0  0
 41108  1  0  0  0
 41109  1  0  0  0
 41110  1  0  0  0
 41 48  1  0  0  0
 42 43  1  0  0  0
 42 66  1  0  0  0
 42111  1  0  0  0
 42112  1  0  0  0
 43 44  1  0  0  0
 44113  1  0  0  0
 45 46  2  0  0  0
 45114  1  0  0  0
 46115  1  0  0  0
 47116  1  0  0  0
 47117  1  0  0  0
 48 56  1  0  0  0
 48 65  1  0  0  0
 48118  1  0  0  0
 49 50  1  0  0  0
 49 53  1  0  0  0
 49 64  1  0  0  0
 49119  1  0  0  0
 50 51  1  0  0  0
 50120  1  0  0  0
 50121  1  0  0  0
 51 52  1  0  0  0
 51122  1  0  0  0
 51123  1  0  0  0
 52124  1  0  0  0
 52125  1  0  0  0
 53 54  1  0  0  0
 54 55  2  0  0  0
 54126  1  0  0  0
 55 57  1  0  0  0
 55127  1  0  0  0
 56 69  2  0  0  0
 57 58  2  0  0  0
 57128  1  0  0  0
 58129  1  0  0  0
 59 60  1  0  0  0
 59 61  1  0  0  0
 59 62  1  0  0  0
 60130  1  0  0  0
 60131  1  0  0  0
 60132  1  0  0  0
 61133  1  0  0  0
 61134  1  0  0  0
 61135  1  0  0  0
 62136  1  0  0  0
 62137  1  0  0  0
 62138  1  0  0  0
 63 65  1  0  0  0
 63139  1  0  0  0
 63140  1  0  0  0
 63141  1  0  0  0
 64142  1  0  0  0
 65143  1  0  0  0
 68 83  1  0  0  0
 71 72  1  0  0  0
 71 73  2  0  0  0
 71 75  1  0  0  0
 72 74  2  0  0  0
 72 77  1  0  0  0
 73 78  1  0  0  0
 73 84  1  0  0  0
 74 76  1  0  0  0
 74 84  1  0  0  0
 75144  1  0  0  0
 75145  1  0  0  0
 75146  1  0  0  0
 76147  1  0  0  0
 76148  1  0  0  0
 76149  1  0  0  0
 77 79  1  0  0  0
 77150  1  0  0  0
 77151  1  0  0  0
 78152  1  0  0  0
 78153  1  0  0  0
 79 80  1  0  0  0
 79154  1  0  0  0
 79155  1  0  0  0
 80 81  1  0  0  0
 80156  1  0  0  0
 80157  1  0  0  0
 81 82  1  0  0  0
 81158  1  0  0  0
 81159  1  0  0  0
 82 83  1  0  0  0
 82160  1  0  0  0
 82161  1  0  0  0
 83162  1  0  0  0
 83163  1  0  0  0
M  ISO  4   1 100  68 101  78 100  83 101
M  END
> <chiral flag>
0

> <version>
0

> <s_m_source_file>
/data/baiqing/PycharmProjects/Reinvent-master-3.2/result/LINK_invent/BTK/process_docking_weight1_custom_sum_contain_oxygen_bond_distance_aromatic_linkinvent_7_9_3/rearranged_h_0033.sdf

> <i_m_source_file_index>
24

> <r_mmod_Potential_Energy-OPLS-2005>
-61.2234306335449

> <r_mmod_Stretch_Energy-OPLS-2005>
34.3381996154785

> <r_mmod_Bend_Energy-OPLS-2005>
102.347373962402

> <r_mmod_Torsional_Energy-OPLS-2005>
175.061050415039

> <r_mmod_Improper_Torsional_Energy-OPLS-2005>
2.32594871520996

> <r_mmod_Van_der_Waal_Energy-OPLS-2005>
118.364456176758

> <r_mmod_Electrostatic_Energy-OPLS-2005>
-308.920532226562

> <r_mmod_Solvation_Energy-OPLS-2005>
-193.972595214844

> <b_mmod_Minimization_Converged-OPLS-2005>
0

> <r_mmod_RMS_Derivative-OPLS-2005>
1.52121269702911

$$$$
25
                    3D
 Structure written by MMmdl.
159167  0  0  1  0            999 V2000
  -30.6687  -14.5198   20.5254 C   0  0  0  0  0  0
  -30.4187  -12.3269   19.4318 C   0  0  0  0  0  0
  -29.4916  -12.5086   18.2123 C   0  0  0  0  0  0
  -28.0133  -12.3628   18.6214 C   0  0  0  0  0  0
  -27.6540  -13.2106   19.8713 C   0  0  2  0  0  0
  -28.6968  -13.0234   20.9952 C   0  0  0  0  0  0
  -25.2531  -13.8176   20.5616 C   0  0  0  0  0  0
  -24.1800  -13.0454   20.9178 C   0  0  0  0  0  0
  -24.6386  -11.6923   20.8766 C   0  0  0  0  0  0
  -23.9065  -10.4303   21.0417 C   0  0  0  0  0  0
  -24.3615   -9.4217   21.9199 C   0  0  0  0  0  0
  -23.6298   -8.2241   22.0758 C   0  0  0  0  0  0
  -22.4287   -8.0283   21.3531 C   0  0  0  0  0  0
  -21.9913   -9.0262   20.4641 C   0  0  0  0  0  0
  -22.7241  -10.2149   20.3062 C   0  0  0  0  0  0
  -21.6848   -6.0744   22.5290 C   0  0  0  0  0  0
  -21.4014   -6.5647   23.8218 C   0  0  0  0  0  0
  -21.3675   -5.6796   24.9177 C   0  0  0  0  0  0
  -21.6029   -4.3054   24.7221 C   0  0  0  0  0  0
  -21.8822   -3.8160   23.4339 C   0  0  0  0  0  0
  -21.9184   -4.6976   22.3404 C   0  0  0  0  0  0
  -22.7821  -13.5245   21.1856 C   0  0  0  0  0  0
  -22.1657   -4.2165   21.0977 F   0  0  0  0  0  0
  -21.5631   -3.4546   25.7735 F   0  0  0  0  0  0
  -30.0185  -13.3288   20.4325 N   0  0  0  0  0  0
  -26.2989  -12.9349   20.3365 N   0  0  0  0  0  0
  -25.9309  -11.6515   20.5801 N   0  0  0  0  0  0
  -22.0469  -12.8248   22.0424 N   0  0  0  0  0  0
  -25.4182  -15.1880   20.3854 N   0  0  0  0  0  0
  -31.8246  -14.6759   20.1264 O   0  0  0  0  0  0
  -21.6640   -6.8897   21.4250 O   0  0  0  0  0  0
  -22.3503  -14.5537   20.6695 O   0  0  0  0  0  0
  -24.6138  -31.8660   23.2086 C   0  0  0  0  0  0
  -25.9029  -32.4841   23.8380 C   0  0  1  0  0  0
  -27.2514  -27.4328   20.0857 C   0  0  0  0  0  0
  -25.5895  -33.8637   24.2327 N   0  0  0  0  0  0
  -23.4006  -30.4902   21.5495 C   0  0  2  0  0  0
  -24.8511  -28.9512   20.1164 C   0  0  0  0  0  0
  -22.7366  -29.4693   22.4994 C   0  0  0  0  0  0
  -18.0268  -28.1296   22.8477 C   0  0  0  0  0  0
  -24.1500  -36.7321   23.2651 C   0  0  0  0  0  0
  -25.9314  -30.8304   21.3613 C   0  0  0  0  0  0
  -26.0098  -29.4621   20.7137 C   0  0  0  0  0  0
  -27.2065  -28.7074   20.6994 C   0  0  0  0  0  0
  -26.0695  -26.9409   19.4797 C   0  0  0  0  0  0
  -24.8772  -27.6882   19.4999 C   0  0  0  0  0  0
  -23.6098  -29.8155   20.1672 C   0  0  0  0  0  0
  -25.4114  -36.3120   24.0354 C   0  0  1  0  0  0
  -20.5848  -28.3612   23.1282 C   0  0  2  0  0  0
  -20.6794  -26.9369   22.5337 C   0  0  0  0  0  0
  -19.5761  -26.6340   21.5165 C   0  0  0  0  0  0
  -18.1926  -26.7872   22.1610 C   0  0  0  0  0  0
  -19.1510  -28.8773   23.2863 C   0  0  0  0  0  0
  -18.9402  -30.1402   23.8826 C   0  0  0  0  0  0
  -17.6373  -30.6515   24.0476 C   0  0  0  0  0  0
  -25.9014  -34.9497   23.5135 C   0  0  0  0  0  0
  -16.5284  -29.8950   23.6281 C   0  0  0  0  0  0
  -16.7248  -28.6375   23.0319 C   0  0  0  0  0  0
  -26.4460  -31.6604   25.0705 C   0  0  0  0  0  0
  -25.3758  -31.3658   26.1468 C   0  0  0  0  0  0
  -27.0290  -30.3070   24.6059 C   0  0  0  0  0  0
  -27.6035  -32.4319   25.7478 C   0  0  0  0  0  0
  -27.5577  -37.1834   24.8467 C   0  0  0  0  0  0
  -21.4090  -29.2996   22.3701 N   0  0  0  0  0  0
  -26.4278  -37.3803   23.9414 N   0  0  0  0  0  0
  -24.6679  -31.0738   22.1001 N   0  0  0  0  0  0
  -23.4127  -28.8255   23.3060 O   0  0  0  0  0  0
  -28.4436  -26.7294   20.1020 O   0  0  0  0  0  0
  -26.5582  -34.8936   22.4694 O   0  0  0  0  0  0
  -23.5351  -32.1393   23.7534 O   0  0  0  0  0  0
  -27.8545  -20.4472   21.7940 C   0  0  0  0  0  0
  -29.6120  -19.3907   20.5027 C   0  0  0  0  0  0
  -28.8623  -20.5571   20.8176 C   0  0  0  0  0  0
  -27.5864  -19.2215   22.4363 C   0  0  0  0  0  0
  -29.3958  -18.1458   21.1614 C   0  0  0  0  0  0
  -28.3616  -18.0701   22.1361 C   0  0  0  0  0  0
  -26.4793  -19.2113   23.4827 C   0  0  0  0  0  0
  -29.1880  -21.9332   20.1999 C   0  0  0  0  0  0
  -30.3872  -16.9865   20.8771 C   0  0  0  0  0  0
  -27.9677  -22.8501   19.8540 C   0  0  0  0  0  0
  -27.9548  -24.2924   20.4507 C   0  0  0  0  0  0
  -28.5410  -25.4047   19.5423 C   0  0  0  0  0  0
  -29.9184  -15.5824   20.8929 N   0  0  0  0  0  0
  -28.0764  -16.6075   23.0226 Cl  0  0  0  0  0  0
  -31.4630  -12.4309   19.1297 H   0  0  0  0  0  0
  -30.3259  -11.3220   19.8457 H   0  0  0  0  0  0
  -29.7403  -11.7882   17.4328 H   0  0  0  0  0  0
  -29.6491  -13.4982   17.7771 H   0  0  0  0  0  0
  -27.8237  -11.3067   18.8194 H   0  0  0  0  0  0
  -27.3634  -12.6334   17.7873 H   0  0  0  0  0  0
  -27.6871  -14.2549   19.5599 H   0  0  0  0  0  0
  -28.6812  -11.9983   21.3629 H   0  0  0  0  0  0
  -28.4622  -13.6520   21.8569 H   0  0  0  0  0  0
  -25.2760   -9.5697   22.4769 H   0  0  0  0  0  0
  -24.0015   -7.4630   22.7467 H   0  0  0  0  0  0
  -21.0843   -8.8779   19.8935 H   0  0  0  0  0  0
  -22.3700  -10.9686   19.6165 H   0  0  0  0  0  0
  -21.2011   -7.6160   23.9735 H   0  0  0  0  0  0
  -21.1493   -6.0521   25.9081 H   0  0  0  0  0  0
  -22.0582   -2.7627   23.2830 H   0  0  0  0  0  0
  -22.4067  -11.9925   22.4859 H   0  0  0  0  0  0
  -21.1096  -13.1271   22.2640 H   0  0  0  0  0  0
  -24.6323  -15.8269   20.4318 H   0  0  0  0  0  0
  -26.2639  -15.6292   20.0493 H   0  0  0  0  0  0
  -26.7102  -32.5559   23.1123 H   0  0  0  0  0  0
  -25.0088  -33.9770   25.0514 H   0  0  0  0  0  0
  -22.6931  -31.3093   21.4063 H   0  0  0  0  0  0
  -23.3742  -35.9667   23.3337 H   0  0  0  0  0  0
  -24.3567  -36.8903   22.2051 H   0  0  0  0  0  0
  -23.7253  -37.6552   23.6627 H   0  0  0  0  0  0
  -26.0415  -31.5926   20.5895 H   0  0  0  0  0  0
  -26.8219  -30.8938   21.9755 H   0  0  0  0  0  0
  -28.0968  -29.1056   21.1678 H   0  0  0  0  0  0
  -26.0480  -25.9811   18.9860 H   0  0  0  0  0  0
  -23.9882  -27.2905   19.0305 H   0  0  0  0  0  0
  -23.7066  -30.5828   19.4003 H   0  0  0  0  0  0
  -22.7382  -29.2284   19.8765 H   0  0  0  0  0  0
  -25.1298  -36.1995   25.0845 H   0  0  0  0  0  0
  -20.9932  -28.3154   24.1399 H   0  0  0  0  0  0
  -20.5768  -26.2222   23.3491 H   0  0  0  0  0  0
  -21.6657  -26.7474   22.1084 H   0  0  0  0  0  0
  -19.6969  -25.6254   21.1094 H   0  0  0  0  0  0
  -19.6606  -27.3205   20.6710 H   0  0  0  0  0  0
  -17.4131  -26.6640   21.4094 H   0  0  0  0  0  0
  -18.0361  -26.0015   22.9009 H   0  0  0  0  0  0
  -19.7855  -30.7238   24.2221 H   0  0  0  0  0  0
  -17.4856  -31.6189   24.5063 H   0  0  0  0  0  0
  -15.5240  -30.2774   23.7622 H   0  0  0  0  0  0
  -15.8666  -28.0613   22.7083 H   0  0  0  0  0  0
  -24.5914  -30.7020   25.7799 H   0  0  0  0  0  0
  -24.8956  -32.2790   26.5008 H   0  0  0  0  0  0
  -25.8149  -30.8757   27.0172 H   0  0  0  0  0  0
  -26.2821  -29.6829   24.1148 H   0  0  0  0  0  0
  -27.4115  -29.7306   25.4484 H   0  0  0  0  0  0
  -27.8620  -30.4404   23.9154 H   0  0  0  0  0  0
  -27.2646  -33.3599   26.2097 H   0  0  0  0  0  0
  -28.3835  -32.6918   25.0304 H   0  0  0  0  0  0
  -28.0721  -31.8419   26.5373 H   0  0  0  0  0  0
  -28.2648  -38.0096   24.7509 H   0  0  0  0  0  0
  -28.1041  -36.2637   24.6318 H   0  0  0  0  0  0
  -27.2295  -37.1519   25.8873 H   0  0  0  0  0  0
  -20.9250  -29.8521   21.6754 H   0  0  0  0  0  0
  -26.0197  -38.2898   24.1371 H   0  0  0  0  0  0
  -27.2880  -21.3226   22.0797 H   0  0  0  0  0  0
  -30.4077  -19.4637   19.7760 H   0  0  0  0  0  0
  -25.6181  -19.7809   23.1293 H   0  0  0  0  0  0
  -26.8361  -19.6877   24.3951 H   0  0  0  0  0  0
  -26.1236  -18.2152   23.7371 H   0  0  0  0  0  0
  -29.7748  -21.7788   19.2946 H   0  0  0  0  0  0
  -29.8557  -22.4516   20.8889 H   0  0  0  0  0  0
  -31.1858  -17.0661   21.6156 H   0  0  0  0  0  0
  -30.8611  -17.1731   19.9101 H   0  0  0  0  0  0
  -27.0453  -22.3655   20.1718 H   0  0  0  0  0  0
  -27.8599  -22.9140   18.7696 H   0  0  0  0  0  0
  -28.4427  -24.3079   21.4267 H   0  0  0  0  0  0
  -26.9149  -24.5512   20.6520 H   0  0  0  0  0  0
  -28.1133  -25.3774   18.5399 H   0  0  0  0  0  0
  -29.6042  -25.2068   19.3969 H   0  0  0  0  0  0
  -28.9692  -15.4129   21.1958 H   0  0  0  0  0  0
  1 25  1  0  0  0
  1 30  2  0  0  0
  1 83  1  0  0  0
  2  3  1  0  0  0
  2 25  1  0  0  0
  2 85  1  0  0  0
  2 86  1  0  0  0
  3  4  1  0  0  0
  3 87  1  0  0  0
  3 88  1  0  0  0
  4  5  1  0  0  0
  4 89  1  0  0  0
  4 90  1  0  0  0
  5  6  1  0  0  0
  5 26  1  0  0  0
  5 91  1  0  0  0
  6 25  1  0  0  0
  6 92  1  0  0  0
  6 93  1  0  0  0
  7  8  2  0  0  0
  7 26  1  0  0  0
  7 29  1  0  0  0
  8  9  1  0  0  0
  8 22  1  0  0  0
  9 10  1  0  0  0
  9 27  2  0  0  0
 10 11  2  0  0  0
 10 15  1  0  0  0
 11 12  1  0  0  0
 11 94  1  0  0  0
 12 13  2  0  0  0
 12 95  1  0  0  0
 13 14  1  0  0  0
 13 31  1  0  0  0
 14 15  2  0  0  0
 14 96  1  0  0  0
 15 97  1  0  0  0
 16 17  2  0  0  0
 16 21  1  0  0  0
 16 31  1  0  0  0
 17 18  1  0  0  0
 17 98  1  0  0  0
 18 19  2  0  0  0
 18 99  1  0  0  0
 19 20  1  0  0  0
 19 24  1  0  0  0
 20 21  2  0  0  0
 20100  1  0  0  0
 21 23  1  0  0  0
 22 28  1  0  0  0
 22 32  2  0  0  0
 26 27  1  0  0  0
 28101  1  0  0  0
 28102  1  0  0  0
 29103  1  0  0  0
 29104  1  0  0  0
 33 34  1  0  0  0
 33 66  1  0  0  0
 33 70  2  0  0  0
 34 36  1  0  0  0
 34 59  1  0  0  0
 34105  1  0  0  0
 35 44  2  0  0  0
 35 45  1  0  0  0
 35 68  1  0  0  0
 36 56  1  0  0  0
 36106  1  0  0  0
 37 39  1  0  0  0
 37 47  1  0  0  0
 37 66  1  0  0  0
 37107  1  0  0  0
 38 43  2  0  0  0
 38 46  1  0  0  0
 38 47  1  0  0  0
 39 64  1  0  0  0
 39 67  2  0  0  0
 40 52  1  0  0  0
 40 53  2  0  0  0
 40 58  1  0  0  0
 41108  1  0  0  0
 41109  1  0  0  0
 41110  1  0  0  0
 41 48  1  0  0  0
 42 43  1  0  0  0
 42 66  1  0  0  0
 42111  1  0  0  0
 42112  1  0  0  0
 43 44  1  0  0  0
 44113  1  0  0  0
 45 46  2  0  0  0
 45114  1  0  0  0
 46115  1  0  0  0
 47116  1  0  0  0
 47117  1  0  0  0
 48 56  1  0  0  0
 48 65  1  0  0  0
 48118  1  0  0  0
 49 50  1  0  0  0
 49 53  1  0  0  0
 49 64  1  0  0  0
 49119  1  0  0  0
 50 51  1  0  0  0
 50120  1  0  0  0
 50121  1  0  0  0
 51 52  1  0  0  0
 51122  1  0  0  0
 51123  1  0  0  0
 52124  1  0  0  0
 52125  1  0  0  0
 53 54  1  0  0  0
 54 55  2  0  0  0
 54126  1  0  0  0
 55 57  1  0  0  0
 55127  1  0  0  0
 56 69  2  0  0  0
 57 58  2  0  0  0
 57128  1  0  0  0
 58129  1  0  0  0
 59 60  1  0  0  0
 59 61  1  0  0  0
 59 62  1  0  0  0
 60130  1  0  0  0
 60131  1  0  0  0
 60132  1  0  0  0
 61133  1  0  0  0
 61134  1  0  0  0
 61135  1  0  0  0
 62136  1  0  0  0
 62137  1  0  0  0
 62138  1  0  0  0
 63 65  1  0  0  0
 63139  1  0  0  0
 63140  1  0  0  0
 63141  1  0  0  0
 64142  1  0  0  0
 65143  1  0  0  0
 68 82  1  0  0  0
 71 73  2  0  0  0
 71 74  1  0  0  0
 71144  1  0  0  0
 72 73  1  0  0  0
 72 75  2  0  0  0
 72145  1  0  0  0
 73 78  1  0  0  0
 74 76  2  0  0  0
 74 77  1  0  0  0
 75 76  1  0  0  0
 75 79  1  0  0  0
 76 84  1  0  0  0
 77146  1  0  0  0
 77147  1  0  0  0
 77148  1  0  0  0
 78 80  1  0  0  0
 78149  1  0  0  0
 78150  1  0  0  0
 79 83  1  0  0  0
 79151  1  0  0  0
 79152  1  0  0  0
 80 81  1  0  0  0
 80153  1  0  0  0
 80154  1  0  0  0
 81 82  1  0  0  0
 81155  1  0  0  0
 81156  1  0  0  0
 82157  1  0  0  0
 82158  1  0  0  0
 83159  1  0  0  0
M  ISO  4   1 100  68 101  82 101  83 100
M  END
> <chiral flag>
0

> <version>
0

> <s_m_source_file>
/data/baiqing/PycharmProjects/Reinvent-master-3.2/result/LINK_invent/BTK/process_docking_weight1_custom_sum_contain_oxygen_bond_distance_aromatic_linkinvent_7_9_3/rearranged_h_0033.sdf

> <i_m_source_file_index>
25

> <r_mmod_Potential_Energy-OPLS-2005>
-47.2136840820312

> <r_mmod_Stretch_Energy-OPLS-2005>
44.7829360961914

> <r_mmod_Bend_Energy-OPLS-2005>
113.246932983398

> <r_mmod_Torsional_Energy-OPLS-2005>
208.850601196289

> <r_mmod_Improper_Torsional_Energy-OPLS-2005>
5.29544305801392

> <r_mmod_Van_der_Waal_Energy-OPLS-2005>
154.658615112305

> <r_mmod_Electrostatic_Energy-OPLS-2005>
-400.526977539062

> <r_mmod_Solvation_Energy-OPLS-2005>
-190.942459106445

> <b_mmod_Minimization_Converged-OPLS-2005>
0

> <r_mmod_RMS_Derivative-OPLS-2005>
5.76378202438354

$$$$
26
                    3D
 Structure written by MMmdl.
174182  0  0  1  0            999 V2000
  -30.7188  -14.3885   20.6061 C   0  0  0  0  0  0
  -30.4283  -12.2580   19.4136 C   0  0  0  0  0  0
  -29.4992  -12.4892   18.2056 C   0  0  0  0  0  0
  -28.0188  -12.3642   18.6165 C   0  0  0  0  0  0
  -27.6751  -13.1913   19.8843 C   0  0  2  0  0  0
  -28.7115  -12.9208   20.9998 C   0  0  0  0  0  0
  -25.2687  -13.8147   20.5671 C   0  0  0  0  0  0
  -24.1896  -13.0459   20.9159 C   0  0  0  0  0  0
  -24.6410  -11.6909   20.8727 C   0  0  0  0  0  0
  -23.9056  -10.4314   21.0396 C   0  0  0  0  0  0
  -24.3616   -9.4233   21.9178 C   0  0  0  0  0  0
  -23.6299   -8.2263   22.0746 C   0  0  0  0  0  0
  -22.4285   -8.0290   21.3533 C   0  0  0  0  0  0
  -21.9911   -9.0265   20.4638 C   0  0  0  0  0  0
  -22.7227  -10.2152   20.3047 C   0  0  0  0  0  0
  -21.6855   -6.0745   22.5284 C   0  0  0  0  0  0
  -21.4007   -6.5642   23.8215 C   0  0  0  0  0  0
  -21.3656   -5.6790   24.9177 C   0  0  0  0  0  0
  -21.6054   -4.3056   24.7225 C   0  0  0  0  0  0
  -21.8828   -3.8150   23.4341 C   0  0  0  0  0  0
  -21.9202   -4.6975   22.3398 C   0  0  0  0  0  0
  -22.7926  -13.5283   21.1820 C   0  0  0  0  0  0
  -22.1671   -4.2162   21.0976 F   0  0  0  0  0  0
  -21.5627   -3.4529   25.7729 F   0  0  0  0  0  0
  -30.0549  -13.2138   20.4665 N   0  0  0  0  0  0
  -26.3100  -12.9276   20.3388 N   0  0  0  0  0  0
  -25.9336  -11.6461   20.5776 N   0  0  0  0  0  0
  -22.0535  -12.8289   22.0365 N   0  0  0  0  0  0
  -25.4507  -15.1855   20.4075 N   0  0  0  0  0  0
  -31.7781  -14.6369   20.0230 O   0  0  0  0  0  0
  -21.6643   -6.8890   21.4241 O   0  0  0  0  0  0
  -22.3620  -14.5596   20.6662 O   0  0  0  0  0  0
  -24.6062  -31.8676   23.2125 C   0  0  0  0  0  0
  -25.8971  -32.4840   23.8397 C   0  0  1  0  0  0
  -27.2571  -27.4870   20.1022 C   0  0  0  0  0  0
  -25.5832  -33.8632   24.2340 N   0  0  0  0  0  0
  -23.3929  -30.4855   21.5500 C   0  0  2  0  0  0
  -24.8519  -28.9603   20.1081 C   0  0  0  0  0  0
  -22.7378  -29.4620   22.5026 C   0  0  0  0  0  0
  -18.0249  -28.1357   22.8486 C   0  0  0  0  0  0
  -24.1476  -36.7310   23.2641 C   0  0  0  0  0  0
  -25.9108  -30.8587   21.3504 C   0  0  0  0  0  0
  -26.0013  -29.4921   20.7085 C   0  0  0  0  0  0
  -27.2050  -28.7596   20.7101 C   0  0  0  0  0  0
  -26.1034  -26.9695   19.4779 C   0  0  0  0  0  0
  -24.8974  -27.6991   19.4859 C   0  0  0  0  0  0
  -23.6002  -29.8076   20.1657 C   0  0  0  0  0  0
  -25.4094  -36.3120   24.0347 C   0  0  1  0  0  0
  -20.5835  -28.3615   23.1359 C   0  0  2  0  0  0
  -20.6714  -26.9352   22.5435 C   0  0  0  0  0  0
  -19.5712  -26.6363   21.5205 C   0  0  0  0  0  0
  -18.1891  -26.7902   22.1616 C   0  0  0  0  0  0
  -19.1498  -28.8800   23.2916 C   0  0  0  0  0  0
  -18.9441  -30.1418   23.8905 C   0  0  0  0  0  0
  -17.6440  -30.6567   24.0550 C   0  0  0  0  0  0
  -25.9007  -34.9479   23.5149 C   0  0  0  0  0  0
  -16.5328  -29.9065   23.6314 C   0  0  0  0  0  0
  -16.7235  -28.6486   23.0324 C   0  0  0  0  0  0
  -26.4467  -31.6603   25.0682 C   0  0  0  0  0  0
  -25.3806  -31.3655   26.1485 C   0  0  0  0  0  0
  -27.0357  -30.3088   24.5997 C   0  0  0  0  0  0
  -27.6040  -32.4338   25.7439 C   0  0  0  0  0  0
  -27.5588  -37.1782   24.8460 C   0  0  0  0  0  0
  -21.4102  -29.3000   22.3795 N   0  0  0  0  0  0
  -26.4294  -37.3784   23.9414 N   0  0  0  0  0  0
  -24.6546  -31.0822   22.0988 N   0  0  0  0  0  0
  -23.4195  -28.8175   23.3033 O   0  0  0  0  0  0
  -28.3980  -26.7243   20.1373 O   0  0  0  0  0  0
  -26.5575  -34.8924   22.4721 O   0  0  0  0  0  0
  -23.5277  -32.1378   23.7590 O   0  0  0  0  0  0
  -31.6446  -26.2224   20.0576 C   0  0  0  0  0  0
  -32.7805  -25.5151   19.6237 C   0  0  0  0  0  0
  -32.2187  -25.6908   22.3595 C   0  0  0  0  0  0
  -31.3502  -26.3020   21.4310 C   0  0  0  0  0  0
  -33.6387  -24.8706   20.5436 C   0  0  0  0  0  0
  -33.3633  -24.9785   21.9344 C   0  0  0  0  0  0
  -34.2382  -24.3439   23.0080 C   0  0  0  0  0  0
  -30.1049  -27.0272   21.9201 C   0  0  0  0  0  0
  -34.8080  -24.0684   19.9679 C   0  0  0  0  0  0
  -31.4837  -18.8466   20.6856 C   0  0  0  0  0  0
  -32.8136  -19.5845   20.9115 C   0  0  0  0  0  0
  -31.4322  -17.4576   21.3446 C   0  0  0  0  0  0
  -32.9870  -20.7742   19.9498 C   0  0  0  0  0  0
  -30.0909  -16.7549   21.0486 C   0  0  0  0  0  0
  -34.1808  -21.6749   20.3146 C   0  0  0  0  0  0
  -28.7911  -26.3607   21.4675 C   0  0  0  0  0  0
  -30.0656  -15.3171   21.3159 N   0  0  0  0  0  0
  -34.3323  -22.8027   19.3711 N   0  3  0  0  0  0
  -31.4723  -12.3548   19.1089 H   0  0  0  0  0  0
  -30.3238  -11.2380   19.7853 H   0  0  0  0  0  0
  -29.7263  -11.7678   17.4196 H   0  0  0  0  0  0
  -29.6858  -13.4768   17.7824 H   0  0  0  0  0  0
  -27.8196  -11.3081   18.8021 H   0  0  0  0  0  0
  -27.3714  -12.6513   17.7869 H   0  0  0  0  0  0
  -27.7403  -14.2449   19.6116 H   0  0  0  0  0  0
  -28.6724  -11.8734   21.2992 H   0  0  0  0  0  0
  -28.4735  -13.4816   21.9032 H   0  0  0  0  0  0
  -25.2767   -9.5722   22.4748 H   0  0  0  0  0  0
  -24.0017   -7.4662   22.7472 H   0  0  0  0  0  0
  -21.0830   -8.8786   19.8954 H   0  0  0  0  0  0
  -22.3677  -10.9694   19.6158 H   0  0  0  0  0  0
  -21.1973   -7.6145   23.9721 H   0  0  0  0  0  0
  -21.1468   -6.0510   25.9079 H   0  0  0  0  0  0
  -22.0605   -2.7615   23.2835 H   0  0  0  0  0  0
  -22.4094  -11.9927   22.4754 H   0  0  0  0  0  0
  -21.1166  -13.1353   22.2537 H   0  0  0  0  0  0
  -24.7007  -15.8585   20.5176 H   0  0  0  0  0  0
  -26.3176  -15.6095   20.0987 H   0  0  0  0  0  0
  -26.7050  -32.5610   23.1191 H   0  0  0  0  0  0
  -24.9956  -33.9793   25.0470 H   0  0  0  0  0  0
  -22.6781  -31.2990   21.4110 H   0  0  0  0  0  0
  -23.3738  -35.9642   23.3317 H   0  0  0  0  0  0
  -24.3577  -36.8918   22.2053 H   0  0  0  0  0  0
  -23.7234  -37.6523   23.6644 H   0  0  0  0  0  0
  -25.9968  -31.6211   20.5749 H   0  0  0  0  0  0
  -26.8049  -30.9353   21.9548 H   0  0  0  0  0  0
  -28.0891  -29.1688   21.1800 H   0  0  0  0  0  0
  -26.1394  -25.9982   19.0042 H   0  0  0  0  0  0
  -24.0159  -27.2873   19.0133 H   0  0  0  0  0  0
  -23.6865  -30.5727   19.3950 H   0  0  0  0  0  0
  -22.7322  -29.2081   19.8842 H   0  0  0  0  0  0
  -25.1275  -36.1984   25.0835 H   0  0  0  0  0  0
  -20.9912  -28.3148   24.1485 H   0  0  0  0  0  0
  -20.5557  -26.2209   23.3607 H   0  0  0  0  0  0
  -21.6590  -26.7350   22.1259 H   0  0  0  0  0  0
  -19.6853  -25.6284   21.1206 H   0  0  0  0  0  0
  -19.6662  -27.3191   20.6756 H   0  0  0  0  0  0
  -17.4146  -26.6639   21.4026 H   0  0  0  0  0  0
  -18.0298  -26.0052   22.9022 H   0  0  0  0  0  0
  -19.7924  -30.7223   24.2278 H   0  0  0  0  0  0
  -17.4997  -31.6247   24.5153 H   0  0  0  0  0  0
  -15.5331  -30.2961   23.7639 H   0  0  0  0  0  0
  -15.8638  -28.0816   22.7013 H   0  0  0  0  0  0
  -24.6001  -30.6960   25.7869 H   0  0  0  0  0  0
  -24.8972  -32.2783   26.4957 H   0  0  0  0  0  0
  -25.8246  -30.8868   27.0226 H   0  0  0  0  0  0
  -26.2866  -29.6742   24.1257 H   0  0  0  0  0  0
  -27.4426  -29.7428   25.4386 H   0  0  0  0  0  0
  -27.8532  -30.4491   23.8927 H   0  0  0  0  0  0
  -27.2643  -33.3597   26.2076 H   0  0  0  0  0  0
  -28.3800  -32.6967   25.0252 H   0  0  0  0  0  0
  -28.0749  -31.8442   26.5313 H   0  0  0  0  0  0
  -28.2606  -38.0073   24.7495 H   0  0  0  0  0  0
  -28.1079  -36.2608   24.6282 H   0  0  0  0  0  0
  -27.2309  -37.1427   25.8863 H   0  0  0  0  0  0
  -20.9242  -29.8793   21.7094 H   0  0  0  0  0  0
  -26.0197  -38.2865   24.1421 H   0  0  0  0  0  0
  -30.9953  -26.6870   19.3285 H   0  0  0  0  0  0
  -32.9828  -25.4585   18.5622 H   0  0  0  0  0  0
  -31.9989  -25.7556   23.4169 H   0  0  0  0  0  0
  -34.1061  -24.8579   23.9606 H   0  0  0  0  0  0
  -35.3028  -24.3926   22.7812 H   0  0  0  0  0  0
  -33.9544  -23.3046   23.1689 H   0  0  0  0  0  0
  -30.1416  -28.0734   21.6149 H   0  0  0  0  0  0
  -30.1172  -27.0393   23.0113 H   0  0  0  0  0  0
  -35.6051  -23.8788   20.6847 H   0  0  0  0  0  0
  -35.2640  -24.6695   19.1792 H   0  0  0  0  0  0
  -31.3271  -18.7224   19.6122 H   0  0  0  0  0  0
  -30.6540  -19.4601   21.0433 H   0  0  0  0  0  0
  -33.6510  -18.8974   20.7751 H   0  0  0  0  0  0
  -32.8586  -19.9252   21.9471 H   0  0  0  0  0  0
  -31.5881  -17.5343   22.4216 H   0  0  0  0  0  0
  -32.2688  -16.8760   20.9588 H   0  0  0  0  0  0
  -32.0766  -21.3757   19.9509 H   0  0  0  0  0  0
  -33.1037  -20.3963   18.9327 H   0  0  0  0  0  0
  -29.8090  -16.9008   20.0029 H   0  0  0  0  0  0
  -29.2988  -17.2207   21.6381 H   0  0  0  0  0  0
  -35.1104  -21.1040   20.3285 H   0  0  0  0  0  0
  -34.0338  -22.0474   21.3258 H   0  0  0  0  0  0
  -28.8910  -25.2771   21.5214 H   0  0  0  0  0  0
  -28.0081  -26.6036   22.1910 H   0  0  0  0  0  0
  -29.2556  -14.9748   21.8123 H   0  0  0  0  0  0
  -34.9814  -22.5244   18.6521 H   0  0  0  0  0  0
  -33.4512  -22.9915   18.9238 H   0  0  0  0  0  0
  1 25  1  0  0  0
  1 30  2  0  0  0
  1 87  1  0  0  0
  2  3  1  0  0  0
  2 25  1  0  0  0
  2 89  1  0  0  0
  2 90  1  0  0  0
  3  4  1  0  0  0
  3 91  1  0  0  0
  3 92  1  0  0  0
  4  5  1  0  0  0
  4 93  1  0  0  0
  4 94  1  0  0  0
  5  6  1  0  0  0
  5 26  1  0  0  0
  5 95  1  0  0  0
  6 25  1  0  0  0
  6 96  1  0  0  0
  6 97  1  0  0  0
  7  8  2  0  0  0
  7 26  1  0  0  0
  7 29  1  0  0  0
  8  9  1  0  0  0
  8 22  1  0  0  0
  9 10  1  0  0  0
  9 27  2  0  0  0
 10 11  2  0  0  0
 10 15  1  0  0  0
 11 12  1  0  0  0
 11 98  1  0  0  0
 12 13  2  0  0  0
 12 99  1  0  0  0
 13 14  1  0  0  0
 13 31  1  0  0  0
 14 15  2  0  0  0
 14100  1  0  0  0
 15101  1  0  0  0
 16 17  2  0  0  0
 16 21  1  0  0  0
 16 31  1  0  0  0
 17 18  1  0  0  0
 17102  1  0  0  0
 18 19  2  0  0  0
 18103  1  0  0  0
 19 20  1  0  0  0
 19 24  1  0  0  0
 20 21  2  0  0  0
 20104  1  0  0  0
 21 23  1  0  0  0
 22 28  1  0  0  0
 22 32  2  0  0  0
 26 27  1  0  0  0
 28105  1  0  0  0
 28106  1  0  0  0
 29107  1  0  0  0
 29108  1  0  0  0
 33 34  1  0  0  0
 33 66  1  0  0  0
 33 70  2  0  0  0
 34 36  1  0  0  0
 34 59  1  0  0  0
 34109  1  0  0  0
 35 44  2  0  0  0
 35 45  1  0  0  0
 35 68  1  0  0  0
 36 56  1  0  0  0
 36110  1  0  0  0
 37 39  1  0  0  0
 37 47  1  0  0  0
 37 66  1  0  0  0
 37111  1  0  0  0
 38 43  2  0  0  0
 38 46  1  0  0  0
 38 47  1  0  0  0
 39 64  1  0  0  0
 39 67  2  0  0  0
 40 52  1  0  0  0
 40 53  2  0  0  0
 40 58  1  0  0  0
 41112  1  0  0  0
 41113  1  0  0  0
 41114  1  0  0  0
 41 48  1  0  0  0
 42 43  1  0  0  0
 42 66  1  0  0  0
 42115  1  0  0  0
 42116  1  0  0  0
 43 44  1  0  0  0
 44117  1  0  0  0
 45 46  2  0  0  0
 45118  1  0  0  0
 46119  1  0  0  0
 47120  1  0  0  0
 47121  1  0  0  0
 48 56  1  0  0  0
 48 65  1  0  0  0
 48122  1  0  0  0
 49 50  1  0  0  0
 49 53  1  0  0  0
 49 64  1  0  0  0
 49123  1  0  0  0
 50 51  1  0  0  0
 50124  1  0  0  0
 50125  1  0  0  0
 51 52  1  0  0  0
 51126  1  0  0  0
 51127  1  0  0  0
 52128  1  0  0  0
 52129  1  0  0  0
 53 54  1  0  0  0
 54 55  2  0  0  0
 54130  1  0  0  0
 55 57  1  0  0  0
 55131  1  0  0  0
 56 69  2  0  0  0
 57 58  2  0  0  0
 57132  1  0  0  0
 58133  1  0  0  0
 59 60  1  0  0  0
 59 61  1  0  0  0
 59 62  1  0  0  0
 60134  1  0  0  0
 60135  1  0  0  0
 60136  1  0  0  0
 61137  1  0  0  0
 61138  1  0  0  0
 61139  1  0  0  0
 62140  1  0  0  0
 62141  1  0  0  0
 62142  1  0  0  0
 63 65  1  0  0  0
 63143  1  0  0  0
 63144  1  0  0  0
 63145  1  0  0  0
 64146  1  0  0  0
 65147  1  0  0  0
 68 86  1  0  0  0
 71 72  2  0  0  0
 71 74  1  0  0  0
 71148  1  0  0  0
 72 75  1  0  0  0
 72149  1  0  0  0
 73 74  2  0  0  0
 73 76  1  0  0  0
 73150  1  0  0  0
 74 78  1  0  0  0
 75 76  2  0  0  0
 75 79  1  0  0  0
 76 77  1  0  0  0
 77151  1  0  0  0
 77152  1  0  0  0
 77153  1  0  0  0
 78 86  1  0  0  0
 78154  1  0  0  0
 78155  1  0  0  0
 79 88  1  0  0  0
 79156  1  0  0  0
 79157  1  0  0  0
 80 81  1  0  0  0
 80 82  1  0  0  0
 80158  1  0  0  0
 80159  1  0  0  0
 81 83  1  0  0  0
 81160  1  0  0  0
 81161  1  0  0  0
 82 84  1  0  0  0
 82162  1  0  0  0
 82163  1  0  0  0
 83 85  1  0  0  0
 83164  1  0  0  0
 83165  1  0  0  0
 84 87  1  0  0  0
 84166  1  0  0  0
 84167  1  0  0  0
 85 88  1  0  0  0
 85168  1  0  0  0
 85169  1  0  0  0
 86170  1  0  0  0
 86171  1  0  0  0
 87172  1  0  0  0
 88173  1  0  0  0
 88174  1  0  0  0
M  CHG  1  88   1
M  ISO  4   1 100  68 101  86 101  87 100
M  END
> <chiral flag>
0

> <version>
0

> <s_m_source_file>
/data/baiqing/PycharmProjects/Reinvent-master-3.2/result/LINK_invent/BTK/process_docking_weight1_custom_sum_contain_oxygen_bond_distance_aromatic_linkinvent_7_9_3/rearranged_h_0033.sdf

> <i_m_source_file_index>
26

> <r_mmod_Potential_Energy-OPLS-2005>
-238.719741821289

> <r_mmod_Stretch_Energy-OPLS-2005>
33.8166885375977

> <r_mmod_Bend_Energy-OPLS-2005>
93.4813537597656

> <r_mmod_Torsional_Energy-OPLS-2005>
228.985610961914

> <r_mmod_Improper_Torsional_Energy-OPLS-2005>
4.72437953948975

> <r_mmod_Van_der_Waal_Energy-OPLS-2005>
152.026077270508

> <r_mmod_Electrostatic_Energy-OPLS-2005>
-308.495880126953

> <r_mmod_Solvation_Energy-OPLS-2005>
-451.629760742188

> <b_mmod_Minimization_Converged-OPLS-2005>
0

> <r_mmod_RMS_Derivative-OPLS-2005>
2.60332894325256

$$$$
27
                    3D
 Structure written by MMmdl.
168176  0  0  1  0            999 V2000
  -29.7838  -15.2302   20.6694 C   0  0  0  0  0  0
  -30.3750  -12.8676   19.6346 C   0  0  0  0  0  0
  -29.5331  -12.6254   18.3445 C   0  0  0  0  0  0
  -28.0659  -12.2841   18.6865 C   0  0  0  0  0  0
  -27.5525  -13.1905   19.8286 C   0  0  2  0  0  0
  -28.4835  -13.1491   21.0379 C   0  0  0  0  0  0
  -25.2093  -13.8035   20.5476 C   0  0  0  0  0  0
  -24.1474  -13.0339   20.9206 C   0  0  0  0  0  0
  -24.6035  -11.6813   20.8746 C   0  0  0  0  0  0
  -23.8823  -10.4224   21.0446 C   0  0  0  0  0  0
  -24.3477   -9.4180   21.9195 C   0  0  0  0  0  0
  -23.6213   -8.2198   22.0756 C   0  0  0  0  0  0
  -22.4210   -8.0202   21.3540 C   0  0  0  0  0  0
  -21.9773   -9.0152   20.4663 C   0  0  0  0  0  0
  -22.7035  -10.2055   20.3073 C   0  0  0  0  0  0
  -21.6821   -6.0695   22.5298 C   0  0  0  0  0  0
  -21.3985   -6.5613   23.8226 C   0  0  0  0  0  0
  -21.3657   -5.6773   24.9192 C   0  0  0  0  0  0
  -21.6035   -4.3035   24.7245 C   0  0  0  0  0  0
  -21.8831   -3.8123   23.4373 C   0  0  0  0  0  0
  -21.9186   -4.6931   22.3424 C   0  0  0  0  0  0
  -22.7594  -13.5223   21.1957 C   0  0  0  0  0  0
  -22.1665   -4.2122   21.1001 F   0  0  0  0  0  0
  -21.5637   -3.4524   25.7764 F   0  0  0  0  0  0
  -29.6495  -13.8295   20.5583 N   0  0  0  0  0  0
  -26.2220  -12.9075   20.2727 N   0  0  0  0  0  0
  -25.8810  -11.6306   20.5404 N   0  0  0  0  0  0
  -22.0244  -12.8264   22.0553 N   0  0  0  0  0  0
  -25.3910  -15.1759   20.3951 N   0  0  0  0  0  0
  -30.9454  -15.5659   20.3198 O   0  0  0  0  0  0
  -21.6598   -6.8803   21.4249 O   0  0  0  0  0  0
  -22.3362  -14.5554   20.6783 O   0  0  0  0  0  0
  -24.6711  -31.9585   23.2306 C   0  0  0  0  0  0
  -25.9605  -32.5181   23.8697 C   0  0  1  0  0  0
  -26.8079  -27.4209   20.0310 C   0  0  0  0  0  0
  -25.6393  -33.8919   24.2665 N   0  0  0  0  0  0
  -23.4800  -30.6134   21.5954 C   0  0  2  0  0  0
  -24.8606  -29.2889   19.8762 C   0  0  0  0  0  0
  -23.0945  -29.5408   22.6394 C   0  0  0  0  0  0
  -18.0267  -27.8106   22.5363 C   0  0  0  0  0  0
  -24.1491  -36.7392   23.2594 C   0  0  0  0  0  0
  -26.0022  -30.8842   21.4202 C   0  0  0  0  0  0
  -25.9778  -29.5738   20.6648 C   0  0  0  0  0  0
  -27.0078  -28.6235   20.7451 C   0  0  0  0  0  0
  -26.0355  -27.4026   18.8914 C   0  0  0  0  0  0
  -24.9262  -28.2578   18.9095 C   0  0  0  0  0  0
  -23.6552  -30.1654   20.1090 C   0  0  0  0  0  0
  -25.4109  -36.3263   24.0338 C   0  0  1  0  0  0
  -21.3922  -28.2425   23.6452 C   0  0  2  0  0  0
  -22.4480  -26.0402   22.8101 C   0  0  0  0  0  0
  -20.5352  -25.0314   21.1418 C   0  0  0  0  0  0
  -18.1491  -25.9465   21.3561 C   0  0  0  0  0  0
  -19.3533  -28.6229   23.3819 C   0  0  0  0  0  0
  -18.9855  -29.8812   23.9494 C   0  0  0  0  0  0
  -17.6757  -30.4023   23.9770 C   0  0  0  0  0  0
  -25.9151  -34.9654   23.5192 C   0  0  0  0  0  0
  -16.5977  -29.6762   23.4394 C   0  0  0  0  0  0
  -16.7736  -28.4452   22.7508 C   0  0  0  0  0  0
  -26.4652  -31.6693   25.0968 C   0  0  0  0  0  0
  -25.3756  -31.3780   26.1535 C   0  0  0  0  0  0
  -27.0407  -30.3066   24.6421 C   0  0  0  0  0  0
  -27.6206  -32.4259   25.7888 C   0  0  0  0  0  0
  -27.5603  -37.1866   24.8441 C   0  0  0  0  0  0
  -21.8754  -29.4889   23.0713 N   0  0  0  0  0  0
  -26.4292  -37.3939   23.9433 N   0  0  0  0  0  0
  -24.7324  -31.2120   22.0997 N   0  0  0  0  0  0
  -23.9082  -28.8501   23.2345 O   0  0  0  0  0  0
  -26.1029  -26.4612   20.6699 O   0  0  0  0  0  0
  -26.5540  -34.9025   22.4656 O   0  0  0  0  0  0
  -23.5881  -32.2307   23.7707 O   0  0  0  0  0  0
  -19.6926  -26.1843   22.9425 C   0  0  0  0  0  0
  -20.6455  -28.4489   21.0565 C   0  0  0  0  0  0
  -20.3351  -26.2936   23.1758 C   0  0  0  0  0  0
  -19.9885  -27.3270   21.2378 C   0  0  0  0  0  0
  -20.2624  -24.8882   23.5476 C   0  0  0  0  0  0
  -21.1541  -27.2904   21.5228 C   0  0  0  0  0  0
  -19.4604  -27.2594   19.6602 C   0  0  0  0  0  0
  -21.4440  -23.4419   23.3490 C   0  0  0  0  0  0
  -22.7510  -27.0337   20.5897 C   0  0  0  0  0  0
  -22.8634  -22.6247   22.4056 C   0  0  0  0  0  0
  -23.8768  -21.0166   22.5336 C   0  0  0  0  0  0
  -25.3133  -20.1111   21.6761 C   0  0  0  0  0  0
  -26.3426  -18.5218   21.8487 C   0  0  0  0  0  0
  -27.8140  -17.6616   21.0189 C   0  0  0  0  0  0
  -24.5113  -26.6290   21.0770 C   0  0  0  0  0  0
  -28.5728  -16.1018   21.0509 N   0  0  0  0  0  0
  -31.3545  -13.2589   19.3625 H   0  0  0  0  0  0
  -30.5753  -11.9253   20.1464 H   0  0  0  0  0  0
  -29.9815  -11.8391   17.7341 H   0  0  0  0  0  0
  -29.5573  -13.5338   17.7396 H   0  0  0  0  0  0
  -28.0185  -11.2379   18.9962 H   0  0  0  0  0  0
  -27.4353  -12.3740   17.8018 H   0  0  0  0  0  0
  -27.5227  -14.1920   19.3973 H   0  0  0  0  0  0
  -28.6923  -12.1282   21.3599 H   0  0  0  0  0  0
  -28.0498  -13.6567   21.9010 H   0  0  0  0  0  0
  -25.2618   -9.5718   22.4747 H   0  0  0  0  0  0
  -23.9968   -7.4596   22.7445 H   0  0  0  0  0  0
  -21.0718   -8.8616   19.8962 H   0  0  0  0  0  0
  -22.3453  -10.9590   19.6194 H   0  0  0  0  0  0
  -21.1948   -7.6114   23.9722 H   0  0  0  0  0  0
  -21.1471   -6.0498   25.9093 H   0  0  0  0  0  0
  -22.0609   -2.7583   23.2876 H   0  0  0  0  0  0
  -22.3804  -11.9894   22.4944 H   0  0  0  0  0  0
  -21.0873  -13.1354   22.2743 H   0  0  0  0  0  0
  -24.5952  -15.8004   20.4660 H   0  0  0  0  0  0
  -26.1750  -15.5996   19.9164 H   0  0  0  0  0  0
  -26.7779  -32.5746   23.1542 H   0  0  0  0  0  0
  -25.0444  -34.0099   25.0734 H   0  0  0  0  0  0
  -22.6973  -31.3758   21.5855 H   0  0  0  0  0  0
  -23.3789  -35.9689   23.3255 H   0  0  0  0  0  0
  -24.3590  -36.9020   22.2007 H   0  0  0  0  0  0
  -23.7193  -37.6574   23.6610 H   0  0  0  0  0  0
  -26.2575  -31.7030   20.7408 H   0  0  0  0  0  0
  -26.8526  -30.8008   22.0843 H   0  0  0  0  0  0
  -27.7767  -28.7169   21.4965 H   0  0  0  0  0  0
  -25.9845  -26.5311   18.2523 H   0  0  0  0  0  0
  -24.1264  -28.1063   18.1952 H   0  0  0  0  0  0
  -23.8520  -31.0777   19.5400 H   0  0  0  0  0  0
  -22.7393  -29.8219   19.6502 H   0  0  0  0  0  0
  -25.1255  -36.2161   25.0833 H   0  0  0  0  0  0
  -21.6180  -28.3326   24.7122 H   0  0  0  0  0  0
  -22.5526  -25.4572   23.7270 H   0  0  0  0  0  0
  -23.4853  -25.8035   22.8802 H   0  0  0  0  0  0
  -20.4424  -23.9463   21.2059 H   0  0  0  0  0  0
  -20.8741  -25.0773   20.1080 H   0  0  0  0  0  0
  -17.5641  -26.0196   20.4397 H   0  0  0  0  0  0
  -17.5311  -25.1881   21.8449 H   0  0  0  0  0  0
  -19.7548  -30.4638   24.4341 H   0  0  0  0  0  0
  -17.4774  -31.3492   24.4633 H   0  0  0  0  0  0
  -15.5937  -30.0771   23.5093 H   0  0  0  0  0  0
  -15.9078  -27.9667   22.3184 H   0  0  0  0  0  0
  -24.5962  -30.7193   25.7695 H   0  0  0  0  0  0
  -24.8926  -32.2912   26.5020 H   0  0  0  0  0  0
  -25.7960  -30.8825   27.0299 H   0  0  0  0  0  0
  -26.2986  -29.6954   24.1277 H   0  0  0  0  0  0
  -27.3833  -29.7211   25.4976 H   0  0  0  0  0  0
  -27.9040  -30.4258   23.9865 H   0  0  0  0  0  0
  -27.2853  -33.3545   26.2552 H   0  0  0  0  0  0
  -28.4084  -32.6843   25.0787 H   0  0  0  0  0  0
  -28.0797  -31.8255   26.5772 H   0  0  0  0  0  0
  -28.2577  -38.0208   24.7605 H   0  0  0  0  0  0
  -28.1158  -36.2758   24.6141 H   0  0  0  0  0  0
  -27.2321  -37.1343   25.8833 H   0  0  0  0  0  0
  -21.1905  -30.1395   22.7171 H   0  0  0  0  0  0
  -26.0200  -38.3020   24.1479 H   0  0  0  0  0  0
  -18.5495  -25.8640   23.4280 H   0  0  0  0  0  0
  -20.9175  -28.9876   20.1618 H   0  0  0  0  0  0
  -20.9063  -26.3216   24.3309 H   0  0  0  0  0  0
  -19.3083  -26.2596   19.2543 H   0  0  0  0  0  0
  -20.1361  -27.6600   18.8975 H   0  0  0  0  0  0
  -18.5403  -27.8321   19.5334 H   0  0  0  0  0  0
  -20.7133  -22.6364   23.3103 H   0  0  0  0  0  0
  -21.8261  -23.3829   24.3648 H   0  0  0  0  0  0
  -22.7266  -27.8533   19.9111 H   0  0  0  0  0  0
  -22.5395  -26.2707   19.8492 H   0  0  0  0  0  0
  -23.6272  -23.3984   22.3717 H   0  0  0  0  0  0
  -22.4832  -22.6052   21.3848 H   0  0  0  0  0  0
  -23.0893  -20.2623   22.4956 H   0  0  0  0  0  0
  -24.1908  -21.0279   23.5797 H   0  0  0  0  0  0
  -26.0725  -20.8897   21.5974 H   0  0  0  0  0  0
  -24.9398  -20.0085   20.6555 H   0  0  0  0  0  0
  -25.5922  -17.7332   21.8651 H   0  0  0  0  0  0
  -26.6682  -18.5722   22.8875 H   0  0  0  0  0  0
  -28.6490  -18.3554   21.1031 H   0  0  0  0  0  0
  -27.5501  -17.7128   19.9618 H   0  0  0  0  0  0
  -24.4334  -25.5495   21.2002 H   0  0  0  0  0  0
  -24.7077  -27.1157   22.0196 H   0  0  0  0  0  0
  -27.8713  -15.4510   21.3705 H   0  0  0  0  0  0
  1 25  1  0  0  0
  1 30  2  0  0  0
  1 86  1  0  0  0
  2  3  1  0  0  0
  2 25  1  0  0  0
  2 87  1  0  0  0
  2 88  1  0  0  0
  3  4  1  0  0  0
  3 89  1  0  0  0
  3 90  1  0  0  0
  4  5  1  0  0  0
  4 91  1  0  0  0
  4 92  1  0  0  0
  5  6  1  0  0  0
  5 26  1  0  0  0
  5 93  1  0  0  0
  6 25  1  0  0  0
  6 94  1  0  0  0
  6 95  1  0  0  0
  7  8  2  0  0  0
  7 26  1  0  0  0
  7 29  1  0  0  0
  8  9  1  0  0  0
  8 22  1  0  0  0
  9 10  1  0  0  0
  9 27  2  0  0  0
 10 11  2  0  0  0
 10 15  1  0  0  0
 11 12  1  0  0  0
 11 96  1  0  0  0
 12 13  2  0  0  0
 12 97  1  0  0  0
 13 14  1  0  0  0
 13 31  1  0  0  0
 14 15  2  0  0  0
 14 98  1  0  0  0
 15 99  1  0  0  0
 16 17  2  0  0  0
 16 21  1  0  0  0
 16 31  1  0  0  0
 17 18  1  0  0  0
 17100  1  0  0  0
 18 19  2  0  0  0
 18101  1  0  0  0
 19 20  1  0  0  0
 19 24  1  0  0  0
 20 21  2  0  0  0
 20102  1  0  0  0
 21 23  1  0  0  0
 22 28  1  0  0  0
 22 32  2  0  0  0
 26 27  1  0  0  0
 28103  1  0  0  0
 28104  1  0  0  0
 29105  1  0  0  0
 29106  1  0  0  0
 33 34  1  0  0  0
 33 66  1  0  0  0
 33 70  2  0  0  0
 34 36  1  0  0  0
 34 59  1  0  0  0
 34107  1  0  0  0
 35 44  2  0  0  0
 35 45  1  0  0  0
 35 68  1  0  0  0
 36 56  1  0  0  0
 36108  1  0  0  0
 37 39  1  0  0  0
 37 47  1  0  0  0
 37 66  1  0  0  0
 37109  1  0  0  0
 38 43  2  0  0  0
 38 46  1  0  0  0
 38 47  1  0  0  0
 39 64  1  0  0  0
 39 67  2  0  0  0
 40 52  1  0  0  0
 40 53  2  0  0  0
 40 58  1  0  0  0
 41110  1  0  0  0
 41111  1  0  0  0
 41112  1  0  0  0
 41 48  1  0  0  0
 42 43  1  0  0  0
 42 66  1  0  0  0
 42113  1  0  0  0
 42114  1  0  0  0
 43 44  1  0  0  0
 44115  1  0  0  0
 45 46  2  0  0  0
 45116  1  0  0  0
 46117  1  0  0  0
 47118  1  0  0  0
 47119  1  0  0  0
 48 56  1  0  0  0
 48 65  1  0  0  0
 48120  1  0  0  0
 49 50  1  0  0  0
 49 53  1  0  0  0
 49 64  1  0  0  0
 49121  1  0  0  0
 50 51  1  0  0  0
 50122  1  0  0  0
 50123  1  0  0  0
 51 52  1  0  0  0
 51124  1  0  0  0
 51125  1  0  0  0
 52126  1  0  0  0
 52127  1  0  0  0
 53 54  1  0  0  0
 54 55  2  0  0  0
 54128  1  0  0  0
 55 57  1  0  0  0
 55129  1  0  0  0
 56 69  2  0  0  0
 57 58  2  0  0  0
 57130  1  0  0  0
 58131  1  0  0  0
 59 60  1  0  0  0
 59 61  1  0  0  0
 59 62  1  0  0  0
 60132  1  0  0  0
 60133  1  0  0  0
 60134  1  0  0  0
 61135  1  0  0  0
 61136  1  0  0  0
 61137  1  0  0  0
 62138  1  0  0  0
 62139  1  0  0  0
 62140  1  0  0  0
 63 65  1  0  0  0
 63141  1  0  0  0
 63142  1  0  0  0
 63143  1  0  0  0
 64144  1  0  0  0
 65145  1  0  0  0
 68 85  1  0  0  0
 71 74  2  0  0  0
 71 75  1  0  0  0
 71146  1  0  0  0
 72 74  1  0  0  0
 72 76  2  0  0  0
 72147  1  0  0  0
 73 75  2  0  0  0
 73 76  1  0  0  0
 73148  1  0  0  0
 74 77  1  0  0  0
 75 78  1  0  0  0
 76 79  1  0  0  0
 77149  1  0  0  0
 77150  1  0  0  0
 77151  1  0  0  0
 78 80  1  0  0  0
 78152  1  0  0  0
 78153  1  0  0  0
 79 85  1  0  0  0
 79154  1  0  0  0
 79155  1  0  0  0
 80 81  1  0  0  0
 80156  1  0  0  0
 80157  1  0  0  0
 81 82  1  0  0  0
 81158  1  0  0  0
 81159  1  0  0  0
 82 83  1  0  0  0
 82160  1  0  0  0
 82161  1  0  0  0
 83 84  1  0  0  0
 83162  1  0  0  0
 83163  1  0  0  0
 84 86  1  0  0  0
 84164  1  0  0  0
 84165  1  0  0  0
 85166  1  0  0  0
 85167  1  0  0  0
 86168  1  0  0  0
M  ISO  4   1 100  68 101  85 101  86 100
M  END
> <chiral flag>
0

> <version>
0

> <s_m_source_file>
/data/baiqing/PycharmProjects/Reinvent-master-3.2/result/LINK_invent/BTK/process_docking_weight1_custom_sum_contain_oxygen_bond_distance_aromatic_linkinvent_7_9_3/rearranged_h_0033.sdf

> <i_m_source_file_index>
27

> <r_mmod_Potential_Energy-OPLS-2005>
18113.421875

> <r_mmod_Stretch_Energy-OPLS-2005>
9075.40234375

> <r_mmod_Bend_Energy-OPLS-2005>
2561.79736328125

> <r_mmod_Torsional_Energy-OPLS-2005>
801.413452148438

> <r_mmod_Improper_Torsional_Energy-OPLS-2005>
60.5908660888672

> <r_mmod_Van_der_Waal_Energy-OPLS-2005>
3747.42504882812

> <r_mmod_Electrostatic_Energy-OPLS-2005>
-362.591064453125

> <r_mmod_Solvation_Energy-OPLS-2005>
-187.57502746582

> <b_mmod_Minimization_Converged-OPLS-2005>
0

> <r_mmod_RMS_Derivative-OPLS-2005>
10.2040538787842

$$$$
28
                    3D
 Structure written by MMmdl.
172181  0  0  1  0            999 V2000
  -30.7472  -14.5309   20.4442 C   0  0  0  0  0  0
  -30.4250  -12.3190   19.4350 C   0  0  0  0  0  0
  -29.4966  -12.4260   18.2109 C   0  0  0  0  0  0
  -28.0169  -12.2735   18.6282 C   0  0  0  0  0  0
  -27.6310  -13.1457   19.8475 C   0  0  2  0  0  0
  -28.7031  -13.1036   20.9677 C   0  0  0  0  0  0
  -25.2561  -13.7963   20.5763 C   0  0  0  0  0  0
  -24.1763  -13.0355   20.9239 C   0  0  0  0  0  0
  -24.6272  -11.6810   20.8847 C   0  0  0  0  0  0
  -23.8958  -10.4254   21.0488 C   0  0  0  0  0  0
  -24.3554   -9.4193   21.9240 C   0  0  0  0  0  0
  -23.6267   -8.2216   22.0780 C   0  0  0  0  0  0
  -22.4262   -8.0264   21.3560 C   0  0  0  0  0  0
  -21.9872   -9.0222   20.4677 C   0  0  0  0  0  0
  -22.7172  -10.2106   20.3115 C   0  0  0  0  0  0
  -21.6845   -6.0753   22.5287 C   0  0  0  0  0  0
  -21.3970   -6.5649   23.8206 C   0  0  0  0  0  0
  -21.3644   -5.6783   24.9155 C   0  0  0  0  0  0
  -21.6047   -4.3049   24.7196 C   0  0  0  0  0  0
  -21.8829   -3.8172   23.4307 C   0  0  0  0  0  0
  -21.9200   -4.7002   22.3394 C   0  0  0  0  0  0
  -22.7807  -13.5241   21.1836 C   0  0  0  0  0  0
  -22.1686   -4.2210   21.0961 F   0  0  0  0  0  0
  -21.5636   -3.4532   25.7701 F   0  0  0  0  0  0
  -30.0241  -13.3727   20.3730 N   0  0  0  0  0  0
  -26.2875  -12.8963   20.3384 N   0  0  0  0  0  0
  -25.9152  -11.6229   20.5850 N   0  0  0  0  0  0
  -22.0336  -12.8338   22.0393 N   0  0  0  0  0  0
  -25.4367  -15.1672   20.4201 N   0  0  0  0  0  0
  -31.9497  -14.5856   20.2139 O   0  0  0  0  0  0
  -21.6618   -6.8878   21.4244 O   0  0  0  0  0  0
  -22.3601  -14.5586   20.6668 O   0  0  0  0  0  0
  -24.6092  -31.8688   23.2148 C   0  0  0  0  0  0
  -25.8998  -32.4829   23.8425 C   0  0  1  0  0  0
  -27.2533  -27.4984   20.0757 C   0  0  0  0  0  0
  -25.5868  -33.8625   24.2345 N   0  0  0  0  0  0
  -23.3979  -30.4912   21.5493 C   0  0  2  0  0  0
  -24.8511  -28.9627   20.1194 C   0  0  0  0  0  0
  -22.7400  -29.4640   22.4975 C   0  0  0  0  0  0
  -18.0277  -28.1383   22.8485 C   0  0  0  0  0  0
  -24.1461  -36.7277   23.2650 C   0  0  0  0  0  0
  -25.9222  -30.8558   21.3619 C   0  0  0  0  0  0
  -26.0063  -29.4954   20.7047 C   0  0  0  0  0  0
  -27.2137  -28.7711   20.6812 C   0  0  0  0  0  0
  -26.0821  -26.9526   19.5165 C   0  0  0  0  0  0
  -24.8787  -27.6839   19.5285 C   0  0  0  0  0  0
  -23.6107  -29.8244   20.1634 C   0  0  0  0  0  0
  -25.4094  -36.3105   24.0352 C   0  0  1  0  0  0
  -20.5868  -28.3653   23.1315 C   0  0  2  0  0  0
  -20.6757  -26.9392   22.5421 C   0  0  0  0  0  0
  -19.5747  -26.6390   21.5202 C   0  0  0  0  0  0
  -18.1922  -26.7934   22.1608 C   0  0  0  0  0  0
  -19.1525  -28.8839   23.2895 C   0  0  0  0  0  0
  -18.9462  -30.1446   23.8904 C   0  0  0  0  0  0
  -17.6463  -30.6596   24.0572 C   0  0  0  0  0  0
  -25.9018  -34.9468   23.5159 C   0  0  0  0  0  0
  -16.5356  -29.9105   23.6325 C   0  0  0  0  0  0
  -16.7260  -28.6524   23.0340 C   0  0  0  0  0  0
  -26.4487  -31.6608   25.0725 C   0  0  0  0  0  0
  -25.3792  -31.3678   26.1499 C   0  0  0  0  0  0
  -27.0339  -30.3075   24.6057 C   0  0  0  0  0  0
  -27.6061  -32.4354   25.7470 C   0  0  0  0  0  0
  -27.5563  -37.1783   24.8482 C   0  0  0  0  0  0
  -21.4122  -29.3012   22.3710 N   0  0  0  0  0  0
  -26.4266  -37.3797   23.9431 N   0  0  0  0  0  0
  -24.6599  -31.0849   22.1010 N   0  0  0  0  0  0
  -23.4187  -28.8199   23.2997 O   0  0  0  0  0  0
  -28.4141  -26.7759   20.0356 O   0  0  0  0  0  0
  -26.5589  -34.8926   22.4713 O   0  0  0  0  0  0
  -23.5295  -32.1395   23.7581 O   0  0  0  0  0  0
  -29.7705  -18.5054   19.2524 C   0  0  0  0  0  0
  -28.9669  -19.7593   17.3244 C   0  0  0  0  0  0
  -29.7409  -19.7100   18.5041 C   0  0  0  0  0  0
  -29.0242  -17.3767   18.8380 C   0  0  0  0  0  0
  -28.1979  -17.4717   17.6812 C   0  0  0  0  0  0
  -28.1905  -18.6612   16.9277 C   0  0  0  0  0  0
  -29.5041  -22.9628   17.7359 C   0  0  0  0  0  0
  -31.9776  -22.9668   18.4052 C   0  0  0  0  0  0
  -29.7745  -24.4731   17.7473 C   0  0  0  0  0  0
  -31.6369  -24.0456   19.4523 C   0  0  0  0  0  0
  -30.7671  -22.0911   17.9945 C   0  0  1  0  0  0
  -30.3835  -24.8856   19.1029 C   0  0  1  0  0  0
  -27.3030  -16.3246   17.2153 C   0  0  0  0  0  0
  -30.5360  -20.9215   19.0004 C   0  0  0  0  0  0
  -29.0198  -16.0617   19.6117 C   0  0  0  0  0  0
  -30.6452  -26.4035   19.2045 C   0  0  0  0  0  0
  -29.3734  -27.2654   19.1055 C   0  0  0  0  0  0
  -30.0792  -15.6959   20.5535 N   0  0  0  0  0  0
  -27.4121  -18.7615   15.8227 F   0  0  0  0  0  0
  -31.4688  -12.4060   19.1253 H   0  0  0  0  0  0
  -30.3360  -11.3401   19.9157 H   0  0  0  0  0  0
  -29.7583  -11.6546   17.4858 H   0  0  0  0  0  0
  -29.6560  -13.3787   17.6996 H   0  0  0  0  0  0
  -27.8426  -11.2209   18.8558 H   0  0  0  0  0  0
  -27.3749  -12.5157   17.7808 H   0  0  0  0  0  0
  -27.5493  -14.1248   19.4317 H   0  0  0  0  0  0
  -28.7030  -12.1289   21.4619 H   0  0  0  0  0  0
  -28.4692  -13.8412   21.7361 H   0  0  0  0  0  0
  -25.2689   -9.5707   22.4816 H   0  0  0  0  0  0
  -24.0031   -7.4599   22.7472 H   0  0  0  0  0  0
  -21.0814   -8.8717   19.8983 H   0  0  0  0  0  0
  -22.3641  -10.9643   19.6245 H   0  0  0  0  0  0
  -21.1957   -7.6144   23.9714 H   0  0  0  0  0  0
  -21.1447   -6.0498   25.9043 H   0  0  0  0  0  0
  -22.0649   -2.7650   23.2743 H   0  0  0  0  0  0
  -22.3783  -12.0037   22.4957 H   0  0  0  0  0  0
  -21.0960  -13.1493   22.2441 H   0  0  0  0  0  0
  -24.6927  -15.8419   20.5669 H   0  0  0  0  0  0
  -26.3138  -15.5964   20.1652 H   0  0  0  0  0  0
  -26.7077  -32.5574   23.1195 H   0  0  0  0  0  0
  -25.0005  -33.9794   25.0494 H   0  0  0  0  0  0
  -22.6832  -31.3060   21.4103 H   0  0  0  0  0  0
  -23.3736  -35.9593   23.3345 H   0  0  0  0  0  0
  -24.3548  -36.8857   22.2058 H   0  0  0  0  0  0
  -23.7203  -37.6485   23.6648 H   0  0  0  0  0  0
  -26.0385  -31.6322   20.6056 H   0  0  0  0  0  0
  -26.8076  -30.8997   21.9845 H   0  0  0  0  0  0
  -28.1109  -29.1832   21.1215 H   0  0  0  0  0  0
  -26.1075  -25.9671   19.0733 H   0  0  0  0  0  0
  -23.9860  -27.2619   19.0886 H   0  0  0  0  0  0
  -23.7261  -30.6014   19.4062 H   0  0  0  0  0  0
  -22.7372  -29.2447   19.8606 H   0  0  0  0  0  0
  -25.1273  -36.1958   25.0846 H   0  0  0  0  0  0
  -20.9973  -28.3224   24.1427 H   0  0  0  0  0  0
  -20.5648  -26.2260   23.3600 H   0  0  0  0  0  0
  -21.6629  -26.7425   22.1222 H   0  0  0  0  0  0
  -19.6905  -25.6309   21.1214 H   0  0  0  0  0  0
  -19.6705  -27.3211   20.6743 H   0  0  0  0  0  0
  -17.4198  -26.6675   21.4011 H   0  0  0  0  0  0
  -18.0331  -26.0088   22.9014 H   0  0  0  0  0  0
  -19.7944  -30.7254   24.2279 H   0  0  0  0  0  0
  -17.5033  -31.6277   24.5168 H   0  0  0  0  0  0
  -15.5359  -30.3013   23.7666 H   0  0  0  0  0  0
  -15.8655  -28.0863   22.7035 H   0  0  0  0  0  0
  -24.5926  -30.7075   25.7835 H   0  0  0  0  0  0
  -24.9032  -32.2823   26.5039 H   0  0  0  0  0  0
  -25.8175  -30.8770   27.0196 H   0  0  0  0  0  0
  -26.2848  -29.6784   24.1229 H   0  0  0  0  0  0
  -27.4290  -29.7363   25.4466 H   0  0  0  0  0  0
  -27.8602  -30.4439   23.9075 H   0  0  0  0  0  0
  -27.2652  -33.3616   26.2110 H   0  0  0  0  0  0
  -28.3814  -32.6991   25.0264 H   0  0  0  0  0  0
  -28.0797  -31.8459   26.5328 H   0  0  0  0  0  0
  -28.2613  -38.0050   24.7536 H   0  0  0  0  0  0
  -28.1023  -36.2591   24.6305 H   0  0  0  0  0  0
  -27.2281  -37.1442   25.8885 H   0  0  0  0  0  0
  -20.9291  -29.8702   21.6909 H   0  0  0  0  0  0
  -26.0152  -38.2857   24.1490 H   0  0  0  0  0  0
  -30.3618  -18.4600   20.1540 H   0  0  0  0  0  0
  -28.9272  -20.6308   16.6971 H   0  0  0  0  0  0
  -29.0449  -22.7099   16.7806 H   0  0  0  0  0  0
  -28.7441  -22.7530   18.4890 H   0  0  0  0  0  0
  -32.8070  -22.3556   18.7622 H   0  0  0  0  0  0
  -32.3643  -23.4690   17.5165 H   0  0  0  0  0  0
  -28.8301  -24.9901   17.5705 H   0  0  0  0  0  0
  -30.4320  -24.7529   16.9224 H   0  0  0  0  0  0
  -32.5070  -24.6926   19.5754 H   0  0  0  0  0  0
  -31.4852  -23.5729   20.4223 H   0  0  0  0  0  0
  -31.0638  -21.6454   17.0415 H   0  0  0  0  0  0
  -29.6433  -24.6384   19.8675 H   0  0  0  0  0  0
  -26.8139  -15.8186   18.0470 H   0  0  0  0  0  0
  -27.8878  -15.5879   16.6621 H   0  0  0  0  0  0
  -26.5011  -16.6587   16.5552 H   0  0  0  0  0  0
  -31.5069  -20.5400   19.3215 H   0  0  0  0  0  0
  -30.0560  -21.3009   19.9054 H   0  0  0  0  0  0
  -29.0459  -15.3244   18.8123 H   0  0  0  0  0  0
  -28.0777  -16.0318   20.1533 H   0  0  0  0  0  0
  -31.3619  -26.7113   18.4415 H   0  0  0  0  0  0
  -31.1256  -26.6143   20.1604 H   0  0  0  0  0  0
  -28.9635  -27.2204   18.0944 H   0  0  0  0  0  0
  -29.6185  -28.3131   19.3004 H   0  0  0  0  0  0
  -30.6769  -16.4664   20.8142 H   0  0  0  0  0  0
  1 25  1  0  0  0
  1 30  2  0  0  0
  1 88  1  0  0  0
  2  3  1  0  0  0
  2 25  1  0  0  0
  2 90  1  0  0  0
  2 91  1  0  0  0
  3  4  1  0  0  0
  3 92  1  0  0  0
  3 93  1  0  0  0
  4  5  1  0  0  0
  4 94  1  0  0  0
  4 95  1  0  0  0
  5  6  1  0  0  0
  5 26  1  0  0  0
  5 96  1  0  0  0
  6 25  1  0  0  0
  6 97  1  0  0  0
  6 98  1  0  0  0
  7  8  2  0  0  0
  7 26  1  0  0  0
  7 29  1  0  0  0
  8  9  1  0  0  0
  8 22  1  0  0  0
  9 10  1  0  0  0
  9 27  2  0  0  0
 10 11  2  0  0  0
 10 15  1  0  0  0
 11 12  1  0  0  0
 11 99  1  0  0  0
 12 13  2  0  0  0
 12100  1  0  0  0
 13 14  1  0  0  0
 13 31  1  0  0  0
 14 15  2  0  0  0
 14101  1  0  0  0
 15102  1  0  0  0
 16 17  2  0  0  0
 16 21  1  0  0  0
 16 31  1  0  0  0
 17 18  1  0  0  0
 17103  1  0  0  0
 18 19  2  0  0  0
 18104  1  0  0  0
 19 20  1  0  0  0
 19 24  1  0  0  0
 20 21  2  0  0  0
 20105  1  0  0  0
 21 23  1  0  0  0
 22 28  1  0  0  0
 22 32  2  0  0  0
 26 27  1  0  0  0
 28106  1  0  0  0
 28107  1  0  0  0
 29108  1  0  0  0
 29109  1  0  0  0
 33 34  1  0  0  0
 33 66  1  0  0  0
 33 70  2  0  0  0
 34 36  1  0  0  0
 34 59  1  0  0  0
 34110  1  0  0  0
 35 44  2  0  0  0
 35 45  1  0  0  0
 35 68  1  0  0  0
 36 56  1  0  0  0
 36111  1  0  0  0
 37 39  1  0  0  0
 37 47  1  0  0  0
 37 66  1  0  0  0
 37112  1  0  0  0
 38 43  2  0  0  0
 38 46  1  0  0  0
 38 47  1  0  0  0
 39 64  1  0  0  0
 39 67  2  0  0  0
 40 52  1  0  0  0
 40 53  2  0  0  0
 40 58  1  0  0  0
 41113  1  0  0  0
 41114  1  0  0  0
 41115  1  0  0  0
 41 48  1  0  0  0
 42 43  1  0  0  0
 42 66  1  0  0  0
 42116  1  0  0  0
 42117  1  0  0  0
 43 44  1  0  0  0
 44118  1  0  0  0
 45 46  2  0  0  0
 45119  1  0  0  0
 46120  1  0  0  0
 47121  1  0  0  0
 47122  1  0  0  0
 48 56  1  0  0  0
 48 65  1  0  0  0
 48123  1  0  0  0
 49 50  1  0  0  0
 49 53  1  0  0  0
 49 64  1  0  0  0
 49124  1  0  0  0
 50 51  1  0  0  0
 50125  1  0  0  0
 50126  1  0  0  0
 51 52  1  0  0  0
 51127  1  0  0  0
 51128  1  0  0  0
 52129  1  0  0  0
 52130  1  0  0  0
 53 54  1  0  0  0
 54 55  2  0  0  0
 54131  1  0  0  0
 55 57  1  0  0  0
 55132  1  0  0  0
 56 69  2  0  0  0
 57 58  2  0  0  0
 57133  1  0  0  0
 58134  1  0  0  0
 59 60  1  0  0  0
 59 61  1  0  0  0
 59 62  1  0  0  0
 60135  1  0  0  0
 60136  1  0  0  0
 60137  1  0  0  0
 61138  1  0  0  0
 61139  1  0  0  0
 61140  1  0  0  0
 62141  1  0  0  0
 62142  1  0  0  0
 62143  1  0  0  0
 63 65  1  0  0  0
 63144  1  0  0  0
 63145  1  0  0  0
 63146  1  0  0  0
 64147  1  0  0  0
 65148  1  0  0  0
 68 87  1  0  0  0
 71 73  2  0  0  0
 71 74  1  0  0  0
 71149  1  0  0  0
 72 73  1  0  0  0
 72 76  2  0  0  0
 72150  1  0  0  0
 73 84  1  0  0  0
 74 75  2  0  0  0
 74 85  1  0  0  0
 75 76  1  0  0  0
 75 83  1  0  0  0
 76 89  1  0  0  0
 77 79  1  0  0  0
 77 81  1  0  0  0
 77151  1  0  0  0
 77152  1  0  0  0
 78 80  1  0  0  0
 78 81  1  0  0  0
 78153  1  0  0  0
 78154  1  0  0  0
 79 82  1  0  0  0
 79155  1  0  0  0
 79156  1  0  0  0
 80 82  1  0  0  0
 80157  1  0  0  0
 80158  1  0  0  0
 81 84  1  0  0  0
 81159  1  0  0  0
 82 86  1  0  0  0
 82160  1  0  0  0
 83161  1  0  0  0
 83162  1  0  0  0
 83163  1  0  0  0
 84164  1  0  0  0
 84165  1  0  0  0
 85 88  1  0  0  0
 85166  1  0  0  0
 85167  1  0  0  0
 86 87  1  0  0  0
 86168  1  0  0  0
 86169  1  0  0  0
 87170  1  0  0  0
 87171  1  0  0  0
 88172  1  0  0  0
M  ISO  4   1 100  68 101  87 101  88 100
M  END
> <chiral flag>
0

> <version>
0

> <s_m_source_file>
/data/baiqing/PycharmProjects/Reinvent-master-3.2/result/LINK_invent/BTK/process_docking_weight1_custom_sum_contain_oxygen_bond_distance_aromatic_linkinvent_7_9_3/rearranged_h_0033.sdf

> <i_m_source_file_index>
28

> <r_mmod_Potential_Energy-OPLS-2005>
116.782653808594

> <r_mmod_Stretch_Energy-OPLS-2005>
37.3251419067383

> <r_mmod_Bend_Energy-OPLS-2005>
125.250106811523

> <r_mmod_Torsional_Energy-OPLS-2005>
342.861511230469

> <r_mmod_Improper_Torsional_Energy-OPLS-2005>
8.03364276885986

> <r_mmod_Van_der_Waal_Energy-OPLS-2005>
173.176559448242

> <r_mmod_Electrostatic_Energy-OPLS-2005>
-408.000091552734

> <r_mmod_Solvation_Energy-OPLS-2005>
-192.348968505859

> <b_mmod_Minimization_Converged-OPLS-2005>
0

> <r_mmod_RMS_Derivative-OPLS-2005>
5.64421224594116

$$$$
29
                    3D
 Structure written by MMmdl.
147155  0  0  1  0            999 V2000
  -30.3933  -15.4023   20.3610 C   0  0  0  0  0  0
  -30.4365  -12.9134   19.5205 C   0  0  0  0  0  0
  -29.5401  -12.5991   18.2944 C   0  0  0  0  0  0
  -28.0974  -12.2939   18.7317 C   0  0  0  0  0  0
  -27.6039  -13.2852   19.8131 C   0  0  2  0  0  0
  -28.6349  -13.5241   20.9370 C   0  0  0  0  0  0
  -25.2362  -13.8255   20.5758 C   0  0  0  0  0  0
  -24.1729  -13.0431   20.9269 C   0  0  0  0  0  0
  -24.6400  -11.6934   20.8760 C   0  0  0  0  0  0
  -23.9097  -10.4290   21.0400 C   0  0  0  0  0  0
  -24.3640   -9.4204   21.9179 C   0  0  0  0  0  0
  -23.6304   -8.2244   22.0753 C   0  0  0  0  0  0
  -22.4285   -8.0283   21.3545 C   0  0  0  0  0  0
  -21.9928   -9.0258   20.4645 C   0  0  0  0  0  0
  -22.7266  -10.2131   20.3051 C   0  0  0  0  0  0
  -21.6856   -6.0736   22.5279 C   0  0  0  0  0  0
  -21.4017   -6.5639   23.8212 C   0  0  0  0  0  0
  -21.3661   -5.6792   24.9174 C   0  0  0  0  0  0
  -21.6045   -4.3053   24.7224 C   0  0  0  0  0  0
  -21.8819   -3.8146   23.4346 C   0  0  0  0  0  0
  -21.9193   -4.6963   22.3402 C   0  0  0  0  0  0
  -22.7744  -13.5176   21.1913 C   0  0  0  0  0  0
  -22.1660   -4.2147   21.0980 F   0  0  0  0  0  0
  -21.5629   -3.4538   25.7739 F   0  0  0  0  0  0
  -29.8395  -14.0772   20.2891 N   0  0  0  0  0  0
  -26.2793  -12.9547   20.3204 N   0  0  0  0  0  0
  -25.9338  -11.6642   20.5704 N   0  0  0  0  0  0
  -22.0402  -12.8159   22.0468 N   0  0  0  0  0  0
  -25.3973  -15.1994   20.4193 N   0  0  0  0  0  0
  -31.6274  -15.3693   20.2261 O   0  0  0  0  0  0
  -21.6645   -6.8881   21.4242 O   0  0  0  0  0  0
  -22.3422  -14.5474   20.6747 O   0  0  0  0  0  0
  -24.6718  -31.8150   23.1634 C   0  0  0  0  0  0
  -25.9360  -32.4543   23.8132 C   0  0  1  0  0  0
  -27.2178  -26.8360   20.2027 C   0  0  0  0  0  0
  -25.5993  -33.8361   24.2031 N   0  0  0  0  0  0
  -23.4906  -30.4234   21.5153 C   0  0  2  0  0  0
  -24.9449  -28.7916   20.1203 C   0  0  0  0  0  0
  -22.7711  -29.4393   22.4758 C   0  0  0  0  0  0
  -18.0331  -28.1415   22.8462 C   0  0  0  0  0  0
  -24.1494  -36.7188   23.2647 C   0  0  0  0  0  0
  -26.0657  -30.5924   21.4074 C   0  0  0  0  0  0
  -26.1331  -29.1709   20.7576 C   0  0  0  0  0  0
  -27.2638  -28.2189   20.7672 C   0  0  0  0  0  0
  -25.9987  -26.6351   19.5129 C   0  0  0  0  0  0
  -24.9083  -27.5456   19.4758 C   0  0  0  0  0  0
  -23.7367  -29.7321   20.1459 C   0  0  0  0  0  0
  -25.4138  -36.2938   24.0291 C   0  0  1  0  0  0
  -20.5961  -28.3764   23.1169 C   0  0  2  0  0  0
  -20.6801  -26.9436   22.5400 C   0  0  0  0  0  0
  -19.5775  -26.6374   21.5214 C   0  0  0  0  0  0
  -18.1959  -26.7945   22.1624 C   0  0  0  0  0  0
  -19.1594  -28.8913   23.2800 C   0  0  0  0  0  0
  -18.9500  -30.1502   23.8836 C   0  0  0  0  0  0
  -17.6490  -30.6599   24.0553 C   0  0  0  0  0  0
  -25.9110  -34.9325   23.4987 C   0  0  0  0  0  0
  -16.5382  -29.9083   23.6345 C   0  0  0  0  0  0
  -16.7312  -28.6506   23.0360 C   0  0  0  0  0  0
  -26.4578  -31.6521   25.0699 C   0  0  0  0  0  0
  -25.3677  -31.3803   26.1338 C   0  0  0  0  0  0
  -27.0485  -30.2874   24.6499 C   0  0  0  0  0  0
  -27.6050  -32.4351   25.7511 C   0  0  0  0  0  0
  -27.5569  -37.1749   24.8465 C   0  0  0  0  0  0
  -21.4371  -29.3040   22.3511 N   0  0  0  0  0  0
  -26.4276  -37.3684   23.9410 N   0  0  0  0  0  0
  -24.7650  -30.9728   22.0819 N   0  0  0  0  0  0
  -23.4221  -28.7969   23.3033 O   0  0  0  0  0  0
  -28.2029  -25.6809   20.2131 O   0  0  0  0  0  0
  -26.5728  -34.8876   22.4588 O   0  0  0  0  0  0
  -23.5767  -32.1164   23.6670 O   0  0  0  0  0  0
  -28.8859  -20.6574   18.9920 C   0  0  0  0  0  0
  -29.2334  -20.0392   20.2559 C   0  0  0  0  0  0
  -28.9805  -21.3175   20.9630 C   0  0  0  0  0  0
  -29.1061  -21.4637   22.4430 C   0  0  0  0  0  0
  -29.9266  -18.3877   20.6269 C   0  0  0  0  0  0
  -27.8222  -24.1060   20.5474 C   0  0  0  0  0  0
  -28.5167  -21.9915   18.9692 N   0  0  0  0  0  0
  -28.5599  -22.5768   20.2114 N   0  0  0  0  0  0
  -29.6382  -16.7162   20.3917 N   0  0  0  0  0  0
  -31.4433  -13.1473   19.1721 H   0  0  0  0  0  0
  -30.5473  -12.0352   20.1588 H   0  0  0  0  0  0
  -29.9475  -11.7611   17.7270 H   0  0  0  0  0  0
  -29.5415  -13.4566   17.6198 H   0  0  0  0  0  0
  -28.0814  -11.2799   19.1333 H   0  0  0  0  0  0
  -27.4270  -12.2939   17.8714 H   0  0  0  0  0  0
  -27.4965  -14.2336   19.2848 H   0  0  0  0  0  0
  -28.8432  -12.6099   21.4950 H   0  0  0  0  0  0
  -28.2487  -14.2469   21.6574 H   0  0  0  0  0  0
  -25.2782   -9.5679   22.4757 H   0  0  0  0  0  0
  -24.0008   -7.4637   22.7477 H   0  0  0  0  0  0
  -21.0857   -8.8783   19.8953 H   0  0  0  0  0  0
  -22.3725  -10.9671   19.6162 H   0  0  0  0  0  0
  -21.2011   -7.6147   23.9715 H   0  0  0  0  0  0
  -21.1483   -6.0521   25.9077 H   0  0  0  0  0  0
  -22.0596   -2.7607   23.2848 H   0  0  0  0  0  0
  -22.4035  -11.9840   22.4880 H   0  0  0  0  0  0
  -21.1009  -13.1163   22.2655 H   0  0  0  0  0  0
  -24.6250  -15.8470   20.5339 H   0  0  0  0  0  0
  -26.2355  -15.6432   20.0685 H   0  0  0  0  0  0
  -26.7438  -32.5056   23.0849 H   0  0  0  0  0  0
  -25.0078  -33.9423   25.0141 H   0  0  0  0  0  0
  -22.8082  -31.2571   21.3370 H   0  0  0  0  0  0
  -23.3768  -35.9505   23.3269 H   0  0  0  0  0  0
  -24.3566  -36.8882   22.2069 H   0  0  0  0  0  0
  -23.7242  -37.6357   23.6737 H   0  0  0  0  0  0
  -26.2536  -31.3258   20.6220 H   0  0  0  0  0  0
  -26.9224  -30.6557   22.0660 H   0  0  0  0  0  0
  -28.1654  -28.5150   21.2849 H   0  0  0  0  0  0
  -25.8570  -25.6943   19.0012 H   0  0  0  0  0  0
  -24.0102  -27.2494   18.9512 H   0  0  0  0  0  0
  -23.9033  -30.4971   19.3867 H   0  0  0  0  0  0
  -22.8439  -29.1936   19.8234 H   0  0  0  0  0  0
  -25.1338  -36.1717   25.0780 H   0  0  0  0  0  0
  -21.0047  -28.3375   24.1295 H   0  0  0  0  0  0
  -20.5675  -26.2382   23.3648 H   0  0  0  0  0  0
  -21.6662  -26.7396   22.1211 H   0  0  0  0  0  0
  -19.6928  -25.6269   21.1283 H   0  0  0  0  0  0
  -19.6714  -27.3151   20.6718 H   0  0  0  0  0  0
  -17.4225  -26.6686   21.4032 H   0  0  0  0  0  0
  -18.0354  -26.0105   22.9039 H   0  0  0  0  0  0
  -19.7974  -30.7339   24.2175 H   0  0  0  0  0  0
  -17.5038  -31.6271   24.5169 H   0  0  0  0  0  0
  -15.5378  -30.2961   23.7703 H   0  0  0  0  0  0
  -15.8715  -28.0803   22.7105 H   0  0  0  0  0  0
  -24.5875  -30.7137   25.7645 H   0  0  0  0  0  0
  -24.8851  -32.3015   26.4612 H   0  0  0  0  0  0
  -25.7885  -30.9068   27.0217 H   0  0  0  0  0  0
  -26.3173  -29.6528   24.1480 H   0  0  0  0  0  0
  -27.3950  -29.7268   25.5192 H   0  0  0  0  0  0
  -27.9141  -30.4028   23.9974 H   0  0  0  0  0  0
  -27.2605  -33.3705   26.1934 H   0  0  0  0  0  0
  -28.3944  -32.6829   25.0402 H   0  0  0  0  0  0
  -28.0627  -31.8583   26.5558 H   0  0  0  0  0  0
  -28.2555  -38.0074   24.7517 H   0  0  0  0  0  0
  -28.1098  -36.2598   24.6286 H   0  0  0  0  0  0
  -27.2286  -37.1379   25.8867 H   0  0  0  0  0  0
  -20.9646  -29.8725   21.6621 H   0  0  0  0  0  0
  -26.0114  -38.2736   24.1425 H   0  0  0  0  0  0
  -28.9153  -20.1623   18.0312 H   0  0  0  0  0  0
  -29.6181  -22.3909   22.7012 H   0  0  0  0  0  0
  -29.6739  -20.6408   22.8764 H   0  0  0  0  0  0
  -28.1236  -21.4792   22.9146 H   0  0  0  0  0  0
  -30.9543  -18.4463   20.2669 H   0  0  0  0  0  0
  -30.0658  -18.3948   21.7081 H   0  0  0  0  0  0
  -26.8058  -23.9857   20.1754 H   0  0  0  0  0  0
  -27.7123  -24.1094   21.6322 H   0  0  0  0  0  0
  -28.6466  -16.5289   20.3670 H   0  0  0  0  0  0
  1 25  1  0  0  0
  1 30  2  0  0  0
  1 79  1  0  0  0
  2  3  1  0  0  0
  2 25  1  0  0  0
  2 80  1  0  0  0
  2 81  1  0  0  0
  3  4  1  0  0  0
  3 82  1  0  0  0
  3 83  1  0  0  0
  4  5  1  0  0  0
  4 84  1  0  0  0
  4 85  1  0  0  0
  5  6  1  0  0  0
  5 26  1  0  0  0
  5 86  1  0  0  0
  6 25  1  0  0  0
  6 87  1  0  0  0
  6 88  1  0  0  0
  7  8  2  0  0  0
  7 26  1  0  0  0
  7 29  1  0  0  0
  8  9  1  0  0  0
  8 22  1  0  0  0
  9 10  1  0  0  0
  9 27  2  0  0  0
 10 11  2  0  0  0
 10 15  1  0  0  0
 11 12  1  0  0  0
 11 89  1  0  0  0
 12 13  2  0  0  0
 12 90  1  0  0  0
 13 14  1  0  0  0
 13 31  1  0  0  0
 14 15  2  0  0  0
 14 91  1  0  0  0
 15 92  1  0  0  0
 16 17  2  0  0  0
 16 21  1  0  0  0
 16 31  1  0  0  0
 17 18  1  0  0  0
 17 93  1  0  0  0
 18 19  2  0  0  0
 18 94  1  0  0  0
 19 20  1  0  0  0
 19 24  1  0  0  0
 20 21  2  0  0  0
 20 95  1  0  0  0
 21 23  1  0  0  0
 22 28  1  0  0  0
 22 32  2  0  0  0
 26 27  1  0  0  0
 28 96  1  0  0  0
 28 97  1  0  0  0
 29 98  1  0  0  0
 29 99  1  0  0  0
 33 34  1  0  0  0
 33 66  1  0  0  0
 33 70  2  0  0  0
 34 36  1  0  0  0
 34 59  1  0  0  0
 34100  1  0  0  0
 35 44  2  0  0  0
 35 45  1  0  0  0
 35 68  1  0  0  0
 36 56  1  0  0  0
 36101  1  0  0  0
 37 39  1  0  0  0
 37 47  1  0  0  0
 37 66  1  0  0  0
 37102  1  0  0  0
 38 43  2  0  0  0
 38 46  1  0  0  0
 38 47  1  0  0  0
 39 64  1  0  0  0
 39 67  2  0  0  0
 40 52  1  0  0  0
 40 53  2  0  0  0
 40 58  1  0  0  0
 41103  1  0  0  0
 41104  1  0  0  0
 41105  1  0  0  0
 41 48  1  0  0  0
 42 43  1  0  0  0
 42 66  1  0  0  0
 42106  1  0  0  0
 42107  1  0  0  0
 43 44  1  0  0  0
 44108  1  0  0  0
 45 46  2  0  0  0
 45109  1  0  0  0
 46110  1  0  0  0
 47111  1  0  0  0
 47112  1  0  0  0
 48 56  1  0  0  0
 48 65  1  0  0  0
 48113  1  0  0  0
 49 50  1  0  0  0
 49 53  1  0  0  0
 49 64  1  0  0  0
 49114  1  0  0  0
 50 51  1  0  0  0
 50115  1  0  0  0
 50116  1  0  0  0
 51 52  1  0  0  0
 51117  1  0  0  0
 51118  1  0  0  0
 52119  1  0  0  0
 52120  1  0  0  0
 53 54  1  0  0  0
 54 55  2  0  0  0
 54121  1  0  0  0
 55 57  1  0  0  0
 55122  1  0  0  0
 56 69  2  0  0  0
 57 58  2  0  0  0
 57123  1  0  0  0
 58124  1  0  0  0
 59 60  1  0  0  0
 59 61  1  0  0  0
 59 62  1  0  0  0
 60125  1  0  0  0
 60126  1  0  0  0
 60127  1  0  0  0
 61128  1  0  0  0
 61129  1  0  0  0
 61130  1  0  0  0
 62131  1  0  0  0
 62132  1  0  0  0
 62133  1  0  0  0
 63 65  1  0  0  0
 63134  1  0  0  0
 63135  1  0  0  0
 63136  1  0  0  0
 64137  1  0  0  0
 65138  1  0  0  0
 68 76  1  0  0  0
 71 72  1  0  0  0
 71 77  2  0  0  0
 71139  1  0  0  0
 72 73  2  0  0  0
 72 75  1  0  0  0
 73 74  1  0  0  0
 73 78  1  0  0  0
 74140  1  0  0  0
 74141  1  0  0  0
 74142  1  0  0  0
 75 79  1  0  0  0
 75143  1  0  0  0
 75144  1  0  0  0
 76 78  1  0  0  0
 76145  1  0  0  0
 76146  1  0  0  0
 77 78  1  0  0  0
 79147  1  0  0  0
M  ISO  4   1 100  68 101  76 101  79 100
M  END
> <chiral flag>
0

> <version>
0

> <s_m_source_file>
/data/baiqing/PycharmProjects/Reinvent-master-3.2/result/LINK_invent/BTK/process_docking_weight1_custom_sum_contain_oxygen_bond_distance_aromatic_linkinvent_7_9_3/rearranged_h_0033.sdf

> <i_m_source_file_index>
29

> <r_mmod_Potential_Energy-OPLS-2005>
1605.36962890625

> <r_mmod_Stretch_Energy-OPLS-2005>
725.397155761719

> <r_mmod_Bend_Energy-OPLS-2005>
521.431762695312

> <r_mmod_Torsional_Energy-OPLS-2005>
235.392990112305

> <r_mmod_Improper_Torsional_Energy-OPLS-2005>
7.67197132110596

> <r_mmod_Van_der_Waal_Energy-OPLS-2005>
105.603927612305

> <r_mmod_Electrostatic_Energy-OPLS-2005>
-359.778289794922

> <r_mmod_Solvation_Energy-OPLS-2005>
-239.672225952148

> <b_mmod_Minimization_Converged-OPLS-2005>
0

> <r_mmod_RMS_Derivative-OPLS-2005>
0.31450742483139

$$$$
30
                    3D
 Structure written by MMmdl.
178186  0  0  1  0            999 V2000
  -30.8840  -14.1930   20.7933 C   0  0  0  0  0  0
  -30.3991  -12.2773   19.3338 C   0  0  0  0  0  0
  -29.4546  -12.5461   18.1558 C   0  0  0  0  0  0
  -27.9914  -12.3837   18.5974 C   0  0  0  0  0  0
  -27.6654  -13.2054   19.8701 C   0  0  2  0  0  0
  -28.7097  -12.9585   20.9806 C   0  0  0  0  0  0
  -25.2620  -13.8173   20.5670 C   0  0  0  0  0  0
  -24.1864  -13.0450   20.9162 C   0  0  0  0  0  0
  -24.6422  -11.6920   20.8735 C   0  0  0  0  0  0
  -23.9089  -10.4298   21.0414 C   0  0  0  0  0  0
  -24.3632   -9.4203   21.9189 C   0  0  0  0  0  0
  -23.6294   -8.2248   22.0765 C   0  0  0  0  0  0
  -22.4276   -8.0293   21.3550 C   0  0  0  0  0  0
  -21.9921   -9.0273   20.4647 C   0  0  0  0  0  0
  -22.7270  -10.2145   20.3055 C   0  0  0  0  0  0
  -21.6851   -6.0745   22.5282 C   0  0  0  0  0  0
  -21.4012   -6.5640   23.8220 C   0  0  0  0  0  0
  -21.3658   -5.6791   24.9173 C   0  0  0  0  0  0
  -21.6048   -4.3058   24.7223 C   0  0  0  0  0  0
  -21.8816   -3.8151   23.4343 C   0  0  0  0  0  0
  -21.9191   -4.6972   22.3399 C   0  0  0  0  0  0
  -22.7887  -13.5253   21.1823 C   0  0  0  0  0  0
  -22.1658   -4.2163   21.0978 F   0  0  0  0  0  0
  -21.5630   -3.4537   25.7732 F   0  0  0  0  0  0
  -30.0603  -13.1854   20.4343 N   0  0  0  0  0  0
  -26.3065  -12.9351   20.3365 N   0  0  0  0  0  0
  -25.9344  -11.6510   20.5752 N   0  0  0  0  0  0
  -22.0516  -12.8238   22.0370 N   0  0  0  0  0  0
  -25.4340  -15.1887   20.4076 N   0  0  0  0  0  0
  -31.7456  -14.6859   20.0581 O   0  0  0  0  0  0
  -21.6637   -6.8895   21.4250 O   0  0  0  0  0  0
  -22.3576  -14.5566   20.6690 O   0  0  0  0  0  0
  -24.6080  -31.8737   23.2109 C   0  0  0  0  0  0
  -25.8983  -32.4853   23.8419 C   0  0  1  0  0  0
  -27.2306  -27.4817   20.0818 C   0  0  0  0  0  0
  -25.5888  -33.8657   24.2367 N   0  0  0  0  0  0
  -23.3957  -30.4951   21.5492 C   0  0  2  0  0  0
  -24.8429  -28.9700   20.1045 C   0  0  0  0  0  0
  -22.7380  -29.4705   22.5006 C   0  0  0  0  0  0
  -18.0307  -28.1347   22.8514 C   0  0  0  0  0  0
  -24.1471  -36.7339   23.2635 C   0  0  0  0  0  0
  -25.9152  -30.8525   21.3553 C   0  0  0  0  0  0
  -25.9943  -29.4876   20.7096 C   0  0  0  0  0  0
  -27.1917  -28.7434   20.7097 C   0  0  0  0  0  0
  -26.0810  -26.9862   19.4360 C   0  0  0  0  0  0
  -24.8796  -27.7161   19.4652 C   0  0  0  0  0  0
  -23.6000  -29.8282   20.1624 C   0  0  0  0  0  0
  -25.4085  -36.3145   24.0351 C   0  0  1  0  0  0
  -20.5893  -28.3656   23.1354 C   0  0  2  0  0  0
  -20.6804  -26.9407   22.5430 C   0  0  0  0  0  0
  -19.5785  -26.6401   21.5224 C   0  0  0  0  0  0
  -18.1956  -26.7911   22.1634 C   0  0  0  0  0  0
  -19.1547  -28.8807   23.2935 C   0  0  0  0  0  0
  -18.9462  -30.1413   23.8950 C   0  0  0  0  0  0
  -17.6461  -30.6560   24.0572 C   0  0  0  0  0  0
  -25.9030  -34.9507   23.5155 C   0  0  0  0  0  0
  -16.5356  -29.9042   23.6330 C   0  0  0  0  0  0
  -16.7295  -28.6450   23.0363 C   0  0  0  0  0  0
  -26.4423  -31.6609   25.0728 C   0  0  0  0  0  0
  -25.3730  -31.3670   26.1512 C   0  0  0  0  0  0
  -27.0237  -30.3063   24.6055 C   0  0  0  0  0  0
  -27.6004  -32.4313   25.7507 C   0  0  0  0  0  0
  -27.5575  -37.1804   24.8460 C   0  0  0  0  0  0
  -21.4118  -29.3044   22.3740 N   0  0  0  0  0  0
  -26.4273  -37.3822   23.9433 N   0  0  0  0  0  0
  -24.6565  -31.0884   22.0978 N   0  0  0  0  0  0
  -23.4154  -28.8296   23.3077 O   0  0  0  0  0  0
  -28.3608  -26.7119   20.1183 O   0  0  0  0  0  0
  -26.5573  -34.8935   22.4704 O   0  0  0  0  0  0
  -23.5281  -32.1477   23.7523 O   0  0  0  0  0  0
  -28.0015  -23.5591   21.3680 C   0  0  0  0  0  0
  -26.2348  -25.1059   21.9729 C   0  0  0  0  0  0
  -27.5679  -24.8807   21.5742 C   0  0  0  0  0  0
  -27.1144  -22.4725   21.5195 C   0  0  0  0  0  0
  -25.7415  -22.7082   21.8021 C   0  0  0  0  0  0
  -25.3210  -24.0375   22.0567 C   0  0  0  0  0  0
  -24.7310  -20.7151   23.0914 C   0  0  0  0  0  0
  -23.7725  -24.4324   23.7539 C   0  0  0  0  0  0
  -27.7164  -21.0776   21.4724 C   0  0  0  0  0  0
  -24.7121  -21.5754   21.8183 C   0  0  0  0  0  0
  -28.5379  -26.0398   21.3698 C   0  0  0  0  0  0
  -28.4013  -20.7928   22.8192 C   0  0  0  0  0  0
  -28.9075  -19.3569   22.9788 C   0  0  0  0  0  0
  -29.4350  -19.1090   24.4040 C   0  0  0  0  0  0
  -29.8123  -17.6492   24.6911 C   0  0  0  0  0  0
  -30.7664  -17.0559   23.6463 C   0  0  0  0  0  0
  -31.3934  -15.7302   24.0924 C   0  0  0  0  0  0
  -31.9747  -14.9471   22.9104 C   0  0  0  0  0  0
  -30.8959  -14.3682   22.1174 N   0  0  0  0  0  0
  -24.0144  -24.3127   22.3609 O   0  0  0  0  0  0
  -31.4398  -12.3796   19.0158 H   0  0  0  0  0  0
  -30.2911  -11.2450   19.6729 H   0  0  0  0  0  0
  -29.6737  -11.8628   17.3337 H   0  0  0  0  0  0
  -29.6190  -13.5546   17.7711 H   0  0  0  0  0  0
  -27.8120  -11.3235   18.7817 H   0  0  0  0  0  0
  -27.3222  -12.6687   17.7845 H   0  0  0  0  0  0
  -27.7223  -14.2578   19.5933 H   0  0  0  0  0  0
  -28.6415  -11.9347   21.3506 H   0  0  0  0  0  0
  -28.4829  -13.6075   21.8275 H   0  0  0  0  0  0
  -25.2781   -9.5673   22.4757 H   0  0  0  0  0  0
  -24.0002   -7.4642   22.7488 H   0  0  0  0  0  0
  -21.0853   -8.8800   19.8950 H   0  0  0  0  0  0
  -22.3745  -10.9682   19.6152 H   0  0  0  0  0  0
  -21.2002   -7.6149   23.9728 H   0  0  0  0  0  0
  -21.1482   -6.0517   25.9081 H   0  0  0  0  0  0
  -22.0595   -2.7619   23.2835 H   0  0  0  0  0  0
  -22.4121  -11.9882   22.4731 H   0  0  0  0  0  0
  -21.1137  -13.1267   22.2566 H   0  0  0  0  0  0
  -24.6740  -15.8494   20.5255 H   0  0  0  0  0  0
  -26.2990  -15.6270   20.1172 H   0  0  0  0  0  0
  -26.7048  -32.5595   23.1188 H   0  0  0  0  0  0
  -25.0126  -33.9839   25.0567 H   0  0  0  0  0  0
  -22.6854  -31.3114   21.4067 H   0  0  0  0  0  0
  -23.3741  -35.9671   23.3313 H   0  0  0  0  0  0
  -24.3578  -36.8950   22.2054 H   0  0  0  0  0  0
  -23.7201  -37.6538   23.6636 H   0  0  0  0  0  0
  -26.0178  -31.6172   20.5824 H   0  0  0  0  0  0
  -26.8037  -30.9138   21.9690 H   0  0  0  0  0  0
  -28.0792  -29.1302   21.1897 H   0  0  0  0  0  0
  -26.1124  -26.0249   18.9391 H   0  0  0  0  0  0
  -23.9976  -27.3178   18.9827 H   0  0  0  0  0  0
  -23.6933  -30.6018   19.3985 H   0  0  0  0  0  0
  -22.7255  -29.2417   19.8758 H   0  0  0  0  0  0
  -25.1230  -36.2047   25.0843 H   0  0  0  0  0  0
  -21.0004  -28.3207   24.1474 H   0  0  0  0  0  0
  -20.5782  -26.2225   23.3582 H   0  0  0  0  0  0
  -21.6650  -26.7506   22.1180 H   0  0  0  0  0  0
  -19.6973  -25.6337   21.1184 H   0  0  0  0  0  0
  -19.6692  -27.3269   20.6809 H   0  0  0  0  0  0
  -17.4228  -26.6702   21.4017 H   0  0  0  0  0  0
  -18.0326  -26.0034   22.9010 H   0  0  0  0  0  0
  -19.7942  -30.7200   24.2339 H   0  0  0  0  0  0
  -17.5022  -31.6257   24.5151 H   0  0  0  0  0  0
  -15.5341  -30.2926   23.7651 H   0  0  0  0  0  0
  -15.8720  -28.0760   22.7071 H   0  0  0  0  0  0
  -24.5904  -30.7002   25.7875 H   0  0  0  0  0  0
  -24.8901  -32.2791   26.5041 H   0  0  0  0  0  0
  -25.8135  -30.8815   27.0232 H   0  0  0  0  0  0
  -26.2776  -29.6864   24.1062 H   0  0  0  0  0  0
  -27.3969  -29.7259   25.4501 H   0  0  0  0  0  0
  -27.8619  -30.4399   23.9209 H   0  0  0  0  0  0
  -27.2637  -33.3611   26.2114 H   0  0  0  0  0  0
  -28.3808  -32.6887   25.0333 H   0  0  0  0  0  0
  -28.0660  -31.8412   26.5413 H   0  0  0  0  0  0
  -28.2557  -38.0131   24.7565 H   0  0  0  0  0  0
  -28.1091  -36.2666   24.6194 H   0  0  0  0  0  0
  -27.2320  -37.1375   25.8865 H   0  0  0  0  0  0
  -20.9232  -29.8738   21.6970 H   0  0  0  0  0  0
  -26.0187  -38.2908   24.1452 H   0  0  0  0  0  0
  -29.0368  -23.3791   21.1136 H   0  0  0  0  0  0
  -25.8929  -26.1144   22.1686 H   0  0  0  0  0  0
  -23.8760  -20.0385   23.1053 H   0  0  0  0  0  0
  -24.6889  -21.3238   23.9933 H   0  0  0  0  0  0
  -25.6241  -20.0961   23.1496 H   0  0  0  0  0  0
  -23.8365  -23.4559   24.2333 H   0  0  0  0  0  0
  -22.7656  -24.8157   23.9185 H   0  0  0  0  0  0
  -24.4756  -25.1045   24.2476 H   0  0  0  0  0  0
  -28.4409  -21.0287   20.6584 H   0  0  0  0  0  0
  -26.9709  -20.3143   21.2534 H   0  0  0  0  0  0
  -24.8612  -20.9459   20.9405 H   0  0  0  0  0  0
  -23.7107  -21.9856   21.6861 H   0  0  0  0  0  0
  -29.5591  -25.6610   21.4055 H   0  0  0  0  0  0
  -28.4532  -26.7296   22.2105 H   0  0  0  0  0  0
  -27.6945  -21.0006   23.6240 H   0  0  0  0  0  0
  -29.2253  -21.4933   22.9622 H   0  0  0  0  0  0
  -29.6962  -19.1747   22.2464 H   0  0  0  0  0  0
  -28.1074  -18.6524   22.7520 H   0  0  0  0  0  0
  -28.6835  -19.4135   25.1348 H   0  0  0  0  0  0
  -30.2975  -19.7499   24.5860 H   0  0  0  0  0  0
  -28.9073  -17.0412   24.7414 H   0  0  0  0  0  0
  -30.2674  -17.5938   25.6810 H   0  0  0  0  0  0
  -31.5649  -17.7643   23.4206 H   0  0  0  0  0  0
  -30.2185  -16.9102   22.7147 H   0  0  0  0  0  0
  -30.6606  -15.1114   24.6125 H   0  0  0  0  0  0
  -32.1815  -15.9336   24.8185 H   0  0  0  0  0  0
  -32.5955  -14.1288   23.2797 H   0  0  0  0  0  0
  -32.6261  -15.5861   22.3115 H   0  0  0  0  0  0
  -30.1879  -13.8557   22.6219 H   0  0  0  0  0  0
  1 25  1  0  0  0
  1 30  2  0  0  0
  1 89  1  0  0  0
  2  3  1  0  0  0
  2 25  1  0  0  0
  2 91  1  0  0  0
  2 92  1  0  0  0
  3  4  1  0  0  0
  3 93  1  0  0  0
  3 94  1  0  0  0
  4  5  1  0  0  0
  4 95  1  0  0  0
  4 96  1  0  0  0
  5  6  1  0  0  0
  5 26  1  0  0  0
  5 97  1  0  0  0
  6 25  1  0  0  0
  6 98  1  0  0  0
  6 99  1  0  0  0
  7  8  2  0  0  0
  7 26  1  0  0  0
  7 29  1  0  0  0
  8  9  1  0  0  0
  8 22  1  0  0  0
  9 10  1  0  0  0
  9 27  2  0  0  0
 10 11  2  0  0  0
 10 15  1  0  0  0
 11 12  1  0  0  0
 11100  1  0  0  0
 12 13  2  0  0  0
 12101  1  0  0  0
 13 14  1  0  0  0
 13 31  1  0  0  0
 14 15  2  0  0  0
 14102  1  0  0  0
 15103  1  0  0  0
 16 17  2  0  0  0
 16 21  1  0  0  0
 16 31  1  0  0  0
 17 18  1  0  0  0
 17104  1  0  0  0
 18 19  2  0  0  0
 18105  1  0  0  0
 19 20  1  0  0  0
 19 24  1  0  0  0
 20 21  2  0  0  0
 20106  1  0  0  0
 21 23  1  0  0  0
 22 28  1  0  0  0
 22 32  2  0  0  0
 26 27  1  0  0  0
 28107  1  0  0  0
 28108  1  0  0  0
 29109  1  0  0  0
 29110  1  0  0  0
 33 34  1  0  0  0
 33 66  1  0  0  0
 33 70  2  0  0  0
 34 36  1  0  0  0
 34 59  1  0  0  0
 34111  1  0  0  0
 35 44  2  0  0  0
 35 45  1  0  0  0
 35 68  1  0  0  0
 36 56  1  0  0  0
 36112  1  0  0  0
 37 39  1  0  0  0
 37 47  1  0  0  0
 37 66  1  0  0  0
 37113  1  0  0  0
 38 43  2  0  0  0
 38 46  1  0  0  0
 38 47  1  0  0  0
 39 64  1  0  0  0
 39 67  2  0  0  0
 40 52  1  0  0  0
 40 53  2  0  0  0
 40 58  1  0  0  0
 41114  1  0  0  0
 41115  1  0  0  0
 41116  1  0  0  0
 41 48  1  0  0  0
 42 43  1  0  0  0
 42 66  1  0  0  0
 42117  1  0  0  0
 42118  1  0  0  0
 43 44  1  0  0  0
 44119  1  0  0  0
 45 46  2  0  0  0
 45120  1  0  0  0
 46121  1  0  0  0
 47122  1  0  0  0
 47123  1  0  0  0
 48 56  1  0  0  0
 48 65  1  0  0  0
 48124  1  0  0  0
 49 50  1  0  0  0
 49 53  1  0  0  0
 49 64  1  0  0  0
 49125  1  0  0  0
 50 51  1  0  0  0
 50126  1  0  0  0
 50127  1  0  0  0
 51 52  1  0  0  0
 51128  1  0  0  0
 51129  1  0  0  0
 52130  1  0  0  0
 52131  1  0  0  0
 53 54  1  0  0  0
 54 55  2  0  0  0
 54132  1  0  0  0
 55 57  1  0  0  0
 55133  1  0  0  0
 56 69  2  0  0  0
 57 58  2  0  0  0
 57134  1  0  0  0
 58135  1  0  0  0
 59 60  1  0  0  0
 59 61  1  0  0  0
 59 62  1  0  0  0
 60136  1  0  0  0
 60137  1  0  0  0
 60138  1  0  0  0
 61139  1  0  0  0
 61140  1  0  0  0
 61141  1  0  0  0
 62142  1  0  0  0
 62143  1  0  0  0
 62144  1  0  0  0
 63 65  1  0  0  0
 63145  1  0  0  0
 63146  1  0  0  0
 63147  1  0  0  0
 64148  1  0  0  0
 65149  1  0  0  0
 68 81  1  0  0  0
 71 73  2  0  0  0
 71 74  1  0  0  0
 71150  1  0  0  0
 72 73  1  0  0  0
 72 76  2  0  0  0
 72151  1  0  0  0
 73 81  1  0  0  0
 74 75  2  0  0  0
 74 79  1  0  0  0
 75 76  1  0  0  0
 75 80  1  0  0  0
 76 90  1  0  0  0
 77 80  1  0  0  0
 77152  1  0  0  0
 77153  1  0  0  0
 77154  1  0  0  0
 78 90  1  0  0  0
 78155  1  0  0  0
 78156  1  0  0  0
 78157  1  0  0  0
 79 82  1  0  0  0
 79158  1  0  0  0
 79159  1  0  0  0
 80160  1  0  0  0
 80161  1  0  0  0
 81162  1  0  0  0
 81163  1  0  0  0
 82 83  1  0  0  0
 82164  1  0  0  0
 82165  1  0  0  0
 83 84  1  0  0  0
 83166  1  0  0  0
 83167  1  0  0  0
 84 85  1  0  0  0
 84168  1  0  0  0
 84169  1  0  0  0
 85 86  1  0  0  0
 85170  1  0  0  0
 85171  1  0  0  0
 86 87  1  0  0  0
 86172  1  0  0  0
 86173  1  0  0  0
 87 88  1  0  0  0
 87174  1  0  0  0
 87175  1  0  0  0
 88 89  1  0  0  0
 88176  1  0  0  0
 88177  1  0  0  0
 89178  1  0  0  0
M  ISO  4   1 100  68 101  81 101  89 100
M  END
> <chiral flag>
0

> <version>
0

> <s_m_source_file>
/data/baiqing/PycharmProjects/Reinvent-master-3.2/result/LINK_invent/BTK/process_docking_weight1_custom_sum_contain_oxygen_bond_distance_aromatic_linkinvent_7_9_3/rearranged_h_0033.sdf

> <i_m_source_file_index>
30

> <r_mmod_Potential_Energy-OPLS-2005>
-11.781720161438

> <r_mmod_Stretch_Energy-OPLS-2005>
31.1658840179443

> <r_mmod_Bend_Energy-OPLS-2005>
86.4658203125

> <r_mmod_Torsional_Energy-OPLS-2005>
290.958129882812

> <r_mmod_Improper_Torsional_Energy-OPLS-2005>
8.21138095855713

> <r_mmod_Van_der_Waal_Energy-OPLS-2005>
140.604019165039

> <r_mmod_Electrostatic_Energy-OPLS-2005>
-391.1591796875

> <r_mmod_Solvation_Energy-OPLS-2005>
-192.848739624023

> <b_mmod_Minimization_Converged-OPLS-2005>
0

> <r_mmod_RMS_Derivative-OPLS-2005>
3.23174810409546

$$$$
31
                    3D
 Structure written by MMmdl.
162170  0  0  1  0            999 V2000
  -31.2453  -13.8308   20.9633 C   0  0  0  0  0  0
  -30.2670  -11.7031   19.5653 C   0  0  0  0  0  0
  -29.1408  -11.6975   18.0210 C   0  0  0  0  0  0
  -27.6282  -12.9470   18.0623 C   0  0  0  0  0  0
  -27.6986  -14.1360   19.9354 C   0  0  2  0  0  0
  -28.8879  -13.7063   21.1624 C   0  0  0  0  0  0
  -25.9332  -15.0775   21.4748 C   0  0  0  0  0  0
  -24.8689  -14.4110   21.7760 C   0  0  0  0  0  0
  -25.1772  -13.7506   20.4598 C   0  0  0  0  0  0
  -23.6054  -11.1821   19.6085 C   0  0  0  0  0  0
  -24.1511   -9.8094   20.3415 C   0  0  0  0  0  0
  -23.6433   -8.6799   21.1427 C   0  0  0  0  0  0
  -22.2948   -8.3661   21.0689 C   0  0  0  0  0  0
  -21.6514   -9.4147   20.3336 C   0  0  0  0  0  0
  -22.2333  -10.6765   19.7980 C   0  0  0  0  0  0
  -21.7665   -6.2520   22.4658 C   0  0  0  0  0  0
  -21.4715   -6.6829   23.7830 C   0  0  0  0  0  0
  -21.3983   -5.7690   24.8674 C   0  0  0  0  0  0
  -21.6142   -4.3906   24.6630 C   0  0  0  0  0  0
  -21.8893   -3.9339   23.3646 C   0  0  0  0  0  0
  -21.9543   -4.8437   22.2831 C   0  0  0  0  0  0
  -23.4377  -14.6770   22.4474 C   0  0  0  0  0  0
  -22.1715   -4.3332   21.0483 F   0  0  0  0  0  0
  -21.5533   -3.5165   25.7015 F   0  0  0  0  0  0
  -30.2064  -12.9031   20.7912 N   0  0  0  0  0  0
  -26.7293  -14.1445   20.8735 N   0  0  0  0  0  0
  -26.1555  -14.1640   19.9123 N   0  0  0  0  0  0
  -22.7543  -13.6403   23.0150 N   0  0  0  0  0  0
  -26.0227  -16.3845   21.1643 N   0  0  0  0  0  0
  -32.4217  -13.6061   20.7803 O   0  0  0  0  0  0
  -21.6728   -7.1104   21.3471 O   0  0  0  0  0  0
  -22.6772  -15.4945   21.9127 O   0  0  0  0  0  0
  -24.7850  -31.6115   23.0574 C   0  0  0  0  0  0
  -25.9895  -32.3505   23.7403 C   0  0  1  0  0  0
  -25.9491  -25.0724   20.1436 C   0  0  0  0  0  0
  -25.5983  -33.7473   24.1083 N   0  0  0  0  0  0
  -23.5829  -30.2422   21.4578 C   0  0  2  0  0  0
  -24.7773  -28.2946   20.0331 C   0  0  0  0  0  0
  -22.7778  -29.3503   22.4400 C   0  0  0  0  0  0
  -18.0302  -28.1423   22.8429 C   0  0  0  0  0  0
  -24.1500  -36.6739   23.2691 C   0  0  0  0  0  0
  -26.0944  -29.6817   21.5662 C   0  0  0  0  0  0
  -25.8740  -28.1335   20.8554 C   0  0  0  0  0  0
  -26.4444  -26.5846   20.8566 C   0  0  0  0  0  0
  -25.1954  -25.8659   19.1868 C   0  0  0  0  0  0
  -24.6099  -27.2089   19.1514 C   0  0  0  0  0  0
  -23.8196  -29.5298   20.0790 C   0  0  0  0  0  0
  -25.4203  -36.2356   24.0178 C   0  0  1  0  0  0
  -20.5906  -28.3728   23.1036 C   0  0  2  0  0  0
  -20.6674  -26.9318   22.5467 C   0  0  0  0  0  0
  -19.5702  -26.6296   21.5227 C   0  0  0  0  0  0
  -18.1884  -26.7950   22.1592 C   0  0  0  0  0  0
  -19.1575  -28.8930   23.2709 C   0  0  0  0  0  0
  -18.9522  -30.1514   23.8771 C   0  0  0  0  0  0
  -17.6514  -30.6605   24.0546 C   0  0  0  0  0  0
  -25.9260  -34.8786   23.4599 C   0  0  0  0  0  0
  -16.5391  -29.9091   23.6365 C   0  0  0  0  0  0
  -16.7298  -28.6512   23.0382 C   0  0  0  0  0  0
  -26.4804  -31.6301   25.0583 C   0  0  0  0  0  0
  -25.3629  -31.3949   26.1037 C   0  0  0  0  0  0
  -27.0924  -30.2593   24.7337 C   0  0  0  0  0  0
  -27.6004  -32.4539   25.7380 C   0  0  0  0  0  0
  -27.5518  -37.1489   24.8457 C   0  0  0  0  0  0
  -21.4394  -29.2753   22.3166 N   0  0  0  0  0  0
  -26.4189  -37.3300   23.9430 N   0  0  0  0  0  0
  -24.8935  -30.6008   22.0671 N   0  0  0  0  0  0
  -23.3807  -28.7269   23.3173 O   0  0  0  0  0  0
  -25.9581  -23.0931   20.0485 O   0  0  0  0  0  0
  -26.6144  -34.8665   22.4388 O   0  0  0  0  0  0
  -23.6756  -32.0104   23.4781 O   0  0  0  0  0  0
  -25.0936  -12.5575   18.4455 C   0  0  0  0  0  0
  -24.2538  -12.0972   21.4335 C   0  0  0  0  0  0
  -25.8122  -11.7028   19.9884 C   0  0  0  0  0  0
  -24.1969  -14.0612   18.2697 C   0  0  0  0  0  0
  -23.6454  -15.2527   19.3781 C   0  0  0  0  0  0
  -22.9975  -13.5208   20.2743 C   0  0  0  0  0  0
  -24.1317  -14.5075   16.8241 C   0  0  0  0  0  0
  -27.8148  -11.8313   20.0221 C   0  0  0  0  0  0
  -24.4510  -17.8481   19.4537 C   0  0  0  0  0  0
  -29.5879  -13.8458   18.7060 C   0  0  0  0  0  0
  -31.1015  -14.1902   18.3341 C   0  0  0  0  0  0
  -31.5158  -15.3941   19.2318 C   0  0  0  0  0  0
  -24.9509  -20.7136   19.8644 C   0  0  0  0  0  0
  -31.0361  -15.1021   20.5901 N   0  0  0  0  0  0
  -21.2500  -13.4893   20.4140 Cl  0  0  0  0  0  0
  -31.2962  -11.5610   19.2478 H   0  0  0  0  0  0
  -30.1176  -10.7603   20.0953 H   0  0  0  0  0  0
  -28.8123  -10.6798   17.7988 H   0  0  0  0  0  0
  -29.7514  -11.8783   17.1299 H   0  0  0  0  0  0
  -27.1246  -12.0331   17.8085 H   0  0  0  0  0  0
  -27.4764  -13.5634   17.1725 H   0  0  0  0  0  0
  -27.9273  -15.2311   19.8025 H   0  0  0  0  0  0
  -28.4831  -13.1930   22.0409 H   0  0  0  0  0  0
  -29.0509  -14.6321   21.7188 H   0  0  0  0  0  0
  -25.2082   -9.6189   20.4116 H   0  0  0  0  0  0
  -24.3359   -7.9658   21.5652 H   0  0  0  0  0  0
  -20.5912   -9.2805   20.1674 H   0  0  0  0  0  0
  -21.4720  -11.2860   19.3395 H   0  0  0  0  0  0
  -21.2727   -7.7302   23.9653 H   0  0  0  0  0  0
  -21.1732   -6.1308   25.8611 H   0  0  0  0  0  0
  -22.0408   -2.8798   23.1876 H   0  0  0  0  0  0
  -23.2381  -12.7863   23.2477 H   0  0  0  0  0  0
  -21.7695  -13.7322   23.2152 H   0  0  0  0  0  0
  -25.1608  -16.9146   21.1755 H   0  0  0  0  0  0
  -26.5206  -16.5056   20.2912 H   0  0  0  0  0  0
  -26.8075  -32.3765   23.0172 H   0  0  0  0  0  0
  -24.9753  -33.8313   24.8978 H   0  0  0  0  0  0
  -22.9950  -31.1398   21.2501 H   0  0  0  0  0  0
  -23.3842  -35.8976   23.3126 H   0  0  0  0  0  0
  -24.3532  -36.8723   22.2155 H   0  0  0  0  0  0
  -23.7185  -37.5755   23.7047 H   0  0  0  0  0  0
  -26.6123  -30.2798   20.8158 H   0  0  0  0  0  0
  -26.8388  -29.5375   22.3319 H   0  0  0  0  0  0
  -27.2302  -26.4450   21.5845 H   0  0  0  0  0  0
  -24.7915  -25.2489   18.3961 H   0  0  0  0  0  0
  -23.8882  -27.3621   18.3611 H   0  0  0  0  0  0
  -24.2016  -30.2631   19.3676 H   0  0  0  0  0  0
  -22.8537  -29.2220   19.6765 H   0  0  0  0  0  0
  -25.1484  -36.0891   25.0657 H   0  0  0  0  0  0
  -20.9996  -28.3466   24.1161 H   0  0  0  0  0  0
  -20.5397  -26.2389   23.3798 H   0  0  0  0  0  0
  -21.6542  -26.7099   22.1377 H   0  0  0  0  0  0
  -19.6813  -25.6177   21.1323 H   0  0  0  0  0  0
  -19.6711  -27.3059   20.6726 H   0  0  0  0  0  0
  -17.4170  -26.6762   21.3974 H   0  0  0  0  0  0
  -18.0193  -26.0116   22.8990 H   0  0  0  0  0  0
  -19.8025  -30.7340   24.2074 H   0  0  0  0  0  0
  -17.5089  -31.6278   24.5162 H   0  0  0  0  0  0
  -15.5394  -30.2970   23.7754 H   0  0  0  0  0  0
  -15.8701  -28.0805   22.7151 H   0  0  0  0  0  0
  -24.5917  -30.7165   25.7370 H   0  0  0  0  0  0
  -24.8721  -32.3262   26.3866 H   0  0  0  0  0  0
  -25.7619  -30.9525   27.0173 H   0  0  0  0  0  0
  -26.3415  -29.5500   24.3862 H   0  0  0  0  0  0
  -27.5239  -29.8053   25.6266 H   0  0  0  0  0  0
  -27.9034  -30.3396   24.0093 H   0  0  0  0  0  0
  -27.2375  -33.4086   26.1202 H   0  0  0  0  0  0
  -28.4140  -32.6682   25.0441 H   0  0  0  0  0  0
  -28.0303  -31.9231   26.5883 H   0  0  0  0  0  0
  -28.2353  -37.9948   24.7598 H   0  0  0  0  0  0
  -28.1184  -36.2448   24.6164 H   0  0  0  0  0  0
  -27.2241  -37.0941   25.8854 H   0  0  0  0  0  0
  -20.9845  -29.8304   21.6060 H   0  0  0  0  0  0
  -25.9865  -38.2254   24.1545 H   0  0  0  0  0  0
  -25.2540  -12.0977   17.4815 H   0  0  0  0  0  0
  -23.9920  -11.4370   22.2509 H   0  0  0  0  0  0
  -25.0999  -14.8920   16.5047 H   0  0  0  0  0  0
  -23.3823  -15.2862   16.6769 H   0  0  0  0  0  0
  -23.8655  -13.6680   16.1801 H   0  0  0  0  0  0
  -27.9384  -10.7912   19.7093 H   0  0  0  0  0  0
  -28.0409  -11.5442   21.0492 H   0  0  0  0  0  0
  -23.7461  -18.0587   18.6502 H   0  0  0  0  0  0
  -25.3867  -17.6500   18.9333 H   0  0  0  0  0  0
  -29.3380  -14.9028   18.6725 H   0  0  0  0  0  0
  -29.4930  -13.9189   17.6116 H   0  0  0  0  0  0
  -31.2360  -14.5579   17.3082 H   0  0  0  0  0  0
  -31.8057  -13.3640   18.3666 H   0  0  0  0  0  0
  -31.0679  -16.3295   18.8925 H   0  0  0  0  0  0
  -32.5987  -15.5491   19.2089 H   0  0  0  0  0  0
  -24.5472  -20.7442   20.8770 H   0  0  0  0  0  0
  -24.1279  -21.0488   19.2335 H   0  0  0  0  0  0
  -31.3398  -15.7843   21.2711 H   0  0  0  0  0  0
  1 25  1  0  0  0
  1 30  2  0  0  0
  1 84  1  0  0  0
  2  3  1  0  0  0
  2 25  1  0  0  0
  2 86  1  0  0  0
  2 87  1  0  0  0
  3  4  1  0  0  0
  3 88  1  0  0  0
  3 89  1  0  0  0
  4  5  1  0  0  0
  4 90  1  0  0  0
  4 91  1  0  0  0
  5  6  1  0  0  0
  5 26  1  0  0  0
  5 92  1  0  0  0
  6 25  1  0  0  0
  6 93  1  0  0  0
  6 94  1  0  0  0
  7  8  2  0  0  0
  7 26  1  0  0  0
  7 29  1  0  0  0
  8  9  1  0  0  0
  8 22  1  0  0  0
  9 10  1  0  0  0
  9 27  2  0  0  0
 10 11  2  0  0  0
 10 15  1  0  0  0
 11 12  1  0  0  0
 11 95  1  0  0  0
 12 13  2  0  0  0
 12 96  1  0  0  0
 13 14  1  0  0  0
 13 31  1  0  0  0
 14 15  2  0  0  0
 14 97  1  0  0  0
 15 98  1  0  0  0
 16 17  2  0  0  0
 16 21  1  0  0  0
 16 31  1  0  0  0
 17 18  1  0  0  0
 17 99  1  0  0  0
 18 19  2  0  0  0
 18100  1  0  0  0
 19 20  1  0  0  0
 19 24  1  0  0  0
 20 21  2  0  0  0
 20101  1  0  0  0
 21 23  1  0  0  0
 22 28  1  0  0  0
 22 32  2  0  0  0
 26 27  1  0  0  0
 28102  1  0  0  0
 28103  1  0  0  0
 29104  1  0  0  0
 29105  1  0  0  0
 33 34  1  0  0  0
 33 66  1  0  0  0
 33 70  2  0  0  0
 34 36  1  0  0  0
 34 59  1  0  0  0
 34106  1  0  0  0
 35 44  2  0  0  0
 35 45  1  0  0  0
 35 68  1  0  0  0
 36 56  1  0  0  0
 36107  1  0  0  0
 37 39  1  0  0  0
 37 47  1  0  0  0
 37 66  1  0  0  0
 37108  1  0  0  0
 38 43  2  0  0  0
 38 46  1  0  0  0
 38 47  1  0  0  0
 39 64  1  0  0  0
 39 67  2  0  0  0
 40 52  1  0  0  0
 40 53  2  0  0  0
 40 58  1  0  0  0
 41109  1  0  0  0
 41110  1  0  0  0
 41111  1  0  0  0
 41 48  1  0  0  0
 42 43  1  0  0  0
 42 66  1  0  0  0
 42112  1  0  0  0
 42113  1  0  0  0
 43 44  1  0  0  0
 44114  1  0  0  0
 45 46  2  0  0  0
 45115  1  0  0  0
 46116  1  0  0  0
 47117  1  0  0  0
 47118  1  0  0  0
 48 56  1  0  0  0
 48 65  1  0  0  0
 48119  1  0  0  0
 49 50  1  0  0  0
 49 53  1  0  0  0
 49 64  1  0  0  0
 49120  1  0  0  0
 50 51  1  0  0  0
 50121  1  0  0  0
 50122  1  0  0  0
 51 52  1  0  0  0
 51123  1  0  0  0
 51124  1  0  0  0
 52125  1  0  0  0
 52126  1  0  0  0
 53 54  1  0  0  0
 54 55  2  0  0  0
 54127  1  0  0  0
 55 57  1  0  0  0
 55128  1  0  0  0
 56 69  2  0  0  0
 57 58  2  0  0  0
 57129  1  0  0  0
 58130  1  0  0  0
 59 60  1  0  0  0
 59 61  1  0  0  0
 59 62  1  0  0  0
 60131  1  0  0  0
 60132  1  0  0  0
 60133  1  0  0  0
 61134  1  0  0  0
 61135  1  0  0  0
 61136  1  0  0  0
 62137  1  0  0  0
 62138  1  0  0  0
 62139  1  0  0  0
 63 65  1  0  0  0
 63140  1  0  0  0
 63141  1  0  0  0
 63142  1  0  0  0
 64143  1  0  0  0
 65144  1  0  0  0
 68 83  1  0  0  0
 71 73  2  0  0  0
 71 74  1  0  0  0
 71145  1  0  0  0
 72 73  1  0  0  0
 72 76  2  0  0  0
 72146  1  0  0  0
 73 78  1  0  0  0
 74 75  2  0  0  0
 74 77  1  0  0  0
 75 76  1  0  0  0
 75 79  1  0  0  0
 76 85  1  0  0  0
 77147  1  0  0  0
 77148  1  0  0  0
 77149  1  0  0  0
 78 80  1  0  0  0
 78150  1  0  0  0
 78151  1  0  0  0
 79 83  1  0  0  0
 79152  1  0  0  0
 79153  1  0  0  0
 80 81  1  0  0  0
 80154  1  0  0  0
 80155  1  0  0  0
 81 82  1  0  0  0
 81156  1  0  0  0
 81157  1  0  0  0
 82 84  1  0  0  0
 82158  1  0  0  0
 82159  1  0  0  0
 83160  1  0  0  0
 83161  1  0  0  0
 84162  1  0  0  0
M  ISO  4   1 100  68 101  83 101  84 100
M  END
> <chiral flag>
0

> <version>
0

> <s_m_source_file>
/data/baiqing/PycharmProjects/Reinvent-master-3.2/result/LINK_invent/BTK/process_docking_weight1_custom_sum_contain_oxygen_bond_distance_aromatic_linkinvent_7_9_3/rearranged_h_0033.sdf

> <i_m_source_file_index>
31

> <r_mmod_Potential_Energy-OPLS-2005>
36508.72265625

> <r_mmod_Stretch_Energy-OPLS-2005>
19580.720703125

> <r_mmod_Bend_Energy-OPLS-2005>
2659.13305664062

> <r_mmod_Torsional_Energy-OPLS-2005>
1079.60131835938

> <r_mmod_Improper_Torsional_Energy-OPLS-2005>
178.964263916016

> <r_mmod_Van_der_Waal_Energy-OPLS-2005>
5242.56591796875

> <r_mmod_Electrostatic_Energy-OPLS-2005>
-387.033905029297

> <r_mmod_Solvation_Energy-OPLS-2005>
-202.388381958008

> <b_mmod_Minimization_Converged-OPLS-2005>
0

> <r_mmod_RMS_Derivative-OPLS-2005>
7.85786199569702

$$$$
32
                    3D
 Structure written by MMmdl.
165173  0  0  1  0            999 V2000
  -30.6938  -14.5962   20.4843 C   0  0  0  0  0  0
  -30.4171  -12.3713   19.4347 C   0  0  0  0  0  0
  -29.4866  -12.4729   18.2096 C   0  0  0  0  0  0
  -28.0141  -12.3126   18.6356 C   0  0  0  0  0  0
  -27.6379  -13.2020   19.8486 C   0  0  2  0  0  0
  -28.6921  -13.1195   20.9752 C   0  0  0  0  0  0
  -25.2514  -13.8103   20.5708 C   0  0  0  0  0  0
  -24.1799  -13.0405   20.9230 C   0  0  0  0  0  0
  -24.6355  -11.6869   20.8790 C   0  0  0  0  0  0
  -23.9032  -10.4265   21.0432 C   0  0  0  0  0  0
  -24.3593   -9.4177   21.9202 C   0  0  0  0  0  0
  -23.6277   -8.2213   22.0756 C   0  0  0  0  0  0
  -22.4257   -8.0264   21.3543 C   0  0  0  0  0  0
  -21.9885   -9.0237   20.4646 C   0  0  0  0  0  0
  -22.7211  -10.2114   20.3071 C   0  0  0  0  0  0
  -21.6847   -6.0716   22.5284 C   0  0  0  0  0  0
  -21.4007   -6.5626   23.8213 C   0  0  0  0  0  0
  -21.3655   -5.6786   24.9172 C   0  0  0  0  0  0
  -21.6032   -4.3047   24.7226 C   0  0  0  0  0  0
  -21.8833   -3.8137   23.4352 C   0  0  0  0  0  0
  -21.9188   -4.6949   22.3404 C   0  0  0  0  0  0
  -22.7827  -13.5201   21.1879 C   0  0  0  0  0  0
  -22.1663   -4.2137   21.0983 F   0  0  0  0  0  0
  -21.5622   -3.4533   25.7737 F   0  0  0  0  0  0
  -30.0027  -13.4199   20.3862 N   0  0  0  0  0  0
  -26.2926  -12.9263   20.3325 N   0  0  0  0  0  0
  -25.9281  -11.6440   20.5823 N   0  0  0  0  0  0
  -22.0458  -12.8227   22.0437 N   0  0  0  0  0  0
  -25.4188  -15.1831   20.4084 N   0  0  0  0  0  0
  -31.8864  -14.6590   20.1741 O   0  0  0  0  0  0
  -21.6630   -6.8866   21.4244 O   0  0  0  0  0  0
  -22.3529  -14.5513   20.6707 O   0  0  0  0  0  0
  -24.6202  -31.8579   23.1988 C   0  0  0  0  0  0
  -25.9063  -32.4766   23.8323 C   0  0  1  0  0  0
  -27.2470  -27.3649   20.1061 C   0  0  0  0  0  0
  -25.5861  -33.8555   24.2248 N   0  0  0  0  0  0
  -23.4147  -30.4765   21.5384 C   0  0  2  0  0  0
  -24.8653  -28.9324   20.1037 C   0  0  0  0  0  0
  -22.7447  -29.4596   22.4925 C   0  0  0  0  0  0
  -18.0275  -28.1362   22.8484 C   0  0  0  0  0  0
  -24.1490  -36.7307   23.2657 C   0  0  0  0  0  0
  -25.9450  -30.8059   21.3572 C   0  0  0  0  0  0
  -26.0229  -29.4317   20.7103 C   0  0  0  0  0  0
  -27.2090  -28.6525   20.7109 C   0  0  0  0  0  0
  -26.0670  -26.8960   19.4859 C   0  0  0  0  0  0
  -24.8864  -27.6681   19.4860 C   0  0  0  0  0  0
  -23.6258  -29.8001   20.1559 C   0  0  0  0  0  0
  -25.4105  -36.3065   24.0338 C   0  0  1  0  0  0
  -20.5876  -28.3639   23.1284 C   0  0  2  0  0  0
  -20.6769  -26.9361   22.5413 C   0  0  0  0  0  0
  -19.5750  -26.6366   21.5203 C   0  0  0  0  0  0
  -18.1921  -26.7911   22.1609 C   0  0  0  0  0  0
  -19.1534  -28.8821   23.2879 C   0  0  0  0  0  0
  -18.9459  -30.1436   23.8885 C   0  0  0  0  0  0
  -17.6461  -30.6574   24.0557 C   0  0  0  0  0  0
  -25.9036  -34.9438   23.5096 C   0  0  0  0  0  0
  -16.5350  -29.9073   23.6328 C   0  0  0  0  0  0
  -16.7265  -28.6493   23.0339 C   0  0  0  0  0  0
  -26.4481  -31.6576   25.0673 C   0  0  0  0  0  0
  -25.3750  -31.3688   26.1428 C   0  0  0  0  0  0
  -27.0322  -30.3021   24.6041 C   0  0  0  0  0  0
  -27.6032  -32.4326   25.7431 C   0  0  0  0  0  0
  -27.5577  -37.1796   24.8461 C   0  0  0  0  0  0
  -21.4164  -29.3001   22.3687 N   0  0  0  0  0  0
  -26.4288  -37.3757   23.9405 N   0  0  0  0  0  0
  -24.6787  -31.0618   22.0907 N   0  0  0  0  0  0
  -23.4169  -28.8135   23.3009 O   0  0  0  0  0  0
  -28.4251  -26.6250   20.1685 O   0  0  0  0  0  0
  -26.5626  -34.8907   22.4680 O   0  0  0  0  0  0
  -23.5367  -32.1356   23.7338 O   0  0  0  0  0  0
  -29.8962  -18.0945   21.8943 C   0  0  0  0  0  0
  -29.4444  -17.8368   19.4289 C   0  0  0  0  0  0
  -30.6979  -16.7754   21.6430 C   0  0  0  0  0  0
  -29.0885  -16.3694   19.8249 C   0  0  0  0  0  0
  -29.3668  -18.8323   20.6315 C   0  0  0  0  0  0
  -29.2334  -21.6357   22.3484 C   0  0  0  0  0  0
  -30.8043  -20.3854   19.2243 C   0  0  0  0  0  0
  -28.4036  -24.0268   20.4139 C   0  0  0  0  0  0
  -29.3542  -22.7989   20.0809 C   0  0  0  0  0  0
  -28.6138  -25.3217   19.5403 C   0  0  0  0  0  0
  -29.0978  -21.4160   20.8287 C   0  0  1  0  0  0
  -30.0152  -15.7502   20.8086 N   0  0  0  0  0  0
  -29.9761  -20.2238   20.4478 N   0  3  1  0  0  0
  -31.4559  -12.4724   19.1166 H   0  0  0  0  0  0
  -30.3404  -11.3858   19.8986 H   0  0  0  0  0  0
  -29.7431  -11.7041   17.4780 H   0  0  0  0  0  0
  -29.6282  -13.4295   17.7077 H   0  0  0  0  0  0
  -27.8566  -11.2630   18.8886 H   0  0  0  0  0  0
  -27.3507  -12.5244   17.7955 H   0  0  0  0  0  0
  -27.6171  -14.2144   19.4632 H   0  0  0  0  0  0
  -28.7067  -12.1270   21.4262 H   0  0  0  0  0  0
  -28.4498  -13.8188   21.7780 H   0  0  0  0  0  0
  -25.2728   -9.5648   22.4794 H   0  0  0  0  0  0
  -23.9975   -7.4592   22.7471 H   0  0  0  0  0  0
  -21.0815   -8.8750   19.8961 H   0  0  0  0  0  0
  -22.3660  -10.9660   19.6198 H   0  0  0  0  0  0
  -21.2016   -7.6140   23.9710 H   0  0  0  0  0  0
  -21.1456   -6.0513   25.9069 H   0  0  0  0  0  0
  -22.0621   -2.7606   23.2854 H   0  0  0  0  0  0
  -22.4043  -11.9888   22.4870 H   0  0  0  0  0  0
  -21.1075  -13.1276   22.2625 H   0  0  0  0  0  0
  -24.6484  -15.8343   20.5127 H   0  0  0  0  0  0
  -26.2646  -15.6192   20.0698 H   0  0  0  0  0  0
  -26.7138  -32.5450   23.1085 H   0  0  0  0  0  0
  -24.9977  -33.9696   25.0365 H   0  0  0  0  0  0
  -22.7091  -31.2936   21.3891 H   0  0  0  0  0  0
  -23.3731  -35.9670   23.3305 H   0  0  0  0  0  0
  -24.3593  -36.8932   22.2075 H   0  0  0  0  0  0
  -23.7267  -37.6512   23.6687 H   0  0  0  0  0  0
  -26.0567  -31.5652   20.5809 H   0  0  0  0  0  0
  -26.8333  -30.8666   21.9759 H   0  0  0  0  0  0
  -28.1027  -29.0303   21.1913 H   0  0  0  0  0  0
  -26.0414  -25.9280   19.0097 H   0  0  0  0  0  0
  -23.9996  -27.2745   19.0073 H   0  0  0  0  0  0
  -23.7221  -30.5619   19.3823 H   0  0  0  0  0  0
  -22.7529  -29.2076   19.8748 H   0  0  0  0  0  0
  -25.1289  -36.1926   25.0830 H   0  0  0  0  0  0
  -20.9992  -28.3215   24.1389 H   0  0  0  0  0  0
  -20.5650  -26.2231   23.3606 H   0  0  0  0  0  0
  -21.6628  -26.7377   22.1203 H   0  0  0  0  0  0
  -19.6895  -25.6278   21.1213 H   0  0  0  0  0  0
  -19.6702  -27.3191   20.6750 H   0  0  0  0  0  0
  -17.4193  -26.6649   21.4011 H   0  0  0  0  0  0
  -18.0300  -26.0056   22.9005 H   0  0  0  0  0  0
  -19.7947  -30.7254   24.2228 H   0  0  0  0  0  0
  -17.5024  -31.6255   24.5145 H   0  0  0  0  0  0
  -15.5347  -30.2969   23.7683 H   0  0  0  0  0  0
  -15.8655  -28.0839   22.7028 H   0  0  0  0  0  0
  -24.5925  -30.7017   25.7783 H   0  0  0  0  0  0
  -24.8934  -32.2849   26.4859 H   0  0  0  0  0  0
  -25.8127  -30.8886   27.0191 H   0  0  0  0  0  0
  -26.2854  -29.6752   24.1143 H   0  0  0  0  0  0
  -27.4145  -29.7280   25.4488 H   0  0  0  0  0  0
  -27.8654  -30.4349   23.9133 H   0  0  0  0  0  0
  -27.2626  -33.3639   26.1988 H   0  0  0  0  0  0
  -28.3854  -32.6841   25.0251 H   0  0  0  0  0  0
  -28.0686  -31.8448   26.5356 H   0  0  0  0  0  0
  -28.2572  -38.0112   24.7500 H   0  0  0  0  0  0
  -28.1082  -36.2627   24.6293 H   0  0  0  0  0  0
  -27.2290  -37.1450   25.8865 H   0  0  0  0  0  0
  -20.9323  -29.8734   21.6923 H   0  0  0  0  0  0
  -26.0163  -38.2825   24.1429 H   0  0  0  0  0  0
  -30.4857  -18.7720   22.5126 H   0  0  0  0  0  0
  -29.0330  -17.8322   22.5085 H   0  0  0  0  0  0
  -28.7710  -18.1730   18.6397 H   0  0  0  0  0  0
  -30.4354  -17.7951   18.9801 H   0  0  0  0  0  0
  -30.9503  -16.3272   22.6064 H   0  0  0  0  0  0
  -31.6503  -17.0364   21.1802 H   0  0  0  0  0  0
  -29.0463  -15.7777   18.9079 H   0  0  0  0  0  0
  -28.0839  -16.3536   20.2506 H   0  0  0  0  0  0
  -28.2995  -18.9824   20.8022 H   0  0  0  0  0  0
  -28.5502  -22.3941   22.7276 H   0  0  0  0  0  0
  -30.2428  -21.9598   22.6060 H   0  0  0  0  0  0
  -29.0208  -20.7285   22.9116 H   0  0  0  0  0  0
  -30.2046  -20.3189   18.3158 H   0  0  0  0  0  0
  -31.5861  -19.6238   19.1887 H   0  0  0  0  0  0
  -31.3462  -21.3292   19.2161 H   0  0  0  0  0  0
  -28.5427  -24.3024   21.4577 H   0  0  0  0  0  0
  -27.3616  -23.7213   20.3293 H   0  0  0  0  0  0
  -30.3756  -23.1230   20.2896 H   0  0  0  0  0  0
  -29.3049  -22.6324   19.0052 H   0  0  0  0  0  0
  -28.0849  -25.2468   18.5905 H   0  0  0  0  0  0
  -29.6661  -25.3277   19.2549 H   0  0  0  0  0  0
  -28.0636  -21.1467   20.6102 H   0  0  0  0  0  0
  -30.6804  -20.2515   21.1685 H   0  0  0  0  0  0
  1 25  1  0  0  0
  1 30  2  0  0  0
  1 82  1  0  0  0
  2  3  1  0  0  0
  2 25  1  0  0  0
  2 84  1  0  0  0
  2 85  1  0  0  0
  3  4  1  0  0  0
  3 86  1  0  0  0
  3 87  1  0  0  0
  4  5  1  0  0  0
  4 88  1  0  0  0
  4 89  1  0  0  0
  5  6  1  0  0  0
  5 26  1  0  0  0
  5 90  1  0  0  0
  6 25  1  0  0  0
  6 91  1  0  0  0
  6 92  1  0  0  0
  7  8  2  0  0  0
  7 26  1  0  0  0
  7 29  1  0  0  0
  8  9  1  0  0  0
  8 22  1  0  0  0
  9 10  1  0  0  0
  9 27  2  0  0  0
 10 11  2  0  0  0
 10 15  1  0  0  0
 11 12  1  0  0  0
 11 93  1  0  0  0
 12 13  2  0  0  0
 12 94  1  0  0  0
 13 14  1  0  0  0
 13 31  1  0  0  0
 14 15  2  0  0  0
 14 95  1  0  0  0
 15 96  1  0  0  0
 16 17  2  0  0  0
 16 21  1  0  0  0
 16 31  1  0  0  0
 17 18  1  0  0  0
 17 97  1  0  0  0
 18 19  2  0  0  0
 18 98  1  0  0  0
 19 20  1  0  0  0
 19 24  1  0  0  0
 20 21  2  0  0  0
 20 99  1  0  0  0
 21 23  1  0  0  0
 22 28  1  0  0  0
 22 32  2  0  0  0
 26 27  1  0  0  0
 28100  1  0  0  0
 28101  1  0  0  0
 29102  1  0  0  0
 29103  1  0  0  0
 33 34  1  0  0  0
 33 66  1  0  0  0
 33 70  2  0  0  0
 34 36  1  0  0  0
 34 59  1  0  0  0
 34104  1  0  0  0
 35 44  2  0  0  0
 35 45  1  0  0  0
 35 68  1  0  0  0
 36 56  1  0  0  0
 36105  1  0  0  0
 37 39  1  0  0  0
 37 47  1  0  0  0
 37 66  1  0  0  0
 37106  1  0  0  0
 38 43  2  0  0  0
 38 46  1  0  0  0
 38 47  1  0  0  0
 39 64  1  0  0  0
 39 67  2  0  0  0
 40 52  1  0  0  0
 40 53  2  0  0  0
 40 58  1  0  0  0
 41107  1  0  0  0
 41108  1  0  0  0
 41109  1  0  0  0
 41 48  1  0  0  0
 42 43  1  0  0  0
 42 66  1  0  0  0
 42110  1  0  0  0
 42111  1  0  0  0
 43 44  1  0  0  0
 44112  1  0  0  0
 45 46  2  0  0  0
 45113  1  0  0  0
 46114  1  0  0  0
 47115  1  0  0  0
 47116  1  0  0  0
 48 56  1  0  0  0
 48 65  1  0  0  0
 48117  1  0  0  0
 49 50  1  0  0  0
 49 53  1  0  0  0
 49 64  1  0  0  0
 49118  1  0  0  0
 50 51  1  0  0  0
 50119  1  0  0  0
 50120  1  0  0  0
 51 52  1  0  0  0
 51121  1  0  0  0
 51122  1  0  0  0
 52123  1  0  0  0
 52124  1  0  0  0
 53 54  1  0  0  0
 54 55  2  0  0  0
 54125  1  0  0  0
 55 57  1  0  0  0
 55126  1  0  0  0
 56 69  2  0  0  0
 57 58  2  0  0  0
 57127  1  0  0  0
 58128  1  0  0  0
 59 60  1  0  0  0
 59 61  1  0  0  0
 59 62  1  0  0  0
 60129  1  0  0  0
 60130  1  0  0  0
 60131  1  0  0  0
 61132  1  0  0  0
 61133  1  0  0  0
 61134  1  0  0  0
 62135  1  0  0  0
 62136  1  0  0  0
 62137  1  0  0  0
 63 65  1  0  0  0
 63138  1  0  0  0
 63139  1  0  0  0
 63140  1  0  0  0
 64141  1  0  0  0
 65142  1  0  0  0
 68 80  1  0  0  0
 71 73  1  0  0  0
 71143  1  0  0  0
 71144  1  0  0  0
 71 75  1  0  0  0
 72 74  1  0  0  0
 72 75  1  0  0  0
 72145  1  0  0  0
 72146  1  0  0  0
 73 82  1  0  0  0
 73147  1  0  0  0
 73148  1  0  0  0
 74 82  1  0  0  0
 74149  1  0  0  0
 74150  1  0  0  0
 75 83  1  0  0  0
 75151  1  0  0  0
 76152  1  0  0  0
 76153  1  0  0  0
 76154  1  0  0  0
 76 81  1  0  0  0
 77155  1  0  0  0
 77156  1  0  0  0
 77157  1  0  0  0
 77 83  1  0  0  0
 78 79  1  0  0  0
 78 80  1  0  0  0
 78158  1  0  0  0
 78159  1  0  0  0
 79 81  1  0  0  0
 79160  1  0  0  0
 79161  1  0  0  0
 80162  1  0  0  0
 80163  1  0  0  0
 81 83  1  0  0  0
 81164  1  0  0  0
 83165  1  0  0  0
M  CHG  1  83   1
M  ISO  4   1 100  68 101  80 101  82 100
M  END
> <chiral flag>
0

> <version>
0

> <s_m_source_file>
/data/baiqing/PycharmProjects/Reinvent-master-3.2/result/LINK_invent/BTK/process_docking_weight1_custom_sum_contain_oxygen_bond_distance_aromatic_linkinvent_7_9_3/rearranged_h_0033.sdf

> <i_m_source_file_index>
32

> <r_mmod_Potential_Energy-OPLS-2005>
217.137939453125

> <r_mmod_Stretch_Energy-OPLS-2005>
70.9892730712891

> <r_mmod_Bend_Energy-OPLS-2005>
159.828765869141

> <r_mmod_Torsional_Energy-OPLS-2005>
363.134399414062

> <r_mmod_Improper_Torsional_Energy-OPLS-2005>
5.61326265335083

> <r_mmod_Van_der_Waal_Energy-OPLS-2005>
141.363739013672

> <r_mmod_Electrostatic_Energy-OPLS-2005>
-136.681167602539

> <r_mmod_Solvation_Energy-OPLS-2005>
-425.209106445312

> <b_mmod_Minimization_Converged-OPLS-2005>
0

> <r_mmod_RMS_Derivative-OPLS-2005>
4.2274317741394

$$$$
33
                    3D
 Structure written by MMmdl.
174182  0  0  1  0            999 V2000
  -28.7422  -16.9909   20.6431 C   0  0  0  0  0  0
  -29.9191  -14.2801   19.6800 C   0  0  0  0  0  0
  -29.4667  -13.1748   18.5814 C   0  0  0  0  0  0
  -28.2313  -12.3922   19.0158 C   0  0  0  0  0  0
  -27.4451  -13.3853   19.8600 C   0  0  2  0  0  0
  -28.2010  -14.1080   21.0092 C   0  0  0  0  0  0
  -25.1423  -13.8189   20.5753 C   0  0  0  0  0  0
  -24.1070  -13.0264   20.9501 C   0  0  0  0  0  0
  -24.5873  -11.6815   20.8709 C   0  0  0  0  0  0
  -23.8713  -10.4203   21.0490 C   0  0  0  0  0  0
  -24.3472   -9.4170   21.9218 C   0  0  0  0  0  0
  -23.6196   -8.2192   22.0782 C   0  0  0  0  0  0
  -22.4228   -8.0140   21.3523 C   0  0  0  0  0  0
  -21.9763   -9.0085   20.4670 C   0  0  0  0  0  0
  -22.6990  -10.1974   20.3046 C   0  0  0  0  0  0
  -21.6823   -6.0638   22.5304 C   0  0  0  0  0  0
  -21.3936   -6.5596   23.8207 C   0  0  0  0  0  0
  -21.3650   -5.6791   24.9199 C   0  0  0  0  0  0
  -21.6085   -4.3056   24.7273 C   0  0  0  0  0  0
  -21.8821   -3.8094   23.4407 C   0  0  0  0  0  0
  -21.9151   -4.6865   22.3428 C   0  0  0  0  0  0
  -22.7136  -13.5015   21.1989 C   0  0  0  0  0  0
  -22.1664   -4.2082   21.0995 F   0  0  0  0  0  0
  -21.5633   -3.4528   25.7769 F   0  0  0  0  0  0
  -28.8297  -15.3412   20.3916 N   0  0  0  0  0  0
  -26.1786  -12.9573   20.3235 N   0  0  0  0  0  0
  -25.8838  -11.6609   20.5674 N   0  0  0  0  0  0
  -21.9836  -12.8111   22.0632 N   0  0  0  0  0  0
  -25.3066  -15.1938   20.4099 N   0  0  0  0  0  0
  -30.0445  -16.9300   20.4949 O   0  0  0  0  0  0
  -21.6566   -6.8768   21.4274 O   0  0  0  0  0  0
  -22.3004  -14.5416   20.6860 O   0  0  0  0  0  0
  -24.6785  -31.8847   23.2208 C   0  0  0  0  0  0
  -25.9652  -32.4807   23.8466 C   0  0  1  0  0  0
  -26.4694  -26.9127   20.0150 C   0  0  0  0  0  0
  -25.6360  -33.8616   24.2331 N   0  0  0  0  0  0
  -23.4838  -30.4501   21.6661 C   0  0  2  0  0  0
  -24.8061  -29.1076   19.9852 C   0  0  0  0  0  0
  -23.2364  -29.2592   22.6590 C   0  0  0  0  0  0
  -18.5977  -27.1145   22.0371 C   0  0  0  0  0  0
  -24.1506  -36.7232   23.2583 C   0  0  0  0  0  0
  -26.0403  -30.6021   21.5048 C   0  0  0  0  0  0
  -25.9645  -29.2480   20.7488 C   0  0  0  0  0  0
  -26.8447  -28.0960   20.8160 C   0  0  0  0  0  0
  -25.6634  -27.1391   18.9411 C   0  0  0  0  0  0
  -24.6668  -28.0787   19.0702 C   0  0  0  0  0  0
  -23.7275  -30.1162   20.1793 C   0  0  0  0  0  0
  -25.4140  -36.3065   24.0248 C   0  0  1  0  0  0
  -21.7104  -27.6498   23.9154 C   0  0  2  0  0  0
  -22.2089  -25.7200   23.4385 C   0  0  0  0  0  0
  -20.5900  -24.6885   21.4890 C   0  0  0  0  0  0
  -18.9353  -25.6621   21.2321 C   0  0  0  0  0  0
  -20.2379  -28.2089   23.5234 C   0  0  0  0  0  0
  -19.6395  -29.7897   24.1198 C   0  0  0  0  0  0
  -18.1009  -30.4015   23.7015 C   0  0  0  0  0  0
  -25.9120  -34.9462   23.4999 C   0  0  0  0  0  0
  -16.9395  -29.6389   22.7283 C   0  0  0  0  0  0
  -17.0902  -28.1095   21.9377 C   0  0  0  0  0  0
  -26.4786  -31.6690   25.0978 C   0  0  0  0  0  0
  -25.3773  -31.3998   26.1455 C   0  0  0  0  0  0
  -27.0721  -30.3032   24.6865 C   0  0  0  0  0  0
  -27.6153  -32.4537   25.7855 C   0  0  0  0  0  0
  -27.5565  -37.1820   24.8432 C   0  0  0  0  0  0
  -22.0793  -28.9027   23.1285 N   0  0  0  0  0  0
  -26.4290  -37.3808   23.9346 N   0  0  0  0  0  0
  -24.7500  -31.0637   22.1345 N   0  0  0  0  0  0
  -24.1539  -28.6626   23.1791 O   0  0  0  0  0  0
  -26.4567  -25.4801   20.1865 O   0  0  0  0  0  0
  -26.5629  -34.8948   22.4548 O   0  0  0  0  0  0
  -23.5950  -32.1852   23.7462 O   0  0  0  0  0  0
  -19.1706  -29.1910   21.9031 C   0  0  0  0  0  0
  -18.1250  -28.0105   24.0068 C   0  0  0  0  0  0
  -20.4795  -28.2442   21.1299 C   0  0  0  0  0  0
  -18.7873  -26.4924   24.3424 C   0  0  0  0  0  0
  -21.1973  -26.7691   21.7794 C   0  0  0  0  0  0
  -19.9918  -25.8651   23.3995 C   0  0  0  0  0  0
  -17.0396  -28.3028   25.1060 C   0  0  0  0  0  0
  -20.7742  -28.6487   19.7193 C   0  0  0  0  0  0
  -18.2833  -25.6201   25.4891 C   0  0  0  0  0  0
  -23.3228  -25.2679   21.3994 C   0  0  0  0  0  0
  -20.3072  -24.1250   23.7888 C   0  0  0  0  0  0
  -21.6863  -23.1030   23.0363 C   0  0  0  0  0  0
  -25.0611  -22.9432   21.7074 C   0  0  0  0  0  0
  -22.5057  -22.7841   21.3879 C   0  0  0  0  0  0
  -23.5608  -23.4412   19.8479 C   0  0  0  0  0  0
  -26.3168  -20.6159   21.0291 C   0  0  0  0  0  0
  -25.2535  -24.3824   19.5646 C   0  0  0  0  0  0
  -27.5463  -18.5524   20.8712 N   0  0  0  0  0  0
  -30.6504  -14.9017   19.1697 H   0  0  0  0  0  0
  -30.5482  -13.7994   20.4338 H   0  0  0  0  0  0
  -30.2935  -12.5013   18.3419 H   0  0  0  0  0  0
  -29.2267  -13.6945   17.6515 H   0  0  0  0  0  0
  -28.5247  -11.5394   19.6297 H   0  0  0  0  0  0
  -27.6671  -12.0066   18.1650 H   0  0  0  0  0  0
  -27.1930  -14.1356   19.1051 H   0  0  0  0  0  0
  -28.8405  -13.4281   21.5820 H   0  0  0  0  0  0
  -27.5104  -14.4744   21.7623 H   0  0  0  0  0  0
  -25.2551   -9.5713   22.4915 H   0  0  0  0  0  0
  -23.9864   -7.4583   22.7481 H   0  0  0  0  0  0
  -21.0750   -8.8587   19.8956 H   0  0  0  0  0  0
  -22.3450  -10.9553   19.6206 H   0  0  0  0  0  0
  -21.1935   -7.6114   23.9716 H   0  0  0  0  0  0
  -21.1489   -6.0506   25.9113 H   0  0  0  0  0  0
  -22.0596   -2.7559   23.2924 H   0  0  0  0  0  0
  -22.3384  -11.9688   22.4957 H   0  0  0  0  0  0
  -21.0473  -13.1241   22.2771 H   0  0  0  0  0  0
  -24.5654  -15.8738   20.5126 H   0  0  0  0  0  0
  -26.1465  -15.5967   20.0249 H   0  0  0  0  0  0
  -26.7608  -32.5179   23.1031 H   0  0  0  0  0  0
  -25.0599  -33.9825   25.0526 H   0  0  0  0  0  0
  -22.6569  -31.1558   21.7347 H   0  0  0  0  0  0
  -23.3841  -35.9489   23.3207 H   0  0  0  0  0  0
  -24.3605  -36.8953   22.2013 H   0  0  0  0  0  0
  -23.7225  -37.6359   23.6704 H   0  0  0  0  0  0
  -26.3488  -31.3691   20.7971 H   0  0  0  0  0  0
  -26.8762  -30.5284   22.1796 H   0  0  0  0  0  0
  -27.5539  -28.0109   21.6324 H   0  0  0  0  0  0
  -25.5182  -26.4293   18.1448 H   0  0  0  0  0  0
  -23.8389  -28.0929   18.3744 H   0  0  0  0  0  0
  -24.1184  -31.0244   19.7297 H   0  0  0  0  0  0
  -22.8519  -29.9913   19.5839 H   0  0  0  0  0  0
  -25.1358  -36.1797   25.0743 H   0  0  0  0  0  0
  -21.9214  -27.8400   24.9724 H   0  0  0  0  0  0
  -23.2662  -25.4863   23.6008 H   0  0  0  0  0  0
  -22.1069  -25.3160   24.4580 H   0  0  0  0  0  0
  -20.1574  -23.6757   21.4228 H   0  0  0  0  0  0
  -21.0555  -24.7502   20.4965 H   0  0  0  0  0  0
  -18.7981  -25.8475   20.1623 H   0  0  0  0  0  0
  -18.1197  -24.9888   21.5070 H   0  0  0  0  0  0
  -20.2898  -30.3720   24.7707 H   0  0  0  0  0  0
  -17.8426  -31.3566   24.1261 H   0  0  0  0  0  0
  -16.0045  -30.1626   22.5983 H   0  0  0  0  0  0
  -16.2708  -27.7437   21.3397 H   0  0  0  0  0  0
  -24.5931  -30.7419   25.7752 H   0  0  0  0  0  0
  -24.8952  -32.3192   26.4710 H   0  0  0  0  0  0
  -25.7808  -30.9246   27.0357 H   0  0  0  0  0  0
  -26.3486  -29.6670   24.1746 H   0  0  0  0  0  0
  -27.4022  -29.7429   25.5633 H   0  0  0  0  0  0
  -27.9532  -30.4268   24.0551 H   0  0  0  0  0  0
  -27.2600  -33.3830   26.2308 H   0  0  0  0  0  0
  -28.4020  -32.7126   25.0774 H   0  0  0  0  0  0
  -28.0669  -31.8727   26.5887 H   0  0  0  0  0  0
  -28.2520  -38.0187   24.7603 H   0  0  0  0  0  0
  -28.1185  -36.2762   24.6139 H   0  0  0  0  0  0
  -27.2314  -37.1210   25.8844 H   0  0  0  0  0  0
  -21.2743  -29.3734   22.7334 H   0  0  0  0  0  0
  -26.0117  -38.2817   24.1521 H   0  0  0  0  0  0
  -18.8760  -30.1204   21.4139 H   0  0  0  0  0  0
  -16.5229  -29.2531   25.1265 H   0  0  0  0  0  0
  -17.5099  -28.2386   26.0912 H   0  0  0  0  0  0
  -16.2441  -27.5595   25.0448 H   0  0  0  0  0  0
  -20.0364  -28.2189   19.0642 H   0  0  0  0  0  0
  -21.7090  -28.2723   19.3502 H   0  0  0  0  0  0
  -20.6882  -29.7185   19.5884 H   0  0  0  0  0  0
  -17.4910  -26.0391   26.0977 H   0  0  0  0  0  0
  -19.1086  -25.3892   26.1608 H   0  0  0  0  0  0
  -17.8857  -24.6867   25.0970 H   0  0  0  0  0  0
  -24.0843  -25.9415   21.8193 H   0  0  0  0  0  0
  -23.4731  -25.6998   20.4146 H   0  0  0  0  0  0
  -20.4101  -24.0286   24.8640 H   0  0  0  0  0  0
  -19.3544  -23.6140   23.5941 H   0  0  0  0  0  0
  -21.2756  -22.0944   23.2442 H   0  0  0  0  0  0
  -22.5193  -23.1917   23.7344 H   0  0  0  0  0  0
  -25.0497  -22.7891   22.7707 H   0  0  0  0  0  0
  -26.0005  -23.4657   21.7085 H   0  0  0  0  0  0
  -21.9919  -21.9535   20.9266 H   0  0  0  0  0  0
  -23.0690  -22.0590   22.0370 H   0  0  0  0  0  0
  -22.8548  -23.9778   19.2217 H   0  0  0  0  0  0
  -23.6782  -22.5466   19.2253 H   0  0  0  0  0  0
  -25.6133  -20.0537   21.6385 H   0  0  0  0  0  0
  -27.1865  -20.9325   21.5984 H   0  0  0  0  0  0
  -25.2340  -24.5402   18.4892 H   0  0  0  0  0  0
  -25.9262  -23.5308   19.4942 H   0  0  0  0  0  0
  -28.4136  -19.0551   21.0502 H   0  0  0  0  0  0
  1 25  1  0  0  0
  1 30  2  0  0  0
  1 88  1  0  0  0
  2  3  1  0  0  0
  2 25  1  0  0  0
  2 89  1  0  0  0
  2 90  1  0  0  0
  3  4  1  0  0  0
  3 91  1  0  0  0
  3 92  1  0  0  0
  4  5  1  0  0  0
  4 93  1  0  0  0
  4 94  1  0  0  0
  5  6  1  0  0  0
  5 26  1  0  0  0
  5 95  1  0  0  0
  6 25  1  0  0  0
  6 96  1  0  0  0
  6 97  1  0  0  0
  7  8  2  0  0  0
  7 26  1  0  0  0
  7 29  1  0  0  0
  8  9  1  0  0  0
  8 22  1  0  0  0
  9 10  1  0  0  0
  9 27  2  0  0  0
 10 11  2  0  0  0
 10 15  1  0  0  0
 11 12  1  0  0  0
 11 98  1  0  0  0
 12 13  2  0  0  0
 12 99  1  0  0  0
 13 14  1  0  0  0
 13 31  1  0  0  0
 14 15  2  0  0  0
 14100  1  0  0  0
 15101  1  0  0  0
 16 17  2  0  0  0
 16 21  1  0  0  0
 16 31  1  0  0  0
 17 18  1  0  0  0
 17102  1  0  0  0
 18 19  2  0  0  0
 18103  1  0  0  0
 19 20  1  0  0  0
 19 24  1  0  0  0
 20 21  2  0  0  0
 20104  1  0  0  0
 21 23  1  0  0  0
 22 28  1  0  0  0
 22 32  2  0  0  0
 26 27  1  0  0  0
 28105  1  0  0  0
 28106  1  0  0  0
 29107  1  0  0  0
 29108  1  0  0  0
 33 34  1  0  0  0
 33 66  1  0  0  0
 33 70  2  0  0  0
 34 36  1  0  0  0
 34 59  1  0  0  0
 34109  1  0  0  0
 35 44  2  0  0  0
 35 45  1  0  0  0
 35 68  1  0  0  0
 36 56  1  0  0  0
 36110  1  0  0  0
 37 39  1  0  0  0
 37 47  1  0  0  0
 37 66  1  0  0  0
 37111  1  0  0  0
 38 43  2  0  0  0
 38 46  1  0  0  0
 38 47  1  0  0  0
 39 64  1  0  0  0
 39 67  2  0  0  0
 40 52  1  0  0  0
 40 53  2  0  0  0
 40 58  1  0  0  0
 41112  1  0  0  0
 41113  1  0  0  0
 41114  1  0  0  0
 41 48  1  0  0  0
 42 43  1  0  0  0
 42 66  1  0  0  0
 42115  1  0  0  0
 42116  1  0  0  0
 43 44  1  0  0  0
 44117  1  0  0  0
 45 46  2  0  0  0
 45118  1  0  0  0
 46119  1  0  0  0
 47120  1  0  0  0
 47121  1  0  0  0
 48 56  1  0  0  0
 48 65  1  0  0  0
 48122  1  0  0  0
 49 50  1  0  0  0
 49 53  1  0  0  0
 49 64  1  0  0  0
 49123  1  0  0  0
 50 51  1  0  0  0
 50124  1  0  0  0
 50125  1  0  0  0
 51 52  1  0  0  0
 51126  1  0  0  0
 51127  1  0  0  0
 52128  1  0  0  0
 52129  1  0  0  0
 53 54  1  0  0  0
 54 55  2  0  0  0
 54130  1  0  0  0
 55 57  1  0  0  0
 55131  1  0  0  0
 56 69  2  0  0  0
 57 58  2  0  0  0
 57132  1  0  0  0
 58133  1  0  0  0
 59 60  1  0  0  0
 59 61  1  0  0  0
 59 62  1  0  0  0
 60134  1  0  0  0
 60135  1  0  0  0
 60136  1  0  0  0
 61137  1  0  0  0
 61138  1  0  0  0
 61139  1  0  0  0
 62140  1  0  0  0
 62141  1  0  0  0
 62142  1  0  0  0
 63 65  1  0  0  0
 63143  1  0  0  0
 63144  1  0  0  0
 63145  1  0  0  0
 64146  1  0  0  0
 65147  1  0  0  0
 68 87  1  0  0  0
 71 72  2  0  0  0
 71 73  1  0  0  0
 71148  1  0  0  0
 72 74  1  0  0  0
 72 77  1  0  0  0
 73 75  2  0  0  0
 73 78  1  0  0  0
 74 76  2  0  0  0
 74 79  1  0  0  0
 75 76  1  0  0  0
 75 80  1  0  0  0
 76 81  1  0  0  0
 77149  1  0  0  0
 77150  1  0  0  0
 77151  1  0  0  0
 78152  1  0  0  0
 78153  1  0  0  0
 78154  1  0  0  0
 79155  1  0  0  0
 79156  1  0  0  0
 79157  1  0  0  0
 80 83  1  0  0  0
 80158  1  0  0  0
 80159  1  0  0  0
 81 82  1  0  0  0
 81160  1  0  0  0
 81161  1  0  0  0
 82 84  1  0  0  0
 82162  1  0  0  0
 82163  1  0  0  0
 83 86  1  0  0  0
 83164  1  0  0  0
 83165  1  0  0  0
 84 85  1  0  0  0
 84166  1  0  0  0
 84167  1  0  0  0
 85 87  1  0  0  0
 85168  1  0  0  0
 85169  1  0  0  0
 86 88  1  0  0  0
 86170  1  0  0  0
 86171  1  0  0  0
 87172  1  0  0  0
 87173  1  0  0  0
 88174  1  0  0  0
M  ISO  4   1 100  68 101  87 101  88 100
M  END
> <chiral flag>
0

> <version>
0

> <s_m_source_file>
/data/baiqing/PycharmProjects/Reinvent-master-3.2/result/LINK_invent/BTK/process_docking_weight1_custom_sum_contain_oxygen_bond_distance_aromatic_linkinvent_7_9_3/rearranged_h_0033.sdf

> <i_m_source_file_index>
33

> <r_mmod_Potential_Energy-OPLS-2005>
34593.6875

> <r_mmod_Stretch_Energy-OPLS-2005>
19723.037109375

> <r_mmod_Bend_Energy-OPLS-2005>
2545.02709960938

> <r_mmod_Torsional_Energy-OPLS-2005>
396.785705566406

> <r_mmod_Improper_Torsional_Energy-OPLS-2005>
16.578763961792

> <r_mmod_Van_der_Waal_Energy-OPLS-2005>
5975.27783203125

> <r_mmod_Electrostatic_Energy-OPLS-2005>
-371.971923828125

> <r_mmod_Solvation_Energy-OPLS-2005>
-198.574691772461

> <b_mmod_Minimization_Converged-OPLS-2005>
0

> <r_mmod_RMS_Derivative-OPLS-2005>
52.7414588928223

$$$$
34
                    3D
 Structure written by MMmdl.
162170  0  0  1  0            999 V2000
  -30.7940  -14.3480   20.7126 C   0  0  0  0  0  0
  -30.4166  -12.2943   19.3967 C   0  0  0  0  0  0
  -29.4830  -12.5168   18.1939 C   0  0  0  0  0  0
  -28.0102  -12.3687   18.6155 C   0  0  0  0  0  0
  -27.6663  -13.2034   19.8767 C   0  0  2  0  0  0
  -28.7032  -12.9647   20.9969 C   0  0  0  0  0  0
  -25.2609  -13.8165   20.5668 C   0  0  0  0  0  0
  -24.1852  -13.0446   20.9152 C   0  0  0  0  0  0
  -24.6399  -11.6912   20.8717 C   0  0  0  0  0  0
  -23.9065  -10.4291   21.0387 C   0  0  0  0  0  0
  -24.3609   -9.4211   21.9178 C   0  0  0  0  0  0
  -23.6281   -8.2250   22.0759 C   0  0  0  0  0  0
  -22.4271   -8.0282   21.3542 C   0  0  0  0  0  0
  -21.9903   -9.0253   20.4644 C   0  0  0  0  0  0
  -22.7232  -10.2130   20.3039 C   0  0  0  0  0  0
  -21.6852   -6.0741   22.5285 C   0  0  0  0  0  0
  -21.4009   -6.5645   23.8221 C   0  0  0  0  0  0
  -21.3655   -5.6791   24.9181 C   0  0  0  0  0  0
  -21.6036   -4.3052   24.7229 C   0  0  0  0  0  0
  -21.8818   -3.8149   23.4348 C   0  0  0  0  0  0
  -21.9192   -4.6966   22.3406 C   0  0  0  0  0  0
  -22.7875  -13.5242   21.1822 C   0  0  0  0  0  0
  -22.1662   -4.2151   21.0980 F   0  0  0  0  0  0
  -21.5625   -3.4536   25.7744 F   0  0  0  0  0  0
  -30.0500  -13.2408   20.4612 N   0  0  0  0  0  0
  -26.3051  -12.9329   20.3358 N   0  0  0  0  0  0
  -25.9322  -11.6487   20.5747 N   0  0  0  0  0  0
  -22.0501  -12.8234   22.0367 N   0  0  0  0  0  0
  -25.4355  -15.1879   20.4099 N   0  0  0  0  0  0
  -31.7805  -14.6689   20.0430 O   0  0  0  0  0  0
  -21.6637   -6.8885   21.4247 O   0  0  0  0  0  0
  -22.3564  -14.5557   20.6684 O   0  0  0  0  0  0
  -24.6139  -31.8694   23.2131 C   0  0  0  0  0  0
  -25.9036  -32.4849   23.8400 C   0  0  1  0  0  0
  -27.2346  -27.4449   20.0814 C   0  0  0  0  0  0
  -25.5911  -33.8643   24.2312 N   0  0  0  0  0  0
  -23.3985  -30.4937   21.5548 C   0  0  2  0  0  0
  -24.8403  -28.9605   20.1184 C   0  0  0  0  0  0
  -22.7412  -29.4650   22.5024 C   0  0  0  0  0  0
  -18.0271  -28.1410   22.8485 C   0  0  0  0  0  0
  -24.1474  -36.7306   23.2625 C   0  0  0  0  0  0
  -25.9251  -30.8360   21.3636 C   0  0  0  0  0  0
  -25.9992  -29.4687   20.7162 C   0  0  0  0  0  0
  -27.1932  -28.7152   20.6995 C   0  0  0  0  0  0
  -26.0500  -26.9482   19.4865 C   0  0  0  0  0  0
  -24.8594  -27.6970   19.5083 C   0  0  0  0  0  0
  -23.6035  -29.8269   20.1678 C   0  0  0  0  0  0
  -25.4100  -36.3111   24.0314 C   0  0  1  0  0  0
  -20.5860  -28.3656   23.1358 C   0  0  2  0  0  0
  -20.6753  -26.9394   22.5443 C   0  0  0  0  0  0
  -19.5730  -26.6393   21.5241 C   0  0  0  0  0  0
  -18.1899  -26.7958   22.1618 C   0  0  0  0  0  0
  -19.1521  -28.8850   23.2918 C   0  0  0  0  0  0
  -18.9454  -30.1468   23.8907 C   0  0  0  0  0  0
  -17.6450  -30.6596   24.0597 C   0  0  0  0  0  0
  -25.9034  -34.9492   23.5101 C   0  0  0  0  0  0
  -16.5341  -29.9099   23.6365 C   0  0  0  0  0  0
  -16.7263  -28.6547   23.0323 C   0  0  0  0  0  0
  -26.4465  -31.6663   25.0749 C   0  0  0  0  0  0
  -25.3740  -31.3784   26.1522 C   0  0  0  0  0  0
  -27.0321  -30.3128   24.6124 C   0  0  0  0  0  0
  -27.6021  -32.4415   25.7521 C   0  0  0  0  0  0
  -27.5588  -37.1783   24.8438 C   0  0  0  0  0  0
  -21.4136  -29.3026   22.3776 N   0  0  0  0  0  0
  -26.4264  -37.3821   23.9440 N   0  0  0  0  0  0
  -24.6645  -31.0794   22.1034 N   0  0  0  0  0  0
  -23.4196  -28.8185   23.3050 O   0  0  0  0  0  0
  -28.4453  -26.7798   20.0629 O   0  0  0  0  0  0
  -26.5585  -34.8932   22.4657 O   0  0  0  0  0  0
  -23.5340  -32.1440   23.7536 O   0  0  0  0  0  0
  -29.1678  -22.8755   22.3371 C   0  0  0  0  0  0
  -27.0547  -23.7941   20.7392 C   0  0  0  0  0  0
  -27.8838  -22.3134   22.4989 C   0  0  0  0  0  0
  -28.3351  -24.3656   20.5832 C   0  0  0  0  0  0
  -26.8226  -22.7822   21.6899 C   0  0  0  0  0  0
  -29.3977  -23.8973   21.3950 C   0  0  0  0  0  0
  -27.6627  -21.2536   23.5689 C   0  0  0  0  0  0
  -28.5552  -25.4529   19.5358 C   0  0  0  0  0  0
  -27.7952  -19.8003   23.0727 C   0  0  0  0  0  0
  -29.2195  -19.4081   22.6402 C   0  0  0  0  0  0
  -29.4143  -17.8835   22.5380 C   0  0  0  0  0  0
  -30.8295  -17.4962   22.0719 C   0  0  0  0  0  0
  -31.2543  -16.0673   22.4593 C   0  0  0  0  0  0
  -30.4549  -15.0213   21.8215 N   0  0  0  0  0  0
  -25.2242  -22.1428   21.8432 Cl  0  0  0  0  0  0
  -30.9930  -24.5538   21.2733 Cl  0  0  0  0  0  0
  -31.4595  -12.3935   19.0896 H   0  0  0  0  0  0
  -30.3181  -11.2739   19.7694 H   0  0  0  0  0  0
  -29.7169  -11.8037   17.4018 H   0  0  0  0  0  0
  -29.6515  -13.5098   17.7739 H   0  0  0  0  0  0
  -27.8249  -11.3113   18.8100 H   0  0  0  0  0  0
  -27.3530  -12.6431   17.7894 H   0  0  0  0  0  0
  -27.7213  -14.2543   19.5899 H   0  0  0  0  0  0
  -28.6611  -11.9301   21.3387 H   0  0  0  0  0  0
  -28.4419  -13.5674   21.8666 H   0  0  0  0  0  0
  -25.2761   -9.5698   22.4745 H   0  0  0  0  0  0
  -23.9995   -7.4651   22.7486 H   0  0  0  0  0  0
  -21.0837   -8.8759   19.8948 H   0  0  0  0  0  0
  -22.3694  -10.9657   19.6132 H   0  0  0  0  0  0
  -21.2000   -7.6153   23.9727 H   0  0  0  0  0  0
  -21.1470   -6.0521   25.9082 H   0  0  0  0  0  0
  -22.0597   -2.7610   23.2850 H   0  0  0  0  0  0
  -22.4107  -11.9878   22.4735 H   0  0  0  0  0  0
  -21.1115  -13.1253   22.2562 H   0  0  0  0  0  0
  -24.6762  -15.8486   20.5339 H   0  0  0  0  0  0
  -26.2980  -15.6257   20.1122 H   0  0  0  0  0  0
  -26.7100  -32.5554   23.1152 H   0  0  0  0  0  0
  -25.0159  -33.9838   25.0522 H   0  0  0  0  0  0
  -22.6857  -31.3096   21.4173 H   0  0  0  0  0  0
  -23.3775  -35.9601   23.3251 H   0  0  0  0  0  0
  -24.3583  -36.8979   22.2054 H   0  0  0  0  0  0
  -23.7180  -37.6467   23.6686 H   0  0  0  0  0  0
  -26.0273  -31.5989   20.5904 H   0  0  0  0  0  0
  -26.8169  -30.8951   21.9757 H   0  0  0  0  0  0
  -28.0909  -29.1103   21.1537 H   0  0  0  0  0  0
  -26.0121  -25.9975   18.9825 H   0  0  0  0  0  0
  -23.9687  -27.3012   19.0400 H   0  0  0  0  0  0
  -23.7093  -30.6023   19.4088 H   0  0  0  0  0  0
  -22.7278  -29.2469   19.8717 H   0  0  0  0  0  0
  -25.1271  -36.1945   25.0799 H   0  0  0  0  0  0
  -20.9936  -28.3198   24.1487 H   0  0  0  0  0  0
  -20.5694  -26.2243   23.3615 H   0  0  0  0  0  0
  -21.6614  -26.7454   22.1207 H   0  0  0  0  0  0
  -19.6885  -25.6313   21.1248 H   0  0  0  0  0  0
  -19.6696  -27.3226   20.6794 H   0  0  0  0  0  0
  -17.4187  -26.6771   21.3992 H   0  0  0  0  0  0
  -18.0243  -26.0096   22.8996 H   0  0  0  0  0  0
  -19.7930  -30.7318   24.2228 H   0  0  0  0  0  0
  -17.5001  -31.6274   24.5205 H   0  0  0  0  0  0
  -15.5340  -30.2993   23.7706 H   0  0  0  0  0  0
  -15.8667  -28.0912   22.6954 H   0  0  0  0  0  0
  -24.5874  -30.7168   25.7872 H   0  0  0  0  0  0
  -24.8987  -32.2964   26.4999 H   0  0  0  0  0  0
  -25.8101  -30.8936   27.0266 H   0  0  0  0  0  0
  -26.2872  -29.6905   24.1153 H   0  0  0  0  0  0
  -27.4103  -29.7361   25.4574 H   0  0  0  0  0  0
  -27.8689  -30.4504   23.9270 H   0  0  0  0  0  0
  -27.2608  -33.3696   26.2117 H   0  0  0  0  0  0
  -28.3824  -32.7028   25.0361 H   0  0  0  0  0  0
  -28.0706  -31.8562   26.5444 H   0  0  0  0  0  0
  -28.2512  -38.0174   24.7632 H   0  0  0  0  0  0
  -28.1169  -36.2719   24.6053 H   0  0  0  0  0  0
  -27.2338  -37.1169   25.8838 H   0  0  0  0  0  0
  -20.9273  -29.8797   21.7058 H   0  0  0  0  0  0
  -26.0142  -38.2863   24.1576 H   0  0  0  0  0  0
  -29.9880  -22.5279   22.9489 H   0  0  0  0  0  0
  -26.2311  -24.1301   20.1295 H   0  0  0  0  0  0
  -26.6775  -21.3985   24.0139 H   0  0  0  0  0  0
  -28.3630  -21.4252   24.3872 H   0  0  0  0  0  0
  -27.9288  -25.2785   18.6631 H   0  0  0  0  0  0
  -29.5635  -25.3501   19.1377 H   0  0  0  0  0  0
  -27.0927  -19.6148   22.2596 H   0  0  0  0  0  0
  -27.4853  -19.1449   23.8885 H   0  0  0  0  0  0
  -29.9363  -19.8003   23.3642 H   0  0  0  0  0  0
  -29.4571  -19.8833   21.6871 H   0  0  0  0  0  0
  -28.6746  -17.4528   21.8625 H   0  0  0  0  0  0
  -29.2262  -17.4429   23.5182 H   0  0  0  0  0  0
  -31.5488  -18.1824   22.5215 H   0  0  0  0  0  0
  -30.9213  -17.6395   20.9944 H   0  0  0  0  0  0
  -31.1746  -15.9451   23.5407 H   0  0  0  0  0  0
  -32.3125  -15.9271   22.2277 H   0  0  0  0  0  0
  -29.6547  -14.6756   22.3302 H   0  0  0  0  0  0
  1 25  1  0  0  0
  1 30  2  0  0  0
  1 84  1  0  0  0
  2  3  1  0  0  0
  2 25  1  0  0  0
  2 87  1  0  0  0
  2 88  1  0  0  0
  3  4  1  0  0  0
  3 89  1  0  0  0
  3 90  1  0  0  0
  4  5  1  0  0  0
  4 91  1  0  0  0
  4 92  1  0  0  0
  5  6  1  0  0  0
  5 26  1  0  0  0
  5 93  1  0  0  0
  6 25  1  0  0  0
  6 94  1  0  0  0
  6 95  1  0  0  0
  7  8  2  0  0  0
  7 26  1  0  0  0
  7 29  1  0  0  0
  8  9  1  0  0  0
  8 22  1  0  0  0
  9 10  1  0  0  0
  9 27  2  0  0  0
 10 11  2  0  0  0
 10 15  1  0  0  0
 11 12  1  0  0  0
 11 96  1  0  0  0
 12 13  2  0  0  0
 12 97  1  0  0  0
 13 14  1  0  0  0
 13 31  1  0  0  0
 14 15  2  0  0  0
 14 98  1  0  0  0
 15 99  1  0  0  0
 16 17  2  0  0  0
 16 21  1  0  0  0
 16 31  1  0  0  0
 17 18  1  0  0  0
 17100  1  0  0  0
 18 19  2  0  0  0
 18101  1  0  0  0
 19 20  1  0  0  0
 19 24  1  0  0  0
 20 21  2  0  0  0
 20102  1  0  0  0
 21 23  1  0  0  0
 22 28  1  0  0  0
 22 32  2  0  0  0
 26 27  1  0  0  0
 28103  1  0  0  0
 28104  1  0  0  0
 29105  1  0  0  0
 29106  1  0  0  0
 33 34  1  0  0  0
 33 66  1  0  0  0
 33 70  2  0  0  0
 34 36  1  0  0  0
 34 59  1  0  0  0
 34107  1  0  0  0
 35 44  2  0  0  0
 35 45  1  0  0  0
 35 68  1  0  0  0
 36 56  1  0  0  0
 36108  1  0  0  0
 37 39  1  0  0  0
 37 47  1  0  0  0
 37 66  1  0  0  0
 37109  1  0  0  0
 38 43  2  0  0  0
 38 46  1  0  0  0
 38 47  1  0  0  0
 39 64  1  0  0  0
 39 67  2  0  0  0
 40 52  1  0  0  0
 40 53  2  0  0  0
 40 58  1  0  0  0
 41110  1  0  0  0
 41111  1  0  0  0
 41112  1  0  0  0
 41 48  1  0  0  0
 42 43  1  0  0  0
 42 66  1  0  0  0
 42113  1  0  0  0
 42114  1  0  0  0
 43 44  1  0  0  0
 44115  1  0  0  0
 45 46  2  0  0  0
 45116  1  0  0  0
 46117  1  0  0  0
 47118  1  0  0  0
 47119  1  0  0  0
 48 56  1  0  0  0
 48 65  1  0  0  0
 48120  1  0  0  0
 49 50  1  0  0  0
 49 53  1  0  0  0
 49 64  1  0  0  0
 49121  1  0  0  0
 50 51  1  0  0  0
 50122  1  0  0  0
 50123  1  0  0  0
 51 52  1  0  0  0
 51124  1  0  0  0
 51125  1  0  0  0
 52126  1  0  0  0
 52127  1  0  0  0
 53 54  1  0  0  0
 54 55  2  0  0  0
 54128  1  0  0  0
 55 57  1  0  0  0
 55129  1  0  0  0
 56 69  2  0  0  0
 57 58  2  0  0  0
 57130  1  0  0  0
 58131  1  0  0  0
 59 60  1  0  0  0
 59 61  1  0  0  0
 59 62  1  0  0  0
 60132  1  0  0  0
 60133  1  0  0  0
 60134  1  0  0  0
 61135  1  0  0  0
 61136  1  0  0  0
 61137  1  0  0  0
 62138  1  0  0  0
 62139  1  0  0  0
 62140  1  0  0  0
 63 65  1  0  0  0
 63141  1  0  0  0
 63142  1  0  0  0
 63143  1  0  0  0
 64144  1  0  0  0
 65145  1  0  0  0
 68 78  1  0  0  0
 71 73  2  0  0  0
 71 76  1  0  0  0
 71146  1  0  0  0
 72 74  1  0  0  0
 72 75  2  0  0  0
 72147  1  0  0  0
 73 75  1  0  0  0
 73 77  1  0  0  0
 74 76  2  0  0  0
 74 78  1  0  0  0
 75 85  1  0  0  0
 76 86  1  0  0  0
 77 79  1  0  0  0
 77148  1  0  0  0
 77149  1  0  0  0
 78150  1  0  0  0
 78151  1  0  0  0
 79 80  1  0  0  0
 79152  1  0  0  0
 79153  1  0  0  0
 80 81  1  0  0  0
 80154  1  0  0  0
 80155  1  0  0  0
 81 82  1  0  0  0
 81156  1  0  0  0
 81157  1  0  0  0
 82 83  1  0  0  0
 82158  1  0  0  0
 82159  1  0  0  0
 83 84  1  0  0  0
 83160  1  0  0  0
 83161  1  0  0  0
 84162  1  0  0  0
M  ISO  4   1 100  68 101  78 101  84 100
M  END
> <chiral flag>
0

> <version>
0

> <s_m_source_file>
/data/baiqing/PycharmProjects/Reinvent-master-3.2/result/LINK_invent/BTK/process_docking_weight1_custom_sum_contain_oxygen_bond_distance_aromatic_linkinvent_7_9_3/rearranged_h_0033.sdf

> <i_m_source_file_index>
34

> <r_mmod_Potential_Energy-OPLS-2005>
-72.6169738769531

> <r_mmod_Stretch_Energy-OPLS-2005>
33.0290298461914

> <r_mmod_Bend_Energy-OPLS-2005>
98.8103790283203

> <r_mmod_Torsional_Energy-OPLS-2005>
204.968109130859

> <r_mmod_Improper_Torsional_Energy-OPLS-2005>
2.58217191696167

> <r_mmod_Van_der_Waal_Energy-OPLS-2005>
148.650024414062

> <r_mmod_Electrostatic_Energy-OPLS-2005>
-368.318786621094

> <r_mmod_Solvation_Energy-OPLS-2005>
-200.884628295898

> <b_mmod_Minimization_Converged-OPLS-2005>
0

> <r_mmod_RMS_Derivative-OPLS-2005>
2.07763576507568

$$$$
35
                    3D
 Structure written by MMmdl.
168176  0  0  1  0            999 V2000
  -30.6669  -14.4387   20.5818 C   0  0  0  0  0  0
  -30.4206  -12.2825   19.4216 C   0  0  0  0  0  0
  -29.4938  -12.5096   18.2078 C   0  0  0  0  0  0
  -28.0119  -12.3721   18.6157 C   0  0  0  0  0  0
  -27.6605  -13.1932   19.8874 C   0  0  2  0  0  0
  -28.6981  -12.9370   21.0021 C   0  0  0  0  0  0
  -25.2625  -13.8084   20.5899 C   0  0  0  0  0  0
  -24.1808  -13.0402   20.9219 C   0  0  0  0  0  0
  -24.6328  -11.6869   20.8696 C   0  0  0  0  0  0
  -23.8968  -10.4291   21.0377 C   0  0  0  0  0  0
  -24.3528   -9.4233   21.9177 C   0  0  0  0  0  0
  -23.6241   -8.2247   22.0764 C   0  0  0  0  0  0
  -22.4235   -8.0257   21.3543 C   0  0  0  0  0  0
  -21.9841   -9.0205   20.4633 C   0  0  0  0  0  0
  -22.7142  -10.2103   20.3034 C   0  0  0  0  0  0
  -21.6841   -6.0700   22.5254 C   0  0  0  0  0  0
  -21.3997   -6.5615   23.8182 C   0  0  0  0  0  0
  -21.3695   -5.6794   24.9165 C   0  0  0  0  0  0
  -21.6067   -4.3057   24.7223 C   0  0  0  0  0  0
  -21.8820   -3.8124   23.4356 C   0  0  0  0  0  0
  -21.9199   -4.6924   22.3397 C   0  0  0  0  0  0
  -22.7846  -13.5229   21.1868 C   0  0  0  0  0  0
  -22.1678   -4.2107   21.0982 F   0  0  0  0  0  0
  -21.5660   -3.4556   25.7753 F   0  0  0  0  0  0
  -30.0306  -13.2477   20.4564 N   0  0  0  0  0  0
  -26.3007  -12.9239   20.3442 N   0  0  0  0  0  0
  -25.9251  -11.6405   20.5698 N   0  0  0  0  0  0
  -22.0465  -12.8209   22.0419 N   0  0  0  0  0  0
  -25.4488  -15.1789   20.4727 N   0  0  0  0  0  0
  -31.7920  -14.6620   20.1208 O   0  0  0  0  0  0
  -21.6665   -6.8814   21.4209 O   0  0  0  0  0  0
  -22.3563  -14.5541   20.6729 O   0  0  0  0  0  0
  -24.6140  -31.8700   23.2098 C   0  0  0  0  0  0
  -25.9050  -32.4820   23.8386 C   0  0  1  0  0  0
  -27.2335  -27.4504   20.0768 C   0  0  0  0  0  0
  -25.5919  -33.8616   24.2345 N   0  0  0  0  0  0
  -23.4004  -30.4928   21.5540 C   0  0  2  0  0  0
  -24.8425  -28.9605   20.1199 C   0  0  0  0  0  0
  -22.7398  -29.4661   22.5019 C   0  0  0  0  0  0
  -18.0274  -28.1365   22.8492 C   0  0  0  0  0  0
  -24.1501  -36.7300   23.2634 C   0  0  0  0  0  0
  -25.9283  -30.8390   21.3615 C   0  0  0  0  0  0
  -26.0048  -29.4760   20.7043 C   0  0  0  0  0  0
  -27.2036  -28.7288   20.6767 C   0  0  0  0  0  0
  -26.0466  -26.9423   19.5001 C   0  0  0  0  0  0
  -24.8552  -27.6902   19.5206 C   0  0  0  0  0  0
  -23.6051  -29.8261   20.1692 C   0  0  0  0  0  0
  -25.4110  -36.3105   24.0356 C   0  0  1  0  0  0
  -20.5863  -28.3649   23.1337 C   0  0  2  0  0  0
  -20.6760  -26.9395   22.5418 C   0  0  0  0  0  0
  -19.5751  -26.6388   21.5203 C   0  0  0  0  0  0
  -18.1928  -26.7916   22.1609 C   0  0  0  0  0  0
  -19.1518  -28.8826   23.2906 C   0  0  0  0  0  0
  -18.9440  -30.1432   23.8921 C   0  0  0  0  0  0
  -17.6439  -30.6574   24.0561 C   0  0  0  0  0  0
  -25.9031  -34.9476   23.5142 C   0  0  0  0  0  0
  -16.5337  -29.9079   23.6317 C   0  0  0  0  0  0
  -16.7256  -28.6494   23.0343 C   0  0  0  0  0  0
  -26.4483  -31.6575   25.0697 C   0  0  0  0  0  0
  -25.3740  -31.3724   26.1453 C   0  0  0  0  0  0
  -27.0299  -30.3015   24.6057 C   0  0  0  0  0  0
  -27.6065  -32.4294   25.7442 C   0  0  0  0  0  0
  -27.5598  -37.1797   24.8465 C   0  0  0  0  0  0
  -21.4132  -29.3019   22.3743 N   0  0  0  0  0  0
  -26.4309  -37.3779   23.9412 N   0  0  0  0  0  0
  -24.6653  -31.0815   22.0987 N   0  0  0  0  0  0
  -23.4167  -28.8212   23.3058 O   0  0  0  0  0  0
  -28.4198  -26.7466   20.0624 O   0  0  0  0  0  0
  -26.5570  -34.8933   22.4690 O   0  0  0  0  0  0
  -23.5337  -32.1454   23.7516 O   0  0  0  0  0  0
  -26.5116  -20.6487   16.9224 C   0  0  0  0  0  0
  -28.1720  -19.9707   18.5635 C   0  0  0  0  0  0
  -27.6513  -20.9452   17.6858 C   0  0  0  0  0  0
  -25.9143  -19.3790   16.9981 C   0  0  0  0  0  0
  -27.6100  -18.6734   18.6431 C   0  0  0  0  0  0
  -26.4913  -18.3653   17.8083 C   0  0  0  0  0  0
  -24.6223  -19.1553   16.2243 C   0  0  0  0  0  0
  -25.8634  -16.9781   17.7871 C   0  0  0  0  0  0
  -28.2752  -22.3293   17.5982 C   0  0  0  0  0  0
  -28.1534  -17.7023   19.7125 C   0  0  0  0  0  0
  -28.0616  -23.1397   18.8833 C   0  0  0  0  0  0
  -29.6948  -17.5592   19.7980 C   0  0  0  0  0  0
  -28.4584  -24.6233   18.7745 C   0  0  0  0  0  0
  -30.2012  -16.8484   21.0793 C   0  0  0  0  0  0
  -28.3422  -25.3213   20.1421 C   0  0  0  0  0  0
  -29.9045  -15.4182   21.0950 N   0  0  0  0  0  0
  -31.4673  -12.3835   19.1292 H   0  0  0  0  0  0
  -30.3124  -11.2624   19.7942 H   0  0  0  0  0  0
  -29.7306  -11.8043   17.4100 H   0  0  0  0  0  0
  -29.6668  -13.5043   17.7941 H   0  0  0  0  0  0
  -27.8156  -11.3147   18.7944 H   0  0  0  0  0  0
  -27.3667  -12.6649   17.7877 H   0  0  0  0  0  0
  -27.7107  -14.2452   19.6071 H   0  0  0  0  0  0
  -28.6703  -11.8905   21.3113 H   0  0  0  0  0  0
  -28.4616  -13.5023   21.9046 H   0  0  0  0  0  0
  -25.2661   -9.5744   22.4755 H   0  0  0  0  0  0
  -23.9993   -7.4636   22.7470 H   0  0  0  0  0  0
  -21.0787   -8.8645   19.8909 H   0  0  0  0  0  0
  -22.3570  -10.9603   19.6116 H   0  0  0  0  0  0
  -21.1950   -7.6128   23.9677 H   0  0  0  0  0  0
  -21.1549   -6.0521   25.9071 H   0  0  0  0  0  0
  -22.0571   -2.7578   23.2841 H   0  0  0  0  0  0
  -22.4086  -11.9883   22.4837 H   0  0  0  0  0  0
  -21.1054  -13.1189   22.2588 H   0  0  0  0  0  0
  -24.6961  -15.8442   20.5937 H   0  0  0  0  0  0
  -26.3343  -15.6154   20.2623 H   0  0  0  0  0  0
  -26.7109  -32.5529   23.1135 H   0  0  0  0  0  0
  -25.0135  -33.9774   25.0534 H   0  0  0  0  0  0
  -22.6884  -31.3077   21.4156 H   0  0  0  0  0  0
  -23.3772  -35.9622   23.3294 H   0  0  0  0  0  0
  -24.3612  -36.8896   22.2049 H   0  0  0  0  0  0
  -23.7256  -37.6516   23.6621 H   0  0  0  0  0  0
  -26.0455  -31.6098   20.5997 H   0  0  0  0  0  0
  -26.8153  -30.8844   21.9814 H   0  0  0  0  0  0
  -28.1049  -29.1254   21.1231 H   0  0  0  0  0  0
  -26.0224  -25.9746   19.0226 H   0  0  0  0  0  0
  -23.9582  -27.2839   19.0733 H   0  0  0  0  0  0
  -23.7080  -30.6013   19.4090 H   0  0  0  0  0  0
  -22.7296  -29.2432   19.8790 H   0  0  0  0  0  0
  -25.1277  -36.1974   25.0850 H   0  0  0  0  0  0
  -20.9934  -28.3212   24.1460 H   0  0  0  0  0  0
  -20.5684  -26.2242   23.3586 H   0  0  0  0  0  0
  -21.6634  -26.7448   22.1205 H   0  0  0  0  0  0
  -19.6931  -25.6309   21.1217 H   0  0  0  0  0  0
  -19.6715  -27.3212   20.6753 H   0  0  0  0  0  0
  -17.4195  -26.6664   21.4014 H   0  0  0  0  0  0
  -18.0338  -26.0045   22.8995 H   0  0  0  0  0  0
  -19.7917  -30.7236   24.2308 H   0  0  0  0  0  0
  -17.4995  -31.6258   24.5156 H   0  0  0  0  0  0
  -15.5343  -30.2977   23.7629 H   0  0  0  0  0  0
  -15.8654  -28.0814   22.7046 H   0  0  0  0  0  0
  -24.5899  -30.7071   25.7817 H   0  0  0  0  0  0
  -24.8935  -32.2899   26.4862 H   0  0  0  0  0  0
  -25.8087  -30.8929   27.0232 H   0  0  0  0  0  0
  -26.2860  -29.6805   24.1051 H   0  0  0  0  0  0
  -27.4028  -29.7220   25.4513 H   0  0  0  0  0  0
  -27.8705  -30.4348   23.9241 H   0  0  0  0  0  0
  -27.2693  -33.3587   26.2050 H   0  0  0  0  0  0
  -28.3844  -32.6870   25.0236 H   0  0  0  0  0  0
  -28.0757  -31.8384   26.5322 H   0  0  0  0  0  0
  -28.2600  -38.0105   24.7505 H   0  0  0  0  0  0
  -28.1114  -36.2638   24.6280 H   0  0  0  0  0  0
  -27.2318  -37.1434   25.8869 H   0  0  0  0  0  0
  -20.9283  -29.8734   21.6960 H   0  0  0  0  0  0
  -26.0211  -38.2872   24.1370 H   0  0  0  0  0  0
  -26.0747  -21.4081   16.2863 H   0  0  0  0  0  0
  -28.9984  -20.2482   19.1999 H   0  0  0  0  0  0
  -24.1703  -20.1031   15.9348 H   0  0  0  0  0  0
  -23.8858  -18.6368   16.8374 H   0  0  0  0  0  0
  -24.7920  -18.5796   15.3154 H   0  0  0  0  0  0
  -25.3931  -16.7613   16.8281 H   0  0  0  0  0  0
  -25.0914  -16.9096   18.5518 H   0  0  0  0  0  0
  -26.5921  -16.1808   17.9216 H   0  0  0  0  0  0
  -27.8488  -22.8628   16.7475 H   0  0  0  0  0  0
  -29.3417  -22.2278   17.3902 H   0  0  0  0  0  0
  -27.7345  -16.7060   19.6192 H   0  0  0  0  0  0
  -27.7857  -18.0730   20.6706 H   0  0  0  0  0  0
  -28.6178  -22.6666   19.6932 H   0  0  0  0  0  0
  -27.0069  -23.0799   19.1625 H   0  0  0  0  0  0
  -30.1596  -18.5429   19.7955 H   0  0  0  0  0  0
  -30.0743  -17.0519   18.9113 H   0  0  0  0  0  0
  -27.8252  -25.1105   18.0331 H   0  0  0  0  0  0
  -29.4805  -24.7203   18.4085 H   0  0  0  0  0  0
  -29.7561  -17.3061   21.9660 H   0  0  0  0  0  0
  -31.2783  -16.9980   21.1800 H   0  0  0  0  0  0
  -29.1656  -24.9822   20.7718 H   0  0  0  0  0  0
  -27.4355  -25.0038   20.6600 H   0  0  0  0  0  0
  -29.0000  -15.1407   21.4471 H   0  0  0  0  0  0
  1 25  1  0  0  0
  1 30  2  0  0  0
  1 86  1  0  0  0
  2  3  1  0  0  0
  2 25  1  0  0  0
  2 87  1  0  0  0
  2 88  1  0  0  0
  3  4  1  0  0  0
  3 89  1  0  0  0
  3 90  1  0  0  0
  4  5  1  0  0  0
  4 91  1  0  0  0
  4 92  1  0  0  0
  5  6  1  0  0  0
  5 26  1  0  0  0
  5 93  1  0  0  0
  6 25  1  0  0  0
  6 94  1  0  0  0
  6 95  1  0  0  0
  7  8  2  0  0  0
  7 26  1  0  0  0
  7 29  1  0  0  0
  8  9  1  0  0  0
  8 22  1  0  0  0
  9 10  1  0  0  0
  9 27  2  0  0  0
 10 11  2  0  0  0
 10 15  1  0  0  0
 11 12  1  0  0  0
 11 96  1  0  0  0
 12 13  2  0  0  0
 12 97  1  0  0  0
 13 14  1  0  0  0
 13 31  1  0  0  0
 14 15  2  0  0  0
 14 98  1  0  0  0
 15 99  1  0  0  0
 16 17  2  0  0  0
 16 21  1  0  0  0
 16 31  1  0  0  0
 17 18  1  0  0  0
 17100  1  0  0  0
 18 19  2  0  0  0
 18101  1  0  0  0
 19 20  1  0  0  0
 19 24  1  0  0  0
 20 21  2  0  0  0
 20102  1  0  0  0
 21 23  1  0  0  0
 22 28  1  0  0  0
 22 32  2  0  0  0
 26 27  1  0  0  0
 28103  1  0  0  0
 28104  1  0  0  0
 29105  1  0  0  0
 29106  1  0  0  0
 33 34  1  0  0  0
 33 66  1  0  0  0
 33 70  2  0  0  0
 34 36  1  0  0  0
 34 59  1  0  0  0
 34107  1  0  0  0
 35 44  2  0  0  0
 35 45  1  0  0  0
 35 68  1  0  0  0
 36 56  1  0  0  0
 36108  1  0  0  0
 37 39  1  0  0  0
 37 47  1  0  0  0
 37 66  1  0  0  0
 37109  1  0  0  0
 38 43  2  0  0  0
 38 46  1  0  0  0
 38 47  1  0  0  0
 39 64  1  0  0  0
 39 67  2  0  0  0
 40 52  1  0  0  0
 40 53  2  0  0  0
 40 58  1  0  0  0
 41110  1  0  0  0
 41111  1  0  0  0
 41112  1  0  0  0
 41 48  1  0  0  0
 42 43  1  0  0  0
 42 66  1  0  0  0
 42113  1  0  0  0
 42114  1  0  0  0
 43 44  1  0  0  0
 44115  1  0  0  0
 45 46  2  0  0  0
 45116  1  0  0  0
 46117  1  0  0  0
 47118  1  0  0  0
 47119  1  0  0  0
 48 56  1  0  0  0
 48 65  1  0  0  0
 48120  1  0  0  0
 49 50  1  0  0  0
 49 53  1  0  0  0
 49 64  1  0  0  0
 49121  1  0  0  0
 50 51  1  0  0  0
 50122  1  0  0  0
 50123  1  0  0  0
 51 52  1  0  0  0
 51124  1  0  0  0
 51125  1  0  0  0
 52126  1  0  0  0
 52127  1  0  0  0
 53 54  1  0  0  0
 54 55  2  0  0  0
 54128  1  0  0  0
 55 57  1  0  0  0
 55129  1  0  0  0
 56 69  2  0  0  0
 57 58  2  0  0  0
 57130  1  0  0  0
 58131  1  0  0  0
 59 60  1  0  0  0
 59 61  1  0  0  0
 59 62  1  0  0  0
 60132  1  0  0  0
 60133  1  0  0  0
 60134  1  0  0  0
 61135  1  0  0  0
 61136  1  0  0  0
 61137  1  0  0  0
 62138  1  0  0  0
 62139  1  0  0  0
 62140  1  0  0  0
 63 65  1  0  0  0
 63141  1  0  0  0
 63142  1  0  0  0
 63143  1  0  0  0
 64144  1  0  0  0
 65145  1  0  0  0
 68 85  1  0  0  0
 71 73  2  0  0  0
 71 74  1  0  0  0
 71146  1  0  0  0
 72 73  1  0  0  0
 72 75  2  0  0  0
 72147  1  0  0  0
 73 79  1  0  0  0
 74 76  2  0  0  0
 74 77  1  0  0  0
 75 76  1  0  0  0
 75 80  1  0  0  0
 76 78  1  0  0  0
 77148  1  0  0  0
 77149  1  0  0  0
 77150  1  0  0  0
 78151  1  0  0  0
 78152  1  0  0  0
 78153  1  0  0  0
 79 81  1  0  0  0
 79154  1  0  0  0
 79155  1  0  0  0
 80 82  1  0  0  0
 80156  1  0  0  0
 80157  1  0  0  0
 81 83  1  0  0  0
 81158  1  0  0  0
 81159  1  0  0  0
 82 84  1  0  0  0
 82160  1  0  0  0
 82161  1  0  0  0
 83 85  1  0  0  0
 83162  1  0  0  0
 83163  1  0  0  0
 84 86  1  0  0  0
 84164  1  0  0  0
 84165  1  0  0  0
 85166  1  0  0  0
 85167  1  0  0  0
 86168  1  0  0  0
M  ISO  4   1 100  68 101  85 101  86 100
M  END
> <chiral flag>
0

> <version>
0

> <s_m_source_file>
/data/baiqing/PycharmProjects/Reinvent-master-3.2/result/LINK_invent/BTK/process_docking_weight1_custom_sum_contain_oxygen_bond_distance_aromatic_linkinvent_7_9_3/rearranged_h_0033.sdf

> <i_m_source_file_index>
35

> <r_mmod_Potential_Energy-OPLS-2005>
-85.7984313964844

> <r_mmod_Stretch_Energy-OPLS-2005>
36.0017929077148

> <r_mmod_Bend_Energy-OPLS-2005>
96.1359100341797

> <r_mmod_Torsional_Energy-OPLS-2005>
208.226989746094

> <r_mmod_Improper_Torsional_Energy-OPLS-2005>
4.24554634094238

> <r_mmod_Van_der_Waal_Energy-OPLS-2005>
155.868041992188

> <r_mmod_Electrostatic_Energy-OPLS-2005>
-393.803863525391

> <r_mmod_Solvation_Energy-OPLS-2005>
-203.771194458008

> <b_mmod_Minimization_Converged-OPLS-2005>
0

> <r_mmod_RMS_Derivative-OPLS-2005>
3.62580919265747

$$$$
36
                    3D
 Structure written by MMmdl.
177185  0  0  1  0            999 V2000
  -30.7754  -14.3659   20.6682 C   0  0  0  0  0  0
  -30.4026  -12.2903   19.3963 C   0  0  0  0  0  0
  -29.4765  -12.5344   18.1916 C   0  0  0  0  0  0
  -28.0002  -12.4083   18.6089 C   0  0  0  0  0  0
  -27.6659  -13.2180   19.8914 C   0  0  2  0  0  0
  -28.7063  -12.9542   21.0069 C   0  0  0  0  0  0
  -25.2605  -13.8153   20.5665 C   0  0  0  0  0  0
  -24.1853  -13.0462   20.9159 C   0  0  0  0  0  0
  -24.6408  -11.6938   20.8754 C   0  0  0  0  0  0
  -23.9089  -10.4338   21.0423 C   0  0  0  0  0  0
  -24.3621   -9.4247   21.9202 C   0  0  0  0  0  0
  -23.6299   -8.2278   22.0753 C   0  0  0  0  0  0
  -22.4291   -8.0324   21.3543 C   0  0  0  0  0  0
  -21.9931   -9.0311   20.4636 C   0  0  0  0  0  0
  -22.7265  -10.2190   20.3073 C   0  0  0  0  0  0
  -21.6867   -6.0764   22.5303 C   0  0  0  0  0  0
  -21.4019   -6.5647   23.8233 C   0  0  0  0  0  0
  -21.3653   -5.6786   24.9196 C   0  0  0  0  0  0
  -21.6054   -4.3052   24.7228 C   0  0  0  0  0  0
  -21.8815   -3.8160   23.4337 C   0  0  0  0  0  0
  -21.9188   -4.6998   22.3410 C   0  0  0  0  0  0
  -22.7872  -13.5263   21.1780 C   0  0  0  0  0  0
  -22.1660   -4.2186   21.0988 F   0  0  0  0  0  0
  -21.5627   -3.4516   25.7714 F   0  0  0  0  0  0
  -30.0475  -13.2385   20.4624 N   0  0  0  0  0  0
  -26.3077  -12.9372   20.3469 N   0  0  0  0  0  0
  -25.9378  -11.6532   20.5884 N   0  0  0  0  0  0
  -22.0494  -12.8326   22.0331 N   0  0  0  0  0  0
  -25.4333  -15.1853   20.3975 N   0  0  0  0  0  0
  -31.7897  -14.6365   20.0210 O   0  0  0  0  0  0
  -21.6668   -6.8925   21.4257 O   0  0  0  0  0  0
  -22.3606  -14.5605   20.6640 O   0  0  0  0  0  0
  -24.6116  -31.8699   23.2120 C   0  0  0  0  0  0
  -25.9016  -32.4851   23.8421 C   0  0  1  0  0  0
  -27.2725  -27.4743   20.0979 C   0  0  0  0  0  0
  -25.5891  -33.8643   24.2367 N   0  0  0  0  0  0
  -23.4039  -30.4880   21.5513 C   0  0  2  0  0  0
  -24.8622  -28.9562   20.1232 C   0  0  0  0  0  0
  -22.7413  -29.4653   22.5011 C   0  0  0  0  0  0
  -18.0265  -28.1377   22.8494 C   0  0  0  0  0  0
  -24.1483  -36.7324   23.2638 C   0  0  0  0  0  0
  -25.9292  -30.8478   21.3611 C   0  0  0  0  0  0
  -26.0183  -29.4815   20.7173 C   0  0  0  0  0  0
  -27.2265  -28.7496   20.7085 C   0  0  0  0  0  0
  -26.0984  -26.9542   19.5165 C   0  0  0  0  0  0
  -24.8956  -27.6866   19.5204 C   0  0  0  0  0  0
  -23.6166  -29.8141   20.1690 C   0  0  0  0  0  0
  -25.4102  -36.3125   24.0345 C   0  0  1  0  0  0
  -20.5856  -28.3653   23.1328 C   0  0  2  0  0  0
  -20.6759  -26.9395   22.5415 C   0  0  0  0  0  0
  -19.5740  -26.6385   21.5216 C   0  0  0  0  0  0
  -18.1919  -26.7928   22.1623 C   0  0  0  0  0  0
  -19.1515  -28.8836   23.2905 C   0  0  0  0  0  0
  -18.9444  -30.1446   23.8912 C   0  0  0  0  0  0
  -17.6447  -30.6583   24.0564 C   0  0  0  0  0  0
  -25.9026  -34.9486   23.5150 C   0  0  0  0  0  0
  -16.5341  -29.9086   23.6324 C   0  0  0  0  0  0
  -16.7259  -28.6502   23.0351 C   0  0  0  0  0  0
  -26.4447  -31.6608   25.0729 C   0  0  0  0  0  0
  -25.3733  -31.3698   26.1494 C   0  0  0  0  0  0
  -27.0271  -30.3061   24.6072 C   0  0  0  0  0  0
  -27.6042  -32.4305   25.7482 C   0  0  0  0  0  0
  -27.5586  -37.1813   24.8463 C   0  0  0  0  0  0
  -21.4141  -29.3023   22.3758 N   0  0  0  0  0  0
  -26.4297  -37.3801   23.9411 N   0  0  0  0  0  0
  -24.6668  -31.0801   22.1018 N   0  0  0  0  0  0
  -23.4176  -28.8216   23.3068 O   0  0  0  0  0  0
  -28.3935  -26.6750   20.0252 O   0  0  0  0  0  0
  -26.5584  -34.8925   22.4706 O   0  0  0  0  0  0
  -23.5310  -32.1440   23.7520 O   0  0  0  0  0  0
  -32.9232  -24.6003   19.0129 C   0  0  0  0  0  0
  -31.9977  -26.1725   20.6272 C   0  0  0  0  0  0
  -33.0530  -25.3348   20.2060 C   0  0  0  0  0  0
  -31.7414  -24.6775   18.2498 C   0  0  0  0  0  0
  -30.8066  -26.2686   19.8674 C   0  0  0  0  0  0
  -30.6882  -25.5203   18.6700 C   0  0  0  0  0  0
  -34.3302  -25.2138   21.0175 C   0  0  0  0  0  0
  -31.6213  -23.8474   16.9805 C   0  0  0  0  0  0
  -29.6857  -27.2080   20.3155 C   0  0  0  0  0  0
  -31.8016  -22.3393   17.2375 C   0  0  0  0  0  0
  -30.7251  -21.6973   18.1277 C   0  0  0  0  0  0
  -29.3444  -21.6334   17.4451 C   0  0  0  0  0  0
  -28.2858  -20.8016   18.1911 C   0  0  0  0  0  0
  -28.7012  -19.3518   18.5083 C   0  0  0  0  0  0
  -29.1312  -19.1789   19.9718 C   0  0  0  0  0  0
  -29.6236  -17.7650   20.2921 C   0  0  0  0  0  0
  -30.1322  -17.6679   21.7390 C   0  0  0  0  0  0
  -30.9824  -16.4259   22.0529 C   0  0  0  0  0  0
  -30.3437  -15.1681   21.6527 N   0  0  0  0  0  0
  -29.5667  -25.6058   17.9119 F   0  0  0  0  0  0
  -31.4425  -12.3849   19.0791 H   0  0  0  0  0  0
  -30.3000  -11.2648   19.7590 H   0  0  0  0  0  0
  -29.6979  -11.8218   17.3954 H   0  0  0  0  0  0
  -29.6628  -13.5247   17.7650 H   0  0  0  0  0  0
  -27.7952  -11.3515   18.7741 H   0  0  0  0  0  0
  -27.3473  -12.7185   17.7940 H   0  0  0  0  0  0
  -27.7246  -14.2776   19.6402 H   0  0  0  0  0  0
  -28.6620  -11.9101   21.3242 H   0  0  0  0  0  0
  -28.4567  -13.5309   21.8993 H   0  0  0  0  0  0
  -25.2741   -9.5721   22.4808 H   0  0  0  0  0  0
  -23.9995   -7.4666   22.7477 H   0  0  0  0  0  0
  -21.0847   -8.8843   19.8957 H   0  0  0  0  0  0
  -22.3712  -10.9737   19.6207 H   0  0  0  0  0  0
  -21.2036   -7.6163   23.9740 H   0  0  0  0  0  0
  -21.1457   -6.0532   25.9090 H   0  0  0  0  0  0
  -22.0590   -2.7626   23.2838 H   0  0  0  0  0  0
  -22.4051  -12.0026   22.4855 H   0  0  0  0  0  0
  -21.1129  -13.1472   22.2448 H   0  0  0  0  0  0
  -24.6605  -15.8319   20.4877 H   0  0  0  0  0  0
  -26.2888  -15.6212   20.0745 H   0  0  0  0  0  0
  -26.7120  -32.5584   23.1224 H   0  0  0  0  0  0
  -25.0059  -33.9814   25.0529 H   0  0  0  0  0  0
  -22.6910  -31.3018   21.4085 H   0  0  0  0  0  0
  -23.3741  -35.9662   23.3311 H   0  0  0  0  0  0
  -24.3579  -36.8921   22.2049 H   0  0  0  0  0  0
  -23.7235  -37.6538   23.6635 H   0  0  0  0  0  0
  -26.0303  -31.6105   20.5868 H   0  0  0  0  0  0
  -26.8199  -30.9126   21.9753 H   0  0  0  0  0  0
  -28.1081  -29.1715   21.1691 H   0  0  0  0  0  0
  -26.1267  -25.9785   19.0506 H   0  0  0  0  0  0
  -24.0124  -27.2684   19.0582 H   0  0  0  0  0  0
  -23.7181  -30.5874   19.4058 H   0  0  0  0  0  0
  -22.7452  -29.2246   19.8769 H   0  0  0  0  0  0
  -25.1271  -36.2008   25.0839 H   0  0  0  0  0  0
  -20.9945  -28.3212   24.1446 H   0  0  0  0  0  0
  -20.5663  -26.2269   23.3596 H   0  0  0  0  0  0
  -21.6630  -26.7438   22.1209 H   0  0  0  0  0  0
  -19.6896  -25.6298   21.1240 H   0  0  0  0  0  0
  -19.6683  -27.3199   20.6751 H   0  0  0  0  0  0
  -17.4190  -26.6686   21.4019 H   0  0  0  0  0  0
  -18.0306  -26.0063   22.9006 H   0  0  0  0  0  0
  -19.7919  -30.7259   24.2295 H   0  0  0  0  0  0
  -17.4996  -31.6259   24.5156 H   0  0  0  0  0  0
  -15.5342  -30.2988   23.7628 H   0  0  0  0  0  0
  -15.8666  -28.0821   22.7059 H   0  0  0  0  0  0
  -24.5892  -30.7066   25.7835 H   0  0  0  0  0  0
  -24.8936  -32.2843   26.4977 H   0  0  0  0  0  0
  -25.8082  -30.8839   27.0237 H   0  0  0  0  0  0
  -26.2811  -29.6842   24.1119 H   0  0  0  0  0  0
  -27.4062  -29.7258   25.4492 H   0  0  0  0  0  0
  -27.8623  -30.4396   23.9200 H   0  0  0  0  0  0
  -27.2695  -33.3606   26.2079 H   0  0  0  0  0  0
  -28.3830  -32.6864   25.0290 H   0  0  0  0  0  0
  -28.0740  -31.8422   26.5374 H   0  0  0  0  0  0
  -28.2608  -38.0111   24.7510 H   0  0  0  0  0  0
  -28.1079  -36.2636   24.6280 H   0  0  0  0  0  0
  -27.2305  -37.1459   25.8871 H   0  0  0  0  0  0
  -20.9328  -29.8749   21.6980 H   0  0  0  0  0  0
  -26.0193  -38.2888   24.1404 H   0  0  0  0  0  0
  -33.7345  -23.9635   18.6855 H   0  0  0  0  0  0
  -32.1042  -26.7454   21.5375 H   0  0  0  0  0  0
  -34.8852  -24.3154   20.7410 H   0  0  0  0  0  0
  -34.1149  -25.1507   22.0848 H   0  0  0  0  0  0
  -34.9804  -26.0721   20.8438 H   0  0  0  0  0  0
  -32.3711  -24.1968   16.2689 H   0  0  0  0  0  0
  -30.6595  -24.0211   16.4958 H   0  0  0  0  0  0
  -29.8288  -28.1645   19.8092 H   0  0  0  0  0  0
  -29.7727  -27.3852   21.3888 H   0  0  0  0  0  0
  -32.7797  -22.1664   17.6898 H   0  0  0  0  0  0
  -31.8216  -21.8151   16.2832 H   0  0  0  0  0  0
  -30.6365  -22.2264   19.0787 H   0  0  0  0  0  0
  -31.0664  -20.6916   18.3721 H   0  0  0  0  0  0
  -29.4544  -21.2542   16.4277 H   0  0  0  0  0  0
  -28.9567  -22.6476   17.3389 H   0  0  0  0  0  0
  -27.3970  -20.7672   17.5617 H   0  0  0  0  0  0
  -27.9750  -21.3228   19.0995 H   0  0  0  0  0  0
  -29.4927  -19.0242   17.8326 H   0  0  0  0  0  0
  -27.8613  -18.6818   18.3192 H   0  0  0  0  0  0
  -28.2997  -19.4343   20.6322 H   0  0  0  0  0  0
  -29.9222  -19.8911   20.2047 H   0  0  0  0  0  0
  -28.8208  -17.0483   20.1292 H   0  0  0  0  0  0
  -30.4230  -17.4931   19.6041 H   0  0  0  0  0  0
  -29.2884  -17.7210   22.4269 H   0  0  0  0  0  0
  -30.7507  -18.5388   21.9578 H   0  0  0  0  0  0
  -31.2034  -16.4094   23.1208 H   0  0  0  0  0  0
  -31.9584  -16.5319   21.5739 H   0  0  0  0  0  0
  -29.5268  -14.8665   22.1653 H   0  0  0  0  0  0
  1 25  1  0  0  0
  1 30  2  0  0  0
  1 89  1  0  0  0
  2  3  1  0  0  0
  2 25  1  0  0  0
  2 91  1  0  0  0
  2 92  1  0  0  0
  3  4  1  0  0  0
  3 93  1  0  0  0
  3 94  1  0  0  0
  4  5  1  0  0  0
  4 95  1  0  0  0
  4 96  1  0  0  0
  5  6  1  0  0  0
  5 26  1  0  0  0
  5 97  1  0  0  0
  6 25  1  0  0  0
  6 98  1  0  0  0
  6 99  1  0  0  0
  7  8  2  0  0  0
  7 26  1  0  0  0
  7 29  1  0  0  0
  8  9  1  0  0  0
  8 22  1  0  0  0
  9 10  1  0  0  0
  9 27  2  0  0  0
 10 11  2  0  0  0
 10 15  1  0  0  0
 11 12  1  0  0  0
 11100  1  0  0  0
 12 13  2  0  0  0
 12101  1  0  0  0
 13 14  1  0  0  0
 13 31  1  0  0  0
 14 15  2  0  0  0
 14102  1  0  0  0
 15103  1  0  0  0
 16 17  2  0  0  0
 16 21  1  0  0  0
 16 31  1  0  0  0
 17 18  1  0  0  0
 17104  1  0  0  0
 18 19  2  0  0  0
 18105  1  0  0  0
 19 20  1  0  0  0
 19 24  1  0  0  0
 20 21  2  0  0  0
 20106  1  0  0  0
 21 23  1  0  0  0
 22 28  1  0  0  0
 22 32  2  0  0  0
 26 27  1  0  0  0
 28107  1  0  0  0
 28108  1  0  0  0
 29109  1  0  0  0
 29110  1  0  0  0
 33 34  1  0  0  0
 33 66  1  0  0  0
 33 70  2  0  0  0
 34 36  1  0  0  0
 34 59  1  0  0  0
 34111  1  0  0  0
 35 44  2  0  0  0
 35 45  1  0  0  0
 35 68  1  0  0  0
 36 56  1  0  0  0
 36112  1  0  0  0
 37 39  1  0  0  0
 37 47  1  0  0  0
 37 66  1  0  0  0
 37113  1  0  0  0
 38 43  2  0  0  0
 38 46  1  0  0  0
 38 47  1  0  0  0
 39 64  1  0  0  0
 39 67  2  0  0  0
 40 52  1  0  0  0
 40 53  2  0  0  0
 40 58  1  0  0  0
 41114  1  0  0  0
 41115  1  0  0  0
 41116  1  0  0  0
 41 48  1  0  0  0
 42 43  1  0  0  0
 42 66  1  0  0  0
 42117  1  0  0  0
 42118  1  0  0  0
 43 44  1  0  0  0
 44119  1  0  0  0
 45 46  2  0  0  0
 45120  1  0  0  0
 46121  1  0  0  0
 47122  1  0  0  0
 47123  1  0  0  0
 48 56  1  0  0  0
 48 65  1  0  0  0
 48124  1  0  0  0
 49 50  1  0  0  0
 49 53  1  0  0  0
 49 64  1  0  0  0
 49125  1  0  0  0
 50 51  1  0  0  0
 50126  1  0  0  0
 50127  1  0  0  0
 51 52  1  0  0  0
 51128  1  0  0  0
 51129  1  0  0  0
 52130  1  0  0  0
 52131  1  0  0  0
 53 54  1  0  0  0
 54 55  2  0  0  0
 54132  1  0  0  0
 55 57  1  0  0  0
 55133  1  0  0  0
 56 69  2  0  0  0
 57 58  2  0  0  0
 57134  1  0  0  0
 58135  1  0  0  0
 59 60  1  0  0  0
 59 61  1  0  0  0
 59 62  1  0  0  0
 60136  1  0  0  0
 60137  1  0  0  0
 60138  1  0  0  0
 61139  1  0  0  0
 61140  1  0  0  0
 61141  1  0  0  0
 62142  1  0  0  0
 62143  1  0  0  0
 62144  1  0  0  0
 63 65  1  0  0  0
 63145  1  0  0  0
 63146  1  0  0  0
 63147  1  0  0  0
 64148  1  0  0  0
 65149  1  0  0  0
 68 79  1  0  0  0
 71 73  2  0  0  0
 71 74  1  0  0  0
 71150  1  0  0  0
 72 73  1  0  0  0
 72 75  2  0  0  0
 72151  1  0  0  0
 73 77  1  0  0  0
 74 76  2  0  0  0
 74 78  1  0  0  0
 75 76  1  0  0  0
 75 79  1  0  0  0
 76 90  1  0  0  0
 77152  1  0  0  0
 77153  1  0  0  0
 77154  1  0  0  0
 78 80  1  0  0  0
 78155  1  0  0  0
 78156  1  0  0  0
 79157  1  0  0  0
 79158  1  0  0  0
 80 81  1  0  0  0
 80159  1  0  0  0
 80160  1  0  0  0
 81 82  1  0  0  0
 81161  1  0  0  0
 81162  1  0  0  0
 82 83  1  0  0  0
 82163  1  0  0  0
 82164  1  0  0  0
 83 84  1  0  0  0
 83165  1  0  0  0
 83166  1  0  0  0
 84 85  1  0  0  0
 84167  1  0  0  0
 84168  1  0  0  0
 85 86  1  0  0  0
 85169  1  0  0  0
 85170  1  0  0  0
 86 87  1  0  0  0
 86171  1  0  0  0
 86172  1  0  0  0
 87 88  1  0  0  0
 87173  1  0  0  0
 87174  1  0  0  0
 88 89  1  0  0  0
 88175  1  0  0  0
 88176  1  0  0  0
 89177  1  0  0  0
M  ISO  4   1 100  68 101  79 101  89 100
M  END
> <chiral flag>
0

> <version>
0

> <s_m_source_file>
/data/baiqing/PycharmProjects/Reinvent-master-3.2/result/LINK_invent/BTK/process_docking_weight1_custom_sum_contain_oxygen_bond_distance_aromatic_linkinvent_7_9_3/rearranged_h_0033.sdf

> <i_m_source_file_index>
36

> <r_mmod_Potential_Energy-OPLS-2005>
-25.2201156616211

> <r_mmod_Stretch_Energy-OPLS-2005>
33.5897407531738

> <r_mmod_Bend_Energy-OPLS-2005>
100.969772338867

> <r_mmod_Torsional_Energy-OPLS-2005>
219.057189941406

> <r_mmod_Improper_Torsional_Energy-OPLS-2005>
1.94679844379425

> <r_mmod_Van_der_Waal_Energy-OPLS-2005>
151.156982421875

> <r_mmod_Electrostatic_Energy-OPLS-2005>
-344.888977050781

> <r_mmod_Solvation_Energy-OPLS-2005>
-193.534255981445

> <b_mmod_Minimization_Converged-OPLS-2005>
0

> <r_mmod_RMS_Derivative-OPLS-2005>
5.63994979858398

$$$$
37
                    3D
 Structure written by MMmdl.
160168  0  0  1  0            999 V2000
  -30.6335  -14.5477   20.5228 C   0  0  0  0  0  0
  -30.4242  -12.3334   19.4420 C   0  0  0  0  0  0
  -29.4985  -12.5060   18.2166 C   0  0  0  0  0  0
  -28.0174  -12.3556   18.6229 C   0  0  0  0  0  0
  -27.6549  -13.2054   19.8697 C   0  0  2  0  0  0
  -28.6925  -13.0106   20.9990 C   0  0  0  0  0  0
  -25.2560  -13.8157   20.5635 C   0  0  0  0  0  0
  -24.1806  -13.0452   20.9187 C   0  0  0  0  0  0
  -24.6367  -11.6930   20.8741 C   0  0  0  0  0  0
  -23.9048  -10.4303   21.0416 C   0  0  0  0  0  0
  -24.3617   -9.4211   21.9174 C   0  0  0  0  0  0
  -23.6295   -8.2242   22.0755 C   0  0  0  0  0  0
  -22.4268   -8.0281   21.3562 C   0  0  0  0  0  0
  -21.9904   -9.0246   20.4649 C   0  0  0  0  0  0
  -22.7232  -10.2127   20.3051 C   0  0  0  0  0  0
  -21.6845   -6.0731   22.5280 C   0  0  0  0  0  0
  -21.4016   -6.5640   23.8207 C   0  0  0  0  0  0
  -21.3670   -5.6795   24.9170 C   0  0  0  0  0  0
  -21.6042   -4.3055   24.7219 C   0  0  0  0  0  0
  -21.8821   -3.8148   23.4339 C   0  0  0  0  0  0
  -21.9192   -4.6964   22.3396 C   0  0  0  0  0  0
  -22.7846  -13.5259   21.1881 C   0  0  0  0  0  0
  -22.1664   -4.2153   21.0970 F   0  0  0  0  0  0
  -21.5635   -3.4538   25.7733 F   0  0  0  0  0  0
  -30.0182  -13.3316   20.4454 N   0  0  0  0  0  0
  -26.2974  -12.9318   20.3305 N   0  0  0  0  0  0
  -25.9280  -11.6490   20.5739 N   0  0  0  0  0  0
  -22.0502  -12.8193   22.0428 N   0  0  0  0  0  0
  -25.4285  -15.1840   20.3991 N   0  0  0  0  0  0
  -31.7739  -14.7449   20.0918 O   0  0  0  0  0  0
  -21.6635   -6.8876   21.4253 O   0  0  0  0  0  0
  -22.3499  -14.5540   20.6731 O   0  0  0  0  0  0
  -24.6185  -31.8630   23.2030 C   0  0  0  0  0  0
  -25.9069  -32.4792   23.8340 C   0  0  1  0  0  0
  -27.2431  -27.3846   20.0882 C   0  0  0  0  0  0
  -25.5914  -33.8590   24.2287 N   0  0  0  0  0  0
  -23.4083  -30.4868   21.5408 C   0  0  2  0  0  0
  -24.8574  -28.9377   20.1125 C   0  0  0  0  0  0
  -22.7414  -29.4680   22.4941 C   0  0  0  0  0  0
  -18.0328  -28.1412   22.8489 C   0  0  0  0  0  0
  -24.1490  -36.7305   23.2631 C   0  0  0  0  0  0
  -25.9429  -30.8105   21.3647 C   0  0  0  0  0  0
  -26.0182  -29.4383   20.7144 C   0  0  0  0  0  0
  -27.2080  -28.6661   20.7024 C   0  0  0  0  0  0
  -26.0626  -26.9097   19.4775 C   0  0  0  0  0  0
  -24.8787  -27.6760   19.4904 C   0  0  0  0  0  0
  -23.6188  -29.8072   20.1613 C   0  0  0  0  0  0
  -25.4113  -36.3085   24.0318 C   0  0  1  0  0  0
  -20.5912  -28.3698   23.1312 C   0  0  2  0  0  0
  -20.6829  -26.9415   22.5436 C   0  0  0  0  0  0
  -19.5811  -26.6339   21.5250 C   0  0  0  0  0  0
  -18.1969  -26.7932   22.1650 C   0  0  0  0  0  0
  -19.1580  -28.8871   23.2900 C   0  0  0  0  0  0
  -18.9515  -30.1477   23.8898 C   0  0  0  0  0  0
  -17.6522  -30.6594   24.0563 C   0  0  0  0  0  0
  -25.9045  -34.9458   23.5102 C   0  0  0  0  0  0
  -16.5400  -29.9115   23.6363 C   0  0  0  0  0  0
  -16.7318  -28.6535   23.0358 C   0  0  0  0  0  0
  -26.4482  -31.6574   25.0679 C   0  0  0  0  0  0
  -25.3735  -31.3712   26.1421 C   0  0  0  0  0  0
  -27.0308  -30.2996   24.6098 C   0  0  0  0  0  0
  -27.6041  -32.4299   25.7459 C   0  0  0  0  0  0
  -27.5581  -37.1796   24.8465 C   0  0  0  0  0  0
  -21.4151  -29.3063   22.3678 N   0  0  0  0  0  0
  -26.4301  -37.3772   23.9393 N   0  0  0  0  0  0
  -24.6742  -31.0703   22.0929 N   0  0  0  0  0  0
  -23.4179  -28.8242   23.2992 O   0  0  0  0  0  0
  -28.4206  -26.6466   20.1186 O   0  0  0  0  0  0
  -26.5620  -34.8921   22.4669 O   0  0  0  0  0  0
  -23.5361  -32.1416   23.7394 O   0  0  0  0  0  0
  -28.7523  -19.3383   20.7217 C   0  0  0  0  0  0
  -27.7781  -17.3782   21.8120 C   0  0  0  0  0  0
  -28.8375  -17.9443   21.0733 C   0  0  0  0  0  0
  -27.5949  -20.1224   21.0487 C   0  0  0  0  0  0
  -26.5213  -19.4647   21.7058 C   0  0  0  0  0  0
  -26.6384  -18.1262   22.1335 C   0  0  0  0  0  0
  -24.2791  -19.7739   21.0859 C   0  0  0  0  0  0
  -27.3473  -21.6372   20.7630 C   0  0  0  0  0  0
  -30.0380  -17.0324   20.6962 C   0  0  0  0  0  0
  -28.3945  -22.6566   20.2093 C   0  0  0  0  0  0
  -27.9119  -24.1448   20.4529 C   0  0  0  0  0  0
  -28.5220  -25.2959   19.5805 C   0  0  0  0  0  0
  -29.8333  -15.5717   20.9037 N   0  0  0  0  0  0
  -25.3541  -20.1483   21.9477 O   0  0  0  0  0  0
  -25.3864  -17.3832   23.0679 Cl  0  0  0  0  0  0
  -31.4687  -12.4434   19.1473 H   0  0  0  0  0  0
  -30.3324  -11.3251   19.8501 H   0  0  0  0  0  0
  -29.7499  -11.7787   17.4435 H   0  0  0  0  0  0
  -29.6585  -13.4902   17.7693 H   0  0  0  0  0  0
  -27.8403  -11.3004   18.8313 H   0  0  0  0  0  0
  -27.3689  -12.6124   17.7838 H   0  0  0  0  0  0
  -27.6931  -14.2491   19.5589 H   0  0  0  0  0  0
  -28.6718  -11.9807   21.3601 H   0  0  0  0  0  0
  -28.4425  -13.6252   21.8649 H   0  0  0  0  0  0
  -25.2773   -9.5681   22.4731 H   0  0  0  0  0  0
  -24.0007   -7.4629   22.7460 H   0  0  0  0  0  0
  -21.0841   -8.8750   19.8951 H   0  0  0  0  0  0
  -22.3687  -10.9655   19.6144 H   0  0  0  0  0  0
  -21.2016   -7.6149   23.9699 H   0  0  0  0  0  0
  -21.1491   -6.0535   25.9064 H   0  0  0  0  0  0
  -22.0591   -2.7615   23.2830 H   0  0  0  0  0  0
  -22.4160  -11.9870   22.4799 H   0  0  0  0  0  0
  -21.1126  -13.1187   22.2657 H   0  0  0  0  0  0
  -24.6824  -15.8472   20.5691 H   0  0  0  0  0  0
  -26.2770  -15.6221   20.0695 H   0  0  0  0  0  0
  -26.7136  -32.5496   23.1087 H   0  0  0  0  0  0
  -25.0015  -33.9741   25.0403 H   0  0  0  0  0  0
  -22.7022  -31.3067   21.3943 H   0  0  0  0  0  0
  -23.3740  -35.9654   23.3297 H   0  0  0  0  0  0
  -24.3583  -36.8922   22.2048 H   0  0  0  0  0  0
  -23.7276  -37.6511   23.6662 H   0  0  0  0  0  0
  -26.0640  -31.5718   20.5940 H   0  0  0  0  0  0
  -26.8298  -30.8683   21.9836 H   0  0  0  0  0  0
  -28.1028  -29.0404   21.1822 H   0  0  0  0  0  0
  -26.0419  -25.9461   18.9913 H   0  0  0  0  0  0
  -23.9883  -27.2922   19.0115 H   0  0  0  0  0  0
  -23.7219  -30.5739   19.3940 H   0  0  0  0  0  0
  -22.7449  -29.2224   19.8692 H   0  0  0  0  0  0
  -25.1296  -36.1915   25.0814 H   0  0  0  0  0  0
  -21.0024  -28.3310   24.1421 H   0  0  0  0  0  0
  -20.5819  -26.2288   23.3646 H   0  0  0  0  0  0
  -21.6699  -26.7503   22.1197 H   0  0  0  0  0  0
  -19.6952  -25.6185   21.1390 H   0  0  0  0  0  0
  -19.6825  -27.3068   20.6705 H   0  0  0  0  0  0
  -18.0311  -26.0055   22.9032 H   0  0  0  0  0  0
  -17.4283  -26.6759   21.3990 H   0  0  0  0  0  0
  -19.8005  -30.7281   24.2257 H   0  0  0  0  0  0
  -17.5135  -31.6259   24.5199 H   0  0  0  0  0  0
  -15.5415  -30.3056   23.7716 H   0  0  0  0  0  0
  -15.8705  -28.0874   22.7048 H   0  0  0  0  0  0
  -24.5924  -30.7035   25.7775 H   0  0  0  0  0  0
  -24.8912  -32.2875   26.4825 H   0  0  0  0  0  0
  -25.8079  -30.8923   27.0203 H   0  0  0  0  0  0
  -26.2862  -29.6751   24.1149 H   0  0  0  0  0  0
  -27.4037  -29.7243   25.4583 H   0  0  0  0  0  0
  -27.8718  -30.4275   23.9281 H   0  0  0  0  0  0
  -27.2646  -33.3596   26.2041 H   0  0  0  0  0  0
  -28.3860  -32.6855   25.0299 H   0  0  0  0  0  0
  -28.0697  -31.8414   26.5373 H   0  0  0  0  0  0
  -28.2590  -38.0095   24.7490 H   0  0  0  0  0  0
  -28.1075  -36.2618   24.6309 H   0  0  0  0  0  0
  -27.2290  -37.1476   25.8866 H   0  0  0  0  0  0
  -20.9303  -29.8765   21.6893 H   0  0  0  0  0  0
  -26.0168  -38.2840   24.1385 H   0  0  0  0  0  0
  -29.5742  -19.8035   20.1940 H   0  0  0  0  0  0
  -27.8031  -16.3531   22.1467 H   0  0  0  0  0  0
  -24.2389  -18.7034   20.8896 H   0  0  0  0  0  0
  -24.3577  -20.2758   20.1216 H   0  0  0  0  0  0
  -23.3260  -20.0546   21.5343 H   0  0  0  0  0  0
  -27.0188  -22.0455   21.7196 H   0  0  0  0  0  0
  -26.4732  -21.7014   20.1155 H   0  0  0  0  0  0
  -30.2705  -17.2016   19.6431 H   0  0  0  0  0  0
  -30.9163  -17.3506   21.2609 H   0  0  0  0  0  0
  -28.5525  -22.4721   19.1466 H   0  0  0  0  0  0
  -29.3592  -22.5118   20.6969 H   0  0  0  0  0  0
  -26.8302  -24.1797   20.3234 H   0  0  0  0  0  0
  -28.0805  -24.3837   21.5036 H   0  0  0  0  0  0
  -28.1437  -25.2567   18.5586 H   0  0  0  0  0  0
  -29.5894  -25.0978   19.4851 H   0  0  0  0  0  0
  -28.9247  -15.3029   21.2456 H   0  0  0  0  0  0
  1 25  1  0  0  0
  1 30  2  0  0  0
  1 83  1  0  0  0
  2  3  1  0  0  0
  2 25  1  0  0  0
  2 86  1  0  0  0
  2 87  1  0  0  0
  3  4  1  0  0  0
  3 88  1  0  0  0
  3 89  1  0  0  0
  4  5  1  0  0  0
  4 90  1  0  0  0
  4 91  1  0  0  0
  5  6  1  0  0  0
  5 26  1  0  0  0
  5 92  1  0  0  0
  6 25  1  0  0  0
  6 93  1  0  0  0
  6 94  1  0  0  0
  7  8  2  0  0  0
  7 26  1  0  0  0
  7 29  1  0  0  0
  8  9  1  0  0  0
  8 22  1  0  0  0
  9 10  1  0  0  0
  9 27  2  0  0  0
 10 11  2  0  0  0
 10 15  1  0  0  0
 11 12  1  0  0  0
 11 95  1  0  0  0
 12 13  2  0  0  0
 12 96  1  0  0  0
 13 14  1  0  0  0
 13 31  1  0  0  0
 14 15  2  0  0  0
 14 97  1  0  0  0
 15 98  1  0  0  0
 16 17  2  0  0  0
 16 21  1  0  0  0
 16 31  1  0  0  0
 17 18  1  0  0  0
 17 99  1  0  0  0
 18 19  2  0  0  0
 18100  1  0  0  0
 19 20  1  0  0  0
 19 24  1  0  0  0
 20 21  2  0  0  0
 20101  1  0  0  0
 21 23  1  0  0  0
 22 28  1  0  0  0
 22 32  2  0  0  0
 26 27  1  0  0  0
 28102  1  0  0  0
 28103  1  0  0  0
 29104  1  0  0  0
 29105  1  0  0  0
 33 34  1  0  0  0
 33 66  1  0  0  0
 33 70  2  0  0  0
 34 36  1  0  0  0
 34 59  1  0  0  0
 34106  1  0  0  0
 35 44  2  0  0  0
 35 45  1  0  0  0
 35 68  1  0  0  0
 36 56  1  0  0  0
 36107  1  0  0  0
 37 39  1  0  0  0
 37 47  1  0  0  0
 37 66  1  0  0  0
 37108  1  0  0  0
 38 43  2  0  0  0
 38 46  1  0  0  0
 38 47  1  0  0  0
 39 64  1  0  0  0
 39 67  2  0  0  0
 40 52  1  0  0  0
 40 53  2  0  0  0
 40 58  1  0  0  0
 41109  1  0  0  0
 41110  1  0  0  0
 41111  1  0  0  0
 41 48  1  0  0  0
 42 43  1  0  0  0
 42 66  1  0  0  0
 42112  1  0  0  0
 42113  1  0  0  0
 43 44  1  0  0  0
 44114  1  0  0  0
 45 46  2  0  0  0
 45115  1  0  0  0
 46116  1  0  0  0
 47117  1  0  0  0
 47118  1  0  0  0
 48 56  1  0  0  0
 48 65  1  0  0  0
 48119  1  0  0  0
 49 50  1  0  0  0
 49 53  1  0  0  0
 49 64  1  0  0  0
 49120  1  0  0  0
 50 51  1  0  0  0
 50121  1  0  0  0
 50122  1  0  0  0
 51 52  1  0  0  0
 51123  1  0  0  0
 51124  1  0  0  0
 52125  1  0  0  0
 52126  1  0  0  0
 53 54  1  0  0  0
 54 55  2  0  0  0
 54127  1  0  0  0
 55 57  1  0  0  0
 55128  1  0  0  0
 56 69  2  0  0  0
 57 58  2  0  0  0
 57129  1  0  0  0
 58130  1  0  0  0
 59 60  1  0  0  0
 59 61  1  0  0  0
 59 62  1  0  0  0
 60131  1  0  0  0
 60132  1  0  0  0
 60133  1  0  0  0
 61134  1  0  0  0
 61135  1  0  0  0
 61136  1  0  0  0
 62137  1  0  0  0
 62138  1  0  0  0
 62139  1  0  0  0
 63 65  1  0  0  0
 63140  1  0  0  0
 63141  1  0  0  0
 63142  1  0  0  0
 64143  1  0  0  0
 65144  1  0  0  0
 68 82  1  0  0  0
 71 73  2  0  0  0
 71 74  1  0  0  0
 71145  1  0  0  0
 72 73  1  0  0  0
 72 76  2  0  0  0
 72146  1  0  0  0
 73 79  1  0  0  0
 74 75  2  0  0  0
 74 78  1  0  0  0
 75 76  1  0  0  0
 75 84  1  0  0  0
 76 85  1  0  0  0
 77 84  1  0  0  0
 77147  1  0  0  0
 77148  1  0  0  0
 77149  1  0  0  0
 78 80  1  0  0  0
 78150  1  0  0  0
 78151  1  0  0  0
 79 83  1  0  0  0
 79152  1  0  0  0
 79153  1  0  0  0
 80 81  1  0  0  0
 80154  1  0  0  0
 80155  1  0  0  0
 81 82  1  0  0  0
 81156  1  0  0  0
 81157  1  0  0  0
 82158  1  0  0  0
 82159  1  0  0  0
 83160  1  0  0  0
M  ISO  4   1 100  68 101  82 101  83 100
M  END
> <chiral flag>
0

> <version>
0

> <s_m_source_file>
/data/baiqing/PycharmProjects/Reinvent-master-3.2/result/LINK_invent/BTK/process_docking_weight1_custom_sum_contain_oxygen_bond_distance_aromatic_linkinvent_7_9_3/rearranged_h_0033.sdf

> <i_m_source_file_index>
37

> <r_mmod_Potential_Energy-OPLS-2005>
-4.73631477355957

> <r_mmod_Stretch_Energy-OPLS-2005>
58.4843139648438

> <r_mmod_Bend_Energy-OPLS-2005>
141.243118286133

> <r_mmod_Torsional_Energy-OPLS-2005>
226.503128051758

> <r_mmod_Improper_Torsional_Energy-OPLS-2005>
5.0486011505127

> <r_mmod_Van_der_Waal_Energy-OPLS-2005>
140.879287719727

> <r_mmod_Electrostatic_Energy-OPLS-2005>
-397.158020019531

> <r_mmod_Solvation_Energy-OPLS-2005>
-203.23991394043

> <b_mmod_Minimization_Converged-OPLS-2005>
0

> <r_mmod_RMS_Derivative-OPLS-2005>
4.274817943573

$$$$
38
                    3D
 Structure written by MMmdl.
165173  0  0  1  0            999 V2000
  -30.8100  -14.3590   20.7145 C   0  0  0  0  0  0
  -30.4147  -12.3046   19.4033 C   0  0  0  0  0  0
  -29.4821  -12.5350   18.2016 C   0  0  0  0  0  0
  -28.0129  -12.3757   18.6247 C   0  0  0  0  0  0
  -27.6679  -13.2105   19.8839 C   0  0  2  0  0  0
  -28.7079  -12.9887   21.0066 C   0  0  0  0  0  0
  -25.2619  -13.8184   20.5697 C   0  0  0  0  0  0
  -24.1868  -13.0442   20.9185 C   0  0  0  0  0  0
  -24.6426  -11.6916   20.8761 C   0  0  0  0  0  0
  -23.9094  -10.4293   21.0434 C   0  0  0  0  0  0
  -24.3631   -9.4203   21.9207 C   0  0  0  0  0  0
  -23.6295   -8.2242   22.0769 C   0  0  0  0  0  0
  -22.4285   -8.0286   21.3545 C   0  0  0  0  0  0
  -21.9929   -9.0271   20.4658 C   0  0  0  0  0  0
  -22.7272  -10.2146   20.3073 C   0  0  0  0  0  0
  -21.6854   -6.0734   22.5276 C   0  0  0  0  0  0
  -21.4022   -6.5639   23.8207 C   0  0  0  0  0  0
  -21.3656   -5.6796   24.9166 C   0  0  0  0  0  0
  -21.6045   -4.3056   24.7228 C   0  0  0  0  0  0
  -21.8819   -3.8147   23.4343 C   0  0  0  0  0  0
  -21.9196   -4.6963   22.3398 C   0  0  0  0  0  0
  -22.7881  -13.5240   21.1832 C   0  0  0  0  0  0
  -22.1664   -4.2146   21.0977 F   0  0  0  0  0  0
  -21.5621   -3.4543   25.7736 F   0  0  0  0  0  0
  -30.0573  -13.2545   20.4687 N   0  0  0  0  0  0
  -26.3068  -12.9353   20.3427 N   0  0  0  0  0  0
  -25.9360  -11.6508   20.5803 N   0  0  0  0  0  0
  -22.0517  -12.8224   22.0385 N   0  0  0  0  0  0
  -25.4348  -15.1893   20.4078 N   0  0  0  0  0  0
  -31.7875  -14.6759   20.0296 O   0  0  0  0  0  0
  -21.6641   -6.8885   21.4237 O   0  0  0  0  0  0
  -22.3570  -14.5538   20.6684 O   0  0  0  0  0  0
  -24.6097  -31.8696   23.2061 C   0  0  0  0  0  0
  -25.8998  -32.4832   23.8359 C   0  0  1  0  0  0
  -27.2575  -27.4662   20.0605 C   0  0  0  0  0  0
  -25.5850  -33.8633   24.2261 N   0  0  0  0  0  0
  -23.3986  -30.4865   21.5489 C   0  0  2  0  0  0
  -24.8439  -28.9464   20.1191 C   0  0  0  0  0  0
  -22.7397  -29.4653   22.5036 C   0  0  0  0  0  0
  -18.0269  -28.1361   22.8481 C   0  0  0  0  0  0
  -24.1503  -36.7341   23.2633 C   0  0  0  0  0  0
  -25.9224  -30.8343   21.3599 C   0  0  0  0  0  0
  -26.0000  -29.4693   20.7103 C   0  0  0  0  0  0
  -27.2016  -28.7296   20.6853 C   0  0  0  0  0  0
  -26.0698  -26.9341   19.4994 C   0  0  0  0  0  0
  -24.8691  -27.6717   19.5241 C   0  0  0  0  0  0
  -23.6044  -29.8113   20.1676 C   0  0  0  0  0  0
  -25.4123  -36.3115   24.0320 C   0  0  1  0  0  0
  -20.5848  -28.3646   23.1335 C   0  0  2  0  0  0
  -20.6772  -26.9397   22.5408 C   0  0  0  0  0  0
  -19.5749  -26.6382   21.5200 C   0  0  0  0  0  0
  -18.1917  -26.7900   22.1611 C   0  0  0  0  0  0
  -19.1514  -28.8818   23.2901 C   0  0  0  0  0  0
  -18.9463  -30.1424   23.8906 C   0  0  0  0  0  0
  -17.6470  -30.6574   24.0541 C   0  0  0  0  0  0
  -25.9033  -34.9486   23.5093 C   0  0  0  0  0  0
  -16.5352  -29.9069   23.6324 C   0  0  0  0  0  0
  -16.7264  -28.6491   23.0331 C   0  0  0  0  0  0
  -26.4415  -31.6635   25.0713 C   0  0  0  0  0  0
  -25.3659  -31.3787   26.1462 C   0  0  0  0  0  0
  -27.0248  -30.3065   24.6108 C   0  0  0  0  0  0
  -27.5971  -32.4379   25.7494 C   0  0  0  0  0  0
  -27.5600  -37.1816   24.8450 C   0  0  0  0  0  0
  -21.4135  -29.3022   22.3780 N   0  0  0  0  0  0
  -26.4322  -37.3794   23.9385 N   0  0  0  0  0  0
  -24.6614  -31.0783   22.0963 N   0  0  0  0  0  0
  -23.4174  -28.8231   23.3095 O   0  0  0  0  0  0
  -28.4789  -26.8228   20.0633 O   0  0  0  0  0  0
  -26.5651  -34.8957   22.4691 O   0  0  0  0  0  0
  -23.5305  -32.1469   23.7469 O   0  0  0  0  0  0
  -29.8349  -21.1589   22.8861 C   0  0  0  0  0  0
  -27.8810  -21.7457   21.0659 C   0  0  0  0  0  0
  -28.9288  -20.2000   22.5775 C   0  0  0  0  0  0
  -27.9278  -20.4919   21.5558 C   0  0  0  0  0  0
  -29.8219  -22.4974   22.2885 C   0  0  0  0  0  0
  -26.9480  -19.4499   21.0536 C   0  0  0  0  0  0
  -28.8477  -18.9537   23.4627 C   0  0  0  0  0  0
  -29.2531  -17.5922   22.8566 C   0  0  0  0  0  0
  -30.7026  -17.4925   22.3465 C   0  0  0  0  0  0
  -29.3523  -24.5741   19.7970 C   0  0  0  0  0  0
  -28.4803  -24.1207   20.9843 C   0  0  0  0  0  0
  -31.3112  -16.0779   22.4636 C   0  0  0  0  0  0
  -28.7861  -25.8198   19.0926 C   0  0  0  0  0  0
  -28.7717  -22.7573   21.4585 N   0  0  0  0  0  0
  -30.5020  -15.0285   21.8345 N   0  0  0  0  0  0
  -30.6703  -23.3522   22.5656 O   0  0  0  0  0  0
  -31.4572  -12.4016   19.0946 H   0  0  0  0  0  0
  -30.3119  -11.2836   19.7745 H   0  0  0  0  0  0
  -29.7191  -11.8328   17.4019 H   0  0  0  0  0  0
  -29.6430  -13.5350   17.7942 H   0  0  0  0  0  0
  -27.8365  -11.3173   18.8204 H   0  0  0  0  0  0
  -27.3516  -12.6466   17.8012 H   0  0  0  0  0  0
  -27.7187  -14.2602   19.5944 H   0  0  0  0  0  0
  -28.6641  -11.9627   21.3744 H   0  0  0  0  0  0
  -28.4528  -13.6161   21.8614 H   0  0  0  0  0  0
  -25.2770   -9.5659   22.4793 H   0  0  0  0  0  0
  -23.9994   -7.4628   22.7488 H   0  0  0  0  0  0
  -21.0859   -8.8802   19.8960 H   0  0  0  0  0  0
  -22.3745  -10.9689   19.6184 H   0  0  0  0  0  0
  -21.2026   -7.6150   23.9710 H   0  0  0  0  0  0
  -21.1478   -6.0525   25.9068 H   0  0  0  0  0  0
  -22.0608   -2.7611   23.2848 H   0  0  0  0  0  0
  -22.4099  -11.9849   22.4720 H   0  0  0  0  0  0
  -21.1152  -13.1285   22.2620 H   0  0  0  0  0  0
  -24.6741  -15.8513   20.5167 H   0  0  0  0  0  0
  -26.2932  -15.6234   20.0913 H   0  0  0  0  0  0
  -26.7072  -32.5535   23.1134 H   0  0  0  0  0  0
  -24.9950  -33.9786   25.0369 H   0  0  0  0  0  0
  -22.6857  -31.3003   21.4060 H   0  0  0  0  0  0
  -23.3768  -35.9684   23.3320 H   0  0  0  0  0  0
  -24.3580  -36.8944   22.2045 H   0  0  0  0  0  0
  -23.7272  -37.6551   23.6670 H   0  0  0  0  0  0
  -26.0288  -31.5982   20.5896 H   0  0  0  0  0  0
  -26.8084  -30.8852   21.9806 H   0  0  0  0  0  0
  -28.1023  -29.1337   21.1304 H   0  0  0  0  0  0
  -26.0373  -25.9521   19.0526 H   0  0  0  0  0  0
  -23.9718  -27.2495   19.0897 H   0  0  0  0  0  0
  -23.7082  -30.5779   19.3987 H   0  0  0  0  0  0
  -22.7279  -29.2263   19.8833 H   0  0  0  0  0  0
  -25.1302  -36.1993   25.0813 H   0  0  0  0  0  0
  -20.9895  -28.3207   24.1471 H   0  0  0  0  0  0
  -20.5695  -26.2256   23.3607 H   0  0  0  0  0  0
  -21.6652  -26.7490   22.1176 H   0  0  0  0  0  0
  -19.6926  -25.6294   21.1239 H   0  0  0  0  0  0
  -19.6665  -27.3207   20.6739 H   0  0  0  0  0  0
  -17.4184  -26.6666   21.4004 H   0  0  0  0  0  0
  -18.0291  -26.0041   22.9013 H   0  0  0  0  0  0
  -19.7958  -30.7203   24.2301 H   0  0  0  0  0  0
  -17.5043  -31.6264   24.5134 H   0  0  0  0  0  0
  -15.5342  -30.2959   23.7667 H   0  0  0  0  0  0
  -15.8677  -28.0813   22.7020 H   0  0  0  0  0  0
  -24.5939  -30.6962   25.7876 H   0  0  0  0  0  0
  -24.8698  -32.2933   26.4717 H   0  0  0  0  0  0
  -25.7998  -30.9196   27.0341 H   0  0  0  0  0  0
  -26.2788  -29.6853   24.1127 H   0  0  0  0  0  0
  -27.3951  -29.7290   25.4583 H   0  0  0  0  0  0
  -27.8656  -30.4372   23.9292 H   0  0  0  0  0  0
  -27.2568  -33.3708   26.2016 H   0  0  0  0  0  0
  -28.3819  -32.6888   25.0338 H   0  0  0  0  0  0
  -28.0600  -31.8540   26.5461 H   0  0  0  0  0  0
  -28.2607  -38.0129   24.7501 H   0  0  0  0  0  0
  -28.1109  -36.2649   24.6274 H   0  0  0  0  0  0
  -27.2312  -37.1435   25.8854 H   0  0  0  0  0  0
  -20.9334  -29.8750   21.6988 H   0  0  0  0  0  0
  -26.0237  -38.2882   24.1384 H   0  0  0  0  0  0
  -30.5425  -20.9814   23.6813 H   0  0  0  0  0  0
  -27.1603  -22.0584   20.3226 H   0  0  0  0  0  0
  -26.2931  -19.8627   20.2851 H   0  0  0  0  0  0
  -26.3168  -19.0790   21.8617 H   0  0  0  0  0  0
  -27.4805  -18.6106   20.6084 H   0  0  0  0  0  0
  -27.8212  -18.8790   23.8235 H   0  0  0  0  0  0
  -29.4446  -19.1162   24.3613 H   0  0  0  0  0  0
  -28.5610  -17.2881   22.0731 H   0  0  0  0  0  0
  -29.1239  -16.8589   23.6540 H   0  0  0  0  0  0
  -31.3314  -18.1727   22.9225 H   0  0  0  0  0  0
  -30.7597  -17.8404   21.3147 H   0  0  0  0  0  0
  -29.4553  -23.7718   19.0663 H   0  0  0  0  0  0
  -30.3615  -24.7860   20.1538 H   0  0  0  0  0  0
  -27.4281  -24.2099   20.7098 H   0  0  0  0  0  0
  -28.6132  -24.8218   21.8108 H   0  0  0  0  0  0
  -31.4138  -15.8193   23.5181 H   0  0  0  0  0  0
  -32.3291  -16.0859   22.0696 H   0  0  0  0  0  0
  -27.9667  -25.5443   18.4338 H   0  0  0  0  0  0
  -29.5493  -26.2296   18.4307 H   0  0  0  0  0  0
  -29.7108  -14.6816   22.3569 H   0  0  0  0  0  0
  1 25  1  0  0  0
  1 30  2  0  0  0
  1 85  1  0  0  0
  2  3  1  0  0  0
  2 25  1  0  0  0
  2 87  1  0  0  0
  2 88  1  0  0  0
  3  4  1  0  0  0
  3 89  1  0  0  0
  3 90  1  0  0  0
  4  5  1  0  0  0
  4 91  1  0  0  0
  4 92  1  0  0  0
  5  6  1  0  0  0
  5 26  1  0  0  0
  5 93  1  0  0  0
  6 25  1  0  0  0
  6 94  1  0  0  0
  6 95  1  0  0  0
  7  8  2  0  0  0
  7 26  1  0  0  0
  7 29  1  0  0  0
  8  9  1  0  0  0
  8 22  1  0  0  0
  9 10  1  0  0  0
  9 27  2  0  0  0
 10 11  2  0  0  0
 10 15  1  0  0  0
 11 12  1  0  0  0
 11 96  1  0  0  0
 12 13  2  0  0  0
 12 97  1  0  0  0
 13 14  1  0  0  0
 13 31  1  0  0  0
 14 15  2  0  0  0
 14 98  1  0  0  0
 15 99  1  0  0  0
 16 17  2  0  0  0
 16 21  1  0  0  0
 16 31  1  0  0  0
 17 18  1  0  0  0
 17100  1  0  0  0
 18 19  2  0  0  0
 18101  1  0  0  0
 19 20  1  0  0  0
 19 24  1  0  0  0
 20 21  2  0  0  0
 20102  1  0  0  0
 21 23  1  0  0  0
 22 28  1  0  0  0
 22 32  2  0  0  0
 26 27  1  0  0  0
 28103  1  0  0  0
 28104  1  0  0  0
 29105  1  0  0  0
 29106  1  0  0  0
 33 34  1  0  0  0
 33 66  1  0  0  0
 33 70  2  0  0  0
 34 36  1  0  0  0
 34 59  1  0  0  0
 34107  1  0  0  0
 35 44  2  0  0  0
 35 45  1  0  0  0
 35 68  1  0  0  0
 36 56  1  0  0  0
 36108  1  0  0  0
 37 39  1  0  0  0
 37 47  1  0  0  0
 37 66  1  0  0  0
 37109  1  0  0  0
 38 43  2  0  0  0
 38 46  1  0  0  0
 38 47  1  0  0  0
 39 64  1  0  0  0
 39 67  2  0  0  0
 40 52  1  0  0  0
 40 53  2  0  0  0
 40 58  1  0  0  0
 41110  1  0  0  0
 41111  1  0  0  0
 41112  1  0  0  0
 41 48  1  0  0  0
 42 43  1  0  0  0
 42 66  1  0  0  0
 42113  1  0  0  0
 42114  1  0  0  0
 43 44  1  0  0  0
 44115  1  0  0  0
 45 46  2  0  0  0
 45116  1  0  0  0
 46117  1  0  0  0
 47118  1  0  0  0
 47119  1  0  0  0
 48 56  1  0  0  0
 48 65  1  0  0  0
 48120  1  0  0  0
 49 50  1  0  0  0
 49 53  1  0  0  0
 49 64  1  0  0  0
 49121  1  0  0  0
 50 51  1  0  0  0
 50122  1  0  0  0
 50123  1  0  0  0
 51 52  1  0  0  0
 51124  1  0  0  0
 51125  1  0  0  0
 52126  1  0  0  0
 52127  1  0  0  0
 53 54  1  0  0  0
 54 55  2  0  0  0
 54128  1  0  0  0
 55 57  1  0  0  0
 55129  1  0  0  0
 56 69  2  0  0  0
 57 58  2  0  0  0
 57130  1  0  0  0
 58131  1  0  0  0
 59 60  1  0  0  0
 59 61  1  0  0  0
 59 62  1  0  0  0
 60132  1  0  0  0
 60133  1  0  0  0
 60134  1  0  0  0
 61135  1  0  0  0
 61136  1  0  0  0
 61137  1  0  0  0
 62138  1  0  0  0
 62139  1  0  0  0
 62140  1  0  0  0
 63 65  1  0  0  0
 63141  1  0  0  0
 63142  1  0  0  0
 63143  1  0  0  0
 64144  1  0  0  0
 65145  1  0  0  0
 68 83  1  0  0  0
 71 73  2  0  0  0
 71 75  1  0  0  0
 71146  1  0  0  0
 72 74  2  0  0  0
 72 84  1  0  0  0
 72147  1  0  0  0
 73 74  1  0  0  0
 73 77  1  0  0  0
 74 76  1  0  0  0
 75 84  1  0  0  0
 75 86  2  0  0  0
 76148  1  0  0  0
 76149  1  0  0  0
 76150  1  0  0  0
 77 78  1  0  0  0
 77151  1  0  0  0
 77152  1  0  0  0
 78 79  1  0  0  0
 78153  1  0  0  0
 78154  1  0  0  0
 79 82  1  0  0  0
 79155  1  0  0  0
 79156  1  0  0  0
 80 81  1  0  0  0
 80 83  1  0  0  0
 80157  1  0  0  0
 80158  1  0  0  0
 81 84  1  0  0  0
 81159  1  0  0  0
 81160  1  0  0  0
 82 85  1  0  0  0
 82161  1  0  0  0
 82162  1  0  0  0
 83163  1  0  0  0
 83164  1  0  0  0
 85165  1  0  0  0
M  ISO  4   1 100  68 101  83 101  85 100
M  END
> <chiral flag>
0

> <version>
0

> <s_m_source_file>
/data/baiqing/PycharmProjects/Reinvent-master-3.2/result/LINK_invent/BTK/process_docking_weight1_custom_sum_contain_oxygen_bond_distance_aromatic_linkinvent_7_9_3/rearranged_h_0033.sdf

> <i_m_source_file_index>
38

> <r_mmod_Potential_Energy-OPLS-2005>
-30.8328952789307

> <r_mmod_Stretch_Energy-OPLS-2005>
37.0053291320801

> <r_mmod_Bend_Energy-OPLS-2005>
120.370704650879

> <r_mmod_Torsional_Energy-OPLS-2005>
230.136383056641

> <r_mmod_Improper_Torsional_Energy-OPLS-2005>
3.42301607131958

> <r_mmod_Van_der_Waal_Energy-OPLS-2005>
159.976806640625

> <r_mmod_Electrostatic_Energy-OPLS-2005>
-381.575775146484

> <r_mmod_Solvation_Energy-OPLS-2005>
-209.852249145508

> <b_mmod_Minimization_Converged-OPLS-2005>
0

> <r_mmod_RMS_Derivative-OPLS-2005>
3.19461822509766

$$$$
39
                    3D
 Structure written by MMmdl.
162170  0  0  1  0            999 V2000
  -30.7151  -14.3791   20.6940 C   0  0  0  0  0  0
  -30.4297  -12.3055   19.3731 C   0  0  0  0  0  0
  -29.4845  -12.5436   18.1804 C   0  0  0  0  0  0
  -28.0060  -12.4002   18.5977 C   0  0  0  0  0  0
  -27.6695  -13.1958   19.8879 C   0  0  2  0  0  0
  -28.7116  -12.8883   20.9849 C   0  0  0  0  0  0
  -25.2637  -13.8138   20.5679 C   0  0  0  0  0  0
  -24.1858  -13.0423   20.9141 C   0  0  0  0  0  0
  -24.6384  -11.6893   20.8677 C   0  0  0  0  0  0
  -23.9030  -10.4295   21.0344 C   0  0  0  0  0  0
  -24.3598   -9.4224   21.9131 C   0  0  0  0  0  0
  -23.6288   -8.2263   22.0720 C   0  0  0  0  0  0
  -22.4269   -8.0281   21.3529 C   0  0  0  0  0  0
  -21.9879   -9.0227   20.4618 C   0  0  0  0  0  0
  -22.7191  -10.2122   20.3004 C   0  0  0  0  0  0
  -21.6867   -6.0725   22.5276 C   0  0  0  0  0  0
  -21.4023   -6.5620   23.8209 C   0  0  0  0  0  0
  -21.3663   -5.6775   24.9164 C   0  0  0  0  0  0
  -21.6049   -4.3038   24.7219 C   0  0  0  0  0  0
  -21.8824   -3.8135   23.4337 C   0  0  0  0  0  0
  -21.9205   -4.6956   22.3391 C   0  0  0  0  0  0
  -22.7892  -13.5233   21.1819 C   0  0  0  0  0  0
  -22.1671   -4.2144   21.0970 F   0  0  0  0  0  0
  -21.5614   -3.4512   25.7723 F   0  0  0  0  0  0
  -30.0414  -13.2261   20.4503 N   0  0  0  0  0  0
  -26.3066  -12.9286   20.3413 N   0  0  0  0  0  0
  -25.9320  -11.6455   20.5740 N   0  0  0  0  0  0
  -22.0534  -12.8232   22.0392 N   0  0  0  0  0  0
  -25.4396  -15.1847   20.4099 N   0  0  0  0  0  0
  -31.7700  -14.6632   20.1139 O   0  0  0  0  0  0
  -21.6656   -6.8864   21.4235 O   0  0  0  0  0  0
  -22.3569  -14.5521   20.6654 O   0  0  0  0  0  0
  -24.6109  -31.8745   23.2113 C   0  0  0  0  0  0
  -25.9022  -32.4858   23.8421 C   0  0  1  0  0  0
  -27.2270  -27.4607   20.0800 C   0  0  0  0  0  0
  -25.5903  -33.8658   24.2346 N   0  0  0  0  0  0
  -23.3989  -30.4993   21.5498 C   0  0  2  0  0  0
  -24.8441  -28.9691   20.1136 C   0  0  0  0  0  0
  -22.7411  -29.4692   22.4959 C   0  0  0  0  0  0
  -18.0274  -28.1383   22.8484 C   0  0  0  0  0  0
  -24.1504  -36.7338   23.2638 C   0  0  0  0  0  0
  -25.9251  -30.8435   21.3631 C   0  0  0  0  0  0
  -26.0008  -29.4760   20.7186 C   0  0  0  0  0  0
  -27.1941  -28.7222   20.7122 C   0  0  0  0  0  0
  -26.0491  -26.9528   19.4911 C   0  0  0  0  0  0
  -24.8588  -27.7038   19.5039 C   0  0  0  0  0  0
  -23.6096  -29.8414   20.1596 C   0  0  0  0  0  0
  -25.4132  -36.3134   24.0338 C   0  0  1  0  0  0
  -20.5869  -28.3690   23.1298 C   0  0  2  0  0  0
  -20.6790  -26.9424   22.5405 C   0  0  0  0  0  0
  -19.5761  -26.6398   21.5216 C   0  0  0  0  0  0
  -18.1927  -26.7943   22.1602 C   0  0  0  0  0  0
  -19.1530  -28.8845   23.2896 C   0  0  0  0  0  0
  -18.9447  -30.1454   23.8912 C   0  0  0  0  0  0
  -17.6450  -30.6588   24.0551 C   0  0  0  0  0  0
  -25.9062  -34.9492   23.5136 C   0  0  0  0  0  0
  -16.5340  -29.9084   23.6321 C   0  0  0  0  0  0
  -16.7271  -28.6493   23.0356 C   0  0  0  0  0  0
  -26.4468  -31.6627   25.0736 C   0  0  0  0  0  0
  -25.3732  -31.3734   26.1481 C   0  0  0  0  0  0
  -27.0263  -30.3058   24.6067 C   0  0  0  0  0  0
  -27.6052  -32.4330   25.7505 C   0  0  0  0  0  0
  -27.5595  -37.1833   24.8464 C   0  0  0  0  0  0
  -21.4138  -29.3045   22.3693 N   0  0  0  0  0  0
  -26.4307  -37.3816   23.9410 N   0  0  0  0  0  0
  -24.6626  -31.0871   22.1011 N   0  0  0  0  0  0
  -23.4188  -28.8252   23.3007 O   0  0  0  0  0  0
  -28.3974  -26.7395   20.0500 O   0  0  0  0  0  0
  -26.5620  -34.8947   22.4705 O   0  0  0  0  0  0
  -23.5299  -32.1493   23.7511 O   0  0  0  0  0  0
  -29.2938  -23.2356   18.2759 C   0  0  0  0  0  0
  -29.4691  -21.8415   18.3688 C   0  0  0  0  0  0
  -30.4964  -21.3385   19.2054 C   0  0  0  0  0  0
  -30.1321  -24.0899   19.0170 C   0  0  0  0  0  0
  -31.2517  -22.2743   19.9532 C   0  0  0  0  0  0
  -28.5930  -20.9304   17.5255 C   0  0  0  0  0  0
  -30.8391  -19.8425   19.2322 C   0  0  0  0  0  0
  -30.1695  -25.5979   18.7734 C   0  0  0  0  0  0
  -30.1308  -15.3716   21.7211 C   0  0  0  0  0  0
  -30.4813  -19.1159   20.5413 C   0  0  0  0  0  0
  -30.6523  -16.8223   21.6544 C   0  0  0  0  0  0
  -30.2946  -17.5945   20.3684 C   0  0  0  0  0  0
  -28.8194  -26.3408   18.7465 C   0  0  0  0  0  0
  -31.0701  -23.6093   19.8590 N   0  0  0  0  0  0
  -32.5191  -21.7593   21.0066 Cl  0  0  0  0  0  0
  -31.4686  -12.4415   19.0647 H   0  0  0  0  0  0
  -30.3552  -11.2738   19.7181 H   0  0  0  0  0  0
  -29.7158  -11.8477   17.3737 H   0  0  0  0  0  0
  -29.6559  -13.5443   17.7800 H   0  0  0  0  0  0
  -27.8027  -11.3392   18.7507 H   0  0  0  0  0  0
  -27.3539  -12.7171   17.7829 H   0  0  0  0  0  0
  -27.7369  -14.2576   19.6529 H   0  0  0  0  0  0
  -28.6858  -11.8245   21.2238 H   0  0  0  0  0  0
  -28.4683  -13.3839   21.9240 H   0  0  0  0  0  0
  -25.2743   -9.5731   22.4703 H   0  0  0  0  0  0
  -24.0009   -7.4663   22.7439 H   0  0  0  0  0  0
  -21.0806   -8.8712   19.8938 H   0  0  0  0  0  0
  -22.3602  -10.9638   19.6116 H   0  0  0  0  0  0
  -21.2025   -7.6133   23.9700 H   0  0  0  0  0  0
  -21.1472   -6.0506   25.9067 H   0  0  0  0  0  0
  -22.0608   -2.7603   23.2832 H   0  0  0  0  0  0
  -22.4153  -11.9914   22.4827 H   0  0  0  0  0  0
  -21.1135  -13.1246   22.2521 H   0  0  0  0  0  0
  -24.6786  -15.8453   20.5171 H   0  0  0  0  0  0
  -26.3078  -15.6255   20.1319 H   0  0  0  0  0  0
  -26.7099  -32.5606   23.1204 H   0  0  0  0  0  0
  -25.0064  -33.9856   25.0490 H   0  0  0  0  0  0
  -22.6848  -31.3139   21.4163 H   0  0  0  0  0  0
  -23.3764  -35.9669   23.3296 H   0  0  0  0  0  0
  -24.3571  -36.8953   22.2043 H   0  0  0  0  0  0
  -23.7257  -37.6545   23.6645 H   0  0  0  0  0  0
  -26.0320  -31.6055   20.5882 H   0  0  0  0  0  0
  -26.8155  -30.9059   21.9768 H   0  0  0  0  0  0
  -28.0923  -29.1090   21.1730 H   0  0  0  0  0  0
  -26.0368  -25.9792   19.0237 H   0  0  0  0  0  0
  -23.9647  -27.3104   19.0424 H   0  0  0  0  0  0
  -23.7361  -30.6263   19.4125 H   0  0  0  0  0  0
  -22.7288  -29.2773   19.8471 H   0  0  0  0  0  0
  -25.1298  -36.2007   25.0824 H   0  0  0  0  0  0
  -20.9957  -28.3283   24.1422 H   0  0  0  0  0  0
  -20.5757  -26.2314   23.3617 H   0  0  0  0  0  0
  -21.6669  -26.7539   22.1160 H   0  0  0  0  0  0
  -19.6941  -25.6314   21.1243 H   0  0  0  0  0  0
  -19.6684  -27.3211   20.6745 H   0  0  0  0  0  0
  -17.4223  -26.6702   21.3977 H   0  0  0  0  0  0
  -18.0299  -26.0083   22.8987 H   0  0  0  0  0  0
  -19.7930  -30.7254   24.2300 H   0  0  0  0  0  0
  -17.5010  -31.6271   24.5147 H   0  0  0  0  0  0
  -15.5343  -30.2975   23.7660 H   0  0  0  0  0  0
  -15.8671  -28.0804   22.7085 H   0  0  0  0  0  0
  -24.5875  -30.7127   25.7810 H   0  0  0  0  0  0
  -24.8970  -32.2889   26.4977 H   0  0  0  0  0  0
  -25.8080  -30.8850   27.0213 H   0  0  0  0  0  0
  -26.2783  -29.6843   24.1120 H   0  0  0  0  0  0
  -27.4050  -29.7259   25.4503 H   0  0  0  0  0  0
  -27.8623  -30.4388   23.9199 H   0  0  0  0  0  0
  -27.2686  -33.3637   26.2097 H   0  0  0  0  0  0
  -28.3856  -32.6879   25.0315 H   0  0  0  0  0  0
  -28.0730  -31.8447   26.5405 H   0  0  0  0  0  0
  -28.2621  -38.0128   24.7511 H   0  0  0  0  0  0
  -28.1080  -36.2657   24.6281 H   0  0  0  0  0  0
  -27.2310  -37.1488   25.8866 H   0  0  0  0  0  0
  -20.9314  -29.8726   21.6870 H   0  0  0  0  0  0
  -26.0191  -38.2898   24.1382 H   0  0  0  0  0  0
  -28.5613  -23.6403   17.5896 H   0  0  0  0  0  0
  -27.7414  -21.4687   17.1101 H   0  0  0  0  0  0
  -28.2043  -20.1014   18.1170 H   0  0  0  0  0  0
  -29.1635  -20.5233   16.6902 H   0  0  0  0  0  0
  -31.9094  -19.7360   19.0499 H   0  0  0  0  0  0
  -30.3743  -19.3301   18.3932 H   0  0  0  0  0  0
  -30.6577  -25.7367   17.8078 H   0  0  0  0  0  0
  -30.8298  -26.0737   19.4995 H   0  0  0  0  0  0
  -29.0478  -15.4237   21.6288 H   0  0  0  0  0  0
  -30.3375  -14.9720   22.7145 H   0  0  0  0  0  0
  -29.5577  -19.5230   20.9541 H   0  0  0  0  0  0
  -31.2544  -19.3154   21.2849 H   0  0  0  0  0  0
  -31.7323  -16.8312   21.8045 H   0  0  0  0  0  0
  -30.2352  -17.3581   22.5088 H   0  0  0  0  0  0
  -30.9106  -17.2249   19.5466 H   0  0  0  0  0  0
  -29.2591  -17.3975   20.0814 H   0  0  0  0  0  0
  -28.0710  -25.7545   18.2138 H   0  0  0  0  0  0
  -28.9516  -27.2560   18.1670 H   0  0  0  0  0  0
  1 25  1  0  0  0
  1 30  2  0  0  0
  1 79  1  0  0  0
  2  3  1  0  0  0
  2 25  1  0  0  0
  2 86  1  0  0  0
  2 87  1  0  0  0
  3  4  1  0  0  0
  3 88  1  0  0  0
  3 89  1  0  0  0
  4  5  1  0  0  0
  4 90  1  0  0  0
  4 91  1  0  0  0
  5  6  1  0  0  0
  5 26  1  0  0  0
  5 92  1  0  0  0
  6 25  1  0  0  0
  6 93  1  0  0  0
  6 94  1  0  0  0
  7  8  2  0  0  0
  7 26  1  0  0  0
  7 29  1  0  0  0
  8  9  1  0  0  0
  8 22  1  0  0  0
  9 10  1  0  0  0
  9 27  2  0  0  0
 10 11  2  0  0  0
 10 15  1  0  0  0
 11 12  1  0  0  0
 11 95  1  0  0  0
 12 13  2  0  0  0
 12 96  1  0  0  0
 13 14  1  0  0  0
 13 31  1  0  0  0
 14 15  2  0  0  0
 14 97  1  0  0  0
 15 98  1  0  0  0
 16 17  2  0  0  0
 16 21  1  0  0  0
 16 31  1  0  0  0
 17 18  1  0  0  0
 17 99  1  0  0  0
 18 19  2  0  0  0
 18100  1  0  0  0
 19 20  1  0  0  0
 19 24  1  0  0  0
 20 21  2  0  0  0
 20101  1  0  0  0
 21 23  1  0  0  0
 22 28  1  0  0  0
 22 32  2  0  0  0
 26 27  1  0  0  0
 28102  1  0  0  0
 28103  1  0  0  0
 29104  1  0  0  0
 29105  1  0  0  0
 33 34  1  0  0  0
 33 66  1  0  0  0
 33 70  2  0  0  0
 34 36  1  0  0  0
 34 59  1  0  0  0
 34106  1  0  0  0
 35 44  2  0  0  0
 35 45  1  0  0  0
 35 68  1  0  0  0
 36 56  1  0  0  0
 36107  1  0  0  0
 37 39  1  0  0  0
 37 47  1  0  0  0
 37 66  1  0  0  0
 37108  1  0  0  0
 38 43  2  0  0  0
 38 46  1  0  0  0
 38 47  1  0  0  0
 39 64  1  0  0  0
 39 67  2  0  0  0
 40 52  1  0  0  0
 40 53  2  0  0  0
 40 58  1  0  0  0
 41109  1  0  0  0
 41110  1  0  0  0
 41111  1  0  0  0
 41 48  1  0  0  0
 42 43  1  0  0  0
 42 66  1  0  0  0
 42112  1  0  0  0
 42113  1  0  0  0
 43 44  1  0  0  0
 44114  1  0  0  0
 45 46  2  0  0  0
 45115  1  0  0  0
 46116  1  0  0  0
 47117  1  0  0  0
 47118  1  0  0  0
 48 56  1  0  0  0
 48 65  1  0  0  0
 48119  1  0  0  0
 49 50  1  0  0  0
 49 53  1  0  0  0
 49 64  1  0  0  0
 49120  1  0  0  0
 50 51  1  0  0  0
 50121  1  0  0  0
 50122  1  0  0  0
 51 52  1  0  0  0
 51123  1  0  0  0
 51124  1  0  0  0
 52125  1  0  0  0
 52126  1  0  0  0
 53 54  1  0  0  0
 54 55  2  0  0  0
 54127  1  0  0  0
 55 57  1  0  0  0
 55128  1  0  0  0
 56 69  2  0  0  0
 57 58  2  0  0  0
 57129  1  0  0  0
 58130  1  0  0  0
 59 60  1  0  0  0
 59 61  1  0  0  0
 59 62  1  0  0  0
 60131  1  0  0  0
 60132  1  0  0  0
 60133  1  0  0  0
 61134  1  0  0  0
 61135  1  0  0  0
 61136  1  0  0  0
 62137  1  0  0  0
 62138  1  0  0  0
 62139  1  0  0  0
 63 65  1  0  0  0
 63140  1  0  0  0
 63141  1  0  0  0
 63142  1  0  0  0
 64143  1  0  0  0
 65144  1  0  0  0
 68 83  1  0  0  0
 71 72  2  0  0  0
 71 74  1  0  0  0
 71145  1  0  0  0
 72 73  1  0  0  0
 72 76  1  0  0  0
 73 75  2  0  0  0
 73 77  1  0  0  0
 74 78  1  0  0  0
 74 84  2  0  0  0
 75 84  1  0  0  0
 75 85  1  0  0  0
 76146  1  0  0  0
 76147  1  0  0  0
 76148  1  0  0  0
 77 80  1  0  0  0
 77149  1  0  0  0
 77150  1  0  0  0
 78 83  1  0  0  0
 78151  1  0  0  0
 78152  1  0  0  0
 79 81  1  0  0  0
 79153  1  0  0  0
 79154  1  0  0  0
 80 82  1  0  0  0
 80155  1  0  0  0
 80156  1  0  0  0
 81 82  1  0  0  0
 81157  1  0  0  0
 81158  1  0  0  0
 82159  1  0  0  0
 82160  1  0  0  0
 83161  1  0  0  0
 83162  1  0  0  0
M  ISO  4   1 100  68 101  79 100  83 101
M  END
> <chiral flag>
0

> <version>
0

> <s_m_source_file>
/data/baiqing/PycharmProjects/Reinvent-master-3.2/result/LINK_invent/BTK/process_docking_weight1_custom_sum_contain_oxygen_bond_distance_aromatic_linkinvent_7_9_3/rearranged_h_0033.sdf

> <i_m_source_file_index>
39

> <r_mmod_Potential_Energy-OPLS-2005>
-146.641906738281

> <r_mmod_Stretch_Energy-OPLS-2005>
33.3635787963867

> <r_mmod_Bend_Energy-OPLS-2005>
94.5583724975586

> <r_mmod_Torsional_Energy-OPLS-2005>
189.25634765625

> <r_mmod_Improper_Torsional_Energy-OPLS-2005>
2.5920832157135

> <r_mmod_Van_der_Waal_Energy-OPLS-2005>
157.968032836914

> <r_mmod_Electrostatic_Energy-OPLS-2005>
-431.308013916016

> <r_mmod_Solvation_Energy-OPLS-2005>
-201.537887573242

> <b_mmod_Minimization_Converged-OPLS-2005>
0

> <r_mmod_RMS_Derivative-OPLS-2005>
3.03450989723206

$$$$
40
                    3D
 Structure written by MMmdl.
159167  0  0  1  0            999 V2000
  -30.7661  -14.4207   20.6196 C   0  0  0  0  0  0
  -30.4206  -12.2954   19.4247 C   0  0  0  0  0  0
  -29.4953  -12.5105   18.2112 C   0  0  0  0  0  0
  -28.0143  -12.3918   18.6181 C   0  0  0  0  0  0
  -27.6701  -13.2154   19.8890 C   0  0  2  0  0  0
  -28.7125  -12.9911   21.0083 C   0  0  0  0  0  0
  -25.2607  -13.8180   20.5706 C   0  0  0  0  0  0
  -24.1861  -13.0458   20.9171 C   0  0  0  0  0  0
  -24.6416  -11.6920   20.8731 C   0  0  0  0  0  0
  -23.9082  -10.4303   21.0398 C   0  0  0  0  0  0
  -24.3631   -9.4218   21.9173 C   0  0  0  0  0  0
  -23.6306   -8.2260   22.0746 C   0  0  0  0  0  0
  -22.4277   -8.0295   21.3547 C   0  0  0  0  0  0
  -21.9922   -9.0267   20.4645 C   0  0  0  0  0  0
  -22.7257  -10.2151   20.3051 C   0  0  0  0  0  0
  -21.6864   -6.0743   22.5274 C   0  0  0  0  0  0
  -21.4011   -6.5640   23.8205 C   0  0  0  0  0  0
  -21.3659   -5.6799   24.9174 C   0  0  0  0  0  0
  -21.6045   -4.3054   24.7223 C   0  0  0  0  0  0
  -21.8829   -3.8150   23.4339 C   0  0  0  0  0  0
  -21.9190   -4.6972   22.3399 C   0  0  0  0  0  0
  -22.7880  -13.5252   21.1837 C   0  0  0  0  0  0
  -22.1667   -4.2159   21.0979 F   0  0  0  0  0  0
  -21.5629   -3.4538   25.7733 F   0  0  0  0  0  0
  -30.0506  -13.2747   20.4593 N   0  0  0  0  0  0
  -26.3084  -12.9383   20.3463 N   0  0  0  0  0  0
  -25.9353  -11.6528   20.5795 N   0  0  0  0  0  0
  -22.0517  -12.8243   22.0383 N   0  0  0  0  0  0
  -25.4324  -15.1915   20.4106 N   0  0  0  0  0  0
  -31.8334  -14.6239   20.0352 O   0  0  0  0  0  0
  -21.6646   -6.8891   21.4232 O   0  0  0  0  0  0
  -22.3549  -14.5551   20.6677 O   0  0  0  0  0  0
  -24.6140  -31.8702   23.2140 C   0  0  0  0  0  0
  -25.9045  -32.4834   23.8407 C   0  0  1  0  0  0
  -27.2148  -27.4412   20.0930 C   0  0  0  0  0  0
  -25.5908  -33.8625   24.2339 N   0  0  0  0  0  0
  -23.3991  -30.4949   21.5557 C   0  0  2  0  0  0
  -24.8426  -28.9794   20.1041 C   0  0  0  0  0  0
  -22.7393  -29.4652   22.5019 C   0  0  0  0  0  0
  -18.0257  -28.1377   22.8484 C   0  0  0  0  0  0
  -24.1489  -36.7325   23.2621 C   0  0  0  0  0  0
  -25.9290  -30.8391   21.3647 C   0  0  0  0  0  0
  -26.0055  -29.4800   20.7041 C   0  0  0  0  0  0
  -27.1982  -28.7200   20.6955 C   0  0  0  0  0  0
  -26.0407  -26.9805   19.4474 C   0  0  0  0  0  0
  -24.8546  -27.7291   19.4693 C   0  0  0  0  0  0
  -23.6043  -29.8386   20.1664 C   0  0  0  0  0  0
  -25.4111  -36.3107   24.0318 C   0  0  1  0  0  0
  -20.5843  -28.3661   23.1346 C   0  0  2  0  0  0
  -20.6762  -26.9411   22.5419 C   0  0  0  0  0  0
  -19.5742  -26.6388   21.5211 C   0  0  0  0  0  0
  -18.1924  -26.7922   22.1625 C   0  0  0  0  0  0
  -19.1504  -28.8840   23.2903 C   0  0  0  0  0  0
  -18.9444  -30.1454   23.8903 C   0  0  0  0  0  0
  -17.6446  -30.6597   24.0565 C   0  0  0  0  0  0
  -25.9037  -34.9472   23.5121 C   0  0  0  0  0  0
  -16.5340  -29.9102   23.6327 C   0  0  0  0  0  0
  -16.7249  -28.6510   23.0349 C   0  0  0  0  0  0
  -26.4460  -31.6601   25.0724 C   0  0  0  0  0  0
  -25.3743  -31.3727   26.1486 C   0  0  0  0  0  0
  -27.0292  -30.3034   24.6111 C   0  0  0  0  0  0
  -27.6042  -32.4302   25.7498 C   0  0  0  0  0  0
  -27.5579  -37.1815   24.8461 C   0  0  0  0  0  0
  -21.4122  -29.3029   22.3762 N   0  0  0  0  0  0
  -26.4307  -37.3789   23.9395 N   0  0  0  0  0  0
  -24.6662  -31.0803   22.1043 N   0  0  0  0  0  0
  -23.4188  -28.8187   23.3037 O   0  0  0  0  0  0
  -28.3299  -26.6277   20.1905 O   0  0  0  0  0  0
  -26.5593  -34.8927   22.4674 O   0  0  0  0  0  0
  -23.5338  -32.1468   23.7533 O   0  0  0  0  0  0
  -29.6697  -20.3278   23.8797 C   0  0  0  0  0  0
  -29.4241  -21.6871   23.5925 C   0  0  0  0  0  0
  -28.5742  -19.6925   21.8041 C   0  0  0  0  0  0
  -29.2095  -19.3209   23.0062 C   0  0  0  0  0  0
  -28.7201  -22.0585   22.4271 C   0  0  0  0  0  0
  -28.3272  -21.0496   21.5109 C   0  0  0  0  0  0
  -29.3499  -17.8529   23.3870 C   0  0  0  0  0  0
  -28.2361  -23.4988   22.2640 C   0  0  0  0  0  0
  -30.7100  -17.2464   23.0097 C   0  0  0  0  0  0
  -28.9824  -24.4025   21.2432 C   0  0  0  0  0  0
  -30.7965  -16.7186   21.5662 C   0  0  0  0  0  0
  -27.9937  -25.2395   20.3969 C   0  0  0  0  0  0
  -30.2321  -15.3688   21.4076 N   0  0  0  0  0  0
  -27.4756  -21.4380   20.0587 Cl  0  0  0  0  0  0
  -31.4646  -12.3838   19.1168 H   0  0  0  0  0  0
  -30.3169  -11.2839   19.8187 H   0  0  0  0  0  0
  -29.7273  -11.7811   17.4333 H   0  0  0  0  0  0
  -29.6830  -13.4934   17.7752 H   0  0  0  0  0  0
  -27.7967  -11.3359   18.7852 H   0  0  0  0  0  0
  -27.3777  -12.7081   17.7904 H   0  0  0  0  0  0
  -27.7194  -14.2680   19.6066 H   0  0  0  0  0  0
  -28.6799  -11.9578   21.3573 H   0  0  0  0  0  0
  -28.4766  -13.6013   21.8821 H   0  0  0  0  0  0
  -25.2775   -9.5701   22.4747 H   0  0  0  0  0  0
  -24.0015   -7.4651   22.7466 H   0  0  0  0  0  0
  -21.0853   -8.8792   19.8946 H   0  0  0  0  0  0
  -22.3706  -10.9694   19.6159 H   0  0  0  0  0  0
  -21.1998   -7.6155   23.9718 H   0  0  0  0  0  0
  -21.1471   -6.0524   25.9083 H   0  0  0  0  0  0
  -22.0601   -2.7611   23.2839 H   0  0  0  0  0  0
  -22.4133  -11.9902   22.4797 H   0  0  0  0  0  0
  -21.1123  -13.1250   22.2581 H   0  0  0  0  0  0
  -24.6672  -15.8492   20.5192 H   0  0  0  0  0  0
  -26.2882  -15.6282   20.0933 H   0  0  0  0  0  0
  -26.7117  -32.5544   23.1170 H   0  0  0  0  0  0
  -25.0085  -33.9802   25.0500 H   0  0  0  0  0  0
  -22.6866  -31.3101   21.4220 H   0  0  0  0  0  0
  -23.3736  -35.9672   23.3300 H   0  0  0  0  0  0
  -24.3582  -36.8940   22.2037 H   0  0  0  0  0  0
  -23.7285  -37.6541   23.6648 H   0  0  0  0  0  0
  -26.0397  -31.6094   20.5992 H   0  0  0  0  0  0
  -26.8184  -30.8894   21.9813 H   0  0  0  0  0  0
  -28.0884  -29.0905   21.1855 H   0  0  0  0  0  0
  -26.0144  -26.0236   18.9449 H   0  0  0  0  0  0
  -23.9605  -27.3409   18.9970 H   0  0  0  0  0  0
  -23.7041  -30.6178   19.4101 H   0  0  0  0  0  0
  -22.7319  -29.2517   19.8740 H   0  0  0  0  0  0
  -25.1286  -36.1948   25.0812 H   0  0  0  0  0  0
  -20.9914  -28.3220   24.1467 H   0  0  0  0  0  0
  -20.5696  -26.2258   23.3594 H   0  0  0  0  0  0
  -21.6642  -26.7492   22.1198 H   0  0  0  0  0  0
  -19.6927  -25.6302   21.1246 H   0  0  0  0  0  0
  -19.6700  -27.3202   20.6748 H   0  0  0  0  0  0
  -17.4192  -26.6646   21.4040 H   0  0  0  0  0  0
  -18.0357  -26.0081   22.9041 H   0  0  0  0  0  0
  -19.7930  -30.7269   24.2285 H   0  0  0  0  0  0
  -17.5010  -31.6279   24.5170 H   0  0  0  0  0  0
  -15.5344  -30.3012   23.7658 H   0  0  0  0  0  0
  -15.8636  -28.0841   22.7066 H   0  0  0  0  0  0
  -24.5882  -30.7109   25.7836 H   0  0  0  0  0  0
  -24.8980  -32.2909   26.4932 H   0  0  0  0  0  0
  -25.8091  -30.8885   27.0246 H   0  0  0  0  0  0
  -26.2871  -29.6818   24.1098 H   0  0  0  0  0  0
  -27.3991  -29.7213   25.4569 H   0  0  0  0  0  0
  -27.8724  -30.4321   23.9316 H   0  0  0  0  0  0
  -27.2638  -33.3552   26.2168 H   0  0  0  0  0  0
  -28.3819  -32.6969   25.0322 H   0  0  0  0  0  0
  -28.0772  -31.8388   26.5356 H   0  0  0  0  0  0
  -28.2594  -38.0106   24.7484 H   0  0  0  0  0  0
  -28.1071  -36.2642   24.6306 H   0  0  0  0  0  0
  -27.2293  -37.1486   25.8861 H   0  0  0  0  0  0
  -20.9287  -29.8735   21.6972 H   0  0  0  0  0  0
  -26.0174  -38.2856   24.1394 H   0  0  0  0  0  0
  -30.1676  -20.0580   24.8001 H   0  0  0  0  0  0
  -29.7238  -22.4374   24.3104 H   0  0  0  0  0  0
  -28.2277  -18.9304   21.1212 H   0  0  0  0  0  0
  -29.2157  -17.7821   24.4663 H   0  0  0  0  0  0
  -28.5357  -17.2670   22.9586 H   0  0  0  0  0  0
  -28.2295  -23.9916   23.2359 H   0  0  0  0  0  0
  -27.1809  -23.4009   22.0045 H   0  0  0  0  0  0
  -30.9400  -16.4239   23.6876 H   0  0  0  0  0  0
  -31.4879  -17.9929   23.1804 H   0  0  0  0  0  0
  -29.6758  -25.0538   21.7776 H   0  0  0  0  0  0
  -29.5859  -23.7939   20.5672 H   0  0  0  0  0  0
  -31.8507  -16.7257   21.2813 H   0  0  0  0  0  0
  -30.3015  -17.4014   20.8749 H   0  0  0  0  0  0
  -27.0298  -25.1922   20.9073 H   0  0  0  0  0  0
  -27.8472  -24.7524   19.4303 H   0  0  0  0  0  0
  -29.3485  -15.1631   21.8487 H   0  0  0  0  0  0
  1 25  1  0  0  0
  1 30  2  0  0  0
  1 83  1  0  0  0
  2  3  1  0  0  0
  2 25  1  0  0  0
  2 85  1  0  0  0
  2 86  1  0  0  0
  3  4  1  0  0  0
  3 87  1  0  0  0
  3 88  1  0  0  0
  4  5  1  0  0  0
  4 89  1  0  0  0
  4 90  1  0  0  0
  5  6  1  0  0  0
  5 26  1  0  0  0
  5 91  1  0  0  0
  6 25  1  0  0  0
  6 92  1  0  0  0
  6 93  1  0  0  0
  7  8  2  0  0  0
  7 26  1  0  0  0
  7 29  1  0  0  0
  8  9  1  0  0  0
  8 22  1  0  0  0
  9 10  1  0  0  0
  9 27  2  0  0  0
 10 11  2  0  0  0
 10 15  1  0  0  0
 11 12  1  0  0  0
 11 94  1  0  0  0
 12 13  2  0  0  0
 12 95  1  0  0  0
 13 14  1  0  0  0
 13 31  1  0  0  0
 14 15  2  0  0  0
 14 96  1  0  0  0
 15 97  1  0  0  0
 16 17  2  0  0  0
 16 21  1  0  0  0
 16 31  1  0  0  0
 17 18  1  0  0  0
 17 98  1  0  0  0
 18 19  2  0  0  0
 18 99  1  0  0  0
 19 20  1  0  0  0
 19 24  1  0  0  0
 20 21  2  0  0  0
 20100  1  0  0  0
 21 23  1  0  0  0
 22 28  1  0  0  0
 22 32  2  0  0  0
 26 27  1  0  0  0
 28101  1  0  0  0
 28102  1  0  0  0
 29103  1  0  0  0
 29104  1  0  0  0
 33 34  1  0  0  0
 33 66  1  0  0  0
 33 70  2  0  0  0
 34 36  1  0  0  0
 34 59  1  0  0  0
 34105  1  0  0  0
 35 44  2  0  0  0
 35 45  1  0  0  0
 35 68  1  0  0  0
 36 56  1  0  0  0
 36106  1  0  0  0
 37 39  1  0  0  0
 37 47  1  0  0  0
 37 66  1  0  0  0
 37107  1  0  0  0
 38 43  2  0  0  0
 38 46  1  0  0  0
 38 47  1  0  0  0
 39 64  1  0  0  0
 39 67  2  0  0  0
 40 52  1  0  0  0
 40 53  2  0  0  0
 40 58  1  0  0  0
 41108  1  0  0  0
 41109  1  0  0  0
 41110  1  0  0  0
 41 48  1  0  0  0
 42 43  1  0  0  0
 42 66  1  0  0  0
 42111  1  0  0  0
 42112  1  0  0  0
 43 44  1  0  0  0
 44113  1  0  0  0
 45 46  2  0  0  0
 45114  1  0  0  0
 46115  1  0  0  0
 47116  1  0  0  0
 47117  1  0  0  0
 48 56  1  0  0  0
 48 65  1  0  0  0
 48118  1  0  0  0
 49 50  1  0  0  0
 49 53  1  0  0  0
 49 64  1  0  0  0
 49119  1  0  0  0
 50 51  1  0  0  0
 50120  1  0  0  0
 50121  1  0  0  0
 51 52  1  0  0  0
 51122  1  0  0  0
 51123  1  0  0  0
 52124  1  0  0  0
 52125  1  0  0  0
 53 54  1  0  0  0
 54 55  2  0  0  0
 54126  1  0  0  0
 55 57  1  0  0  0
 55127  1  0  0  0
 56 69  2  0  0  0
 57 58  2  0  0  0
 57128  1  0  0  0
 58129  1  0  0  0
 59 60  1  0  0  0
 59 61  1  0  0  0
 59 62  1  0  0  0
 60130  1  0  0  0
 60131  1  0  0  0
 60132  1  0  0  0
 61133  1  0  0  0
 61134  1  0  0  0
 61135  1  0  0  0
 62136  1  0  0  0
 62137  1  0  0  0
 62138  1  0  0  0
 63 65  1  0  0  0
 63139  1  0  0  0
 63140  1  0  0  0
 63141  1  0  0  0
 64142  1  0  0  0
 65143  1  0  0  0
 68 82  1  0  0  0
 71 72  2  0  0  0
 71 74  1  0  0  0
 71144  1  0  0  0
 72 75  1  0  0  0
 72145  1  0  0  0
 73 74  2  0  0  0
 73 76  1  0  0  0
 73146  1  0  0  0
 74 77  1  0  0  0
 75 76  2  0  0  0
 75 78  1  0  0  0
 76 84  1  0  0  0
 77 79  1  0  0  0
 77147  1  0  0  0
 77148  1  0  0  0
 78 80  1  0  0  0
 78149  1  0  0  0
 78150  1  0  0  0
 79 81  1  0  0  0
 79151  1  0  0  0
 79152  1  0  0  0
 80 82  1  0  0  0
 80153  1  0  0  0
 80154  1  0  0  0
 81 83  1  0  0  0
 81155  1  0  0  0
 81156  1  0  0  0
 82157  1  0  0  0
 82158  1  0  0  0
 83159  1  0  0  0
M  ISO  4   1 100  68 101  82 101  83 100
M  END
> <chiral flag>
0

> <version>
0

> <s_m_source_file>
/data/baiqing/PycharmProjects/Reinvent-master-3.2/result/LINK_invent/BTK/process_docking_weight1_custom_sum_contain_oxygen_bond_distance_aromatic_linkinvent_7_9_3/rearranged_h_0033.sdf

> <i_m_source_file_index>
40

> <r_mmod_Potential_Energy-OPLS-2005>
-20.4582500457764

> <r_mmod_Stretch_Energy-OPLS-2005>
36.1487236022949

> <r_mmod_Bend_Energy-OPLS-2005>
92.5593414306641

> <r_mmod_Torsional_Energy-OPLS-2005>
240.517562866211

> <r_mmod_Improper_Torsional_Energy-OPLS-2005>
3.07884168624878

> <r_mmod_Van_der_Waal_Energy-OPLS-2005>
163.586776733398

> <r_mmod_Electrostatic_Energy-OPLS-2005>
-368.710388183594

> <r_mmod_Solvation_Energy-OPLS-2005>
-202.535690307617

> <b_mmod_Minimization_Converged-OPLS-2005>
0

> <r_mmod_RMS_Derivative-OPLS-2005>
3.49950408935547

$$$$
41
                    3D
 Structure written by MMmdl.
172181  0  0  1  0            999 V2000
  -30.4920  -15.1519   20.3602 C   0  0  0  0  0  0
  -30.4231  -12.7341   19.5036 C   0  0  0  0  0  0
  -29.5206  -12.5671   18.2607 C   0  0  0  0  0  0
  -28.0609  -12.3229   18.6842 C   0  0  0  0  0  0
  -27.6091  -13.2731   19.8228 C   0  0  2  0  0  0
  -28.6480  -13.4114   20.9522 C   0  0  0  0  0  0
  -25.2398  -13.8266   20.5790 C   0  0  0  0  0  0
  -24.1725  -13.0463   20.9287 C   0  0  0  0  0  0
  -24.6354  -11.6952   20.8761 C   0  0  0  0  0  0
  -23.9052  -10.4312   21.0399 C   0  0  0  0  0  0
  -24.3593   -9.4225   21.9181 C   0  0  0  0  0  0
  -23.6287   -8.2255   22.0759 C   0  0  0  0  0  0
  -22.4269   -8.0285   21.3548 C   0  0  0  0  0  0
  -21.9904   -9.0268   20.4644 C   0  0  0  0  0  0
  -22.7223  -10.2148   20.3060 C   0  0  0  0  0  0
  -21.6862   -6.0725   22.5291 C   0  0  0  0  0  0
  -21.4014   -6.5632   23.8214 C   0  0  0  0  0  0
  -21.3671   -5.6775   24.9174 C   0  0  0  0  0  0
  -21.6048   -4.3047   24.7226 C   0  0  0  0  0  0
  -21.8819   -3.8140   23.4357 C   0  0  0  0  0  0
  -21.9204   -4.6960   22.3403 C   0  0  0  0  0  0
  -22.7744  -13.5227   21.1905 C   0  0  0  0  0  0
  -22.1670   -4.2136   21.0981 F   0  0  0  0  0  0
  -21.5631   -3.4538   25.7756 F   0  0  0  0  0  0
  -29.8842  -13.8789   20.3118 N   0  0  0  0  0  0
  -26.2797  -12.9528   20.3230 N   0  0  0  0  0  0
  -25.9286  -11.6635   20.5709 N   0  0  0  0  0  0
  -22.0347  -12.8214   22.0419 N   0  0  0  0  0  0
  -25.4128  -15.1992   20.4246 N   0  0  0  0  0  0
  -31.7178  -15.1163   20.1712 O   0  0  0  0  0  0
  -21.6658   -6.8871   21.4242 O   0  0  0  0  0  0
  -22.3440  -14.5549   20.6770 O   0  0  0  0  0  0
  -24.6580  -31.8287   23.1753 C   0  0  0  0  0  0
  -25.9278  -32.4617   23.8213 C   0  0  1  0  0  0
  -27.2221  -26.9954   20.1702 C   0  0  0  0  0  0
  -25.5952  -33.8424   24.2114 N   0  0  0  0  0  0
  -23.4683  -30.4420   21.5233 C   0  0  2  0  0  0
  -24.9199  -28.8374   20.1168 C   0  0  0  0  0  0
  -22.7638  -29.4465   22.4803 C   0  0  0  0  0  0
  -18.0315  -28.1387   22.8462 C   0  0  0  0  0  0
  -24.1490  -36.7219   23.2644 C   0  0  0  0  0  0
  -26.0343  -30.6593   21.3934 C   0  0  0  0  0  0
  -26.1042  -29.2542   20.7381 C   0  0  0  0  0  0
  -27.2539  -28.3535   20.7379 C   0  0  0  0  0  0
  -26.0074  -26.7099   19.5110 C   0  0  0  0  0  0
  -24.8924  -27.5832   19.4857 C   0  0  0  0  0  0
  -23.7039  -29.7567   20.1500 C   0  0  0  0  0  0
  -25.4127  -36.2980   24.0305 C   0  0  1  0  0  0
  -20.5938  -28.3727   23.1201 C   0  0  2  0  0  0
  -20.6784  -26.9411   22.5401 C   0  0  0  0  0  0
  -19.5765  -26.6358   21.5203 C   0  0  0  0  0  0
  -18.1947  -26.7917   22.1613 C   0  0  0  0  0  0
  -19.1577  -28.8871   23.2820 C   0  0  0  0  0  0
  -18.9490  -30.1461   23.8846 C   0  0  0  0  0  0
  -17.6482  -30.6578   24.0535 C   0  0  0  0  0  0
  -25.9093  -34.9359   23.5035 C   0  0  0  0  0  0
  -16.5369  -29.9063   23.6335 C   0  0  0  0  0  0
  -16.7298  -28.6483   23.0366 C   0  0  0  0  0  0
  -26.4544  -31.6534   25.0711 C   0  0  0  0  0  0
  -25.3697  -31.3769   26.1390 C   0  0  0  0  0  0
  -27.0421  -30.2902   24.6401 C   0  0  0  0  0  0
  -27.6047  -32.4324   25.7513 C   0  0  0  0  0  0
  -27.5576  -37.1770   24.8461 C   0  0  0  0  0  0
  -21.4314  -29.3032   22.3554 N   0  0  0  0  0  0
  -26.4277  -37.3713   23.9407 N   0  0  0  0  0  0
  -24.7407  -31.0024   22.0847 N   0  0  0  0  0  0
  -23.4216  -28.8027   23.3019 O   0  0  0  0  0  0
  -28.2652  -25.9534   20.1905 O   0  0  0  0  0  0
  -26.5705  -34.8884   22.4630 O   0  0  0  0  0  0
  -23.5669  -32.1213   23.6888 O   0  0  0  0  0  0
  -29.2731  -23.1569   19.9079 C   0  0  0  0  0  0
  -29.6869  -21.7001   19.7731 C   0  0  0  0  0  0
  -30.5163  -23.8200   19.6454 C   0  0  0  0  0  0
  -29.0531  -19.0602   21.2340 C   0  0  0  0  0  0
  -29.3072  -18.8547   18.9148 C   0  0  0  0  0  0
  -29.6272  -17.4847   21.4024 C   0  0  0  0  0  0
  -30.0148  -17.3762   19.0755 C   0  0  0  0  0  0
  -29.5596  -19.9827   20.0273 C   0  0  0  0  0  0
  -30.9578  -25.2352   19.8980 C   0  0  0  0  0  0
  -28.0724  -24.3382   20.2512 C   0  0  0  0  0  0
  -31.7935  -20.1051   15.6554 C   0  0  0  0  0  0
  -31.1364  -21.0860   16.6417 C   0  0  0  0  0  0
  -31.4236  -20.4320   14.1946 C   0  0  0  0  0  0
  -31.6206  -20.9624   18.1015 C   0  0  0  0  0  0
  -32.0750  -19.5075   13.1555 C   0  0  0  0  0  0
  -31.3743  -23.0870   19.0111 N   0  0  0  0  0  0
  -30.8490  -21.8667   18.9742 N   0  0  0  0  0  0
  -29.7863  -16.4452   20.2672 N   0  0  0  0  0  0
  -31.4132  -17.8551   13.2690 Cl  0  0  0  0  0  0
  -31.4534  -12.9051   19.1894 H   0  0  0  0  0  0
  -30.4456  -11.8188   20.0970 H   0  0  0  0  0  0
  -29.8742  -11.7432   17.6397 H   0  0  0  0  0  0
  -29.5796  -13.4686   17.6475 H   0  0  0  0  0  0
  -27.9752  -11.2867   19.0098 H   0  0  0  0  0  0
  -27.3971  -12.4319   17.8264 H   0  0  0  0  0  0
  -27.5334  -14.2538   19.3508 H   0  0  0  0  0  0
  -28.7913  -12.4682   21.4803 H   0  0  0  0  0  0
  -28.3148  -14.1378   21.6954 H   0  0  0  0  0  0
  -25.2719   -9.5734   22.4779 H   0  0  0  0  0  0
  -24.0007   -7.4647   22.7472 H   0  0  0  0  0  0
  -21.0859   -8.8777   19.8942 H   0  0  0  0  0  0
  -22.3663  -10.9695   19.6196 H   0  0  0  0  0  0
  -21.1988   -7.6136   23.9720 H   0  0  0  0  0  0
  -21.1499   -6.0504   25.9074 H   0  0  0  0  0  0
  -22.0589   -2.7606   23.2867 H   0  0  0  0  0  0
  -22.3940  -11.9911   22.4900 H   0  0  0  0  0  0
  -21.0981  -13.1309   22.2611 H   0  0  0  0  0  0
  -24.6567  -15.8631   20.5431 H   0  0  0  0  0  0
  -26.2797  -15.6383   20.1377 H   0  0  0  0  0  0
  -26.7338  -32.5183   23.0937 H   0  0  0  0  0  0
  -25.0035  -33.9514   25.0219 H   0  0  0  0  0  0
  -22.7794  -31.2717   21.3539 H   0  0  0  0  0  0
  -23.3766  -35.9540   23.3277 H   0  0  0  0  0  0
  -24.3567  -36.8895   22.2065 H   0  0  0  0  0  0
  -23.7243  -37.6395   23.6718 H   0  0  0  0  0  0
  -26.2076  -31.4051   20.6161 H   0  0  0  0  0  0
  -26.8987  -30.7156   22.0454 H   0  0  0  0  0  0
  -28.1591  -28.6755   21.2332 H   0  0  0  0  0  0
  -25.8963  -25.7570   19.0139 H   0  0  0  0  0  0
  -23.9907  -27.2597   18.9836 H   0  0  0  0  0  0
  -23.8537  -30.5225   19.3889 H   0  0  0  0  0  0
  -22.8180  -29.2026   19.8344 H   0  0  0  0  0  0
  -25.1332  -36.1782   25.0799 H   0  0  0  0  0  0
  -21.0032  -28.3314   24.1324 H   0  0  0  0  0  0
  -20.5637  -26.2346   23.3634 H   0  0  0  0  0  0
  -21.6657  -26.7360   22.1234 H   0  0  0  0  0  0
  -19.6925  -25.6258   21.1264 H   0  0  0  0  0  0
  -19.6711  -27.3141   20.6710 H   0  0  0  0  0  0
  -17.4218  -26.6661   21.4010 H   0  0  0  0  0  0
  -18.0342  -26.0053   22.9009 H   0  0  0  0  0  0
  -19.7964  -30.7289   24.2205 H   0  0  0  0  0  0
  -17.5034  -31.6263   24.5134 H   0  0  0  0  0  0
  -15.5373  -30.2957   23.7665 H   0  0  0  0  0  0
  -15.8703  -28.0774   22.7130 H   0  0  0  0  0  0
  -24.5893  -30.7092   25.7727 H   0  0  0  0  0  0
  -24.8874  -32.2959   26.4715 H   0  0  0  0  0  0
  -25.7964  -30.9019   27.0233 H   0  0  0  0  0  0
  -26.3068  -29.6604   24.1382 H   0  0  0  0  0  0
  -27.3931  -29.7238   25.5040 H   0  0  0  0  0  0
  -27.9022  -30.4089   23.9811 H   0  0  0  0  0  0
  -27.2614  -33.3651   26.2006 H   0  0  0  0  0  0
  -28.3911  -32.6840   25.0383 H   0  0  0  0  0  0
  -28.0654  -31.8501   26.5510 H   0  0  0  0  0  0
  -28.2575  -38.0088   24.7512 H   0  0  0  0  0  0
  -28.1094  -36.2611   24.6277 H   0  0  0  0  0  0
  -27.2291  -37.1398   25.8866 H   0  0  0  0  0  0
  -20.9546  -29.8751   21.6719 H   0  0  0  0  0  0
  -26.0130  -38.2775   24.1417 H   0  0  0  0  0  0
  -29.2750  -19.5862   22.1633 H   0  0  0  0  0  0
  -27.9624  -19.0364   21.1926 H   0  0  0  0  0  0
  -28.2310  -18.7095   18.8092 H   0  0  0  0  0  0
  -29.5876  -19.2330   17.9366 H   0  0  0  0  0  0
  -29.0105  -16.9960   22.1583 H   0  0  0  0  0  0
  -30.6116  -17.5540   21.8672 H   0  0  0  0  0  0
  -31.0931  -17.5199   18.9923 H   0  0  0  0  0  0
  -29.7487  -16.7994   18.1875 H   0  0  0  0  0  0
  -30.6065  -19.8092   20.2695 H   0  0  0  0  0  0
  -30.6568  -25.5748   20.8892 H   0  0  0  0  0  0
  -30.5543  -25.9218   19.1552 H   0  0  0  0  0  0
  -32.0441  -25.3234   19.8653 H   0  0  0  0  0  0
  -27.6894  -24.1457   21.2536 H   0  0  0  0  0  0
  -27.2249  -24.1201   19.6057 H   0  0  0  0  0  0
  -31.4832  -19.0885   15.9015 H   0  0  0  0  0  0
  -32.8774  -20.1329   15.7658 H   0  0  0  0  0  0
  -30.0551  -20.9542   16.6060 H   0  0  0  0  0  0
  -31.3201  -22.1076   16.3076 H   0  0  0  0  0  0
  -31.7268  -21.4577   13.9770 H   0  0  0  0  0  0
  -30.3404  -20.4026   14.0642 H   0  0  0  0  0  0
  -32.6758  -21.2428   18.1392 H   0  0  0  0  0  0
  -31.6192  -19.9338   18.4450 H   0  0  0  0  0  0
  -33.1575  -19.4540   13.2799 H   0  0  0  0  0  0
  -31.8810  -19.8681   12.1434 H   0  0  0  0  0  0
  1 25  1  0  0  0
  1 30  2  0  0  0
  1 88  1  0  0  0
  2  3  1  0  0  0
  2 25  1  0  0  0
  2 90  1  0  0  0
  2 91  1  0  0  0
  3  4  1  0  0  0
  3 92  1  0  0  0
  3 93  1  0  0  0
  4  5  1  0  0  0
  4 94  1  0  0  0
  4 95  1  0  0  0
  5  6  1  0  0  0
  5 26  1  0  0  0
  5 96  1  0  0  0
  6 25  1  0  0  0
  6 97  1  0  0  0
  6 98  1  0  0  0
  7  8  2  0  0  0
  7 26  1  0  0  0
  7 29  1  0  0  0
  8  9  1  0  0  0
  8 22  1  0  0  0
  9 10  1  0  0  0
  9 27  2  0  0  0
 10 11  2  0  0  0
 10 15  1  0  0  0
 11 12  1  0  0  0
 11 99  1  0  0  0
 12 13  2  0  0  0
 12100  1  0  0  0
 13 14  1  0  0  0
 13 31  1  0  0  0
 14 15  2  0  0  0
 14101  1  0  0  0
 15102  1  0  0  0
 16 17  2  0  0  0
 16 21  1  0  0  0
 16 31  1  0  0  0
 17 18  1  0  0  0
 17103  1  0  0  0
 18 19  2  0  0  0
 18104  1  0  0  0
 19 20  1  0  0  0
 19 24  1  0  0  0
 20 21  2  0  0  0
 20105  1  0  0  0
 21 23  1  0  0  0
 22 28  1  0  0  0
 22 32  2  0  0  0
 26 27  1  0  0  0
 28106  1  0  0  0
 28107  1  0  0  0
 29108  1  0  0  0
 29109  1  0  0  0
 33 34  1  0  0  0
 33 66  1  0  0  0
 33 70  2  0  0  0
 34 36  1  0  0  0
 34 59  1  0  0  0
 34110  1  0  0  0
 35 44  2  0  0  0
 35 45  1  0  0  0
 35 68  1  0  0  0
 36 56  1  0  0  0
 36111  1  0  0  0
 37 39  1  0  0  0
 37 47  1  0  0  0
 37 66  1  0  0  0
 37112  1  0  0  0
 38 43  2  0  0  0
 38 46  1  0  0  0
 38 47  1  0  0  0
 39 64  1  0  0  0
 39 67  2  0  0  0
 40 52  1  0  0  0
 40 53  2  0  0  0
 40 58  1  0  0  0
 41113  1  0  0  0
 41114  1  0  0  0
 41115  1  0  0  0
 41 48  1  0  0  0
 42 43  1  0  0  0
 42 66  1  0  0  0
 42116  1  0  0  0
 42117  1  0  0  0
 43 44  1  0  0  0
 44118  1  0  0  0
 45 46  2  0  0  0
 45119  1  0  0  0
 46120  1  0  0  0
 47121  1  0  0  0
 47122  1  0  0  0
 48 56  1  0  0  0
 48 65  1  0  0  0
 48123  1  0  0  0
 49 50  1  0  0  0
 49 53  1  0  0  0
 49 64  1  0  0  0
 49124  1  0  0  0
 50 51  1  0  0  0
 50125  1  0  0  0
 50126  1  0  0  0
 51 52  1  0  0  0
 51127  1  0  0  0
 51128  1  0  0  0
 52129  1  0  0  0
 52130  1  0  0  0
 53 54  1  0  0  0
 54 55  2  0  0  0
 54131  1  0  0  0
 55 57  1  0  0  0
 55132  1  0  0  0
 56 69  2  0  0  0
 57 58  2  0  0  0
 57133  1  0  0  0
 58134  1  0  0  0
 59 60  1  0  0  0
 59 61  1  0  0  0
 59 62  1  0  0  0
 60135  1  0  0  0
 60136  1  0  0  0
 60137  1  0  0  0
 61138  1  0  0  0
 61139  1  0  0  0
 61140  1  0  0  0
 62141  1  0  0  0
 62142  1  0  0  0
 62143  1  0  0  0
 63 65  1  0  0  0
 63144  1  0  0  0
 63145  1  0  0  0
 63146  1  0  0  0
 64147  1  0  0  0
 65148  1  0  0  0
 68 80  1  0  0  0
 71 72  2  0  0  0
 71 73  1  0  0  0
 71 80  1  0  0  0
 72 87  1  0  0  0
 72 78  1  0  0  0
 73 79  1  0  0  0
 73 86  2  0  0  0
 74 76  1  0  0  0
 74 78  1  0  0  0
 74149  1  0  0  0
 74150  1  0  0  0
 75 77  1  0  0  0
 75 78  1  0  0  0
 75151  1  0  0  0
 75152  1  0  0  0
 76 88  1  0  0  0
 76153  1  0  0  0
 76154  1  0  0  0
 77 88  1  0  0  0
 77155  1  0  0  0
 77156  1  0  0  0
 78157  1  0  0  0
 79158  1  0  0  0
 79159  1  0  0  0
 79160  1  0  0  0
 80161  1  0  0  0
 80162  1  0  0  0
 81 82  1  0  0  0
 81 83  1  0  0  0
 81163  1  0  0  0
 81164  1  0  0  0
 82 84  1  0  0  0
 82165  1  0  0  0
 82166  1  0  0  0
 83 85  1  0  0  0
 83167  1  0  0  0
 83168  1  0  0  0
 84 87  1  0  0  0
 84169  1  0  0  0
 84170  1  0  0  0
 85 89  1  0  0  0
 85171  1  0  0  0
 85172  1  0  0  0
 86 87  1  0  0  0
M  ISO  4   1 100  68 101  80 101  88 100
M  END
> <chiral flag>
0

> <version>
0

> <s_m_source_file>
/data/baiqing/PycharmProjects/Reinvent-master-3.2/result/LINK_invent/BTK/process_docking_weight1_custom_sum_contain_oxygen_bond_distance_aromatic_linkinvent_7_9_3/rearranged_h_0033.sdf

> <i_m_source_file_index>
41

> <r_mmod_Potential_Energy-OPLS-2005>
1388.44946289062

> <r_mmod_Stretch_Energy-OPLS-2005>
468.787994384766

> <r_mmod_Bend_Energy-OPLS-2005>
529.019348144531

> <r_mmod_Torsional_Energy-OPLS-2005>
404.771240234375

> <r_mmod_Improper_Torsional_Energy-OPLS-2005>
13.4509963989258

> <r_mmod_Van_der_Waal_Energy-OPLS-2005>
124.543891906738

> <r_mmod_Electrostatic_Energy-OPLS-2005>
-294.824340820312

> <r_mmod_Solvation_Energy-OPLS-2005>
-204.904647827148

> <b_mmod_Minimization_Converged-OPLS-2005>
0

> <r_mmod_RMS_Derivative-OPLS-2005>
3.20062971115112

$$$$
42
                    3D
 Structure written by MMmdl.
162170  0  0  1  0            999 V2000
  -27.0365  -18.3728   21.4880 C   0  0  0  0  0  0
  -28.9949  -15.6037   20.1126 C   0  0  0  0  0  0
  -29.1653  -14.2063   19.0543 C   0  0  0  0  0  0
  -28.3011  -12.9868   19.3490 C   0  0  0  0  0  0
  -27.2716  -13.7678   20.1351 C   0  0  2  0  0  0
  -27.6081  -14.9001   21.3225 C   0  0  0  0  0  0
  -24.9624  -13.8704   20.5668 C   0  0  0  0  0  0
  -24.0052  -13.0113   20.9292 C   0  0  0  0  0  0
  -24.5824  -11.7013   20.8850 C   0  0  0  0  0  0
  -23.9029  -10.4140   21.0347 C   0  0  0  0  0  0
  -24.3635   -9.4145   21.9171 C   0  0  0  0  0  0
  -23.6315   -8.2182   22.0761 C   0  0  0  0  0  0
  -22.4302   -8.0183   21.3541 C   0  0  0  0  0  0
  -21.9916   -9.0089   20.4602 C   0  0  0  0  0  0
  -22.7237  -10.1935   20.2963 C   0  0  0  0  0  0
  -21.6854   -6.0697   22.5297 C   0  0  0  0  0  0
  -21.4024   -6.5618   23.8223 C   0  0  0  0  0  0
  -21.3654   -5.6777   24.9190 C   0  0  0  0  0  0
  -21.6042   -4.3039   24.7248 C   0  0  0  0  0  0
  -21.8820   -3.8118   23.4373 C   0  0  0  0  0  0
  -21.9196   -4.6929   22.3424 C   0  0  0  0  0  0
  -22.6130  -13.4481   21.2030 C   0  0  0  0  0  0
  -22.1662   -4.2113   21.1001 F   0  0  0  0  0  0
  -21.5621   -3.4531   25.7765 F   0  0  0  0  0  0
  -27.6123  -16.5398   20.9447 N   0  0  0  0  0  0
  -26.0762  -13.1047   20.4280 N   0  0  0  0  0  0
  -25.8917  -11.7698   20.6151 N   0  0  0  0  0  0
  -21.9248  -12.7468   22.0871 N   0  0  0  0  0  0
  -24.9701  -15.2532   20.3593 N   0  0  0  0  0  0
  -28.4116  -18.1866   21.2897 O   0  0  0  0  0  0
  -21.6646   -6.8810   21.4253 O   0  0  0  0  0  0
  -22.1668  -14.4785   20.6963 O   0  0  0  0  0  0
  -24.6671  -31.8218   23.2202 C   0  0  0  0  0  0
  -25.9194  -32.4799   23.8719 C   0  0  1  0  0  0
  -26.8640  -27.3748   19.9700 C   0  0  0  0  0  0
  -25.5797  -33.8607   24.2393 N   0  0  0  0  0  0
  -23.7373  -30.2085   21.5419 C   0  0  2  0  0  0
  -25.2228  -29.4447   19.7289 C   0  0  0  0  0  0
  -23.6997  -28.7104   22.2581 C   0  0  0  0  0  0
  -18.6844  -27.0753   21.8148 C   0  0  0  0  0  0
  -24.1462  -36.7303   23.2620 C   0  0  0  0  0  0
  -26.1719  -30.7688   21.5609 C   0  0  0  0  0  0
  -26.2231  -29.5531   20.6743 C   0  0  0  0  0  0
  -27.1508  -28.5101   20.7694 C   0  0  0  0  0  0
  -26.4127  -27.5981   18.7036 C   0  0  0  0  0  0
  -25.4312  -28.5999   18.6247 C   0  0  0  0  0  0
  -24.0387  -30.2961   20.0053 C   0  0  0  0  0  0
  -25.4064  -36.3088   24.0330 C   0  0  1  0  0  0
  -21.3810  -26.7866   21.6412 C   0  0  2  0  0  0
  -20.8866  -25.7243   20.7944 C   0  0  0  0  0  0
  -19.5197  -25.9806   20.1666 C   0  0  0  0  0  0
  -18.3296  -25.9709   21.0582 C   0  0  0  0  0  0
  -19.8874  -26.7945   22.7107 C   0  0  0  0  0  0
  -20.0501  -26.8884   24.8756 C   0  0  0  0  0  0
  -19.5598  -27.9161   25.8837 C   0  0  0  0  0  0
  -25.8974  -34.9427   23.5153 C   0  0  0  0  0  0
  -19.3223  -27.0731   24.9078 C   0  0  0  0  0  0
  -19.3307  -27.1647   22.8207 C   0  0  0  0  0  0
  -26.4513  -31.6734   25.1200 C   0  0  0  0  0  0
  -25.3611  -31.3931   26.1779 C   0  0  0  0  0  0
  -27.0700  -30.3120   24.7225 C   0  0  0  0  0  0
  -27.5917  -32.4646   25.7957 C   0  0  0  0  0  0
  -27.5560  -37.1781   24.8446 C   0  0  0  0  0  0
  -22.9825  -27.4634   21.9551 N   0  0  0  0  0  0
  -26.4266  -37.3753   23.9397 N   0  0  0  0  0  0
  -24.8405  -30.9801   22.1657 N   0  0  0  0  0  0
  -24.1460  -28.6920   23.3935 O   0  0  0  0  0  0
  -25.7914  -26.6514   20.4253 O   0  0  0  0  0  0
  -26.5581  -34.8831   22.4746 O   0  0  0  0  0  0
  -23.5527  -32.0836   23.6949 O   0  0  0  0  0  0
  -19.5767  -29.1273   23.8414 C   0  0  0  0  0  0
  -19.6529  -24.7838   23.7956 C   0  0  0  0  0  0
  -17.6161  -28.0608   23.9201 C   0  0  0  0  0  0
  -17.7814  -25.8350   23.8633 C   0  0  0  0  0  0
  -21.4662  -28.0233   23.6506 C   0  0  0  0  0  0
  -21.6841  -25.3182   23.5561 C   0  0  0  0  0  0
  -16.2899  -28.7800   23.9975 C   0  0  0  0  0  0
  -16.5170  -25.0240   24.0254 C   0  0  0  0  0  0
  -21.1792  -29.1800   22.1746 C   0  0  0  0  0  0
  -23.7942  -22.8382   22.8146 C   0  0  0  0  0  0
  -21.6012  -28.9135   20.3882 C   0  0  0  0  0  0
  -22.8060  -27.8179   19.4840 C   0  0  0  0  0  0
  -24.2205  -26.6516   19.8442 C   0  0  0  0  0  0
  -25.4696  -20.2537   22.0616 N   0  0  0  0  0  0
  -29.3578  -16.4003   19.4608 H   0  0  0  0  0  0
  -29.8319  -15.5657   20.8189 H   0  0  0  0  0  0
  -30.2152  -13.9146   19.0094 H   0  0  0  0  0  0
  -28.9225  -14.5413   18.0444 H   0  0  0  0  0  0
  -28.8053  -12.2586   19.9827 H   0  0  0  0  0  0
  -27.9057  -12.5008   18.4569 H   0  0  0  0  0  0
  -26.9247  -14.3843   19.2985 H   0  0  0  0  0  0
  -28.3989  -14.5604   22.0043 H   0  0  0  0  0  0
  -26.8113  -14.8591   22.0655 H   0  0  0  0  0  0
  -25.2713   -9.5736   22.4825 H   0  0  0  0  0  0
  -24.0001   -7.4618   22.7534 H   0  0  0  0  0  0
  -21.0846   -8.8582   19.8924 H   0  0  0  0  0  0
  -22.3646  -10.9455   19.6074 H   0  0  0  0  0  0
  -21.2033   -7.6132   23.9710 H   0  0  0  0  0  0
  -21.1465   -6.0521   25.9087 H   0  0  0  0  0  0
  -22.0601   -2.7577   23.2888 H   0  0  0  0  0  0
  -22.3164  -11.9239   22.5201 H   0  0  0  0  0  0
  -20.9888  -13.0334   22.3370 H   0  0  0  0  0  0
  -24.1338  -15.8235   20.4246 H   0  0  0  0  0  0
  -25.8174  -15.7712   20.1582 H   0  0  0  0  0  0
  -26.7460  -32.5501   23.1697 H   0  0  0  0  0  0
  -24.9929  -33.9818   25.0517 H   0  0  0  0  0  0
  -22.8939  -30.8683   21.6526 H   0  0  0  0  0  0
  -23.3710  -35.9654   23.3286 H   0  0  0  0  0  0
  -24.3568  -36.8885   22.2033 H   0  0  0  0  0  0
  -23.7243  -37.6528   23.6622 H   0  0  0  0  0  0
  -26.4308  -31.6468   20.9654 H   0  0  0  0  0  0
  -26.9875  -30.6468   22.2574 H   0  0  0  0  0  0
  -27.8471  -28.4610   21.5925 H   0  0  0  0  0  0
  -26.4409  -26.8351   17.9389 H   0  0  0  0  0  0
  -24.8241  -28.6669   17.7359 H   0  0  0  0  0  0
  -24.3479  -31.3215   19.7872 H   0  0  0  0  0  0
  -23.2767  -30.2456   19.2476 H   0  0  0  0  0  0
  -25.1242  -36.2013   25.0830 H   0  0  0  0  0  0
  -22.1841  -26.0603   21.6137 H   0  0  0  0  0  0
  -20.7788  -24.7711   21.3206 H   0  0  0  0  0  0
  -21.5348  -25.4469   19.9576 H   0  0  0  0  0  0
  -19.3475  -25.1538   19.4765 H   0  0  0  0  0  0
  -19.5289  -26.8437   19.5027 H   0  0  0  0  0  0
  -17.3982  -26.1548   20.5200 H   0  0  0  0  0  0
  -18.2477  -25.0128   21.5676 H   0  0  0  0  0  0
  -21.0963  -26.5239   25.3610 H   0  0  0  0  0  0
  -18.8090  -28.6961   25.9997 H   0  0  0  0  0  0
  -18.3074  -26.9070   25.6163 H   0  0  0  0  0  0
  -18.7551  -28.1436   22.1724 H   0  0  0  0  0  0
  -24.5885  -30.7166   25.8106 H   0  0  0  0  0  0
  -24.8690  -32.3107   26.5017 H   0  0  0  0  0  0
  -25.7831  -30.9293   27.0700 H   0  0  0  0  0  0
  -26.3730  -29.6666   24.1921 H   0  0  0  0  0  0
  -27.3793  -29.7555   25.6084 H   0  0  0  0  0  0
  -27.9709  -30.4329   24.1202 H   0  0  0  0  0  0
  -27.2381  -33.3993   26.2326 H   0  0  0  0  0  0
  -28.3802  -32.7120   25.0839 H   0  0  0  0  0  0
  -28.0495  -31.8941   26.6053 H   0  0  0  0  0  0
  -28.2561  -38.0099   24.7507 H   0  0  0  0  0  0
  -28.1084  -36.2621   24.6277 H   0  0  0  0  0  0
  -27.2254  -37.1407   25.8842 H   0  0  0  0  0  0
  -23.4612  -26.7593   22.4959 H   0  0  0  0  0  0
  -26.0171  -38.2835   24.1416 H   0  0  0  0  0  0
  -19.5600  -30.2095   23.8020 H   0  0  0  0  0  0
  -19.5155  -23.7123   23.8047 H   0  0  0  0  0  0
  -16.4458  -29.8577   24.0547 H   0  0  0  0  0  0
  -15.7371  -28.4628   24.8815 H   0  0  0  0  0  0
  -15.6962  -28.5594   23.1096 H   0  0  0  0  0  0
  -16.7518  -23.9591   24.0407 H   0  0  0  0  0  0
  -15.8200  -25.2173   23.2123 H   0  0  0  0  0  0
  -16.0318  -25.2760   24.9687 H   0  0  0  0  0  0
  -21.4050  -30.1554   22.5940 H   0  0  0  0  0  0
  -20.1821  -29.4641   21.8464 H   0  0  0  0  0  0
  -24.0646  -22.7312   23.8650 H   0  0  0  0  0  0
  -24.5349  -23.5149   22.3881 H   0  0  0  0  0  0
  -21.4647  -29.8798   19.9083 H   0  0  0  0  0  0
  -20.6664  -28.5177   20.0028 H   0  0  0  0  0  0
  -22.9905  -28.3277   18.5486 H   0  0  0  0  0  0
  -22.1103  -27.1395   19.0058 H   0  0  0  0  0  0
  -24.3289  -26.1581   18.8776 H   0  0  0  0  0  0
  -23.8268  -25.7957   20.3847 H   0  0  0  0  0  0
  -26.3114  -20.8142   22.1295 H   0  0  0  0  0  0
  1 25  1  0  0  0
  1 30  2  0  0  0
  1 84  1  0  0  0
  2  3  1  0  0  0
  2 25  1  0  0  0
  2 85  1  0  0  0
  2 86  1  0  0  0
  3  4  1  0  0  0
  3 87  1  0  0  0
  3 88  1  0  0  0
  4  5  1  0  0  0
  4 89  1  0  0  0
  4 90  1  0  0  0
  5  6  1  0  0  0
  5 26  1  0  0  0
  5 91  1  0  0  0
  6 25  1  0  0  0
  6 92  1  0  0  0
  6 93  1  0  0  0
  7  8  2  0  0  0
  7 26  1  0  0  0
  7 29  1  0  0  0
  8  9  1  0  0  0
  8 22  1  0  0  0
  9 10  1  0  0  0
  9 27  2  0  0  0
 10 11  2  0  0  0
 10 15  1  0  0  0
 11 12  1  0  0  0
 11 94  1  0  0  0
 12 13  2  0  0  0
 12 95  1  0  0  0
 13 14  1  0  0  0
 13 31  1  0  0  0
 14 15  2  0  0  0
 14 96  1  0  0  0
 15 97  1  0  0  0
 16 17  2  0  0  0
 16 21  1  0  0  0
 16 31  1  0  0  0
 17 18  1  0  0  0
 17 98  1  0  0  0
 18 19  2  0  0  0
 18 99  1  0  0  0
 19 20  1  0  0  0
 19 24  1  0  0  0
 20 21  2  0  0  0
 20100  1  0  0  0
 21 23  1  0  0  0
 22 28  1  0  0  0
 22 32  2  0  0  0
 26 27  1  0  0  0
 28101  1  0  0  0
 28102  1  0  0  0
 29103  1  0  0  0
 29104  1  0  0  0
 33 34  1  0  0  0
 33 66  1  0  0  0
 33 70  2  0  0  0
 34 36  1  0  0  0
 34 59  1  0  0  0
 34105  1  0  0  0
 35 44  2  0  0  0
 35 45  1  0  0  0
 35 68  1  0  0  0
 36 56  1  0  0  0
 36106  1  0  0  0
 37 39  1  0  0  0
 37 47  1  0  0  0
 37 66  1  0  0  0
 37107  1  0  0  0
 38 43  2  0  0  0
 38 46  1  0  0  0
 38 47  1  0  0  0
 39 64  1  0  0  0
 39 67  2  0  0  0
 40 52  1  0  0  0
 40 53  2  0  0  0
 40 58  1  0  0  0
 41108  1  0  0  0
 41109  1  0  0  0
 41110  1  0  0  0
 41 48  1  0  0  0
 42 43  1  0  0  0
 42 66  1  0  0  0
 42111  1  0  0  0
 42112  1  0  0  0
 43 44  1  0  0  0
 44113  1  0  0  0
 45 46  2  0  0  0
 45114  1  0  0  0
 46115  1  0  0  0
 47116  1  0  0  0
 47117  1  0  0  0
 48 56  1  0  0  0
 48 65  1  0  0  0
 48118  1  0  0  0
 49 50  1  0  0  0
 49 53  1  0  0  0
 49 64  1  0  0  0
 49119  1  0  0  0
 50 51  1  0  0  0
 50120  1  0  0  0
 50121  1  0  0  0
 51 52  1  0  0  0
 51122  1  0  0  0
 51123  1  0  0  0
 52124  1  0  0  0
 52125  1  0  0  0
 53 54  1  0  0  0
 54 55  2  0  0  0
 54126  1  0  0  0
 55 57  1  0  0  0
 55127  1  0  0  0
 56 69  2  0  0  0
 57 58  2  0  0  0
 57128  1  0  0  0
 58129  1  0  0  0
 59 60  1  0  0  0
 59 61  1  0  0  0
 59 62  1  0  0  0
 60130  1  0  0  0
 60131  1  0  0  0
 60132  1  0  0  0
 61133  1  0  0  0
 61134  1  0  0  0
 61135  1  0  0  0
 62136  1  0  0  0
 62137  1  0  0  0
 62138  1  0  0  0
 63 65  1  0  0  0
 63139  1  0  0  0
 63140  1  0  0  0
 63141  1  0  0  0
 64142  1  0  0  0
 65143  1  0  0  0
 68 83  1  0  0  0
 71 73  2  0  0  0
 71 75  1  0  0  0
 71144  1  0  0  0
 72 74  2  0  0  0
 72 76  1  0  0  0
 72145  1  0  0  0
 73 74  1  0  0  0
 73 77  1  0  0  0
 74 78  1  0  0  0
 75 76  2  0  0  0
 75 79  1  0  0  0
 76 80  1  0  0  0
 77146  1  0  0  0
 77147  1  0  0  0
 77148  1  0  0  0
 78149  1  0  0  0
 78150  1  0  0  0
 78151  1  0  0  0
 79 81  1  0  0  0
 79152  1  0  0  0
 79153  1  0  0  0
 80 84  1  0  0  0
 80154  1  0  0  0
 80155  1  0  0  0
 81 82  1  0  0  0
 81156  1  0  0  0
 81157  1  0  0  0
 82 83  1  0  0  0
 82158  1  0  0  0
 82159  1  0  0  0
 83160  1  0  0  0
 83161  1  0  0  0
 84162  1  0  0  0
M  ISO  4   1 100  68 101  83 101  84 100
M  END
> <chiral flag>
0

> <version>
0

> <s_m_source_file>
/data/baiqing/PycharmProjects/Reinvent-master-3.2/result/LINK_invent/BTK/process_docking_weight1_custom_sum_contain_oxygen_bond_distance_aromatic_linkinvent_7_9_3/rearranged_h_0033.sdf

> <i_m_source_file_index>
42

> <r_mmod_Potential_Energy-OPLS-2005>
55894.94921875

> <r_mmod_Stretch_Energy-OPLS-2005>
25789.013671875

> <r_mmod_Bend_Energy-OPLS-2005>
4747.1630859375

> <r_mmod_Torsional_Energy-OPLS-2005>
970.233520507812

> <r_mmod_Improper_Torsional_Energy-OPLS-2005>
101.388168334961

> <r_mmod_Van_der_Waal_Energy-OPLS-2005>
5505.34375

> <r_mmod_Electrostatic_Energy-OPLS-2005>
-347.901123046875

> <r_mmod_Solvation_Energy-OPLS-2005>
-224.379760742188

> <b_mmod_Minimization_Converged-OPLS-2005>
0

> <r_mmod_RMS_Derivative-OPLS-2005>
6.08806133270264

$$$$
43
                    3D
 Structure written by MMmdl.
162170  0  0  1  0            999 V2000
  -30.5950  -14.7349   20.4592 C   0  0  0  0  0  0
  -30.4557  -12.4606   19.4398 C   0  0  0  0  0  0
  -29.5128  -12.5035   18.2171 C   0  0  0  0  0  0
  -28.0373  -12.3259   18.6398 C   0  0  0  0  0  0
  -27.6428  -13.2235   19.8426 C   0  0  2  0  0  0
  -28.6975  -13.1453   20.9688 C   0  0  0  0  0  0
  -25.2537  -13.8185   20.5722 C   0  0  0  0  0  0
  -24.1847  -13.0437   20.9205 C   0  0  0  0  0  0
  -24.6435  -11.6904   20.8772 C   0  0  0  0  0  0
  -23.9103  -10.4294   21.0425 C   0  0  0  0  0  0
  -24.3639   -9.4204   21.9198 C   0  0  0  0  0  0
  -23.6313   -8.2241   22.0762 C   0  0  0  0  0  0
  -22.4294   -8.0295   21.3554 C   0  0  0  0  0  0
  -21.9942   -9.0269   20.4657 C   0  0  0  0  0  0
  -22.7267  -10.2139   20.3068 C   0  0  0  0  0  0
  -21.6851   -6.0767   22.5292 C   0  0  0  0  0  0
  -21.4007   -6.5656   23.8233 C   0  0  0  0  0  0
  -21.3652   -5.6798   24.9184 C   0  0  0  0  0  0
  -21.6035   -4.3069   24.7218 C   0  0  0  0  0  0
  -21.8815   -3.8164   23.4342 C   0  0  0  0  0  0
  -21.9192   -4.6994   22.3401 C   0  0  0  0  0  0
  -22.7854  -13.5222   21.1868 C   0  0  0  0  0  0
  -22.1659   -4.2187   21.0984 F   0  0  0  0  0  0
  -21.5628   -3.4540   25.7727 F   0  0  0  0  0  0
  -29.9950  -13.5034   20.3722 N   0  0  0  0  0  0
  -26.2977  -12.9376   20.3275 N   0  0  0  0  0  0
  -25.9359  -11.6523   20.5746 N   0  0  0  0  0  0
  -22.0482  -12.8224   22.0406 N   0  0  0  0  0  0
  -25.4226  -15.1919   20.4184 N   0  0  0  0  0  0
  -31.8081  -14.8715   20.2842 O   0  0  0  0  0  0
  -21.6636   -6.8903   21.4258 O   0  0  0  0  0  0
  -22.3547  -14.5521   20.6698 O   0  0  0  0  0  0
  -24.6260  -31.8563   23.2005 C   0  0  0  0  0  0
  -25.9098  -32.4752   23.8335 C   0  0  1  0  0  0
  -27.2195  -27.2693   20.1460 C   0  0  0  0  0  0
  -25.5936  -33.8563   24.2257 N   0  0  0  0  0  0
  -23.4253  -30.4792   21.5366 C   0  0  2  0  0  0
  -24.8773  -28.9253   20.1171 C   0  0  0  0  0  0
  -22.7472  -29.4615   22.4851 C   0  0  0  0  0  0
  -18.0292  -28.1398   22.8476 C   0  0  0  0  0  0
  -24.1494  -36.7281   23.2637 C   0  0  0  0  0  0
  -25.9706  -30.7712   21.3813 C   0  0  0  0  0  0
  -26.0456  -29.3911   20.7321 C   0  0  0  0  0  0
  -27.2165  -28.5705   20.7458 C   0  0  0  0  0  0
  -26.0274  -26.8692   19.4963 C   0  0  0  0  0  0
  -24.8713  -27.6698   19.4942 C   0  0  0  0  0  0
  -23.6496  -29.8148   20.1528 C   0  0  0  0  0  0
  -25.4107  -36.3062   24.0324 C   0  0  1  0  0  0
  -20.5883  -28.3712   23.1252 C   0  0  2  0  0  0
  -20.6774  -26.9431   22.5394 C   0  0  0  0  0  0
  -19.5766  -26.6391   21.5183 C   0  0  0  0  0  0
  -18.1943  -26.7944   22.1602 C   0  0  0  0  0  0
  -19.1542  -28.8855   23.2873 C   0  0  0  0  0  0
  -18.9481  -30.1446   23.8901 C   0  0  0  0  0  0
  -17.6492  -30.6594   24.0567 C   0  0  0  0  0  0
  -25.9041  -34.9438   23.5096 C   0  0  0  0  0  0
  -16.5370  -29.9104   23.6322 C   0  0  0  0  0  0
  -16.7284  -28.6520   23.0339 C   0  0  0  0  0  0
  -26.4505  -31.6562   25.0708 C   0  0  0  0  0  0
  -25.3773  -31.3703   26.1463 C   0  0  0  0  0  0
  -27.0347  -30.2976   24.6175 C   0  0  0  0  0  0
  -27.6068  -32.4290   25.7491 C   0  0  0  0  0  0
  -27.5567  -37.1790   24.8463 C   0  0  0  0  0  0
  -21.4172  -29.3077   22.3632 N   0  0  0  0  0  0
  -26.4279  -37.3758   23.9409 N   0  0  0  0  0  0
  -24.6908  -31.0519   22.0985 N   0  0  0  0  0  0
  -23.4192  -28.8137   23.2926 O   0  0  0  0  0  0
  -28.3173  -26.3836   20.2213 O   0  0  0  0  0  0
  -26.5599  -34.8914   22.4643 O   0  0  0  0  0  0
  -23.5390  -32.1381   23.7284 O   0  0  0  0  0  0
  -31.6306  -18.7172   20.7427 C   0  0  0  0  0  0
  -29.4469  -19.7204   20.4364 C   0  0  0  0  0  0
  -30.2447  -18.5382   20.6760 C   0  0  0  0  0  0
  -32.2039  -20.0023   20.6747 C   0  0  0  0  0  0
  -29.9893  -21.0658   20.3233 C   0  0  0  0  0  0
  -31.4125  -21.1754   20.4640 C   0  0  0  0  0  0
  -33.7092  -20.0798   20.8766 C   0  0  0  0  0  0
  -32.2419  -23.1998   21.7987 C   0  0  0  0  0  0
  -29.0169  -22.2957   19.9932 C   0  0  0  0  0  0
  -32.1485  -22.5183   20.4166 C   0  0  0  0  0  0
  -29.6960  -17.1502   21.1919 C   0  0  0  0  0  0
  -29.2130  -23.8342   20.4528 C   0  0  0  0  0  0
  -28.0707  -24.9095   20.1051 C   0  0  0  0  0  0
  -29.7315  -15.8098   20.4842 N   0  0  0  0  0  0
  -30.4486  -11.4843   19.9273 H   0  0  0  0  0  0
  -31.4848  -12.6384   19.1191 H   0  0  0  0  0  0
  -29.7930  -11.7324   17.4995 H   0  0  0  0  0  0
  -29.6327  -13.4575   17.7012 H   0  0  0  0  0  0
  -27.8970  -11.2776   18.9052 H   0  0  0  0  0  0
  -27.3752  -12.5174   17.7939 H   0  0  0  0  0  0
  -27.6333  -14.2437   19.4588 H   0  0  0  0  0  0
  -28.7396  -12.1455   21.4040 H   0  0  0  0  0  0
  -28.4358  -13.8266   21.7824 H   0  0  0  0  0  0
  -25.2783   -9.5668   22.4784 H   0  0  0  0  0  0
  -24.0012   -7.4629   22.7483 H   0  0  0  0  0  0
  -21.0872   -8.8809   19.8972 H   0  0  0  0  0  0
  -22.3749  -10.9695   19.6183 H   0  0  0  0  0  0
  -21.1995   -7.6167   23.9748 H   0  0  0  0  0  0
  -21.1473   -6.0527   25.9091 H   0  0  0  0  0  0
  -22.0599   -2.7642   23.2828 H   0  0  0  0  0  0
  -22.4060  -11.9871   22.4813 H   0  0  0  0  0  0
  -21.1107  -13.1298   22.2591 H   0  0  0  0  0  0
  -24.6542  -15.8405   20.5526 H   0  0  0  0  0  0
  -26.2587  -15.6460   20.0830 H   0  0  0  0  0  0
  -26.7159  -32.5399   23.1070 H   0  0  0  0  0  0
  -25.0176  -33.9719   25.0470 H   0  0  0  0  0  0
  -22.7270  -31.3023   21.3834 H   0  0  0  0  0  0
  -23.3749  -35.9615   23.3287 H   0  0  0  0  0  0
  -24.3603  -36.8906   22.2053 H   0  0  0  0  0  0
  -23.7271  -37.6491   23.6662 H   0  0  0  0  0  0
  -26.0975  -31.5299   20.6073 H   0  0  0  0  0  0
  -26.8536  -30.8303   22.0075 H   0  0  0  0  0  0
  -28.1021  -28.9083   21.2658 H   0  0  0  0  0  0
  -25.9524  -25.9117   19.0030 H   0  0  0  0  0  0
  -23.9756  -27.3072   19.0101 H   0  0  0  0  0  0
  -23.7948  -30.5902   19.3985 H   0  0  0  0  0  0
  -22.7660  -29.2560   19.8297 H   0  0  0  0  0  0
  -25.1288  -36.1907   25.0817 H   0  0  0  0  0  0
  -20.9998  -28.3295   24.1361 H   0  0  0  0  0  0
  -20.5622  -26.2331   23.3601 H   0  0  0  0  0  0
  -21.6653  -26.7423   22.1225 H   0  0  0  0  0  0
  -19.6939  -25.6291   21.1233 H   0  0  0  0  0  0
  -19.6710  -27.3176   20.6704 H   0  0  0  0  0  0
  -17.4201  -26.6662   21.4014 H   0  0  0  0  0  0
  -18.0380  -26.0075   22.8996 H   0  0  0  0  0  0
  -19.7955  -30.7251   24.2280 H   0  0  0  0  0  0
  -17.5054  -31.6276   24.5184 H   0  0  0  0  0  0
  -15.5376  -30.3037   23.7638 H   0  0  0  0  0  0
  -15.8680  -28.0860   22.7057 H   0  0  0  0  0  0
  -24.5970  -30.7014   25.7829 H   0  0  0  0  0  0
  -24.8937  -32.2865   26.4857 H   0  0  0  0  0  0
  -25.8135  -30.8933   27.0259 H   0  0  0  0  0  0
  -26.2909  -29.6722   24.1224 H   0  0  0  0  0  0
  -27.4092  -29.7234   25.4666 H   0  0  0  0  0  0
  -27.8776  -30.4249   23.9378 H   0  0  0  0  0  0
  -27.2705  -33.3635   26.2000 H   0  0  0  0  0  0
  -28.3940  -32.6773   25.0362 H   0  0  0  0  0  0
  -28.0683  -31.8452   26.5476 H   0  0  0  0  0  0
  -28.2560  -38.0104   24.7482 H   0  0  0  0  0  0
  -28.1086  -36.2627   24.6310 H   0  0  0  0  0  0
  -27.2285  -37.1453   25.8868 H   0  0  0  0  0  0
  -20.9325  -29.8882   21.6926 H   0  0  0  0  0  0
  -26.0152  -38.2819   24.1438 H   0  0  0  0  0  0
  -32.2484  -17.8517   20.9479 H   0  0  0  0  0  0
  -28.3726  -19.5943   20.3696 H   0  0  0  0  0  0
  -33.9724  -20.8840   21.5609 H   0  0  0  0  0  0
  -34.2118  -20.2475   19.9263 H   0  0  0  0  0  0
  -34.1136  -19.1644   21.3100 H   0  0  0  0  0  0
  -33.2026  -23.7008   21.9225 H   0  0  0  0  0  0
  -32.1358  -22.4825   22.6179 H   0  0  0  0  0  0
  -31.4807  -23.9620   21.9445 H   0  0  0  0  0  0
  -28.0268  -22.0030   20.3426 H   0  0  0  0  0  0
  -28.9360  -22.3110   18.9067 H   0  0  0  0  0  0
  -31.7402  -23.1653   19.6503 H   0  0  0  0  0  0
  -33.1606  -22.3873   20.0381 H   0  0  0  0  0  0
  -28.6447  -17.3181   21.4342 H   0  0  0  0  0  0
  -30.1774  -16.9905   22.1586 H   0  0  0  0  0  0
  -30.0939  -24.2553   19.9824 H   0  0  0  0  0  0
  -29.3746  -23.8412   21.5325 H   0  0  0  0  0  0
  -27.7650  -24.7112   19.0783 H   0  0  0  0  0  0
  -27.2069  -24.6607   20.7217 H   0  0  0  0  0  0
  -28.7931  -15.4867   20.3101 H   0  0  0  0  0  0
  1 25  1  0  0  0
  1 30  2  0  0  0
  1 84  1  0  0  0
  2  3  1  0  0  0
  2 25  1  0  0  0
  2 85  1  0  0  0
  2 86  1  0  0  0
  3  4  1  0  0  0
  3 87  1  0  0  0
  3 88  1  0  0  0
  4  5  1  0  0  0
  4 89  1  0  0  0
  4 90  1  0  0  0
  5  6  1  0  0  0
  5 26  1  0  0  0
  5 91  1  0  0  0
  6 25  1  0  0  0
  6 92  1  0  0  0
  6 93  1  0  0  0
  7  8  2  0  0  0
  7 26  1  0  0  0
  7 29  1  0  0  0
  8  9  1  0  0  0
  8 22  1  0  0  0
  9 10  1  0  0  0
  9 27  2  0  0  0
 10 11  2  0  0  0
 10 15  1  0  0  0
 11 12  1  0  0  0
 11 94  1  0  0  0
 12 13  2  0  0  0
 12 95  1  0  0  0
 13 14  1  0  0  0
 13 31  1  0  0  0
 14 15  2  0  0  0
 14 96  1  0  0  0
 15 97  1  0  0  0
 16 17  2  0  0  0
 16 21  1  0  0  0
 16 31  1  0  0  0
 17 18  1  0  0  0
 17 98  1  0  0  0
 18 19  2  0  0  0
 18 99  1  0  0  0
 19 20  1  0  0  0
 19 24  1  0  0  0
 20 21  2  0  0  0
 20100  1  0  0  0
 21 23  1  0  0  0
 22 28  1  0  0  0
 22 32  2  0  0  0
 26 27  1  0  0  0
 28101  1  0  0  0
 28102  1  0  0  0
 29103  1  0  0  0
 29104  1  0  0  0
 33 34  1  0  0  0
 33 66  1  0  0  0
 33 70  2  0  0  0
 34 36  1  0  0  0
 34 59  1  0  0  0
 34105  1  0  0  0
 35 44  2  0  0  0
 35 45  1  0  0  0
 35 68  1  0  0  0
 36 56  1  0  0  0
 36106  1  0  0  0
 37 39  1  0  0  0
 37 47  1  0  0  0
 37 66  1  0  0  0
 37107  1  0  0  0
 38 43  2  0  0  0
 38 46  1  0  0  0
 38 47  1  0  0  0
 39 64  1  0  0  0
 39 67  2  0  0  0
 40 52  1  0  0  0
 40 53  2  0  0  0
 40 58  1  0  0  0
 41108  1  0  0  0
 41109  1  0  0  0
 41110  1  0  0  0
 41 48  1  0  0  0
 42 43  1  0  0  0
 42 66  1  0  0  0
 42111  1  0  0  0
 42112  1  0  0  0
 43 44  1  0  0  0
 44113  1  0  0  0
 45 46  2  0  0  0
 45114  1  0  0  0
 46115  1  0  0  0
 47116  1  0  0  0
 47117  1  0  0  0
 48 56  1  0  0  0
 48 65  1  0  0  0
 48118  1  0  0  0
 49 50  1  0  0  0
 49 53  1  0  0  0
 49 64  1  0  0  0
 49119  1  0  0  0
 50 51  1  0  0  0
 50120  1  0  0  0
 50121  1  0  0  0
 51 52  1  0  0  0
 51122  1  0  0  0
 51123  1  0  0  0
 52124  1  0  0  0
 52125  1  0  0  0
 53 54  1  0  0  0
 54 55  2  0  0  0
 54126  1  0  0  0
 55 57  1  0  0  0
 55127  1  0  0  0
 56 69  2  0  0  0
 57 58  2  0  0  0
 57128  1  0  0  0
 58129  1  0  0  0
 59 60  1  0  0  0
 59 61  1  0  0  0
 59 62  1  0  0  0
 60130  1  0  0  0
 60131  1  0  0  0
 60132  1  0  0  0
 61133  1  0  0  0
 61134  1  0  0  0
 61135  1  0  0  0
 62136  1  0  0  0
 62137  1  0  0  0
 62138  1  0  0  0
 63 65  1  0  0  0
 63139  1  0  0  0
 63140  1  0  0  0
 63141  1  0  0  0
 64142  1  0  0  0
 65143  1  0  0  0
 68 83  1  0  0  0
 71 73  2  0  0  0
 71 74  1  0  0  0
 71144  1  0  0  0
 72 73  1  0  0  0
 72 75  2  0  0  0
 72145  1  0  0  0
 73 81  1  0  0  0
 74 76  2  0  0  0
 74 77  1  0  0  0
 75 76  1  0  0  0
 75 79  1  0  0  0
 76 80  1  0  0  0
 77146  1  0  0  0
 77147  1  0  0  0
 77148  1  0  0  0
 78 80  1  0  0  0
 78149  1  0  0  0
 78150  1  0  0  0
 78151  1  0  0  0
 79 82  1  0  0  0
 79152  1  0  0  0
 79153  1  0  0  0
 80154  1  0  0  0
 80155  1  0  0  0
 81 84  1  0  0  0
 81156  1  0  0  0
 81157  1  0  0  0
 82 83  1  0  0  0
 82158  1  0  0  0
 82159  1  0  0  0
 83160  1  0  0  0
 83161  1  0  0  0
 84162  1  0  0  0
M  ISO  4   1 100  68 101  83 101  84 100
M  END
> <chiral flag>
0

> <version>
0

> <s_m_source_file>
/data/baiqing/PycharmProjects/Reinvent-master-3.2/result/LINK_invent/BTK/process_docking_weight1_custom_sum_contain_oxygen_bond_distance_aromatic_linkinvent_7_9_3/rearranged_h_0033.sdf

> <i_m_source_file_index>
43

> <r_mmod_Potential_Energy-OPLS-2005>
167.090896606445

> <r_mmod_Stretch_Energy-OPLS-2005>
110.469055175781

> <r_mmod_Bend_Energy-OPLS-2005>
193.077438354492

> <r_mmod_Torsional_Energy-OPLS-2005>
252.221786499023

> <r_mmod_Improper_Torsional_Energy-OPLS-2005>
10.2239246368408

> <r_mmod_Van_der_Waal_Energy-OPLS-2005>
149.027069091797

> <r_mmod_Electrostatic_Energy-OPLS-2005>
-422.269439697266

> <r_mmod_Solvation_Energy-OPLS-2005>
-214.313720703125

> <b_mmod_Minimization_Converged-OPLS-2005>
0

> <r_mmod_RMS_Derivative-OPLS-2005>
5.7541298866272

$$$$
44
                    3D
 Structure written by MMmdl.
159167  0  0  1  0            999 V2000
  -30.7048  -14.4654   20.5422 C   0  0  0  0  0  0
  -30.4238  -12.3044   19.3956 C   0  0  0  0  0  0
  -29.4810  -12.4805   18.1901 C   0  0  0  0  0  0
  -28.0016  -12.3691   18.6110 C   0  0  0  0  0  0
  -27.6584  -13.2142   19.8702 C   0  0  2  0  0  0
  -28.7103  -12.9977   20.9809 C   0  0  0  0  0  0
  -25.2548  -13.8182   20.5731 C   0  0  0  0  0  0
  -24.1840  -13.0445   20.9218 C   0  0  0  0  0  0
  -24.6416  -11.6933   20.8764 C   0  0  0  0  0  0
  -23.9086  -10.4312   21.0399 C   0  0  0  0  0  0
  -24.3631   -9.4235   21.9181 C   0  0  0  0  0  0
  -23.6309   -8.2267   22.0751 C   0  0  0  0  0  0
  -22.4278   -8.0299   21.3558 C   0  0  0  0  0  0
  -21.9919   -9.0280   20.4652 C   0  0  0  0  0  0
  -22.7249  -10.2162   20.3059 C   0  0  0  0  0  0
  -21.6861   -6.0760   22.5297 C   0  0  0  0  0  0
  -21.4001   -6.5653   23.8223 C   0  0  0  0  0  0
  -21.3645   -5.6806   24.9186 C   0  0  0  0  0  0
  -21.6053   -4.3072   24.7235 C   0  0  0  0  0  0
  -21.8838   -3.8172   23.4344 C   0  0  0  0  0  0
  -21.9206   -4.6991   22.3403 C   0  0  0  0  0  0
  -22.7863  -13.5214   21.1882 C   0  0  0  0  0  0
  -22.1682   -4.2197   21.0975 F   0  0  0  0  0  0
  -21.5609   -3.4531   25.7718 F   0  0  0  0  0  0
  -30.0330  -13.2937   20.4044 N   0  0  0  0  0  0
  -26.3032  -12.9416   20.3442 N   0  0  0  0  0  0
  -25.9341  -11.6560   20.5799 N   0  0  0  0  0  0
  -22.0507  -12.8231   22.0422 N   0  0  0  0  0  0
  -25.4135  -15.1913   20.4175 N   0  0  0  0  0  0
  -31.8703  -14.6395   20.1776 O   0  0  0  0  0  0
  -21.6652   -6.8901   21.4251 O   0  0  0  0  0  0
  -22.3529  -14.5501   20.6701 O   0  0  0  0  0  0
  -24.6153  -31.8641   23.2041 C   0  0  0  0  0  0
  -25.9042  -32.4811   23.8347 C   0  0  1  0  0  0
  -27.2360  -27.4164   20.0965 C   0  0  0  0  0  0
  -25.5863  -33.8610   24.2280 N   0  0  0  0  0  0
  -23.4037  -30.4806   21.5457 C   0  0  2  0  0  0
  -24.8496  -28.9430   20.1092 C   0  0  0  0  0  0
  -22.7410  -29.4613   22.4998 C   0  0  0  0  0  0
  -18.0263  -28.1349   22.8558 C   0  0  0  0  0  0
  -24.1483  -36.7338   23.2636 C   0  0  0  0  0  0
  -25.9300  -30.8217   21.3520 C   0  0  0  0  0  0
  -26.0072  -29.4511   20.7107 C   0  0  0  0  0  0
  -27.2002  -28.6943   20.7022 C   0  0  0  0  0  0
  -26.0657  -26.9310   19.4705 C   0  0  0  0  0  0
  -24.8744  -27.6825   19.4845 C   0  0  0  0  0  0
  -23.6088  -29.8072   20.1616 C   0  0  0  0  0  0
  -25.4094  -36.3111   24.0335 C   0  0  1  0  0  0
  -20.5885  -28.3561   23.1298 C   0  0  2  0  0  0
  -20.6696  -26.9314   22.5367 C   0  0  0  0  0  0
  -19.5591  -26.6312   21.5265 C   0  0  0  0  0  0
  -18.1831  -26.7860   22.1791 C   0  0  0  0  0  0
  -19.1557  -28.8808   23.2879 C   0  0  0  0  0  0
  -18.9549  -30.1447   23.8836 C   0  0  0  0  0  0
  -17.6585  -30.6631   24.0521 C   0  0  0  0  0  0
  -25.9026  -34.9472   23.5113 C   0  0  0  0  0  0
  -16.5436  -29.9129   23.6396 C   0  0  0  0  0  0
  -16.7260  -28.6503   23.0473 C   0  0  0  0  0  0
  -26.4441  -31.6600   25.0681 C   0  0  0  0  0  0
  -25.3689  -31.3730   26.1419 C   0  0  0  0  0  0
  -27.0264  -30.3051   24.6021 C   0  0  0  0  0  0
  -27.6004  -32.4305   25.7474 C   0  0  0  0  0  0
  -27.5569  -37.1817   24.8456 C   0  0  0  0  0  0
  -21.4173  -29.2857   22.3628 N   0  0  0  0  0  0
  -26.4285  -37.3779   23.9409 N   0  0  0  0  0  0
  -24.6692  -31.0694   22.0952 N   0  0  0  0  0  0
  -23.4154  -28.8307   23.3179 O   0  0  0  0  0  0
  -28.4138  -26.6962   20.1273 O   0  0  0  0  0  0
  -26.5603  -34.8941   22.4689 O   0  0  0  0  0  0
  -23.5333  -32.1451   23.7389 O   0  0  0  0  0  0
  -30.6451  -18.8296   22.3470 C   0  0  0  0  0  0
  -28.5933  -19.8810   20.7656 C   0  0  0  0  0  0
  -30.4399  -20.2293   22.3077 C   0  0  0  0  0  0
  -29.8171  -17.9319   21.6378 C   0  0  0  0  0  0
  -29.3855  -20.7710   21.5248 C   0  0  0  0  0  0
  -28.7960  -18.4829   20.8165 C   0  0  0  0  0  0
  -31.3450  -21.1000   23.1674 C   0  0  0  0  0  0
  -29.0300  -22.2674   21.5352 C   0  0  0  0  0  0
  -29.9983  -16.4224   21.9040 C   0  0  0  0  0  0
  -29.8246  -23.1263   20.5226 C   0  0  0  0  0  0
  -29.6318  -24.6631   20.6685 C   0  0  0  0  0  0
  -28.3410  -25.2615   20.0578 C   0  0  0  0  0  0
  -29.9140  -15.5234   20.7549 N   0  0  0  0  0  0
  -27.7353  -17.4837   19.8889 Cl  0  0  0  0  0  0
  -31.4600  -12.4206   19.0710 H   0  0  0  0  0  0
  -30.3352  -11.3000   19.8081 H   0  0  0  0  0  0
  -29.7043  -11.7175   17.4439 H   0  0  0  0  0  0
  -29.6548  -13.4443   17.7094 H   0  0  0  0  0  0
  -27.7931  -11.3154   18.8044 H   0  0  0  0  0  0
  -27.3540  -12.6523   17.7804 H   0  0  0  0  0  0
  -27.6963  -14.2626   19.5710 H   0  0  0  0  0  0
  -28.6840  -11.9659   21.3375 H   0  0  0  0  0  0
  -28.4892  -13.6260   21.8453 H   0  0  0  0  0  0
  -25.2787   -9.5737   22.4734 H   0  0  0  0  0  0
  -24.0055   -7.4665   22.7445 H   0  0  0  0  0  0
  -21.0866   -8.8791   19.8941 H   0  0  0  0  0  0
  -22.3702  -10.9696   19.6152 H   0  0  0  0  0  0
  -21.1965   -7.6155   23.9738 H   0  0  0  0  0  0
  -21.1429   -6.0523   25.9093 H   0  0  0  0  0  0
  -22.0615   -2.7636   23.2840 H   0  0  0  0  0  0
  -22.4119  -11.9867   22.4788 H   0  0  0  0  0  0
  -21.1107  -13.1255   22.2537 H   0  0  0  0  0  0
  -24.6409  -15.8382   20.5308 H   0  0  0  0  0  0
  -26.2873  -15.6530   20.1966 H   0  0  0  0  0  0
  -26.7111  -32.5520   23.1115 H   0  0  0  0  0  0
  -25.0004  -33.9764   25.0421 H   0  0  0  0  0  0
  -22.6939  -31.2960   21.4075 H   0  0  0  0  0  0
  -23.3723  -35.9693   23.3297 H   0  0  0  0  0  0
  -24.3573  -36.8954   22.2043 H   0  0  0  0  0  0
  -23.7266  -37.6556   23.6662 H   0  0  0  0  0  0
  -26.0142  -31.5695   20.5628 H   0  0  0  0  0  0
  -26.8311  -30.9006   21.9497 H   0  0  0  0  0  0
  -28.0916  -29.0777   21.1769 H   0  0  0  0  0  0
  -26.0627  -25.9801   18.9582 H   0  0  0  0  0  0
  -23.9924  -27.2858   18.9994 H   0  0  0  0  0  0
  -23.7092  -30.5759   19.3945 H   0  0  0  0  0  0
  -22.7359  -29.2173   19.8765 H   0  0  0  0  0  0
  -25.1274  -36.1967   25.0822 H   0  0  0  0  0  0
  -20.9998  -28.3069   24.1420 H   0  0  0  0  0  0
  -20.5718  -26.2182   23.3574 H   0  0  0  0  0  0
  -21.6497  -26.7387   22.0991 H   0  0  0  0  0  0
  -19.6446  -27.3096   20.6755 H   0  0  0  0  0  0
  -19.6677  -25.6172   21.1397 H   0  0  0  0  0  0
  -17.3998  -26.6548   21.4319 H   0  0  0  0  0  0
  -18.0366  -26.0072   22.9310 H   0  0  0  0  0  0
  -19.8077  -30.7206   24.2155 H   0  0  0  0  0  0
  -17.5221  -31.6348   24.5084 H   0  0  0  0  0  0
  -15.5457  -30.3055   23.7780 H   0  0  0  0  0  0
  -15.8591  -28.0862   22.7355 H   0  0  0  0  0  0
  -24.5860  -30.7070   25.7765 H   0  0  0  0  0  0
  -24.8886  -32.2904   26.4828 H   0  0  0  0  0  0
  -25.8012  -30.8932   27.0204 H   0  0  0  0  0  0
  -26.2796  -29.6847   24.1040 H   0  0  0  0  0  0
  -27.4032  -29.7227   25.4437 H   0  0  0  0  0  0
  -27.8623  -30.4413   23.9154 H   0  0  0  0  0  0
  -27.2613  -33.3597   26.2061 H   0  0  0  0  0  0
  -28.3829  -32.6855   25.0320 H   0  0  0  0  0  0
  -28.0654  -31.8418   26.5396 H   0  0  0  0  0  0
  -28.2580  -38.0114   24.7485 H   0  0  0  0  0  0
  -28.1068  -36.2641   24.6300 H   0  0  0  0  0  0
  -27.2295  -37.1484   25.8859 H   0  0  0  0  0  0
  -20.9455  -29.8175   21.6453 H   0  0  0  0  0  0
  -26.0170  -38.2858   24.1403 H   0  0  0  0  0  0
  -31.4242  -18.4271   22.9813 H   0  0  0  0  0  0
  -27.7808  -20.2728   20.1714 H   0  0  0  0  0  0
  -32.3299  -20.6417   23.2661 H   0  0  0  0  0  0
  -30.9240  -21.2139   24.1690 H   0  0  0  0  0  0
  -31.5047  -22.0912   22.7451 H   0  0  0  0  0  0
  -29.1694  -22.6493   22.5481 H   0  0  0  0  0  0
  -27.9623  -22.3881   21.3372 H   0  0  0  0  0  0
  -29.1959  -16.1233   22.5789 H   0  0  0  0  0  0
  -30.9324  -16.2485   22.4453 H   0  0  0  0  0  0
  -29.5926  -22.8081   19.5062 H   0  0  0  0  0  0
  -30.8891  -22.9233   20.6438 H   0  0  0  0  0  0
  -30.4741  -25.1476   20.1763 H   0  0  0  0  0  0
  -29.7131  -24.9512   21.7185 H   0  0  0  0  0  0
  -27.4655  -24.8770   20.5869 H   0  0  0  0  0  0
  -28.2575  -24.9611   19.0126 H   0  0  0  0  0  0
  -29.6370  -15.9869   19.9022 H   0  0  0  0  0  0
  1 25  1  0  0  0
  1 30  2  0  0  0
  1 83  1  0  0  0
  2  3  1  0  0  0
  2 25  1  0  0  0
  2 85  1  0  0  0
  2 86  1  0  0  0
  3  4  1  0  0  0
  3 87  1  0  0  0
  3 88  1  0  0  0
  4  5  1  0  0  0
  4 89  1  0  0  0
  4 90  1  0  0  0
  5  6  1  0  0  0
  5 26  1  0  0  0
  5 91  1  0  0  0
  6 25  1  0  0  0
  6 92  1  0  0  0
  6 93  1  0  0  0
  7  8  2  0  0  0
  7 26  1  0  0  0
  7 29  1  0  0  0
  8  9  1  0  0  0
  8 22  1  0  0  0
  9 10  1  0  0  0
  9 27  2  0  0  0
 10 11  2  0  0  0
 10 15  1  0  0  0
 11 12  1  0  0  0
 11 94  1  0  0  0
 12 13  2  0  0  0
 12 95  1  0  0  0
 13 14  1  0  0  0
 13 31  1  0  0  0
 14 15  2  0  0  0
 14 96  1  0  0  0
 15 97  1  0  0  0
 16 17  2  0  0  0
 16 21  1  0  0  0
 16 31  1  0  0  0
 17 18  1  0  0  0
 17 98  1  0  0  0
 18 19  2  0  0  0
 18 99  1  0  0  0
 19 20  1  0  0  0
 19 24  1  0  0  0
 20 21  2  0  0  0
 20100  1  0  0  0
 21 23  1  0  0  0
 22 28  1  0  0  0
 22 32  2  0  0  0
 26 27  1  0  0  0
 28101  1  0  0  0
 28102  1  0  0  0
 29103  1  0  0  0
 29104  1  0  0  0
 33 34  1  0  0  0
 33 66  1  0  0  0
 33 70  2  0  0  0
 34 36  1  0  0  0
 34 59  1  0  0  0
 34105  1  0  0  0
 35 44  2  0  0  0
 35 45  1  0  0  0
 35 68  1  0  0  0
 36 56  1  0  0  0
 36106  1  0  0  0
 37 39  1  0  0  0
 37 47  1  0  0  0
 37 66  1  0  0  0
 37107  1  0  0  0
 38 43  2  0  0  0
 38 46  1  0  0  0
 38 47  1  0  0  0
 39 64  1  0  0  0
 39 67  2  0  0  0
 40 52  1  0  0  0
 40 53  2  0  0  0
 40 58  1  0  0  0
 41108  1  0  0  0
 41109  1  0  0  0
 41110  1  0  0  0
 41 48  1  0  0  0
 42 43  1  0  0  0
 42 66  1  0  0  0
 42111  1  0  0  0
 42112  1  0  0  0
 43 44  1  0  0  0
 44113  1  0  0  0
 45 46  2  0  0  0
 45114  1  0  0  0
 46115  1  0  0  0
 47116  1  0  0  0
 47117  1  0  0  0
 48 56  1  0  0  0
 48 65  1  0  0  0
 48118  1  0  0  0
 49 50  1  0  0  0
 49 53  1  0  0  0
 49 64  1  0  0  0
 49119  1  0  0  0
 50 51  1  0  0  0
 50120  1  0  0  0
 50121  1  0  0  0
 51 52  1  0  0  0
 51122  1  0  0  0
 51123  1  0  0  0
 52124  1  0  0  0
 52125  1  0  0  0
 53 54  1  0  0  0
 54 55  2  0  0  0
 54126  1  0  0  0
 55 57  1  0  0  0
 55127  1  0  0  0
 56 69  2  0  0  0
 57 58  2  0  0  0
 57128  1  0  0  0
 58129  1  0  0  0
 59 60  1  0  0  0
 59 61  1  0  0  0
 59 62  1  0  0  0
 60130  1  0  0  0
 60131  1  0  0  0
 60132  1  0  0  0
 61133  1  0  0  0
 61134  1  0  0  0
 61135  1  0  0  0
 62136  1  0  0  0
 62137  1  0  0  0
 62138  1  0  0  0
 63 65  1  0  0  0
 63139  1  0  0  0
 63140  1  0  0  0
 63141  1  0  0  0
 64142  1  0  0  0
 65143  1  0  0  0
 68 82  1  0  0  0
 71 73  2  0  0  0
 71 74  1  0  0  0
 71144  1  0  0  0
 72 75  2  0  0  0
 72 76  1  0  0  0
 72145  1  0  0  0
 73 75  1  0  0  0
 73 77  1  0  0  0
 74 76  2  0  0  0
 74 79  1  0  0  0
 75 78  1  0  0  0
 76 84  1  0  0  0
 77146  1  0  0  0
 77147  1  0  0  0
 77148  1  0  0  0
 78 80  1  0  0  0
 78149  1  0  0  0
 78150  1  0  0  0
 79 83  1  0  0  0
 79151  1  0  0  0
 79152  1  0  0  0
 80 81  1  0  0  0
 80153  1  0  0  0
 80154  1  0  0  0
 81 82  1  0  0  0
 81155  1  0  0  0
 81156  1  0  0  0
 82157  1  0  0  0
 82158  1  0  0  0
 83159  1  0  0  0
M  ISO  4   1 100  68 101  82 101  83 100
M  END
> <chiral flag>
0

> <version>
0

> <s_m_source_file>
/data/baiqing/PycharmProjects/Reinvent-master-3.2/result/LINK_invent/BTK/process_docking_weight1_custom_sum_contain_oxygen_bond_distance_aromatic_linkinvent_7_9_3/rearranged_h_0033.sdf

> <i_m_source_file_index>
44

> <r_mmod_Potential_Energy-OPLS-2005>
-2.60680532455444

> <r_mmod_Stretch_Energy-OPLS-2005>
38.6676979064941

> <r_mmod_Bend_Energy-OPLS-2005>
101.392150878906

> <r_mmod_Torsional_Energy-OPLS-2005>
281.350036621094

> <r_mmod_Improper_Torsional_Energy-OPLS-2005>
12.3963785171509

> <r_mmod_Van_der_Waal_Energy-OPLS-2005>
144.154006958008

> <r_mmod_Electrostatic_Energy-OPLS-2005>
-406.756591796875

> <r_mmod_Solvation_Energy-OPLS-2005>
-190.843734741211

> <b_mmod_Minimization_Converged-OPLS-2005>
0

> <r_mmod_RMS_Derivative-OPLS-2005>
5.45403575897217

$$$$
45
                    3D
 Structure written by MMmdl.
158166  0  0  1  0            999 V2000
  -30.7023  -14.5069   20.4830 C   0  0  0  0  0  0
  -30.4166  -12.3017   19.4473 C   0  0  0  0  0  0
  -29.5012  -12.4901   18.2201 C   0  0  0  0  0  0
  -28.0214  -12.3562   18.6244 C   0  0  0  0  0  0
  -27.6576  -13.2151   19.8673 C   0  0  2  0  0  0
  -28.7025  -13.0527   20.9981 C   0  0  0  0  0  0
  -25.2579  -13.8174   20.5676 C   0  0  0  0  0  0
  -24.1839  -13.0453   20.9175 C   0  0  0  0  0  0
  -24.6400  -11.6921   20.8742 C   0  0  0  0  0  0
  -23.9058  -10.4304   21.0400 C   0  0  0  0  0  0
  -24.3613   -9.4226   21.9178 C   0  0  0  0  0  0
  -23.6297   -8.2256   22.0739 C   0  0  0  0  0  0
  -22.4276   -8.0286   21.3538 C   0  0  0  0  0  0
  -21.9910   -9.0252   20.4635 C   0  0  0  0  0  0
  -22.7228  -10.2140   20.3052 C   0  0  0  0  0  0
  -21.6858   -6.0733   22.5260 C   0  0  0  0  0  0
  -21.4026   -6.5637   23.8200 C   0  0  0  0  0  0
  -21.3671   -5.6783   24.9161 C   0  0  0  0  0  0
  -21.6053   -4.3048   24.7204 C   0  0  0  0  0  0
  -21.8819   -3.8142   23.4327 C   0  0  0  0  0  0
  -21.9200   -4.6958   22.3390 C   0  0  0  0  0  0
  -22.7861  -13.5254   21.1823 C   0  0  0  0  0  0
  -22.1658   -4.2154   21.0962 F   0  0  0  0  0  0
  -21.5635   -3.4524   25.7717 F   0  0  0  0  0  0
  -30.0318  -13.3239   20.4327 N   0  0  0  0  0  0
  -26.3015  -12.9357   20.3351 N   0  0  0  0  0  0
  -25.9326  -11.6513   20.5767 N   0  0  0  0  0  0
  -22.0487  -12.8274   22.0397 N   0  0  0  0  0  0
  -25.4283  -15.1891   20.4071 N   0  0  0  0  0  0
  -31.8759  -14.6123   20.1183 O   0  0  0  0  0  0
  -21.6654   -6.8877   21.4227 O   0  0  0  0  0  0
  -22.3556  -14.5555   20.6654 O   0  0  0  0  0  0
  -24.6175  -31.8629   23.2043 C   0  0  0  0  0  0
  -25.9037  -32.4805   23.8362 C   0  0  1  0  0  0
  -27.2507  -27.4026   20.0968 C   0  0  0  0  0  0
  -25.5875  -33.8596   24.2294 N   0  0  0  0  0  0
  -23.4082  -30.4830   21.5460 C   0  0  2  0  0  0
  -24.8567  -28.9384   20.1124 C   0  0  0  0  0  0
  -22.7432  -29.4622   22.4973 C   0  0  0  0  0  0
  -18.0269  -28.1387   22.8509 C   0  0  0  0  0  0
  -24.1479  -36.7325   23.2639 C   0  0  0  0  0  0
  -25.9373  -30.8162   21.3605 C   0  0  0  0  0  0
  -26.0129  -29.4446   20.7147 C   0  0  0  0  0  0
  -27.2057  -28.6815   20.7070 C   0  0  0  0  0  0
  -26.0709  -26.9170   19.4812 C   0  0  0  0  0  0
  -24.8816  -27.6753   19.4944 C   0  0  0  0  0  0
  -23.6186  -29.8080   20.1628 C   0  0  0  0  0  0
  -25.4096  -36.3103   24.0338 C   0  0  1  0  0  0
  -20.5865  -28.3668   23.1336 C   0  0  2  0  0  0
  -20.6763  -26.9401   22.5431 C   0  0  0  0  0  0
  -19.5727  -26.6391   21.5234 C   0  0  0  0  0  0
  -18.1911  -26.7935   22.1642 C   0  0  0  0  0  0
  -19.1522  -28.8844   23.2918 C   0  0  0  0  0  0
  -18.9446  -30.1461   23.8906 C   0  0  0  0  0  0
  -17.6446  -30.6594   24.0579 C   0  0  0  0  0  0
  -25.9026  -34.9467   23.5121 C   0  0  0  0  0  0
  -16.5340  -29.9093   23.6334 C   0  0  0  0  0  0
  -16.7255  -28.6515   23.0341 C   0  0  0  0  0  0
  -26.4457  -31.6585   25.0693 C   0  0  0  0  0  0
  -25.3735  -31.3690   26.1458 C   0  0  0  0  0  0
  -27.0283  -30.3020   24.6070 C   0  0  0  0  0  0
  -27.6034  -32.4312   25.7465 C   0  0  0  0  0  0
  -27.5579  -37.1814   24.8467 C   0  0  0  0  0  0
  -21.4148  -29.3024   22.3729 N   0  0  0  0  0  0
  -26.4283  -37.3792   23.9419 N   0  0  0  0  0  0
  -24.6731  -31.0712   22.0959 N   0  0  0  0  0  0
  -23.4192  -28.8173   23.3022 O   0  0  0  0  0  0
  -28.4526  -26.7067   20.1221 O   0  0  0  0  0  0
  -26.5606  -34.8934   22.4692 O   0  0  0  0  0  0
  -23.5364  -32.1384   23.7422 O   0  0  0  0  0  0
  -29.9896  -20.5915   22.5144 C   0  0  0  0  0  0
  -29.5168  -19.3607   20.4770 C   0  0  0  0  0  0
  -29.4277  -20.5668   21.2225 C   0  0  0  0  0  0
  -30.5978  -19.4444   23.0668 C   0  0  0  0  0  0
  -30.1422  -18.1929   21.0059 C   0  0  0  0  0  0
  -30.6908  -18.2502   22.3135 C   0  0  0  0  0  0
  -31.1328  -19.4940   24.4872 C   0  0  0  0  0  0
  -28.6316  -21.7969   20.7283 C   0  0  0  0  0  0
  -30.2988  -16.9434   20.1137 C   0  0  0  0  0  0
  -29.4348  -23.1085   20.4595 C   0  0  0  0  0  0
  -28.7086  -24.4544   20.8130 C   0  0  0  0  0  0
  -29.9461  -15.6106   20.6619 N   0  0  0  0  0  0
  -28.4279  -25.3149   19.6529 N   0  0  0  0  0  0
  -31.5134  -16.8894   23.0066 Cl  0  0  0  0  0  0
  -31.4635  -12.3776   19.1468 H   0  0  0  0  0  0
  -30.2963  -11.3025   19.8718 H   0  0  0  0  0  0
  -29.7461  -11.7529   17.4548 H   0  0  0  0  0  0
  -29.6740  -13.4705   17.7726 H   0  0  0  0  0  0
  -27.8328  -11.3033   18.8334 H   0  0  0  0  0  0
  -27.3768  -12.6163   17.7832 H   0  0  0  0  0  0
  -27.6819  -14.2538   19.5392 H   0  0  0  0  0  0
  -28.6769  -12.0417   21.4060 H   0  0  0  0  0  0
  -28.4839  -13.7192   21.8345 H   0  0  0  0  0  0
  -25.2755   -9.5720   22.4754 H   0  0  0  0  0  0
  -24.0006   -7.4669   22.7465 H   0  0  0  0  0  0
  -21.0834   -8.8771   19.8963 H   0  0  0  0  0  0
  -22.3665  -10.9676   19.6172 H   0  0  0  0  0  0
  -21.2014   -7.6144   23.9706 H   0  0  0  0  0  0
  -21.1498   -6.0512   25.9070 H   0  0  0  0  0  0
  -22.0593   -2.7603   23.2814 H   0  0  0  0  0  0
  -22.4084  -11.9959   22.4839 H   0  0  0  0  0  0
  -21.1096  -13.1313   22.2551 H   0  0  0  0  0  0
  -24.6588  -15.8412   20.5152 H   0  0  0  0  0  0
  -26.2778  -15.6313   20.0805 H   0  0  0  0  0  0
  -26.7107  -32.5490   23.1128 H   0  0  0  0  0  0
  -25.0023  -33.9755   25.0439 H   0  0  0  0  0  0
  -22.6972  -31.2984   21.4032 H   0  0  0  0  0  0
  -23.3732  -35.9675   23.3310 H   0  0  0  0  0  0
  -24.3569  -36.8920   22.2055 H   0  0  0  0  0  0
  -23.7248  -37.6540   23.6644 H   0  0  0  0  0  0
  -26.0443  -31.5733   20.5824 H   0  0  0  0  0  0
  -26.8283  -30.8797   21.9729 H   0  0  0  0  0  0
  -28.0961  -29.0734   21.1779 H   0  0  0  0  0  0
  -26.0430  -25.9584   18.9866 H   0  0  0  0  0  0
  -23.9921  -27.2825   19.0194 H   0  0  0  0  0  0
  -23.7251  -30.5789   19.3985 H   0  0  0  0  0  0
  -22.7439  -29.2225   19.8718 H   0  0  0  0  0  0
  -25.1272  -36.1977   25.0834 H   0  0  0  0  0  0
  -20.9945  -28.3213   24.1457 H   0  0  0  0  0  0
  -20.5690  -26.2248   23.3606 H   0  0  0  0  0  0
  -21.6636  -26.7454   22.1202 H   0  0  0  0  0  0
  -19.6881  -25.6302   21.1245 H   0  0  0  0  0  0
  -19.6682  -27.3225   20.6786 H   0  0  0  0  0  0
  -17.4193  -26.6700   21.4036 H   0  0  0  0  0  0
  -18.0300  -26.0080   22.9032 H   0  0  0  0  0  0
  -19.7917  -30.7302   24.2257 H   0  0  0  0  0  0
  -17.4990  -31.6271   24.5190 H   0  0  0  0  0  0
  -15.5335  -30.2997   23.7656 H   0  0  0  0  0  0
  -15.8655  -28.0859   22.7010 H   0  0  0  0  0  0
  -24.5921  -30.7010   25.7811 H   0  0  0  0  0  0
  -24.8925  -32.2844   26.4910 H   0  0  0  0  0  0
  -25.8107  -30.8876   27.0214 H   0  0  0  0  0  0
  -26.2812  -29.6790   24.1138 H   0  0  0  0  0  0
  -27.4053  -29.7242   25.4518 H   0  0  0  0  0  0
  -27.8645  -30.4325   23.9201 H   0  0  0  0  0  0
  -27.2639  -33.3607   26.2059 H   0  0  0  0  0  0
  -28.3842  -32.6877   25.0288 H   0  0  0  0  0  0
  -28.0711  -31.8429   26.5373 H   0  0  0  0  0  0
  -28.2607  -38.0103   24.7506 H   0  0  0  0  0  0
  -28.1059  -36.2629   24.6294 H   0  0  0  0  0  0
  -27.2302  -37.1487   25.8872 H   0  0  0  0  0  0
  -20.9296  -29.8732   21.6954 H   0  0  0  0  0  0
  -26.0170  -38.2876   24.1398 H   0  0  0  0  0  0
  -29.9224  -21.4953   23.1044 H   0  0  0  0  0  0
  -29.0950  -19.3256   19.4818 H   0  0  0  0  0  0
  -30.7770  -18.6329   25.0555 H   0  0  0  0  0  0
  -30.7978  -20.3892   25.0128 H   0  0  0  0  0  0
  -32.2229  -19.4745   24.4903 H   0  0  0  0  0  0
  -27.8870  -21.9967   21.4987 H   0  0  0  0  0  0
  -28.0592  -21.5382   19.8371 H   0  0  0  0  0  0
  -31.3317  -16.9575   19.7633 H   0  0  0  0  0  0
  -29.6982  -17.0711   19.2140 H   0  0  0  0  0  0
  -29.8032  -23.1112   19.4322 H   0  0  0  0  0  0
  -30.3350  -23.0795   21.0775 H   0  0  0  0  0  0
  -29.3604  -25.0062   21.4958 H   0  0  0  0  0  0
  -27.7815  -24.2800   21.3628 H   0  0  0  0  0  0
  -28.9853  -15.4693   20.9329 H   0  0  0  0  0  0
  -27.4950  -25.1509   19.2883 H   0  0  0  0  0  0
  1 25  1  0  0  0
  1 30  2  0  0  0
  1 82  1  0  0  0
  2  3  1  0  0  0
  2 25  1  0  0  0
  2 85  1  0  0  0
  2 86  1  0  0  0
  3  4  1  0  0  0
  3 87  1  0  0  0
  3 88  1  0  0  0
  4  5  1  0  0  0
  4 89  1  0  0  0
  4 90  1  0  0  0
  5  6  1  0  0  0
  5 26  1  0  0  0
  5 91  1  0  0  0
  6 25  1  0  0  0
  6 92  1  0  0  0
  6 93  1  0  0  0
  7  8  2  0  0  0
  7 26  1  0  0  0
  7 29  1  0  0  0
  8  9  1  0  0  0
  8 22  1  0  0  0
  9 10  1  0  0  0
  9 27  2  0  0  0
 10 11  2  0  0  0
 10 15  1  0  0  0
 11 12  1  0  0  0
 11 94  1  0  0  0
 12 13  2  0  0  0
 12 95  1  0  0  0
 13 14  1  0  0  0
 13 31  1  0  0  0
 14 15  2  0  0  0
 14 96  1  0  0  0
 15 97  1  0  0  0
 16 17  2  0  0  0
 16 21  1  0  0  0
 16 31  1  0  0  0
 17 18  1  0  0  0
 17 98  1  0  0  0
 18 19  2  0  0  0
 18 99  1  0  0  0
 19 20  1  0  0  0
 19 24  1  0  0  0
 20 21  2  0  0  0
 20100  1  0  0  0
 21 23  1  0  0  0
 22 28  1  0  0  0
 22 32  2  0  0  0
 26 27  1  0  0  0
 28101  1  0  0  0
 28102  1  0  0  0
 29103  1  0  0  0
 29104  1  0  0  0
 33 34  1  0  0  0
 33 66  1  0  0  0
 33 70  2  0  0  0
 34 36  1  0  0  0
 34 59  1  0  0  0
 34105  1  0  0  0
 35 44  2  0  0  0
 35 45  1  0  0  0
 35 68  1  0  0  0
 36 56  1  0  0  0
 36106  1  0  0  0
 37 39  1  0  0  0
 37 47  1  0  0  0
 37 66  1  0  0  0
 37107  1  0  0  0
 38 43  2  0  0  0
 38 46  1  0  0  0
 38 47  1  0  0  0
 39 64  1  0  0  0
 39 67  2  0  0  0
 40 52  1  0  0  0
 40 53  2  0  0  0
 40 58  1  0  0  0
 41108  1  0  0  0
 41109  1  0  0  0
 41110  1  0  0  0
 41 48  1  0  0  0
 42 43  1  0  0  0
 42 66  1  0  0  0
 42111  1  0  0  0
 42112  1  0  0  0
 43 44  1  0  0  0
 44113  1  0  0  0
 45 46  2  0  0  0
 45114  1  0  0  0
 46115  1  0  0  0
 47116  1  0  0  0
 47117  1  0  0  0
 48 56  1  0  0  0
 48 65  1  0  0  0
 48118  1  0  0  0
 49 50  1  0  0  0
 49 53  1  0  0  0
 49 64  1  0  0  0
 49119  1  0  0  0
 50 51  1  0  0  0
 50120  1  0  0  0
 50121  1  0  0  0
 51 52  1  0  0  0
 51122  1  0  0  0
 51123  1  0  0  0
 52124  1  0  0  0
 52125  1  0  0  0
 53 54  1  0  0  0
 54 55  2  0  0  0
 54126  1  0  0  0
 55 57  1  0  0  0
 55127  1  0  0  0
 56 69  2  0  0  0
 57 58  2  0  0  0
 57128  1  0  0  0
 58129  1  0  0  0
 59 60  1  0  0  0
 59 61  1  0  0  0
 59 62  1  0  0  0
 60130  1  0  0  0
 60131  1  0  0  0
 60132  1  0  0  0
 61133  1  0  0  0
 61134  1  0  0  0
 61135  1  0  0  0
 62136  1  0  0  0
 62137  1  0  0  0
 62138  1  0  0  0
 63 65  1  0  0  0
 63139  1  0  0  0
 63140  1  0  0  0
 63141  1  0  0  0
 64142  1  0  0  0
 65143  1  0  0  0
 68 83  1  0  0  0
 71 73  2  0  0  0
 71 74  1  0  0  0
 71144  1  0  0  0
 72 73  1  0  0  0
 72 75  2  0  0  0
 72145  1  0  0  0
 73 78  1  0  0  0
 74 76  2  0  0  0
 74 77  1  0  0  0
 75 76  1  0  0  0
 75 79  1  0  0  0
 76 84  1  0  0  0
 77146  1  0  0  0
 77147  1  0  0  0
 77148  1  0  0  0
 78 80  1  0  0  0
 78149  1  0  0  0
 78150  1  0  0  0
 79 82  1  0  0  0
 79151  1  0  0  0
 79152  1  0  0  0
 80 81  1  0  0  0
 80153  1  0  0  0
 80154  1  0  0  0
 81 83  1  0  0  0
 81155  1  0  0  0
 81156  1  0  0  0
 82157  1  0  0  0
 83158  1  0  0  0
M  ISO  4   1 100  68 101  82 100  83 101
M  END
> <chiral flag>
0

> <version>
0

> <s_m_source_file>
/data/baiqing/PycharmProjects/Reinvent-master-3.2/result/LINK_invent/BTK/process_docking_weight1_custom_sum_contain_oxygen_bond_distance_aromatic_linkinvent_7_9_3/rearranged_h_0033.sdf

> <i_m_source_file_index>
45

> <r_mmod_Potential_Energy-OPLS-2005>
-35.5657196044922

> <r_mmod_Stretch_Energy-OPLS-2005>
46.5137596130371

> <r_mmod_Bend_Energy-OPLS-2005>
110.411781311035

> <r_mmod_Torsional_Energy-OPLS-2005>
229.147659301758

> <r_mmod_Improper_Torsional_Energy-OPLS-2005>
8.77657794952393

> <r_mmod_Van_der_Waal_Energy-OPLS-2005>
153.151153564453

> <r_mmod_Electrostatic_Energy-OPLS-2005>
-388.156158447266

> <r_mmod_Solvation_Energy-OPLS-2005>
-216.780242919922

> <b_mmod_Minimization_Converged-OPLS-2005>
0

> <r_mmod_RMS_Derivative-OPLS-2005>
3.4913854598999

$$$$
46
                    3D
 Structure written by MMmdl.
159168  0  0  1  0            999 V2000
  -30.6599  -14.6790   20.5014 C   0  0  0  0  0  0
  -30.4448  -12.4144   19.4769 C   0  0  0  0  0  0
  -29.5201  -12.4917   18.2416 C   0  0  0  0  0  0
  -28.0444  -12.3437   18.6531 C   0  0  0  0  0  0
  -27.6614  -13.2270   19.8693 C   0  0  2  0  0  0
  -28.7093  -13.1156   21.0026 C   0  0  0  0  0  0
  -25.2591  -13.8160   20.5699 C   0  0  0  0  0  0
  -24.1845  -13.0446   20.9171 C   0  0  0  0  0  0
  -24.6414  -11.6906   20.8729 C   0  0  0  0  0  0
  -23.9084  -10.4271   21.0392 C   0  0  0  0  0  0
  -24.3619   -9.4167   21.9155 C   0  0  0  0  0  0
  -23.6280   -8.2210   22.0734 C   0  0  0  0  0  0
  -22.4255   -8.0251   21.3542 C   0  0  0  0  0  0
  -21.9899   -9.0228   20.4650 C   0  0  0  0  0  0
  -22.7253  -10.2084   20.3048 C   0  0  0  0  0  0
  -21.6820   -6.0741   22.5263 C   0  0  0  0  0  0
  -21.4012   -6.5635   23.8201 C   0  0  0  0  0  0
  -21.3677   -5.6774   24.9149 C   0  0  0  0  0  0
  -21.6038   -4.3054   24.7186 C   0  0  0  0  0  0
  -21.8829   -3.8167   23.4315 C   0  0  0  0  0  0
  -21.9190   -4.6987   22.3387 C   0  0  0  0  0  0
  -22.7864  -13.5229   21.1844 C   0  0  0  0  0  0
  -22.1672   -4.2202   21.0954 F   0  0  0  0  0  0
  -21.5604   -3.4523   25.7700 F   0  0  0  0  0  0
  -30.0223  -13.4614   20.4397 N   0  0  0  0  0  0
  -26.3056  -12.9380   20.3345 N   0  0  0  0  0  0
  -25.9356  -11.6534   20.5768 N   0  0  0  0  0  0
  -22.0500  -12.8234   22.0379 N   0  0  0  0  0  0
  -25.4365  -15.1877   20.4157 N   0  0  0  0  0  0
  -31.8064  -14.7984   20.0619 O   0  0  0  0  0  0
  -21.6607   -6.8868   21.4224 O   0  0  0  0  0  0
  -22.3547  -14.5571   20.6734 O   0  0  0  0  0  0
  -24.6306  -31.8570   23.1971 C   0  0  0  0  0  0
  -25.9135  -32.4755   23.8327 C   0  0  1  0  0  0
  -27.2173  -27.2706   20.1612 C   0  0  0  0  0  0
  -25.5923  -33.8544   24.2256 N   0  0  0  0  0  0
  -23.4243  -30.4815   21.5400 C   0  0  2  0  0  0
  -24.8735  -28.9293   20.1094 C   0  0  0  0  0  0
  -22.7487  -29.4621   22.4904 C   0  0  0  0  0  0
  -18.0280  -28.1363   22.8474 C   0  0  0  0  0  0
  -24.1483  -36.7289   23.2636 C   0  0  0  0  0  0
  -25.9688  -30.7779   21.3738 C   0  0  0  0  0  0
  -26.0435  -29.4007   20.7210 C   0  0  0  0  0  0
  -27.2189  -28.5845   20.7357 C   0  0  0  0  0  0
  -26.0320  -26.8730   19.5008 C   0  0  0  0  0  0
  -24.8740  -27.6734   19.4852 C   0  0  0  0  0  0
  -23.6421  -29.8141   20.1552 C   0  0  0  0  0  0
  -25.4097  -36.3061   24.0333 C   0  0  1  0  0  0
  -20.5890  -28.3668   23.1268 C   0  0  2  0  0  0
  -20.6759  -26.9376   22.5414 C   0  0  0  0  0  0
  -19.5746  -26.6352   21.5199 C   0  0  0  0  0  0
  -18.1924  -26.7904   22.1618 C   0  0  0  0  0  0
  -19.1536  -28.8824   23.2869 C   0  0  0  0  0  0
  -18.9470  -30.1428   23.8881 C   0  0  0  0  0  0
  -17.6470  -30.6568   24.0544 C   0  0  0  0  0  0
  -25.9048  -34.9437   23.5098 C   0  0  0  0  0  0
  -16.5355  -29.9064   23.6327 C   0  0  0  0  0  0
  -16.7269  -28.6480   23.0352 C   0  0  0  0  0  0
  -26.4487  -31.6572   25.0719 C   0  0  0  0  0  0
  -25.3735  -31.3759   26.1474 C   0  0  0  0  0  0
  -27.0297  -30.2972   24.6200 C   0  0  0  0  0  0
  -27.6042  -32.4303   25.7482 C   0  0  0  0  0  0
  -27.5579  -37.1771   24.8448 C   0  0  0  0  0  0
  -21.4196  -29.3037   22.3660 N   0  0  0  0  0  0
  -26.4261  -37.3780   23.9437 N   0  0  0  0  0  0
  -24.6931  -31.0557   22.0934 N   0  0  0  0  0  0
  -23.4196  -28.8162   23.2993 O   0  0  0  0  0  0
  -28.2971  -26.3645   20.2507 O   0  0  0  0  0  0
  -26.5637  -34.8919   22.4674 O   0  0  0  0  0  0
  -23.5469  -32.1377   23.7298 O   0  0  0  0  0  0
  -29.3652  -19.7673   20.7023 C   0  0  0  0  0  0
  -29.5050  -21.0225   21.4154 C   0  0  0  0  0  0
  -30.0862  -18.5683   21.0878 C   0  0  0  0  0  0
  -30.4053  -20.9852   22.4985 C   0  0  0  0  0  0
  -30.9645  -18.7326   22.1844 C   0  0  0  0  0  0
  -30.5289  -22.1955   23.4089 C   0  0  0  0  0  0
  -29.1543  -22.7968   23.7838 C   0  0  0  0  0  0
  -28.0281  -22.5054   22.7588 C   0  0  0  0  0  0
  -28.5537  -22.3074   21.3088 C   0  0  1  0  0  0
  -30.0514  -17.2033   20.2568 C   0  0  0  0  0  0
  -29.0509  -23.7484   20.7384 C   0  0  0  0  0  0
  -27.9667  -24.9461   20.6195 C   0  0  0  0  0  0
  -31.1111  -19.8930   22.8599 N   0  0  0  0  0  0
  -29.9224  -15.7960   20.8479 N   0  0  0  0  0  0
  -31.9678  -17.4345   22.7154 Cl  0  0  0  0  0  0
  -31.4852  -12.5248   19.1667 H   0  0  0  0  0  0
  -30.3856  -11.4276   19.9384 H   0  0  0  0  0  0
  -29.7812  -11.7059   17.5299 H   0  0  0  0  0  0
  -29.6703  -13.4390   17.7221 H   0  0  0  0  0  0
  -27.8712  -11.2929   18.8898 H   0  0  0  0  0  0
  -27.3957  -12.5746   17.8076 H   0  0  0  0  0  0
  -27.6760  -14.2584   19.5191 H   0  0  0  0  0  0
  -28.7327  -12.1002   21.3987 H   0  0  0  0  0  0
  -28.4563  -13.7565   21.8460 H   0  0  0  0  0  0
  -25.2756   -9.5618   22.4728 H   0  0  0  0  0  0
  -23.9991   -7.4577   22.7434 H   0  0  0  0  0  0
  -21.0809   -8.8751   19.8950 H   0  0  0  0  0  0
  -22.3712  -10.9617   19.6157 H   0  0  0  0  0  0
  -21.2017   -7.6143   23.9718 H   0  0  0  0  0  0
  -21.1488   -6.0495   25.9041 H   0  0  0  0  0  0
  -22.0624   -2.7645   23.2765 H   0  0  0  0  0  0
  -22.4187  -11.9941   22.4778 H   0  0  0  0  0  0
  -21.1123  -13.1271   22.2635 H   0  0  0  0  0  0
  -24.6799  -15.8511   20.5502 H   0  0  0  0  0  0
  -26.2841  -15.6191   20.0725 H   0  0  0  0  0  0
  -26.7200  -32.5412   23.1069 H   0  0  0  0  0  0
  -25.0010  -33.9663   25.0362 H   0  0  0  0  0  0
  -22.7205  -31.3026   21.3950 H   0  0  0  0  0  0
  -23.3752  -35.9611   23.3252 H   0  0  0  0  0  0
  -24.3613  -36.8960   22.2064 H   0  0  0  0  0  0
  -23.7211  -37.6468   23.6688 H   0  0  0  0  0  0
  -26.1085  -31.5346   20.6008 H   0  0  0  0  0  0
  -26.8480  -30.8271   22.0039 H   0  0  0  0  0  0
  -28.1097  -28.9364   21.2392 H   0  0  0  0  0  0
  -25.9734  -25.9212   18.9954 H   0  0  0  0  0  0
  -23.9812  -27.3072   18.9971 H   0  0  0  0  0  0
  -23.7639  -30.5908   19.3999 H   0  0  0  0  0  0
  -22.7588  -29.2486   19.8530 H   0  0  0  0  0  0
  -25.1258  -36.1897   25.0823 H   0  0  0  0  0  0
  -20.9991  -28.3237   24.1385 H   0  0  0  0  0  0
  -20.5606  -26.2267   23.3618 H   0  0  0  0  0  0
  -21.6640  -26.7364   22.1239 H   0  0  0  0  0  0
  -19.6905  -25.6258   21.1225 H   0  0  0  0  0  0
  -19.6682  -27.3158   20.6728 H   0  0  0  0  0  0
  -17.4184  -26.6624   21.4038 H   0  0  0  0  0  0
  -18.0342  -26.0048   22.9018 H   0  0  0  0  0  0
  -19.7956  -30.7239   24.2253 H   0  0  0  0  0  0
  -17.5038  -31.6267   24.5124 H   0  0  0  0  0  0
  -15.5361  -30.2967   23.7670 H   0  0  0  0  0  0
  -15.8670  -28.0803   22.7086 H   0  0  0  0  0  0
  -24.5855  -30.7147   25.7850 H   0  0  0  0  0  0
  -24.9004  -32.2958   26.4926 H   0  0  0  0  0  0
  -25.8094  -30.8923   27.0228 H   0  0  0  0  0  0
  -26.2872  -29.6744   24.1197 H   0  0  0  0  0  0
  -27.3925  -29.7211   25.4722 H   0  0  0  0  0  0
  -27.8781  -30.4212   23.9465 H   0  0  0  0  0  0
  -27.2624  -33.3566   26.2106 H   0  0  0  0  0  0
  -28.3823  -32.6923   25.0303 H   0  0  0  0  0  0
  -28.0737  -31.8407   26.5364 H   0  0  0  0  0  0
  -28.2536  -38.0129   24.7577 H   0  0  0  0  0  0
  -28.1128  -36.2668   24.6128 H   0  0  0  0  0  0
  -27.2337  -37.1254   25.8859 H   0  0  0  0  0  0
  -20.9347  -29.8773   21.6908 H   0  0  0  0  0  0
  -26.0132  -38.2835   24.1514 H   0  0  0  0  0  0
  -28.6827  -19.7143   19.8696 H   0  0  0  0  0  0
  -31.1234  -22.9384   22.8753 H   0  0  0  0  0  0
  -31.0976  -21.9572   24.3109 H   0  0  0  0  0  0
  -29.2605  -23.8712   23.9402 H   0  0  0  0  0  0
  -28.8452  -22.3916   24.7493 H   0  0  0  0  0  0
  -27.2520  -23.2670   22.8287 H   0  0  0  0  0  0
  -27.5301  -21.5845   23.0635 H   0  0  0  0  0  0
  -27.7026  -22.0048   20.6973 H   0  0  0  0  0  0
  -30.9459  -17.2253   19.6306 H   0  0  0  0  0  0
  -29.2271  -17.2855   19.5498 H   0  0  0  0  0  0
  -29.4826  -23.5960   19.7487 H   0  0  0  0  0  0
  -29.8705  -24.1080   21.3581 H   0  0  0  0  0  0
  -27.4687  -25.0299   21.5847 H   0  0  0  0  0  0
  -27.2135  -24.5542   19.9396 H   0  0  0  0  0  0
  -29.0333  -15.5826   21.2713 H   0  0  0  0  0  0
  1 25  1  0  0  0
  1 30  2  0  0  0
  1 84  1  0  0  0
  2  3  1  0  0  0
  2 25  1  0  0  0
  2 86  1  0  0  0
  2 87  1  0  0  0
  3  4  1  0  0  0
  3 88  1  0  0  0
  3 89  1  0  0  0
  4  5  1  0  0  0
  4 90  1  0  0  0
  4 91  1  0  0  0
  5  6  1  0  0  0
  5 26  1  0  0  0
  5 92  1  0  0  0
  6 25  1  0  0  0
  6 93  1  0  0  0
  6 94  1  0  0  0
  7  8  2  0  0  0
  7 26  1  0  0  0
  7 29  1  0  0  0
  8  9  1  0  0  0
  8 22  1  0  0  0
  9 10  1  0  0  0
  9 27  2  0  0  0
 10 11  2  0  0  0
 10 15  1  0  0  0
 11 12  1  0  0  0
 11 95  1  0  0  0
 12 13  2  0  0  0
 12 96  1  0  0  0
 13 14  1  0  0  0
 13 31  1  0  0  0
 14 15  2  0  0  0
 14 97  1  0  0  0
 15 98  1  0  0  0
 16 17  2  0  0  0
 16 21  1  0  0  0
 16 31  1  0  0  0
 17 18  1  0  0  0
 17 99  1  0  0  0
 18 19  2  0  0  0
 18100  1  0  0  0
 19 20  1  0  0  0
 19 24  1  0  0  0
 20 21  2  0  0  0
 20101  1  0  0  0
 21 23  1  0  0  0
 22 28  1  0  0  0
 22 32  2  0  0  0
 26 27  1  0  0  0
 28102  1  0  0  0
 28103  1  0  0  0
 29104  1  0  0  0
 29105  1  0  0  0
 33 34  1  0  0  0
 33 66  1  0  0  0
 33 70  2  0  0  0
 34 36  1  0  0  0
 34 59  1  0  0  0
 34106  1  0  0  0
 35 44  2  0  0  0
 35 45  1  0  0  0
 35 68  1  0  0  0
 36 56  1  0  0  0
 36107  1  0  0  0
 37 39  1  0  0  0
 37 47  1  0  0  0
 37 66  1  0  0  0
 37108  1  0  0  0
 38 43  2  0  0  0
 38 46  1  0  0  0
 38 47  1  0  0  0
 39 64  1  0  0  0
 39 67  2  0  0  0
 40 52  1  0  0  0
 40 53  2  0  0  0
 40 58  1  0  0  0
 41109  1  0  0  0
 41110  1  0  0  0
 41111  1  0  0  0
 41 48  1  0  0  0
 42 43  1  0  0  0
 42 66  1  0  0  0
 42112  1  0  0  0
 42113  1  0  0  0
 43 44  1  0  0  0
 44114  1  0  0  0
 45 46  2  0  0  0
 45115  1  0  0  0
 46116  1  0  0  0
 47117  1  0  0  0
 47118  1  0  0  0
 48 56  1  0  0  0
 48 65  1  0  0  0
 48119  1  0  0  0
 49 50  1  0  0  0
 49 53  1  0  0  0
 49 64  1  0  0  0
 49120  1  0  0  0
 50 51  1  0  0  0
 50121  1  0  0  0
 50122  1  0  0  0
 51 52  1  0  0  0
 51123  1  0  0  0
 51124  1  0  0  0
 52125  1  0  0  0
 52126  1  0  0  0
 53 54  1  0  0  0
 54 55  2  0  0  0
 54127  1  0  0  0
 55 57  1  0  0  0
 55128  1  0  0  0
 56 69  2  0  0  0
 57 58  2  0  0  0
 57129  1  0  0  0
 58130  1  0  0  0
 59 60  1  0  0  0
 59 61  1  0  0  0
 59 62  1  0  0  0
 60131  1  0  0  0
 60132  1  0  0  0
 60133  1  0  0  0
 61134  1  0  0  0
 61135  1  0  0  0
 61136  1  0  0  0
 62137  1  0  0  0
 62138  1  0  0  0
 62139  1  0  0  0
 63 65  1  0  0  0
 63140  1  0  0  0
 63141  1  0  0  0
 63142  1  0  0  0
 64143  1  0  0  0
 65144  1  0  0  0
 68 82  1  0  0  0
 71 72  2  0  0  0
 71 73  1  0  0  0
 71145  1  0  0  0
 72 74  1  0  0  0
 72 79  1  0  0  0
 73 75  2  0  0  0
 73 80  1  0  0  0
 74 76  1  0  0  0
 74 83  2  0  0  0
 75 83  1  0  0  0
 75 85  1  0  0  0
 76 77  1  0  0  0
 76146  1  0  0  0
 76147  1  0  0  0
 77 78  1  0  0  0
 77148  1  0  0  0
 77149  1  0  0  0
 78 79  1  0  0  0
 78150  1  0  0  0
 78151  1  0  0  0
 79 81  1  0  0  0
 79152  1  0  0  0
 80 84  1  0  0  0
 80153  1  0  0  0
 80154  1  0  0  0
 81 82  1  0  0  0
 81155  1  0  0  0
 81156  1  0  0  0
 82157  1  0  0  0
 82158  1  0  0  0
 84159  1  0  0  0
M  ISO  4   1 100  68 101  82 101  84 100
M  END
> <chiral flag>
0

> <version>
0

> <s_m_source_file>
/data/baiqing/PycharmProjects/Reinvent-master-3.2/result/LINK_invent/BTK/process_docking_weight1_custom_sum_contain_oxygen_bond_distance_aromatic_linkinvent_7_9_3/rearranged_h_0033.sdf

> <i_m_source_file_index>
46

> <r_mmod_Potential_Energy-OPLS-2005>
80.2522201538086

> <r_mmod_Stretch_Energy-OPLS-2005>
122.412384033203

> <r_mmod_Bend_Energy-OPLS-2005>
177.037384033203

> <r_mmod_Torsional_Energy-OPLS-2005>
251.257751464844

> <r_mmod_Improper_Torsional_Energy-OPLS-2005>
9.15490913391113

> <r_mmod_Van_der_Waal_Energy-OPLS-2005>
148.914794921875

> <r_mmod_Electrostatic_Energy-OPLS-2005>
-477.165863037109

> <r_mmod_Solvation_Energy-OPLS-2005>
-221.741577148438

> <b_mmod_Minimization_Converged-OPLS-2005>
0

> <r_mmod_RMS_Derivative-OPLS-2005>
4.84280586242676

$$$$
47
                    3D
 Structure written by MMmdl.
151159  0  0  1  0            999 V2000
  -30.3931  -15.3968   20.3476 C   0  0  0  0  0  0
  -30.4330  -12.8990   19.5459 C   0  0  0  0  0  0
  -29.5430  -12.6057   18.3089 C   0  0  0  0  0  0
  -28.0988  -12.3018   18.7376 C   0  0  0  0  0  0
  -27.6066  -13.2887   19.8236 C   0  0  2  0  0  0
  -28.6314  -13.5202   20.9573 C   0  0  0  0  0  0
  -25.2360  -13.8266   20.5766 C   0  0  0  0  0  0
  -24.1726  -13.0439   20.9269 C   0  0  0  0  0  0
  -24.6401  -11.6942   20.8764 C   0  0  0  0  0  0
  -23.9100  -10.4296   21.0403 C   0  0  0  0  0  0
  -24.3641   -9.4209   21.9183 C   0  0  0  0  0  0
  -23.6308   -8.2246   22.0753 C   0  0  0  0  0  0
  -22.4289   -8.0286   21.3544 C   0  0  0  0  0  0
  -21.9932   -9.0261   20.4644 C   0  0  0  0  0  0
  -22.7270  -10.2136   20.3054 C   0  0  0  0  0  0
  -21.6858   -6.0740   22.5279 C   0  0  0  0  0  0
  -21.4016   -6.5642   23.8213 C   0  0  0  0  0  0
  -21.3659   -5.6794   24.9174 C   0  0  0  0  0  0
  -21.6044   -4.3057   24.7225 C   0  0  0  0  0  0
  -21.8818   -3.8149   23.4345 C   0  0  0  0  0  0
  -21.9195   -4.6967   22.3402 C   0  0  0  0  0  0
  -22.7742  -13.5182   21.1911 C   0  0  0  0  0  0
  -22.1663   -4.2151   21.0980 F   0  0  0  0  0  0
  -21.5628   -3.4540   25.7738 F   0  0  0  0  0  0
  -29.8497  -14.0639   20.3288 N   0  0  0  0  0  0
  -26.2797  -12.9564   20.3235 N   0  0  0  0  0  0
  -25.9342  -11.6656   20.5721 N   0  0  0  0  0  0
  -22.0406  -12.8160   22.0465 N   0  0  0  0  0  0
  -25.3978  -15.2004   20.4203 N   0  0  0  0  0  0
  -31.6093  -15.3752   20.0982 O   0  0  0  0  0  0
  -21.6647   -6.8886   21.4242 O   0  0  0  0  0  0
  -22.3419  -14.5483   20.6752 O   0  0  0  0  0  0
  -24.6709  -31.8140   23.1637 C   0  0  0  0  0  0
  -25.9353  -32.4534   23.8127 C   0  0  1  0  0  0
  -27.2198  -26.8376   20.1931 C   0  0  0  0  0  0
  -25.5986  -33.8355   24.2021 N   0  0  0  0  0  0
  -23.4906  -30.4223   21.5140 C   0  0  2  0  0  0
  -24.9471  -28.7949   20.1097 C   0  0  0  0  0  0
  -22.7707  -29.4387   22.4745 C   0  0  0  0  0  0
  -18.0328  -28.1416   22.8459 C   0  0  0  0  0  0
  -24.1490  -36.7179   23.2651 C   0  0  0  0  0  0
  -26.0645  -30.5892   21.4111 C   0  0  0  0  0  0
  -26.1307  -29.1703   20.7563 C   0  0  0  0  0  0
  -27.2551  -28.2130   20.7762 C   0  0  0  0  0  0
  -26.0125  -26.6472   19.4779 C   0  0  0  0  0  0
  -24.9193  -27.5562   19.4490 C   0  0  0  0  0  0
  -23.7368  -29.7329   20.1425 C   0  0  0  0  0  0
  -25.4136  -36.2934   24.0292 C   0  0  1  0  0  0
  -20.5959  -28.3764   23.1164 C   0  0  2  0  0  0
  -20.6800  -26.9435   22.5401 C   0  0  0  0  0  0
  -19.5773  -26.6373   21.5214 C   0  0  0  0  0  0
  -18.1955  -26.7946   22.1619 C   0  0  0  0  0  0
  -19.1593  -28.8913   23.2794 C   0  0  0  0  0  0
  -18.9504  -30.1499   23.8834 C   0  0  0  0  0  0
  -17.6498  -30.6602   24.0552 C   0  0  0  0  0  0
  -25.9112  -34.9321   23.4984 C   0  0  0  0  0  0
  -16.5386  -29.9087   23.6349 C   0  0  0  0  0  0
  -16.7310  -28.6510   23.0364 C   0  0  0  0  0  0
  -26.4576  -31.6522   25.0699 C   0  0  0  0  0  0
  -25.3675  -31.3804   26.1335 C   0  0  0  0  0  0
  -27.0496  -30.2875   24.6514 C   0  0  0  0  0  0
  -27.6043  -32.4363   25.7507 C   0  0  0  0  0  0
  -27.5562  -37.1744   24.8468 C   0  0  0  0  0  0
  -21.4369  -29.3034   22.3497 N   0  0  0  0  0  0
  -26.4270  -37.3683   23.9414 N   0  0  0  0  0  0
  -24.7638  -30.9714   22.0824 N   0  0  0  0  0  0
  -23.4211  -28.7968   23.3029 O   0  0  0  0  0  0
  -28.1868  -25.6725   20.3141 O   0  0  0  0  0  0
  -26.5734  -34.8875   22.4588 O   0  0  0  0  0  0
  -23.5758  -32.1158   23.6670 O   0  0  0  0  0  0
  -28.8706  -21.2604   19.6649 C   0  0  0  0  0  0
  -29.2338  -20.0322   20.4076 C   0  0  0  0  0  0
  -29.1161  -20.7179   21.6783 C   0  0  0  0  0  0
  -28.7608  -22.0876   21.6607 C   0  0  0  0  0  0
  -27.0948  -23.1141   23.2679 C   0  0  0  0  0  0
  -29.8358  -18.3506   20.0167 C   0  0  0  0  0  0
  -28.5584  -23.0115   22.8228 C   0  0  0  0  0  0
  -27.9099  -24.1074   19.8592 C   0  0  0  0  0  0
  -28.5560  -22.5839   20.3596 N   0  0  0  0  0  0
  -29.6380  -16.7050   20.4450 N   0  0  0  0  0  0
  -29.4348  -19.8853   23.1564 Cl  0  0  0  0  0  0
  -31.4475  -13.1127   19.2076 H   0  0  0  0  0  0
  -30.5232  -12.0126   20.1760 H   0  0  0  0  0  0
  -29.9491  -11.7719   17.7345 H   0  0  0  0  0  0
  -29.5513  -13.4709   17.6443 H   0  0  0  0  0  0
  -28.0787  -11.2853   19.1327 H   0  0  0  0  0  0
  -27.4308  -12.3100   17.8753 H   0  0  0  0  0  0
  -27.5041  -14.2405   19.3007 H   0  0  0  0  0  0
  -28.8272  -12.6045   21.5170 H   0  0  0  0  0  0
  -28.2430  -14.2451   21.6743 H   0  0  0  0  0  0
  -25.2781   -9.5685   22.4765 H   0  0  0  0  0  0
  -24.0013   -7.4639   22.7476 H   0  0  0  0  0  0
  -21.0862   -8.8787   19.8949 H   0  0  0  0  0  0
  -22.3727  -10.9678   19.6166 H   0  0  0  0  0  0
  -21.2008   -7.6149   23.9717 H   0  0  0  0  0  0
  -21.1481   -6.0523   25.9077 H   0  0  0  0  0  0
  -22.0596   -2.7611   23.2846 H   0  0  0  0  0  0
  -22.4044  -11.9833   22.4855 H   0  0  0  0  0  0
  -21.1015  -13.1159   22.2668 H   0  0  0  0  0  0
  -24.6257  -15.8485   20.5317 H   0  0  0  0  0  0
  -26.2366  -15.6425   20.0682 H   0  0  0  0  0  0
  -26.7424  -32.5043   23.0837 H   0  0  0  0  0  0
  -25.0069  -33.9419   25.0128 H   0  0  0  0  0  0
  -22.8087  -31.2565   21.3362 H   0  0  0  0  0  0
  -23.3767  -35.9493   23.3278 H   0  0  0  0  0  0
  -24.3560  -36.8868   22.2071 H   0  0  0  0  0  0
  -23.7232  -37.6347   23.6740 H   0  0  0  0  0  0
  -26.2576  -31.3246   20.6291 H   0  0  0  0  0  0
  -26.9197  -30.6475   22.0722 H   0  0  0  0  0  0
  -28.1423  -28.4957   21.3252 H   0  0  0  0  0  0
  -25.8638  -25.7111   18.9611 H   0  0  0  0  0  0
  -24.0250  -27.2642   18.9155 H   0  0  0  0  0  0
  -23.8996  -30.4996   19.3841 H   0  0  0  0  0  0
  -22.8446  -29.1925   19.8212 H   0  0  0  0  0  0
  -25.1338  -36.1711   25.0781 H   0  0  0  0  0  0
  -21.0045  -28.3380   24.1289 H   0  0  0  0  0  0
  -20.5672  -26.2385   23.3652 H   0  0  0  0  0  0
  -21.6661  -26.7393   22.1212 H   0  0  0  0  0  0
  -19.6931  -25.6269   21.1280 H   0  0  0  0  0  0
  -19.6717  -27.3151   20.6719 H   0  0  0  0  0  0
  -17.4225  -26.6688   21.4023 H   0  0  0  0  0  0
  -18.0344  -26.0105   22.9032 H   0  0  0  0  0  0
  -19.7983  -30.7329   24.2174 H   0  0  0  0  0  0
  -17.5052  -31.6276   24.5166 H   0  0  0  0  0  0
  -15.5385  -30.2969   23.7716 H   0  0  0  0  0  0
  -15.8709  -28.0809   22.7116 H   0  0  0  0  0  0
  -24.5876  -30.7136   25.7640 H   0  0  0  0  0  0
  -24.8845  -32.3017   26.4602 H   0  0  0  0  0  0
  -25.7879  -30.9071   27.0217 H   0  0  0  0  0  0
  -26.3193  -29.6514   24.1503 H   0  0  0  0  0  0
  -27.3966  -29.7285   25.5216 H   0  0  0  0  0  0
  -27.9155  -30.4029   23.9995 H   0  0  0  0  0  0
  -27.2593  -33.3721   26.1916 H   0  0  0  0  0  0
  -28.3936  -32.6836   25.0396 H   0  0  0  0  0  0
  -28.0622  -31.8608   26.5561 H   0  0  0  0  0  0
  -28.2555  -38.0062   24.7517 H   0  0  0  0  0  0
  -28.1080  -36.2586   24.6293 H   0  0  0  0  0  0
  -27.2279  -37.1382   25.8871 H   0  0  0  0  0  0
  -20.9646  -29.8711   21.6600 H   0  0  0  0  0  0
  -26.0105  -38.2733   24.1435 H   0  0  0  0  0  0
  -28.7962  -21.3136   18.5869 H   0  0  0  0  0  0
  -26.9954  -23.7887   24.1186 H   0  0  0  0  0  0
  -26.7085  -22.1401   23.5695 H   0  0  0  0  0  0
  -26.4589  -23.4947   22.4686 H   0  0  0  0  0  0
  -30.9133  -18.4763   20.1264 H   0  0  0  0  0  0
  -29.6977  -18.3142   18.9360 H   0  0  0  0  0  0
  -28.9311  -24.0056   22.5726 H   0  0  0  0  0  0
  -29.1660  -22.6792   23.6648 H   0  0  0  0  0  0
  -26.8387  -23.9779   20.0111 H   0  0  0  0  0  0
  -28.0432  -24.1208   18.7772 H   0  0  0  0  0  0
  -28.6799  -16.5216   20.7049 H   0  0  0  0  0  0
  1 25  1  0  0  0
  1 30  2  0  0  0
  1 80  1  0  0  0
  2  3  1  0  0  0
  2 25  1  0  0  0
  2 82  1  0  0  0
  2 83  1  0  0  0
  3  4  1  0  0  0
  3 84  1  0  0  0
  3 85  1  0  0  0
  4  5  1  0  0  0
  4 86  1  0  0  0
  4 87  1  0  0  0
  5  6  1  0  0  0
  5 26  1  0  0  0
  5 88  1  0  0  0
  6 25  1  0  0  0
  6 89  1  0  0  0
  6 90  1  0  0  0
  7  8  2  0  0  0
  7 26  1  0  0  0
  7 29  1  0  0  0
  8  9  1  0  0  0
  8 22  1  0  0  0
  9 10  1  0  0  0
  9 27  2  0  0  0
 10 11  2  0  0  0
 10 15  1  0  0  0
 11 12  1  0  0  0
 11 91  1  0  0  0
 12 13  2  0  0  0
 12 92  1  0  0  0
 13 14  1  0  0  0
 13 31  1  0  0  0
 14 15  2  0  0  0
 14 93  1  0  0  0
 15 94  1  0  0  0
 16 17  2  0  0  0
 16 21  1  0  0  0
 16 31  1  0  0  0
 17 18  1  0  0  0
 17 95  1  0  0  0
 18 19  2  0  0  0
 18 96  1  0  0  0
 19 20  1  0  0  0
 19 24  1  0  0  0
 20 21  2  0  0  0
 20 97  1  0  0  0
 21 23  1  0  0  0
 22 28  1  0  0  0
 22 32  2  0  0  0
 26 27  1  0  0  0
 28 98  1  0  0  0
 28 99  1  0  0  0
 29100  1  0  0  0
 29101  1  0  0  0
 33 34  1  0  0  0
 33 66  1  0  0  0
 33 70  2  0  0  0
 34 36  1  0  0  0
 34 59  1  0  0  0
 34102  1  0  0  0
 35 44  2  0  0  0
 35 45  1  0  0  0
 35 68  1  0  0  0
 36 56  1  0  0  0
 36103  1  0  0  0
 37 39  1  0  0  0
 37 47  1  0  0  0
 37 66  1  0  0  0
 37104  1  0  0  0
 38 43  2  0  0  0
 38 46  1  0  0  0
 38 47  1  0  0  0
 39 64  1  0  0  0
 39 67  2  0  0  0
 40 52  1  0  0  0
 40 53  2  0  0  0
 40 58  1  0  0  0
 41105  1  0  0  0
 41106  1  0  0  0
 41107  1  0  0  0
 41 48  1  0  0  0
 42 43  1  0  0  0
 42 66  1  0  0  0
 42108  1  0  0  0
 42109  1  0  0  0
 43 44  1  0  0  0
 44110  1  0  0  0
 45 46  2  0  0  0
 45111  1  0  0  0
 46112  1  0  0  0
 47113  1  0  0  0
 47114  1  0  0  0
 48 56  1  0  0  0
 48 65  1  0  0  0
 48115  1  0  0  0
 49 50  1  0  0  0
 49 53  1  0  0  0
 49 64  1  0  0  0
 49116  1  0  0  0
 50 51  1  0  0  0
 50117  1  0  0  0
 50118  1  0  0  0
 51 52  1  0  0  0
 51119  1  0  0  0
 51120  1  0  0  0
 52121  1  0  0  0
 52122  1  0  0  0
 53 54  1  0  0  0
 54 55  2  0  0  0
 54123  1  0  0  0
 55 57  1  0  0  0
 55124  1  0  0  0
 56 69  2  0  0  0
 57 58  2  0  0  0
 57125  1  0  0  0
 58126  1  0  0  0
 59 60  1  0  0  0
 59 61  1  0  0  0
 59 62  1  0  0  0
 60127  1  0  0  0
 60128  1  0  0  0
 60129  1  0  0  0
 61130  1  0  0  0
 61131  1  0  0  0
 61132  1  0  0  0
 62133  1  0  0  0
 62134  1  0  0  0
 62135  1  0  0  0
 63 65  1  0  0  0
 63136  1  0  0  0
 63137  1  0  0  0
 63138  1  0  0  0
 64139  1  0  0  0
 65140  1  0  0  0
 68 78  1  0  0  0
 71 72  2  0  0  0
 71 79  1  0  0  0
 71141  1  0  0  0
 72 73  1  0  0  0
 72 76  1  0  0  0
 73 74  2  0  0  0
 73 81  1  0  0  0
 74 77  1  0  0  0
 74 79  1  0  0  0
 75 77  1  0  0  0
 75142  1  0  0  0
 75143  1  0  0  0
 75144  1  0  0  0
 76 80  1  0  0  0
 76145  1  0  0  0
 76146  1  0  0  0
 77147  1  0  0  0
 77148  1  0  0  0
 78 79  1  0  0  0
 78149  1  0  0  0
 78150  1  0  0  0
 80151  1  0  0  0
M  ISO  4   1 100  68 101  78 101  80 100
M  END
> <chiral flag>
0

> <version>
0

> <s_m_source_file>
/data/baiqing/PycharmProjects/Reinvent-master-3.2/result/LINK_invent/BTK/process_docking_weight1_custom_sum_contain_oxygen_bond_distance_aromatic_linkinvent_7_9_3/rearranged_h_0033.sdf

> <i_m_source_file_index>
47

> <r_mmod_Potential_Energy-OPLS-2005>
1567.69116210938

> <r_mmod_Stretch_Energy-OPLS-2005>
718.204956054688

> <r_mmod_Bend_Energy-OPLS-2005>
513.836120605469

> <r_mmod_Torsional_Energy-OPLS-2005>
214.64811706543

> <r_mmod_Improper_Torsional_Energy-OPLS-2005>
7.04966497421265

> <r_mmod_Van_der_Waal_Energy-OPLS-2005>
101.955024719238

> <r_mmod_Electrostatic_Energy-OPLS-2005>
-379.908203125

> <r_mmod_Solvation_Energy-OPLS-2005>
-217.583160400391

> <b_mmod_Minimization_Converged-OPLS-2005>
0

> <r_mmod_RMS_Derivative-OPLS-2005>
0.333392083644867

$$$$
48
                    3D
 Structure written by MMmdl.
162170  0  0  1  0            999 V2000
  -30.6256  -14.7088   20.4573 C   0  0  0  0  0  0
  -30.4314  -12.4245   19.4797 C   0  0  0  0  0  0
  -29.5079  -12.4938   18.2433 C   0  0  0  0  0  0
  -28.0295  -12.3332   18.6521 C   0  0  0  0  0  0
  -27.6407  -13.2312   19.8582 C   0  0  2  0  0  0
  -28.6913  -13.1482   20.9906 C   0  0  0  0  0  0
  -25.2467  -13.8183   20.5708 C   0  0  0  0  0  0
  -24.1743  -13.0418   20.9202 C   0  0  0  0  0  0
  -24.6348  -11.6906   20.8762 C   0  0  0  0  0  0
  -23.9020  -10.4286   21.0404 C   0  0  0  0  0  0
  -24.3600   -9.4217   21.9191 C   0  0  0  0  0  0
  -23.6308   -8.2236   22.0743 C   0  0  0  0  0  0
  -22.4300   -8.0265   21.3528 C   0  0  0  0  0  0
  -21.9918   -9.0223   20.4627 C   0  0  0  0  0  0
  -22.7194  -10.2128   20.3046 C   0  0  0  0  0  0
  -21.6856   -6.0764   22.5288 C   0  0  0  0  0  0
  -21.4003   -6.5659   23.8224 C   0  0  0  0  0  0
  -21.3665   -5.6808   24.9181 C   0  0  0  0  0  0
  -21.6062   -4.3066   24.7224 C   0  0  0  0  0  0
  -21.8803   -3.8159   23.4330 C   0  0  0  0  0  0
  -21.9180   -4.6990   22.3402 C   0  0  0  0  0  0
  -22.7763  -13.5202   21.1849 C   0  0  0  0  0  0
  -22.1644   -4.2190   21.0970 F   0  0  0  0  0  0
  -21.5656   -3.4528   25.7722 F   0  0  0  0  0  0
  -29.9947  -13.4885   20.4106 N   0  0  0  0  0  0
  -26.2915  -12.9389   20.3364 N   0  0  0  0  0  0
  -25.9293  -11.6529   20.5814 N   0  0  0  0  0  0
  -22.0450  -12.8163   22.0436 N   0  0  0  0  0  0
  -25.4120  -15.1905   20.4087 N   0  0  0  0  0  0
  -31.8084  -14.8083   20.1262 O   0  0  0  0  0  0
  -21.6642   -6.8887   21.4245 O   0  0  0  0  0  0
  -22.3443  -14.5505   20.6707 O   0  0  0  0  0  0
  -24.6379  -31.8542   23.1933 C   0  0  0  0  0  0
  -25.9185  -32.4740   23.8282 C   0  0  1  0  0  0
  -27.2088  -27.2284   20.1088 C   0  0  0  0  0  0
  -25.5963  -33.8543   24.2204 N   0  0  0  0  0  0
  -23.4325  -30.4797   21.5412 C   0  0  2  0  0  0
  -24.8756  -28.9240   20.1033 C   0  0  0  0  0  0
  -22.7532  -29.4608   22.4898 C   0  0  0  0  0  0
  -18.0302  -28.1378   22.8479 C   0  0  0  0  0  0
  -24.1512  -36.7283   23.2637 C   0  0  0  0  0  0
  -25.9854  -30.7476   21.3844 C   0  0  0  0  0  0
  -26.0512  -29.3723   20.7167 C   0  0  0  0  0  0
  -27.2210  -28.5376   20.7089 C   0  0  0  0  0  0
  -26.0066  -26.8632   19.4581 C   0  0  0  0  0  0
  -24.8625  -27.6805   19.4582 C   0  0  0  0  0  0
  -23.6489  -29.8157   20.1561 C   0  0  0  0  0  0
  -25.4141  -36.3059   24.0318 C   0  0  1  0  0  0
  -20.5919  -28.3717   23.1239 C   0  0  2  0  0  0
  -20.6799  -26.9426   22.5397 C   0  0  0  0  0  0
  -19.5760  -26.6374   21.5204 C   0  0  0  0  0  0
  -18.1940  -26.7920   22.1614 C   0  0  0  0  0  0
  -19.1562  -28.8863   23.2859 C   0  0  0  0  0  0
  -18.9479  -30.1456   23.8893 C   0  0  0  0  0  0
  -17.6478  -30.6590   24.0556 C   0  0  0  0  0  0
  -25.9091  -34.9432   23.5055 C   0  0  0  0  0  0
  -16.5368  -29.9085   23.6319 C   0  0  0  0  0  0
  -16.7285  -28.6490   23.0358 C   0  0  0  0  0  0
  -26.4502  -31.6594   25.0725 C   0  0  0  0  0  0
  -25.3671  -31.3776   26.1406 C   0  0  0  0  0  0
  -27.0390  -30.2998   24.6290 C   0  0  0  0  0  0
  -27.6053  -32.4342   25.7491 C   0  0  0  0  0  0
  -27.5580  -37.1805   24.8461 C   0  0  0  0  0  0
  -21.4249  -29.3057   22.3621 N   0  0  0  0  0  0
  -26.4304  -37.3761   23.9388 N   0  0  0  0  0  0
  -24.7046  -31.0464   22.0936 N   0  0  0  0  0  0
  -23.4198  -28.8143   23.3022 O   0  0  0  0  0  0
  -28.2822  -26.2947   20.1707 O   0  0  0  0  0  0
  -26.5664  -34.8900   22.4634 O   0  0  0  0  0  0
  -23.5517  -32.1384   23.7191 O   0  0  0  0  0  0
  -29.8639  -20.2243   18.2439 C   0  0  0  0  0  0
  -29.5612  -22.9729   17.9717 C   0  0  0  0  0  0
  -30.0830  -20.8181   16.9857 C   0  0  0  0  0  0
  -29.9223  -22.2096   16.8506 C   0  0  0  0  0  0
  -29.4909  -20.9606   19.3972 C   0  0  0  0  0  0
  -29.3037  -22.4233   19.2516 C   0  0  0  0  0  0
  -30.5348  -19.9619   15.8127 C   0  0  0  0  0  0
  -30.1184  -22.9234   15.5213 C   0  0  0  0  0  0
  -29.4264  -20.0656   20.6970 C   0  0  0  0  0  0
  -28.9552  -23.5544   20.3199 C   0  0  0  0  0  0
  -29.1604  -18.4507   20.6462 C   0  0  0  0  0  0
  -30.2875  -17.3023   20.5215 C   0  0  0  0  0  0
  -28.0039  -24.8271   19.9001 C   0  0  0  0  0  0
  -29.8612  -15.8446   20.6634 N   0  0  0  0  0  0
  -31.4765  -12.5352   19.1858 H   0  0  0  0  0  0
  -30.3637  -11.4505   19.9662 H   0  0  0  0  0  0
  -29.7849  -11.7305   17.5137 H   0  0  0  0  0  0
  -29.6376  -13.4580   17.7492 H   0  0  0  0  0  0
  -27.8573  -11.2829   18.8925 H   0  0  0  0  0  0
  -27.3757  -12.5449   17.8064 H   0  0  0  0  0  0
  -27.6351  -14.2550   19.4815 H   0  0  0  0  0  0
  -28.7197  -12.1415   21.4084 H   0  0  0  0  0  0
  -28.4445  -13.8153   21.8190 H   0  0  0  0  0  0
  -25.2734   -9.5745   22.4769 H   0  0  0  0  0  0
  -24.0057   -7.4627   22.7438 H   0  0  0  0  0  0
  -21.0874   -8.8666   19.8925 H   0  0  0  0  0  0
  -22.3589  -10.9665   19.6158 H   0  0  0  0  0  0
  -21.1968   -7.6166   23.9728 H   0  0  0  0  0  0
  -21.1530   -6.0544   25.9100 H   0  0  0  0  0  0
  -22.0586   -2.7624   23.2794 H   0  0  0  0  0  0
  -22.4111  -11.9828   22.4824 H   0  0  0  0  0  0
  -21.1070  -13.1176   22.2686 H   0  0  0  0  0  0
  -24.6365  -15.8363   20.5106 H   0  0  0  0  0  0
  -26.2543  -15.6382   20.0731 H   0  0  0  0  0  0
  -26.7265  -32.5344   23.1017 H   0  0  0  0  0  0
  -25.0095  -33.9679   25.0334 H   0  0  0  0  0  0
  -22.7296  -31.3060   21.3957 H   0  0  0  0  0  0
  -23.3761  -35.9631   23.3319 H   0  0  0  0  0  0
  -24.3577  -36.8897   22.2044 H   0  0  0  0  0  0
  -23.7282  -37.6496   23.6656 H   0  0  0  0  0  0
  -26.1428  -31.5074   20.6190 H   0  0  0  0  0  0
  -26.8551  -30.7844   22.0266 H   0  0  0  0  0  0
  -28.1193  -28.8720   21.2068 H   0  0  0  0  0  0
  -25.9047  -25.9153   18.9513 H   0  0  0  0  0  0
  -23.9680  -27.3373   18.9575 H   0  0  0  0  0  0
  -23.7693  -30.5953   19.4024 H   0  0  0  0  0  0
  -22.7627  -29.2579   19.8485 H   0  0  0  0  0  0
  -25.1322  -36.1902   25.0812 H   0  0  0  0  0  0
  -21.0002  -28.3312   24.1355 H   0  0  0  0  0  0
  -20.5707  -26.2335   23.3624 H   0  0  0  0  0  0
  -21.6667  -26.7457   22.1169 H   0  0  0  0  0  0
  -19.6940  -25.6272   21.1255 H   0  0  0  0  0  0
  -19.6690  -27.3177   20.6724 H   0  0  0  0  0  0
  -17.4213  -26.6669   21.4016 H   0  0  0  0  0  0
  -18.0346  -26.0063   22.9012 H   0  0  0  0  0  0
  -19.7961  -30.7272   24.2259 H   0  0  0  0  0  0
  -17.5031  -31.6264   24.5162 H   0  0  0  0  0  0
  -15.5362  -30.2981   23.7657 H   0  0  0  0  0  0
  -15.8680  -28.0796   22.7092 H   0  0  0  0  0  0
  -24.5819  -30.7187   25.7653 H   0  0  0  0  0  0
  -24.8896  -32.2985   26.4787 H   0  0  0  0  0  0
  -25.7905  -30.8912   27.0202 H   0  0  0  0  0  0
  -26.3018  -29.6717   24.1278 H   0  0  0  0  0  0
  -27.4002  -29.7296   25.4849 H   0  0  0  0  0  0
  -27.8904  -30.4246   23.9603 H   0  0  0  0  0  0
  -27.2660  -33.3641   26.2055 H   0  0  0  0  0  0
  -28.3854  -32.6918   25.0320 H   0  0  0  0  0  0
  -28.0741  -31.8495   26.5413 H   0  0  0  0  0  0
  -28.2610  -38.0088   24.7489 H   0  0  0  0  0  0
  -28.1073  -36.2619   24.6326 H   0  0  0  0  0  0
  -27.2292  -37.1494   25.8863 H   0  0  0  0  0  0
  -20.9439  -29.8773   21.6812 H   0  0  0  0  0  0
  -26.0193  -38.2848   24.1335 H   0  0  0  0  0  0
  -30.0275  -19.1590   18.3216 H   0  0  0  0  0  0
  -29.5051  -24.0441   17.8338 H   0  0  0  0  0  0
  -30.5108  -18.8960   16.0496 H   0  0  0  0  0  0
  -31.5584  -20.2202   15.5336 H   0  0  0  0  0  0
  -29.9019  -20.1270   14.9404 H   0  0  0  0  0  0
  -30.5857  -23.8973   15.6683 H   0  0  0  0  0  0
  -29.1480  -23.0940   15.0525 H   0  0  0  0  0  0
  -30.7433  -22.3698   14.8219 H   0  0  0  0  0  0
  -28.6042  -20.4819   21.2773 H   0  0  0  0  0  0
  -30.3168  -20.2617   21.2928 H   0  0  0  0  0  0
  -29.9158  -23.9491   20.6472 H   0  0  0  0  0  0
  -28.5323  -23.0623   21.1990 H   0  0  0  0  0  0
  -28.3554  -18.2388   19.9434 H   0  0  0  0  0  0
  -28.7152  -18.2379   21.6170 H   0  0  0  0  0  0
  -31.0560  -17.4698   21.2770 H   0  0  0  0  0  0
  -30.7925  -17.4037   19.5604 H   0  0  0  0  0  0
  -27.0523  -24.5956   20.3822 H   0  0  0  0  0  0
  -27.7739  -24.7506   18.8378 H   0  0  0  0  0  0
  -28.8921  -15.6863   20.9002 H   0  0  0  0  0  0
  1 25  1  0  0  0
  1 30  2  0  0  0
  1 84  1  0  0  0
  2  3  1  0  0  0
  2 25  1  0  0  0
  2 85  1  0  0  0
  2 86  1  0  0  0
  3  4  1  0  0  0
  3 87  1  0  0  0
  3 88  1  0  0  0
  4  5  1  0  0  0
  4 89  1  0  0  0
  4 90  1  0  0  0
  5  6  1  0  0  0
  5 26  1  0  0  0
  5 91  1  0  0  0
  6 25  1  0  0  0
  6 92  1  0  0  0
  6 93  1  0  0  0
  7  8  2  0  0  0
  7 26  1  0  0  0
  7 29  1  0  0  0
  8  9  1  0  0  0
  8 22  1  0  0  0
  9 10  1  0  0  0
  9 27  2  0  0  0
 10 11  2  0  0  0
 10 15  1  0  0  0
 11 12  1  0  0  0
 11 94  1  0  0  0
 12 13  2  0  0  0
 12 95  1  0  0  0
 13 14  1  0  0  0
 13 31  1  0  0  0
 14 15  2  0  0  0
 14 96  1  0  0  0
 15 97  1  0  0  0
 16 17  2  0  0  0
 16 21  1  0  0  0
 16 31  1  0  0  0
 17 18  1  0  0  0
 17 98  1  0  0  0
 18 19  2  0  0  0
 18 99  1  0  0  0
 19 20  1  0  0  0
 19 24  1  0  0  0
 20 21  2  0  0  0
 20100  1  0  0  0
 21 23  1  0  0  0
 22 28  1  0  0  0
 22 32  2  0  0  0
 26 27  1  0  0  0
 28101  1  0  0  0
 28102  1  0  0  0
 29103  1  0  0  0
 29104  1  0  0  0
 33 34  1  0  0  0
 33 66  1  0  0  0
 33 70  2  0  0  0
 34 36  1  0  0  0
 34 59  1  0  0  0
 34105  1  0  0  0
 35 44  2  0  0  0
 35 45  1  0  0  0
 35 68  1  0  0  0
 36 56  1  0  0  0
 36106  1  0  0  0
 37 39  1  0  0  0
 37 47  1  0  0  0
 37 66  1  0  0  0
 37107  1  0  0  0
 38 43  2  0  0  0
 38 46  1  0  0  0
 38 47  1  0  0  0
 39 64  1  0  0  0
 39 67  2  0  0  0
 40 52  1  0  0  0
 40 53  2  0  0  0
 40 58  1  0  0  0
 41108  1  0  0  0
 41109  1  0  0  0
 41110  1  0  0  0
 41 48  1  0  0  0
 42 43  1  0  0  0
 42 66  1  0  0  0
 42111  1  0  0  0
 42112  1  0  0  0
 43 44  1  0  0  0
 44113  1  0  0  0
 45 46  2  0  0  0
 45114  1  0  0  0
 46115  1  0  0  0
 47116  1  0  0  0
 47117  1  0  0  0
 48 56  1  0  0  0
 48 65  1  0  0  0
 48118  1  0  0  0
 49 50  1  0  0  0
 49 53  1  0  0  0
 49 64  1  0  0  0
 49119  1  0  0  0
 50 51  1  0  0  0
 50120  1  0  0  0
 50121  1  0  0  0
 51 52  1  0  0  0
 51122  1  0  0  0
 51123  1  0  0  0
 52124  1  0  0  0
 52125  1  0  0  0
 53 54  1  0  0  0
 54 55  2  0  0  0
 54126  1  0  0  0
 55 57  1  0  0  0
 55127  1  0  0  0
 56 69  2  0  0  0
 57 58  2  0  0  0
 57128  1  0  0  0
 58129  1  0  0  0
 59 60  1  0  0  0
 59 61  1  0  0  0
 59 62  1  0  0  0
 60130  1  0  0  0
 60131  1  0  0  0
 60132  1  0  0  0
 61133  1  0  0  0
 61134  1  0  0  0
 61135  1  0  0  0
 62136  1  0  0  0
 62137  1  0  0  0
 62138  1  0  0  0
 63 65  1  0  0  0
 63139  1  0  0  0
 63140  1  0  0  0
 63141  1  0  0  0
 64142  1  0  0  0
 65143  1  0  0  0
 68 83  1  0  0  0
 71 73  2  0  0  0
 71 75  1  0  0  0
 71144  1  0  0  0
 72 74  2  0  0  0
 72 76  1  0  0  0
 72145  1  0  0  0
 73 74  1  0  0  0
 73 77  1  0  0  0
 74 78  1  0  0  0
 75 76  2  0  0  0
 75 79  1  0  0  0
 76 80  1  0  0  0
 77146  1  0  0  0
 77147  1  0  0  0
 77148  1  0  0  0
 78149  1  0  0  0
 78150  1  0  0  0
 78151  1  0  0  0
 79 81  1  0  0  0
 79152  1  0  0  0
 79153  1  0  0  0
 80 83  1  0  0  0
 80154  1  0  0  0
 80155  1  0  0  0
 81 82  1  0  0  0
 81156  1  0  0  0
 81157  1  0  0  0
 82 84  1  0  0  0
 82158  1  0  0  0
 82159  1  0  0  0
 83160  1  0  0  0
 83161  1  0  0  0
 84162  1  0  0  0
M  ISO  4   1 100  68 101  83 101  84 100
M  END
> <chiral flag>
0

> <version>
0

> <s_m_source_file>
/data/baiqing/PycharmProjects/Reinvent-master-3.2/result/LINK_invent/BTK/process_docking_weight1_custom_sum_contain_oxygen_bond_distance_aromatic_linkinvent_7_9_3/rearranged_h_0033.sdf

> <i_m_source_file_index>
48

> <r_mmod_Potential_Energy-OPLS-2005>
213.469970703125

> <r_mmod_Stretch_Energy-OPLS-2005>
141.573638916016

> <r_mmod_Bend_Energy-OPLS-2005>
205.667251586914

> <r_mmod_Torsional_Energy-OPLS-2005>
217.876205444336

> <r_mmod_Improper_Torsional_Energy-OPLS-2005>
5.37658071517944

> <r_mmod_Van_der_Waal_Energy-OPLS-2005>
148.361526489258

> <r_mmod_Electrostatic_Energy-OPLS-2005>
-384.616546630859

> <r_mmod_Solvation_Energy-OPLS-2005>
-210.391036987305

> <b_mmod_Minimization_Converged-OPLS-2005>
0

> <r_mmod_RMS_Derivative-OPLS-2005>
4.73129749298096

$$$$
49
                    3D
 Structure written by MMmdl.
153161  0  0  1  0            999 V2000
  -30.6320  -14.7093   20.4457 C   0  0  0  0  0  0
  -30.4259  -12.4331   19.4660 C   0  0  0  0  0  0
  -29.5050  -12.5046   18.2282 C   0  0  0  0  0  0
  -28.0321  -12.3341   18.6449 C   0  0  0  0  0  0
  -27.6411  -13.2325   19.8491 C   0  0  2  0  0  0
  -28.6859  -13.1637   20.9834 C   0  0  0  0  0  0
  -25.2507  -13.8203   20.5712 C   0  0  0  0  0  0
  -24.1800  -13.0447   20.9223 C   0  0  0  0  0  0
  -24.6390  -11.6928   20.8761 C   0  0  0  0  0  0
  -23.9071  -10.4304   21.0417 C   0  0  0  0  0  0
  -24.3620   -9.4211   21.9183 C   0  0  0  0  0  0
  -23.6296   -8.2242   22.0761 C   0  0  0  0  0  0
  -22.4268   -8.0287   21.3553 C   0  0  0  0  0  0
  -21.9904   -9.0264   20.4648 C   0  0  0  0  0  0
  -22.7247  -10.2144   20.3054 C   0  0  0  0  0  0
  -21.6856   -6.0732   22.5284 C   0  0  0  0  0  0
  -21.4015   -6.5637   23.8221 C   0  0  0  0  0  0
  -21.3661   -5.6794   24.9182 C   0  0  0  0  0  0
  -21.6040   -4.3055   24.7230 C   0  0  0  0  0  0
  -21.8818   -3.8144   23.4348 C   0  0  0  0  0  0
  -21.9190   -4.6959   22.3407 C   0  0  0  0  0  0
  -22.7814  -13.5245   21.1870 C   0  0  0  0  0  0
  -22.1666   -4.2151   21.0983 F   0  0  0  0  0  0
  -21.5620   -3.4537   25.7737 F   0  0  0  0  0  0
  -29.9889  -13.4965   20.3994 N   0  0  0  0  0  0
  -26.2936  -12.9418   20.3270 N   0  0  0  0  0  0
  -25.9318  -11.6561   20.5742 N   0  0  0  0  0  0
  -22.0441  -12.8251   22.0420 N   0  0  0  0  0  0
  -25.4197  -15.1932   20.4185 N   0  0  0  0  0  0
  -31.8226  -14.7840   20.1370 O   0  0  0  0  0  0
  -21.6641   -6.8872   21.4243 O   0  0  0  0  0  0
  -22.3513  -14.5546   20.6708 O   0  0  0  0  0  0
  -24.6298  -31.8585   23.2028 C   0  0  0  0  0  0
  -25.9147  -32.4755   23.8332 C   0  0  1  0  0  0
  -27.1930  -27.2658   20.1134 C   0  0  0  0  0  0
  -25.5969  -33.8559   24.2260 N   0  0  0  0  0  0
  -23.4234  -30.4865   21.5464 C   0  0  2  0  0  0
  -24.8647  -28.9473   20.1024 C   0  0  0  0  0  0
  -22.7492  -29.4599   22.4897 C   0  0  0  0  0  0
  -18.0284  -28.1381   22.8464 C   0  0  0  0  0  0
  -24.1499  -36.7279   23.2627 C   0  0  0  0  0  0
  -25.9702  -30.7695   21.3866 C   0  0  0  0  0  0
  -26.0384  -29.3959   20.7228 C   0  0  0  0  0  0
  -27.2042  -28.5646   20.7260 C   0  0  0  0  0  0
  -26.0058  -26.9109   19.4305 C   0  0  0  0  0  0
  -24.8533  -27.7127   19.4444 C   0  0  0  0  0  0
  -23.6401  -29.8366   20.1558 C   0  0  0  0  0  0
  -25.4121  -36.3067   24.0309 C   0  0  1  0  0  0
  -20.5887  -28.3685   23.1274 C   0  0  2  0  0  0
  -20.6778  -26.9408   22.5394 C   0  0  0  0  0  0
  -19.5760  -26.6383   21.5188 C   0  0  0  0  0  0
  -18.1935  -26.7917   22.1597 C   0  0  0  0  0  0
  -19.1536  -28.8848   23.2863 C   0  0  0  0  0  0
  -18.9459  -30.1449   23.8893 C   0  0  0  0  0  0
  -17.6462  -30.6577   24.0568 C   0  0  0  0  0  0
  -25.9069  -34.9441   23.5083 C   0  0  0  0  0  0
  -16.5354  -29.9080   23.6320 C   0  0  0  0  0  0
  -16.7271  -28.6493   23.0339 C   0  0  0  0  0  0
  -26.4521  -31.6568   25.0711 C   0  0  0  0  0  0
  -25.3737  -31.3737   26.1429 C   0  0  0  0  0  0
  -27.0364  -30.2975   24.6200 C   0  0  0  0  0  0
  -27.6068  -32.4308   25.7492 C   0  0  0  0  0  0
  -27.5572  -37.1796   24.8458 C   0  0  0  0  0  0
  -21.4194  -29.3055   22.3682 N   0  0  0  0  0  0
  -26.4291  -37.3763   23.9404 N   0  0  0  0  0  0
  -24.6935  -31.0557   22.1005 N   0  0  0  0  0  0
  -23.4203  -28.8092   23.2949 O   0  0  0  0  0  0
  -28.2567  -26.3349   20.2024 O   0  0  0  0  0  0
  -26.5622  -34.8920   22.4635 O   0  0  0  0  0  0
  -23.5459  -32.1411   23.7330 O   0  0  0  0  0  0
  -29.8432  -19.8841   19.7991 C   0  0  0  0  0  0
  -29.5717  -18.5802   20.3816 C   0  0  0  0  0  0
  -28.8274  -20.7633   20.1526 C   0  0  0  0  0  0
  -26.7393  -20.3320   21.5448 C   0  0  0  0  0  0
  -30.4290  -17.2566   20.3024 C   0  0  0  0  0  0
  -28.4247  -22.2104   19.6662 C   0  0  0  0  0  0
  -28.7677  -23.6037   20.4044 C   0  0  0  0  0  0
  -27.9661  -24.8966   19.8650 C   0  0  0  0  0  0
  -28.4499  -18.6709   21.0854 N   0  0  0  0  0  0
  -28.0041  -19.9620   20.9403 N   0  0  0  0  0  0
  -29.8929  -15.8670   20.5966 N   0  0  0  0  0  0
  -31.4689  -12.5432   19.1656 H   0  0  0  0  0  0
  -30.3558  -11.4557   19.9475 H   0  0  0  0  0  0
  -29.7806  -11.7375   17.5030 H   0  0  0  0  0  0
  -29.6415  -13.4609   17.7208 H   0  0  0  0  0  0
  -27.8850  -11.2856   18.9073 H   0  0  0  0  0  0
  -27.3762  -12.5325   17.7964 H   0  0  0  0  0  0
  -27.6366  -14.2550   19.4716 H   0  0  0  0  0  0
  -28.7130  -12.1676   21.4281 H   0  0  0  0  0  0
  -28.4306  -13.8539   21.7902 H   0  0  0  0  0  0
  -25.2756   -9.5684   22.4768 H   0  0  0  0  0  0
  -23.9997   -7.4633   22.7481 H   0  0  0  0  0  0
  -21.0825   -8.8793   19.8960 H   0  0  0  0  0  0
  -22.3704  -10.9685   19.6167 H   0  0  0  0  0  0
  -21.2016   -7.6147   23.9724 H   0  0  0  0  0  0
  -21.1481   -6.0518   25.9088 H   0  0  0  0  0  0
  -22.0589   -2.7597   23.2855 H   0  0  0  0  0  0
  -22.4075  -11.9948   22.4865 H   0  0  0  0  0  0
  -21.1054  -13.1297   22.2593 H   0  0  0  0  0  0
  -24.6503  -15.8444   20.5300 H   0  0  0  0  0  0
  -26.2683  -15.6412   20.0981 H   0  0  0  0  0  0
  -26.7181  -32.5398   23.1043 H   0  0  0  0  0  0
  -25.0173  -33.9685   25.0446 H   0  0  0  0  0  0
  -22.7188  -31.3088   21.4089 H   0  0  0  0  0  0
  -23.3756  -35.9616   23.3293 H   0  0  0  0  0  0
  -24.3595  -36.8906   22.2043 H   0  0  0  0  0  0
  -23.7269  -37.6480   23.6662 H   0  0  0  0  0  0
  -26.1156  -31.5337   20.6228 H   0  0  0  0  0  0
  -26.8458  -30.8117   22.0228 H   0  0  0  0  0  0
  -28.0947  -28.8931   21.2433 H   0  0  0  0  0  0
  -25.9196  -25.9884   18.8772 H   0  0  0  0  0  0
  -23.9653  -27.3785   18.9263 H   0  0  0  0  0  0
  -23.7700  -30.6228   19.4112 H   0  0  0  0  0  0
  -22.7572  -29.2782   19.8395 H   0  0  0  0  0  0
  -25.1306  -36.1887   25.0793 H   0  0  0  0  0  0
  -20.9980  -28.3282   24.1395 H   0  0  0  0  0  0
  -20.5672  -26.2298   23.3605 H   0  0  0  0  0  0
  -21.6653  -26.7447   22.1196 H   0  0  0  0  0  0
  -19.6940  -25.6294   21.1222 H   0  0  0  0  0  0
  -19.6708  -27.3201   20.6720 H   0  0  0  0  0  0
  -17.4193  -26.6634   21.4009 H   0  0  0  0  0  0
  -18.0358  -26.0060   22.8993 H   0  0  0  0  0  0
  -19.7946  -30.7249   24.2275 H   0  0  0  0  0  0
  -17.5020  -31.6250   24.5200 H   0  0  0  0  0  0
  -15.5356  -30.2988   23.7645 H   0  0  0  0  0  0
  -15.8659  -28.0818   22.7068 H   0  0  0  0  0  0
  -24.5922  -30.7070   25.7759 H   0  0  0  0  0  0
  -24.8912  -32.2912   26.4800 H   0  0  0  0  0  0
  -25.8043  -30.8952   27.0233 H   0  0  0  0  0  0
  -26.2940  -29.6718   24.1219 H   0  0  0  0  0  0
  -27.4049  -29.7240   25.4715 H   0  0  0  0  0  0
  -27.8838  -30.4233   23.9456 H   0  0  0  0  0  0
  -27.2668  -33.3611   26.2050 H   0  0  0  0  0  0
  -28.3900  -32.6843   25.0336 H   0  0  0  0  0  0
  -28.0710  -31.8436   26.5430 H   0  0  0  0  0  0
  -28.2580  -38.0098   24.7497 H   0  0  0  0  0  0
  -28.1083  -36.2629   24.6298 H   0  0  0  0  0  0
  -27.2298  -37.1462   25.8863 H   0  0  0  0  0  0
  -20.9369  -29.8859   21.6964 H   0  0  0  0  0  0
  -26.0167  -38.2832   24.1404 H   0  0  0  0  0  0
  -30.6728  -20.1257   19.1494 H   0  0  0  0  0  0
  -25.9822  -20.4463   20.7672 H   0  0  0  0  0  0
  -26.8457  -21.2816   22.0707 H   0  0  0  0  0  0
  -26.4058  -19.5704   22.2505 H   0  0  0  0  0  0
  -31.2997  -17.3925   20.9454 H   0  0  0  0  0  0
  -30.8383  -17.2041   19.2921 H   0  0  0  0  0  0
  -27.3425  -22.1999   19.5271 H   0  0  0  0  0  0
  -28.8046  -22.3122   18.6497 H   0  0  0  0  0  0
  -29.8397  -23.7804   20.3384 H   0  0  0  0  0  0
  -28.5441  -23.4946   21.4659 H   0  0  0  0  0  0
  -26.9438  -24.6764   20.1757 H   0  0  0  0  0  0
  -27.9690  -24.8460   18.7759 H   0  0  0  0  0  0
  -28.9124  -15.7915   20.8195 H   0  0  0  0  0  0
  1 25  1  0  0  0
  1 30  2  0  0  0
  1 81  1  0  0  0
  2  3  1  0  0  0
  2 25  1  0  0  0
  2 82  1  0  0  0
  2 83  1  0  0  0
  3  4  1  0  0  0
  3 84  1  0  0  0
  3 85  1  0  0  0
  4  5  1  0  0  0
  4 86  1  0  0  0
  4 87  1  0  0  0
  5  6  1  0  0  0
  5 26  1  0  0  0
  5 88  1  0  0  0
  6 25  1  0  0  0
  6 89  1  0  0  0
  6 90  1  0  0  0
  7  8  2  0  0  0
  7 26  1  0  0  0
  7 29  1  0  0  0
  8  9  1  0  0  0
  8 22  1  0  0  0
  9 10  1  0  0  0
  9 27  2  0  0  0
 10 11  2  0  0  0
 10 15  1  0  0  0
 11 12  1  0  0  0
 11 91  1  0  0  0
 12 13  2  0  0  0
 12 92  1  0  0  0
 13 14  1  0  0  0
 13 31  1  0  0  0
 14 15  2  0  0  0
 14 93  1  0  0  0
 15 94  1  0  0  0
 16 17  2  0  0  0
 16 21  1  0  0  0
 16 31  1  0  0  0
 17 18  1  0  0  0
 17 95  1  0  0  0
 18 19  2  0  0  0
 18 96  1  0  0  0
 19 20  1  0  0  0
 19 24  1  0  0  0
 20 21  2  0  0  0
 20 97  1  0  0  0
 21 23  1  0  0  0
 22 28  1  0  0  0
 22 32  2  0  0  0
 26 27  1  0  0  0
 28 98  1  0  0  0
 28 99  1  0  0  0
 29100  1  0  0  0
 29101  1  0  0  0
 33 34  1  0  0  0
 33 66  1  0  0  0
 33 70  2  0  0  0
 34 36  1  0  0  0
 34 59  1  0  0  0
 34102  1  0  0  0
 35 44  2  0  0  0
 35 45  1  0  0  0
 35 68  1  0  0  0
 36 56  1  0  0  0
 36103  1  0  0  0
 37 39  1  0  0  0
 37 47  1  0  0  0
 37 66  1  0  0  0
 37104  1  0  0  0
 38 43  2  0  0  0
 38 46  1  0  0  0
 38 47  1  0  0  0
 39 64  1  0  0  0
 39 67  2  0  0  0
 40 52  1  0  0  0
 40 53  2  0  0  0
 40 58  1  0  0  0
 41105  1  0  0  0
 41106  1  0  0  0
 41107  1  0  0  0
 41 48  1  0  0  0
 42 43  1  0  0  0
 42 66  1  0  0  0
 42108  1  0  0  0
 42109  1  0  0  0
 43 44  1  0  0  0
 44110  1  0  0  0
 45 46  2  0  0  0
 45111  1  0  0  0
 46112  1  0  0  0
 47113  1  0  0  0
 47114  1  0  0  0
 48 56  1  0  0  0
 48 65  1  0  0  0
 48115  1  0  0  0
 49 50  1  0  0  0
 49 53  1  0  0  0
 49 64  1  0  0  0
 49116  1  0  0  0
 50 51  1  0  0  0
 50117  1  0  0  0
 50118  1  0  0  0
 51 52  1  0  0  0
 51119  1  0  0  0
 51120  1  0  0  0
 52121  1  0  0  0
 52122  1  0  0  0
 53 54  1  0  0  0
 54 55  2  0  0  0
 54123  1  0  0  0
 55 57  1  0  0  0
 55124  1  0  0  0
 56 69  2  0  0  0
 57 58  2  0  0  0
 57125  1  0  0  0
 58126  1  0  0  0
 59 60  1  0  0  0
 59 61  1  0  0  0
 59 62  1  0  0  0
 60127  1  0  0  0
 60128  1  0  0  0
 60129  1  0  0  0
 61130  1  0  0  0
 61131  1  0  0  0
 61132  1  0  0  0
 62133  1  0  0  0
 62134  1  0  0  0
 62135  1  0  0  0
 63 65  1  0  0  0
 63136  1  0  0  0
 63137  1  0  0  0
 63138  1  0  0  0
 64139  1  0  0  0
 65140  1  0  0  0
 68 78  1  0  0  0
 71 72  1  0  0  0
 71 73  2  0  0  0
 71141  1  0  0  0
 72 75  1  0  0  0
 72 79  2  0  0  0
 73 76  1  0  0  0
 73 80  1  0  0  0
 74 80  1  0  0  0
 74142  1  0  0  0
 74143  1  0  0  0
 74144  1  0  0  0
 75 81  1  0  0  0
 75145  1  0  0  0
 75146  1  0  0  0
 76 77  1  0  0  0
 76147  1  0  0  0
 76148  1  0  0  0
 77 78  1  0  0  0
 77149  1  0  0  0
 77150  1  0  0  0
 78151  1  0  0  0
 78152  1  0  0  0
 79 80  1  0  0  0
 81153  1  0  0  0
M  ISO  4   1 100  68 101  78 101  81 100
M  END
> <chiral flag>
0

> <version>
0

> <s_m_source_file>
/data/baiqing/PycharmProjects/Reinvent-master-3.2/result/LINK_invent/BTK/process_docking_weight1_custom_sum_contain_oxygen_bond_distance_aromatic_linkinvent_7_9_3/rearranged_h_0033.sdf

> <i_m_source_file_index>
49

> <r_mmod_Potential_Energy-OPLS-2005>
-17.6677379608154

> <r_mmod_Stretch_Energy-OPLS-2005>
103.910446166992

> <r_mmod_Bend_Energy-OPLS-2005>
168.945770263672

> <r_mmod_Torsional_Energy-OPLS-2005>
209.407836914062

> <r_mmod_Improper_Torsional_Energy-OPLS-2005>
6.64900779724121

> <r_mmod_Van_der_Waal_Energy-OPLS-2005>
125.543716430664

> <r_mmod_Electrostatic_Energy-OPLS-2005>
-498.152130126953

> <r_mmod_Solvation_Energy-OPLS-2005>
-217.625442504883

> <b_mmod_Minimization_Converged-OPLS-2005>
0

> <r_mmod_RMS_Derivative-OPLS-2005>
2.82450747489929

$$$$
50
                    3D
 Structure written by MMmdl.
183191  0  0  1  0            999 V2000
  -30.7549  -14.3917   20.6376 C   0  0  0  0  0  0
  -30.4122  -12.2891   19.3988 C   0  0  0  0  0  0
  -29.4831  -12.5279   18.1924 C   0  0  0  0  0  0
  -28.0057  -12.3902   18.6071 C   0  0  0  0  0  0
  -27.6650  -13.2096   19.8809 C   0  0  2  0  0  0
  -28.7066  -12.9557   20.9953 C   0  0  0  0  0  0
  -25.2582  -13.8160   20.5685 C   0  0  0  0  0  0
  -24.1857  -13.0462   20.9173 C   0  0  0  0  0  0
  -24.6395  -11.6909   20.8740 C   0  0  0  0  0  0
  -23.9065  -10.4308   21.0398 C   0  0  0  0  0  0
  -24.3614   -9.4223   21.9179 C   0  0  0  0  0  0
  -23.6297   -8.2249   22.0743 C   0  0  0  0  0  0
  -22.4272   -8.0282   21.3535 C   0  0  0  0  0  0
  -21.9910   -9.0261   20.4634 C   0  0  0  0  0  0
  -22.7236  -10.2137   20.3046 C   0  0  0  0  0  0
  -21.6860   -6.0739   22.5273 C   0  0  0  0  0  0
  -21.4014   -6.5644   23.8207 C   0  0  0  0  0  0
  -21.3663   -5.6794   24.9164 C   0  0  0  0  0  0
  -21.6041   -4.3055   24.7215 C   0  0  0  0  0  0
  -21.8823   -3.8146   23.4336 C   0  0  0  0  0  0
  -21.9194   -4.6963   22.3398 C   0  0  0  0  0  0
  -22.7855  -13.5229   21.1869 C   0  0  0  0  0  0
  -22.1665   -4.2148   21.0972 F   0  0  0  0  0  0
  -21.5634   -3.4540   25.7728 F   0  0  0  0  0  0
  -30.0452  -13.2486   20.4507 N   0  0  0  0  0  0
  -26.3045  -12.9355   20.3385 N   0  0  0  0  0  0
  -25.9329  -11.6511   20.5771 N   0  0  0  0  0  0
  -22.0502  -12.8220   22.0391 N   0  0  0  0  0  0
  -25.4345  -15.1891   20.4088 N   0  0  0  0  0  0
  -31.8377  -14.6075   20.0850 O   0  0  0  0  0  0
  -21.6640   -6.8871   21.4226 O   0  0  0  0  0  0
  -22.3537  -14.5557   20.6716 O   0  0  0  0  0  0
  -24.5940  -31.8675   23.2225 C   0  0  0  0  0  0
  -25.8887  -32.4854   23.8465 C   0  0  1  0  0  0
  -27.2371  -27.5076   20.0729 C   0  0  0  0  0  0
  -25.5805  -33.8675   24.2372 N   0  0  0  0  0  0
  -23.3762  -30.4897   21.5616 C   0  0  2  0  0  0
  -24.8353  -28.9801   20.1192 C   0  0  0  0  0  0
  -22.7291  -29.4541   22.5093 C   0  0  0  0  0  0
  -18.0136  -28.1380   22.8401 C   0  0  0  0  0  0
  -24.1470  -36.7337   23.2615 C   0  0  0  0  0  0
  -25.9016  -30.8650   21.3687 C   0  0  0  0  0  0
  -25.9896  -29.5059   20.7103 C   0  0  0  0  0  0
  -27.1964  -28.7796   20.6780 C   0  0  0  0  0  0
  -26.0579  -26.9859   19.4795 C   0  0  0  0  0  0
  -24.8641  -27.7224   19.4923 C   0  0  0  0  0  0
  -23.5928  -29.8310   20.1722 C   0  0  0  0  0  0
  -25.4112  -36.3155   24.0264 C   0  0  1  0  0  0
  -20.5771  -28.3402   23.1436 C   0  0  2  0  0  0
  -20.6677  -26.9261   22.5181 C   0  0  0  0  0  0
  -19.5636  -26.6548   21.4922 C   0  0  0  0  0  0
  -18.1749  -26.8050   22.1265 C   0  0  0  0  0  0
  -19.1427  -28.8685   23.2996 C   0  0  0  0  0  0
  -18.9372  -30.1266   23.9090 C   0  0  0  0  0  0
  -17.6370  -30.6437   24.0778 C   0  0  0  0  0  0
  -25.8986  -34.9485   23.5125 C   0  0  0  0  0  0
  -16.5243  -29.9010   23.6455 C   0  0  0  0  0  0
  -16.7130  -28.6539   23.0253 C   0  0  0  0  0  0
  -26.4465  -31.6549   25.0704 C   0  0  0  0  0  0
  -25.3821  -31.3596   26.1511 C   0  0  0  0  0  0
  -27.0300  -30.2981   24.5975 C   0  0  0  0  0  0
  -27.6034  -32.4273   25.7487 C   0  0  0  0  0  0
  -27.5574  -37.1812   24.8437 C   0  0  0  0  0  0
  -21.4022  -29.2848   22.3928 N   0  0  0  0  0  0
  -26.4298  -37.3842   23.9384 N   0  0  0  0  0  0
  -24.6395  -31.0863   22.1104 N   0  0  0  0  0  0
  -23.4154  -28.8108   23.3071 O   0  0  0  0  0  0
  -28.4309  -26.8200   20.1071 O   0  0  0  0  0  0
  -26.5610  -34.8874   22.4741 O   0  0  0  0  0  0
  -23.5139  -32.1380   23.7649 O   0  0  0  0  0  0
  -24.8154  -21.6321   21.2602 C   0  0  0  0  0  0
  -26.0912  -23.2940   22.5172 C   0  0  0  0  0  0
  -26.4090  -23.0583   20.1082 C   0  0  0  0  0  0
  -25.1332  -22.2633   22.4825 C   0  0  0  0  0  0
  -25.4475  -22.0329   20.0589 C   0  0  0  0  0  0
  -26.7371  -23.6991   21.3279 C   0  0  0  0  0  0
  -24.4027  -21.8662   23.7471 C   0  0  0  0  0  0
  -25.1117  -21.4185   18.6973 C   0  0  0  0  0  0
  -27.6684  -24.9038   21.4080 C   0  0  0  0  0  0
  -24.2374  -20.1486   18.7423 C   0  0  0  0  0  0
  -24.3633  -19.2330   17.5151 C   0  0  0  0  0  0
  -25.6374  -18.3530   17.4735 C   0  0  0  0  0  0
  -26.6723  -18.7552   16.3961 C   0  0  0  0  0  0
  -28.0687  -19.1094   16.9457 C   0  0  0  0  0  0
  -29.0401  -17.9156   17.0144 C   0  0  0  0  0  0
  -30.1457  -18.0863   18.0670 C   0  0  0  0  0  0
  -29.7112  -17.5636   19.4421 C   0  0  0  0  0  0
  -30.8887  -17.5397   20.4306 C   0  0  0  0  0  0
  -30.6626  -16.6723   21.6904 C   0  0  0  0  0  0
  -28.3496  -25.3971   20.1043 C   0  0  0  0  0  0
  -30.1706  -15.3162   21.4133 N   0  0  0  0  0  0
  -31.4566  -12.3757   19.0935 H   0  0  0  0  0  0
  -30.2993  -11.2700   19.7703 H   0  0  0  0  0  0
  -29.7141  -11.8242   17.3917 H   0  0  0  0  0  0
  -29.6577  -13.5241   17.7823 H   0  0  0  0  0  0
  -27.8066  -11.3326   18.7823 H   0  0  0  0  0  0
  -27.3556  -12.6885   17.7837 H   0  0  0  0  0  0
  -27.7198  -14.2639   19.6070 H   0  0  0  0  0  0
  -28.6709  -11.9117   21.3120 H   0  0  0  0  0  0
  -28.4674  -13.5346   21.8879 H   0  0  0  0  0  0
  -25.2755   -9.5699   22.4764 H   0  0  0  0  0  0
  -24.0014   -7.4628   22.7461 H   0  0  0  0  0  0
  -21.0842   -8.8772   19.8939 H   0  0  0  0  0  0
  -22.3700  -10.9671   19.6156 H   0  0  0  0  0  0
  -21.2004   -7.6151   23.9704 H   0  0  0  0  0  0
  -21.1489   -6.0525   25.9066 H   0  0  0  0  0  0
  -22.0598   -2.7608   23.2836 H   0  0  0  0  0  0
  -22.4118  -11.9859   22.4776 H   0  0  0  0  0  0
  -21.1098  -13.1216   22.2591 H   0  0  0  0  0  0
  -24.6730  -15.8507   20.5111 H   0  0  0  0  0  0
  -26.2974  -15.6202   20.1038 H   0  0  0  0  0  0
  -26.6951  -32.5634   23.1243 H   0  0  0  0  0  0
  -24.9973  -33.9920   25.0502 H   0  0  0  0  0  0
  -22.6447  -31.2908   21.4263 H   0  0  0  0  0  0
  -23.3740  -35.9677   23.3305 H   0  0  0  0  0  0
  -24.3499  -36.8980   22.2033 H   0  0  0  0  0  0
  -23.7215  -37.6510   23.6671 H   0  0  0  0  0  0
  -25.9903  -31.6512   20.6205 H   0  0  0  0  0  0
  -26.7990  -30.9362   21.9713 H   0  0  0  0  0  0
  -28.0999  -29.1889   21.1089 H   0  0  0  0  0  0
  -26.0260  -26.0230   18.9923 H   0  0  0  0  0  0
  -23.9820  -27.3240   19.0106 H   0  0  0  0  0  0
  -23.6815  -30.6146   19.4143 H   0  0  0  0  0  0
  -22.7335  -29.2306   19.8726 H   0  0  0  0  0  0
  -25.1321  -36.2027   25.0746 H   0  0  0  0  0  0
  -20.9836  -28.2718   24.1565 H   0  0  0  0  0  0
  -20.5658  -26.1710   23.3010 H   0  0  0  0  0  0
  -21.6563  -26.7546   22.0888 H   0  0  0  0  0  0
  -19.6795  -25.6607   21.0584 H   0  0  0  0  0  0
  -19.6583  -27.3580   20.6641 H   0  0  0  0  0  0
  -17.4126  -26.7076   21.3494 H   0  0  0  0  0  0
  -17.9855  -26.0137   22.8533 H   0  0  0  0  0  0
  -19.7878  -30.7007   24.2548 H   0  0  0  0  0  0
  -17.4844  -31.6059   24.5517 H   0  0  0  0  0  0
  -15.5217  -30.2823   23.7928 H   0  0  0  0  0  0
  -15.8461  -28.1006   22.6857 H   0  0  0  0  0  0
  -24.6000  -30.6916   25.7882 H   0  0  0  0  0  0
  -24.9030  -32.2780   26.4914 H   0  0  0  0  0  0
  -25.8255  -30.8806   27.0258 H   0  0  0  0  0  0
  -26.2833  -29.6758   24.1033 H   0  0  0  0  0  0
  -27.4175  -29.7102   25.4314 H   0  0  0  0  0  0
  -27.8615  -30.4310   23.9053 H   0  0  0  0  0  0
  -27.2612  -33.3568   26.2037 H   0  0  0  0  0  0
  -28.3896  -32.6818   25.0376 H   0  0  0  0  0  0
  -28.0680  -31.8430   26.5443 H   0  0  0  0  0  0
  -28.2573  -38.0129   24.7564 H   0  0  0  0  0  0
  -28.1106  -36.2659   24.6259 H   0  0  0  0  0  0
  -27.2255  -37.1437   25.8822 H   0  0  0  0  0  0
  -20.9048  -29.8559   21.7258 H   0  0  0  0  0  0
  -26.0159  -38.2865   24.1579 H   0  0  0  0  0  0
  -24.0591  -20.8624   21.2564 H   0  0  0  0  0  0
  -26.2924  -23.8114   23.4521 H   0  0  0  0  0  0
  -26.8414  -23.3608   19.1667 H   0  0  0  0  0  0
  -24.7677  -20.9097   24.1203 H   0  0  0  0  0  0
  -23.3328  -21.7789   23.5544 H   0  0  0  0  0  0
  -24.5457  -22.6137   24.5295 H   0  0  0  0  0  0
  -26.0447  -21.2037   18.1736 H   0  0  0  0  0  0
  -24.6093  -22.1801   18.0929 H   0  0  0  0  0  0
  -28.4297  -24.7621   22.1791 H   0  0  0  0  0  0
  -27.0222  -25.6885   21.7955 H   0  0  0  0  0  0
  -23.1950  -20.4495   18.8558 H   0  0  0  0  0  0
  -24.4685  -19.5389   19.6136 H   0  0  0  0  0  0
  -24.2242  -19.8063   16.5991 H   0  0  0  0  0  0
  -23.5080  -18.5570   17.5509 H   0  0  0  0  0  0
  -25.3162  -17.3365   17.2369 H   0  0  0  0  0  0
  -26.0927  -18.2712   18.4650 H   0  0  0  0  0  0
  -26.3072  -19.5914   15.7969 H   0  0  0  0  0  0
  -26.7652  -17.9288   15.6908 H   0  0  0  0  0  0
  -27.9713  -19.5903   17.9193 H   0  0  0  0  0  0
  -28.5257  -19.8595   16.2971 H   0  0  0  0  0  0
  -29.5087  -17.7828   16.0378 H   0  0  0  0  0  0
  -28.5036  -16.9859   17.2113 H   0  0  0  0  0  0
  -30.4763  -19.1244   18.1418 H   0  0  0  0  0  0
  -31.0216  -17.5152   17.7522 H   0  0  0  0  0  0
  -29.3131  -16.5575   19.3108 H   0  0  0  0  0  0
  -28.8953  -18.1660   19.8452 H   0  0  0  0  0  0
  -31.1238  -18.5631   20.7311 H   0  0  0  0  0  0
  -31.7805  -17.1777   19.9174 H   0  0  0  0  0  0
  -29.9434  -17.1705   22.3425 H   0  0  0  0  0  0
  -31.5967  -16.6082   22.2534 H   0  0  0  0  0  0
  -27.8627  -25.1050   19.1793 H   0  0  0  0  0  0
  -29.3494  -24.9742   20.0256 H   0  0  0  0  0  0
  -29.2877  -15.0585   21.8302 H   0  0  0  0  0  0
  1 25  1  0  0  0
  1 30  2  0  0  0
  1 91  1  0  0  0
  2  3  1  0  0  0
  2 25  1  0  0  0
  2 92  1  0  0  0
  2 93  1  0  0  0
  3  4  1  0  0  0
  3 94  1  0  0  0
  3 95  1  0  0  0
  4  5  1  0  0  0
  4 96  1  0  0  0
  4 97  1  0  0  0
  5  6  1  0  0  0
  5 26  1  0  0  0
  5 98  1  0  0  0
  6 25  1  0  0  0
  6 99  1  0  0  0
  6100  1  0  0  0
  7  8  2  0  0  0
  7 26  1  0  0  0
  7 29  1  0  0  0
  8  9  1  0  0  0
  8 22  1  0  0  0
  9 10  1  0  0  0
  9 27  2  0  0  0
 10 11  2  0  0  0
 10 15  1  0  0  0
 11 12  1  0  0  0
 11101  1  0  0  0
 12 13  2  0  0  0
 12102  1  0  0  0
 13 14  1  0  0  0
 13 31  1  0  0  0
 14 15  2  0  0  0
 14103  1  0  0  0
 15104  1  0  0  0
 16 17  2  0  0  0
 16 21  1  0  0  0
 16 31  1  0  0  0
 17 18  1  0  0  0
 17105  1  0  0  0
 18 19  2  0  0  0
 18106  1  0  0  0
 19 20  1  0  0  0
 19 24  1  0  0  0
 20 21  2  0  0  0
 20107  1  0  0  0
 21 23  1  0  0  0
 22 28  1  0  0  0
 22 32  2  0  0  0
 26 27  1  0  0  0
 28108  1  0  0  0
 28109  1  0  0  0
 29110  1  0  0  0
 29111  1  0  0  0
 33 34  1  0  0  0
 33 66  1  0  0  0
 33 70  2  0  0  0
 34 36  1  0  0  0
 34 59  1  0  0  0
 34112  1  0  0  0
 35 44  2  0  0  0
 35 45  1  0  0  0
 35 68  1  0  0  0
 36 56  1  0  0  0
 36113  1  0  0  0
 37 39  1  0  0  0
 37 47  1  0  0  0
 37 66  1  0  0  0
 37114  1  0  0  0
 38 43  2  0  0  0
 38 46  1  0  0  0
 38 47  1  0  0  0
 39 64  1  0  0  0
 39 67  2  0  0  0
 40 52  1  0  0  0
 40 53  2  0  0  0
 40 58  1  0  0  0
 41115  1  0  0  0
 41116  1  0  0  0
 41117  1  0  0  0
 41 48  1  0  0  0
 42 43  1  0  0  0
 42 66  1  0  0  0
 42118  1  0  0  0
 42119  1  0  0  0
 43 44  1  0  0  0
 44120  1  0  0  0
 45 46  2  0  0  0
 45121  1  0  0  0
 46122  1  0  0  0
 47123  1  0  0  0
 47124  1  0  0  0
 48 56  1  0  0  0
 48 65  1  0  0  0
 48125  1  0  0  0
 49 50  1  0  0  0
 49 53  1  0  0  0
 49 64  1  0  0  0
 49126  1  0  0  0
 50 51  1  0  0  0
 50127  1  0  0  0
 50128  1  0  0  0
 51 52  1  0  0  0
 51129  1  0  0  0
 51130  1  0  0  0
 52131  1  0  0  0
 52132  1  0  0  0
 53 54  1  0  0  0
 54 55  2  0  0  0
 54133  1  0  0  0
 55 57  1  0  0  0
 55134  1  0  0  0
 56 69  2  0  0  0
 57 58  2  0  0  0
 57135  1  0  0  0
 58136  1  0  0  0
 59 60  1  0  0  0
 59 61  1  0  0  0
 59 62  1  0  0  0
 60137  1  0  0  0
 60138  1  0  0  0
 60139  1  0  0  0
 61140  1  0  0  0
 61141  1  0  0  0
 61142  1  0  0  0
 62143  1  0  0  0
 62144  1  0  0  0
 62145  1  0  0  0
 63 65  1  0  0  0
 63146  1  0  0  0
 63147  1  0  0  0
 63148  1  0  0  0
 64149  1  0  0  0
 65150  1  0  0  0
 68 90  1  0  0  0
 71 74  2  0  0  0
 71 75  1  0  0  0
 71151  1  0  0  0
 72 74  1  0  0  0
 72 76  2  0  0  0
 72152  1  0  0  0
 73 75  2  0  0  0
 73 76  1  0  0  0
 73153  1  0  0  0
 74 77  1  0  0  0
 75 78  1  0  0  0
 76 79  1  0  0  0
 77154  1  0  0  0
 77155  1  0  0  0
 77156  1  0  0  0
 78 80  1  0  0  0
 78157  1  0  0  0
 78158  1  0  0  0
 79 90  1  0  0  0
 79159  1  0  0  0
 79160  1  0  0  0
 80 81  1  0  0  0
 80161  1  0  0  0
 80162  1  0  0  0
 81 82  1  0  0  0
 81163  1  0  0  0
 81164  1  0  0  0
 82 83  1  0  0  0
 82165  1  0  0  0
 82166  1  0  0  0
 83 84  1  0  0  0
 83167  1  0  0  0
 83168  1  0  0  0
 84 85  1  0  0  0
 84169  1  0  0  0
 84170  1  0  0  0
 85 86  1  0  0  0
 85171  1  0  0  0
 85172  1  0  0  0
 86 87  1  0  0  0
 86173  1  0  0  0
 86174  1  0  0  0
 87 88  1  0  0  0
 87175  1  0  0  0
 87176  1  0  0  0
 88 89  1  0  0  0
 88177  1  0  0  0
 88178  1  0  0  0
 89 91  1  0  0  0
 89179  1  0  0  0
 89180  1  0  0  0
 90181  1  0  0  0
 90182  1  0  0  0
 91183  1  0  0  0
M  ISO  4   1 100  68 101  90 101  91 100
M  END
> <chiral flag>
0

> <version>
0

> <s_m_source_file>
/data/baiqing/PycharmProjects/Reinvent-master-3.2/result/LINK_invent/BTK/process_docking_weight1_custom_sum_contain_oxygen_bond_distance_aromatic_linkinvent_7_9_3/rearranged_h_0033.sdf

> <i_m_source_file_index>
50

> <r_mmod_Potential_Energy-OPLS-2005>
20.1204853057861

> <r_mmod_Stretch_Energy-OPLS-2005>
37.0452919006348

> <r_mmod_Bend_Energy-OPLS-2005>
111.65266418457

> <r_mmod_Torsional_Energy-OPLS-2005>
252.298797607422

> <r_mmod_Improper_Torsional_Energy-OPLS-2005>
2.52690124511719

> <r_mmod_Van_der_Waal_Energy-OPLS-2005>
161.239959716797

> <r_mmod_Electrostatic_Energy-OPLS-2005>
-364.520690917969

> <r_mmod_Solvation_Energy-OPLS-2005>
-190.344131469727

> <b_mmod_Minimization_Converged-OPLS-2005>
0

> <r_mmod_RMS_Derivative-OPLS-2005>
7.19515085220337

$$$$
51
                    3D
 Structure written by MMmdl.
168176  0  0  1  0            999 V2000
  -30.7560  -14.3815   20.6310 C   0  0  0  0  0  0
  -30.4137  -12.2806   19.3955 C   0  0  0  0  0  0
  -29.4823  -12.5215   18.1926 C   0  0  0  0  0  0
  -28.0068  -12.3857   18.6101 C   0  0  0  0  0  0
  -27.6678  -13.2051   19.8824 C   0  0  2  0  0  0
  -28.7080  -12.9530   20.9959 C   0  0  0  0  0  0
  -25.2619  -13.8159   20.5699 C   0  0  0  0  0  0
  -24.1856  -13.0445   20.9158 C   0  0  0  0  0  0
  -24.6406  -11.6906   20.8727 C   0  0  0  0  0  0
  -23.9067  -10.4299   21.0403 C   0  0  0  0  0  0
  -24.3626   -9.4210   21.9184 C   0  0  0  0  0  0
  -23.6299   -8.2241   22.0755 C   0  0  0  0  0  0
  -22.4275   -8.0291   21.3550 C   0  0  0  0  0  0
  -21.9918   -9.0257   20.4644 C   0  0  0  0  0  0
  -22.7242  -10.2140   20.3052 C   0  0  0  0  0  0
  -21.6863   -6.0740   22.5283 C   0  0  0  0  0  0
  -21.4012   -6.5646   23.8209 C   0  0  0  0  0  0
  -21.3649   -5.6800   24.9173 C   0  0  0  0  0  0
  -21.6038   -4.3064   24.7228 C   0  0  0  0  0  0
  -21.8825   -3.8152   23.4350 C   0  0  0  0  0  0
  -21.9196   -4.6964   22.3407 C   0  0  0  0  0  0
  -22.7882  -13.5231   21.1842 C   0  0  0  0  0  0
  -22.1671   -4.2143   21.0988 F   0  0  0  0  0  0
  -21.5629   -3.4547   25.7742 F   0  0  0  0  0  0
  -30.0471  -13.2378   20.4504 N   0  0  0  0  0  0
  -26.3068  -12.9335   20.3410 N   0  0  0  0  0  0
  -25.9340  -11.6494   20.5770 N   0  0  0  0  0  0
  -22.0538  -12.8201   22.0387 N   0  0  0  0  0  0
  -25.4357  -15.1872   20.4108 N   0  0  0  0  0  0
  -31.8188  -14.6167   20.0500 O   0  0  0  0  0  0
  -21.6645   -6.8884   21.4245 O   0  0  0  0  0  0
  -22.3556  -14.5540   20.6698 O   0  0  0  0  0  0
  -24.6060  -31.8724   23.2132 C   0  0  0  0  0  0
  -25.8979  -32.4851   23.8411 C   0  0  1  0  0  0
  -27.2620  -27.4888   20.0992 C   0  0  0  0  0  0
  -25.5863  -33.8646   24.2348 N   0  0  0  0  0  0
  -23.3922  -30.4926   21.5524 C   0  0  2  0  0  0
  -24.8430  -28.9611   20.1199 C   0  0  0  0  0  0
  -22.7362  -29.4671   22.5034 C   0  0  0  0  0  0
  -18.0257  -28.1367   22.8501 C   0  0  0  0  0  0
  -24.1481  -36.7332   23.2640 C   0  0  0  0  0  0
  -25.9105  -30.8570   21.3551 C   0  0  0  0  0  0
  -25.9931  -29.4905   20.7138 C   0  0  0  0  0  0
  -27.1994  -28.7657   20.7084 C   0  0  0  0  0  0
  -26.0925  -26.9682   19.5064 C   0  0  0  0  0  0
  -24.8840  -27.6926   19.5156 C   0  0  0  0  0  0
  -23.5985  -29.8174   20.1682 C   0  0  0  0  0  0
  -25.4100  -36.3130   24.0344 C   0  0  1  0  0  0
  -20.5838  -28.3642   23.1350 C   0  0  2  0  0  0
  -20.6746  -26.9386   22.5429 C   0  0  0  0  0  0
  -19.5728  -26.6383   21.5216 C   0  0  0  0  0  0
  -18.1907  -26.7918   22.1625 C   0  0  0  0  0  0
  -19.1504  -28.8817   23.2923 C   0  0  0  0  0  0
  -18.9437  -30.1430   23.8924 C   0  0  0  0  0  0
  -17.6444  -30.6580   24.0564 C   0  0  0  0  0  0
  -25.9020  -34.9492   23.5144 C   0  0  0  0  0  0
  -16.5334  -29.9085   23.6319 C   0  0  0  0  0  0
  -16.7250  -28.6498   23.0346 C   0  0  0  0  0  0
  -26.4435  -31.6613   25.0713 C   0  0  0  0  0  0
  -25.3723  -31.3694   26.1477 C   0  0  0  0  0  0
  -27.0264  -30.3073   24.6032 C   0  0  0  0  0  0
  -27.6016  -32.4324   25.7475 C   0  0  0  0  0  0
  -27.5579  -37.1821   24.8463 C   0  0  0  0  0  0
  -21.4099  -29.3014   22.3768 N   0  0  0  0  0  0
  -26.4295  -37.3808   23.9401 N   0  0  0  0  0  0
  -24.6541  -31.0877   22.1000 N   0  0  0  0  0  0
  -23.4169  -28.8224   23.3058 O   0  0  0  0  0  0
  -28.3915  -26.7040   20.0040 O   0  0  0  0  0  0
  -26.5591  -34.8936   22.4712 O   0  0  0  0  0  0
  -23.5275  -32.1445   23.7574 O   0  0  0  0  0  0
  -31.9452  -23.1898   19.4046 C   0  0  0  0  0  0
  -30.3812  -25.0936   18.0725 C   0  0  0  0  0  0
  -31.7616  -24.4642   19.9793 C   0  0  0  0  0  0
  -31.3544  -22.8494   18.1656 C   0  0  0  0  0  0
  -30.9831  -25.4333   19.3016 C   0  0  0  0  0  0
  -30.5618  -23.8185   17.5039 C   0  0  0  0  0  0
  -32.4257  -24.7650   21.3132 C   0  0  0  0  0  0
  -31.6091  -21.4877   17.5126 C   0  0  0  0  0  0
  -30.8008  -26.8440   19.8494 C   0  0  0  0  0  0
  -31.9951  -20.3262   18.4516 C   0  0  0  0  0  0
  -30.8260  -19.7953   19.2997 C   0  0  0  0  0  0
  -31.2845  -18.7767   20.3603 C   0  0  0  0  0  0
  -30.3000  -17.6128   20.5509 C   0  0  0  0  0  0
  -30.7435  -16.6338   21.6592 C   0  0  0  0  0  0
  -29.5704  -27.0014   20.7549 C   0  0  0  0  0  0
  -30.2025  -15.2912   21.4441 N   0  0  0  0  0  0
  -29.8193  -23.4874   15.9774 Cl  0  0  0  0  0  0
  -31.4569  -12.3702   19.0871 H   0  0  0  0  0  0
  -30.3042  -11.2585   19.7633 H   0  0  0  0  0  0
  -29.7079  -11.8197   17.3897 H   0  0  0  0  0  0
  -29.6565  -13.5181   17.7840 H   0  0  0  0  0  0
  -27.8071  -11.3284   18.7840 H   0  0  0  0  0  0
  -27.3550  -12.6858   17.7892 H   0  0  0  0  0  0
  -27.7246  -14.2581   19.6062 H   0  0  0  0  0  0
  -28.6696  -11.9127   21.3202 H   0  0  0  0  0  0
  -28.4697  -13.5370   21.8855 H   0  0  0  0  0  0
  -25.2779   -9.5682   22.4747 H   0  0  0  0  0  0
  -24.0013   -7.4630   22.7478 H   0  0  0  0  0  0
  -21.0850   -8.8783   19.8944 H   0  0  0  0  0  0
  -22.3715  -10.9684   19.6158 H   0  0  0  0  0  0
  -21.2005   -7.6155   23.9703 H   0  0  0  0  0  0
  -21.1465   -6.0541   25.9071 H   0  0  0  0  0  0
  -22.0609   -2.7611   23.2858 H   0  0  0  0  0  0
  -22.4165  -11.9843   22.4733 H   0  0  0  0  0  0
  -21.1150  -13.1202   22.2607 H   0  0  0  0  0  0
  -24.6745  -15.8482   20.5201 H   0  0  0  0  0  0
  -26.2969  -15.6243   20.1080 H   0  0  0  0  0  0
  -26.7061  -32.5600   23.1200 H   0  0  0  0  0  0
  -24.9989  -33.9818   25.0475 H   0  0  0  0  0  0
  -22.6765  -31.3059   21.4128 H   0  0  0  0  0  0
  -23.3737  -35.9675   23.3324 H   0  0  0  0  0  0
  -24.3575  -36.8920   22.2050 H   0  0  0  0  0  0
  -23.7241  -37.6550   23.6635 H   0  0  0  0  0  0
  -26.0043  -31.6200   20.5808 H   0  0  0  0  0  0
  -26.8040  -30.9260   21.9640 H   0  0  0  0  0  0
  -28.0555  -29.2364   21.1619 H   0  0  0  0  0  0
  -26.1224  -25.9975   19.0315 H   0  0  0  0  0  0
  -23.9996  -27.2739   19.0540 H   0  0  0  0  0  0
  -23.6957  -30.5885   19.4026 H   0  0  0  0  0  0
  -22.7265  -29.2267   19.8811 H   0  0  0  0  0  0
  -25.1276  -36.2011   25.0841 H   0  0  0  0  0  0
  -20.9926  -28.3191   24.1471 H   0  0  0  0  0  0
  -20.5644  -26.2240   23.3603 H   0  0  0  0  0  0
  -21.6620  -26.7433   22.1221 H   0  0  0  0  0  0
  -19.6890  -25.6301   21.1222 H   0  0  0  0  0  0
  -19.6673  -27.3211   20.6761 H   0  0  0  0  0  0
  -17.4179  -26.6673   21.4025 H   0  0  0  0  0  0
  -18.0306  -26.0051   22.9006 H   0  0  0  0  0  0
  -19.7912  -30.7236   24.2307 H   0  0  0  0  0  0
  -17.4999  -31.6264   24.5159 H   0  0  0  0  0  0
  -15.5335  -30.2998   23.7627 H   0  0  0  0  0  0
  -15.8649  -28.0830   22.7048 H   0  0  0  0  0  0
  -24.5873  -30.7069   25.7803 H   0  0  0  0  0  0
  -24.8942  -32.2850   26.4973 H   0  0  0  0  0  0
  -25.8093  -30.8815   27.0200 H   0  0  0  0  0  0
  -26.2802  -29.6863   24.1061 H   0  0  0  0  0  0
  -27.4036  -29.7265   25.4459 H   0  0  0  0  0  0
  -27.8625  -30.4419   23.9165 H   0  0  0  0  0  0
  -27.2626  -33.3592   26.2112 H   0  0  0  0  0  0
  -28.3794  -32.6938   25.0289 H   0  0  0  0  0  0
  -28.0721  -31.8417   26.5344 H   0  0  0  0  0  0
  -28.2606  -38.0107   24.7504 H   0  0  0  0  0  0
  -28.1066  -36.2642   24.6299 H   0  0  0  0  0  0
  -27.2301  -37.1487   25.8868 H   0  0  0  0  0  0
  -20.9249  -29.8741   21.6999 H   0  0  0  0  0  0
  -26.0194  -38.2894   24.1395 H   0  0  0  0  0  0
  -32.5648  -22.4815   19.9320 H   0  0  0  0  0  0
  -29.7803  -25.8227   17.5474 H   0  0  0  0  0  0
  -32.7530  -23.8490   21.8066 H   0  0  0  0  0  0
  -31.7416  -25.2704   21.9945 H   0  0  0  0  0  0
  -33.3013  -25.3981   21.1693 H   0  0  0  0  0  0
  -32.4030  -21.6288   16.7778 H   0  0  0  0  0  0
  -30.7295  -21.1777   16.9496 H   0  0  0  0  0  0
  -30.7194  -27.5412   19.0147 H   0  0  0  0  0  0
  -31.6958  -27.1550   20.3888 H   0  0  0  0  0  0
  -32.8506  -20.5847   19.0731 H   0  0  0  0  0  0
  -32.3444  -19.5010   17.8285 H   0  0  0  0  0  0
  -30.0953  -19.3417   18.6280 H   0  0  0  0  0  0
  -30.3044  -20.6160   19.7944 H   0  0  0  0  0  0
  -31.4524  -19.2937   21.3071 H   0  0  0  0  0  0
  -32.2500  -18.3556   20.0728 H   0  0  0  0  0  0
  -30.2178  -17.0876   19.5980 H   0  0  0  0  0  0
  -29.3017  -17.9921   20.7739 H   0  0  0  0  0  0
  -30.4202  -17.0020   22.6334 H   0  0  0  0  0  0
  -31.8331  -16.5807   21.7093 H   0  0  0  0  0  0
  -29.6178  -27.9949   21.1863 H   0  0  0  0  0  0
  -29.6259  -26.3076   21.5933 H   0  0  0  0  0  0
  -29.3314  -15.0486   21.8928 H   0  0  0  0  0  0
  1 25  1  0  0  0
  1 30  2  0  0  0
  1 86  1  0  0  0
  2  3  1  0  0  0
  2 25  1  0  0  0
  2 88  1  0  0  0
  2 89  1  0  0  0
  3  4  1  0  0  0
  3 90  1  0  0  0
  3 91  1  0  0  0
  4  5  1  0  0  0
  4 92  1  0  0  0
  4 93  1  0  0  0
  5  6  1  0  0  0
  5 26  1  0  0  0
  5 94  1  0  0  0
  6 25  1  0  0  0
  6 95  1  0  0  0
  6 96  1  0  0  0
  7  8  2  0  0  0
  7 26  1  0  0  0
  7 29  1  0  0  0
  8  9  1  0  0  0
  8 22  1  0  0  0
  9 10  1  0  0  0
  9 27  2  0  0  0
 10 11  2  0  0  0
 10 15  1  0  0  0
 11 12  1  0  0  0
 11 97  1  0  0  0
 12 13  2  0  0  0
 12 98  1  0  0  0
 13 14  1  0  0  0
 13 31  1  0  0  0
 14 15  2  0  0  0
 14 99  1  0  0  0
 15100  1  0  0  0
 16 17  2  0  0  0
 16 21  1  0  0  0
 16 31  1  0  0  0
 17 18  1  0  0  0
 17101  1  0  0  0
 18 19  2  0  0  0
 18102  1  0  0  0
 19 20  1  0  0  0
 19 24  1  0  0  0
 20 21  2  0  0  0
 20103  1  0  0  0
 21 23  1  0  0  0
 22 28  1  0  0  0
 22 32  2  0  0  0
 26 27  1  0  0  0
 28104  1  0  0  0
 28105  1  0  0  0
 29106  1  0  0  0
 29107  1  0  0  0
 33 34  1  0  0  0
 33 66  1  0  0  0
 33 70  2  0  0  0
 34 36  1  0  0  0
 34 59  1  0  0  0
 34108  1  0  0  0
 35 44  2  0  0  0
 35 45  1  0  0  0
 35 68  1  0  0  0
 36 56  1  0  0  0
 36109  1  0  0  0
 37 39  1  0  0  0
 37 47  1  0  0  0
 37 66  1  0  0  0
 37110  1  0  0  0
 38 43  2  0  0  0
 38 46  1  0  0  0
 38 47  1  0  0  0
 39 64  1  0  0  0
 39 67  2  0  0  0
 40 52  1  0  0  0
 40 53  2  0  0  0
 40 58  1  0  0  0
 41111  1  0  0  0
 41112  1  0  0  0
 41113  1  0  0  0
 41 48  1  0  0  0
 42 43  1  0  0  0
 42 66  1  0  0  0
 42114  1  0  0  0
 42115  1  0  0  0
 43 44  1  0  0  0
 44116  1  0  0  0
 45 46  2  0  0  0
 45117  1  0  0  0
 46118  1  0  0  0
 47119  1  0  0  0
 47120  1  0  0  0
 48 56  1  0  0  0
 48 65  1  0  0  0
 48121  1  0  0  0
 49 50  1  0  0  0
 49 53  1  0  0  0
 49 64  1  0  0  0
 49122  1  0  0  0
 50 51  1  0  0  0
 50123  1  0  0  0
 50124  1  0  0  0
 51 52  1  0  0  0
 51125  1  0  0  0
 51126  1  0  0  0
 52127  1  0  0  0
 52128  1  0  0  0
 53 54  1  0  0  0
 54 55  2  0  0  0
 54129  1  0  0  0
 55 57  1  0  0  0
 55130  1  0  0  0
 56 69  2  0  0  0
 57 58  2  0  0  0
 57131  1  0  0  0
 58132  1  0  0  0
 59 60  1  0  0  0
 59 61  1  0  0  0
 59 62  1  0  0  0
 60133  1  0  0  0
 60134  1  0  0  0
 60135  1  0  0  0
 61136  1  0  0  0
 61137  1  0  0  0
 61138  1  0  0  0
 62139  1  0  0  0
 62140  1  0  0  0
 62141  1  0  0  0
 63 65  1  0  0  0
 63142  1  0  0  0
 63143  1  0  0  0
 63144  1  0  0  0
 64145  1  0  0  0
 65146  1  0  0  0
 68 85  1  0  0  0
 71 73  2  0  0  0
 71 74  1  0  0  0
 71147  1  0  0  0
 72 75  2  0  0  0
 72 76  1  0  0  0
 72148  1  0  0  0
 73 75  1  0  0  0
 73 77  1  0  0  0
 74 76  2  0  0  0
 74 78  1  0  0  0
 75 79  1  0  0  0
 76 87  1  0  0  0
 77149  1  0  0  0
 77150  1  0  0  0
 77151  1  0  0  0
 78 80  1  0  0  0
 78152  1  0  0  0
 78153  1  0  0  0
 79 85  1  0  0  0
 79154  1  0  0  0
 79155  1  0  0  0
 80 81  1  0  0  0
 80156  1  0  0  0
 80157  1  0  0  0
 81 82  1  0  0  0
 81158  1  0  0  0
 81159  1  0  0  0
 82 83  1  0  0  0
 82160  1  0  0  0
 82161  1  0  0  0
 83 84  1  0  0  0
 83162  1  0  0  0
 83163  1  0  0  0
 84 86  1  0  0  0
 84164  1  0  0  0
 84165  1  0  0  0
 85166  1  0  0  0
 85167  1  0  0  0
 86168  1  0  0  0
M  ISO  4   1 100  68 101  85 101  86 100
M  END
> <chiral flag>
0

> <version>
0

> <s_m_source_file>
/data/baiqing/PycharmProjects/Reinvent-master-3.2/result/LINK_invent/BTK/process_docking_weight1_custom_sum_contain_oxygen_bond_distance_aromatic_linkinvent_7_9_3/rearranged_h_0033.sdf

> <i_m_source_file_index>
51

> <r_mmod_Potential_Energy-OPLS-2005>
-57.2054405212402

> <r_mmod_Stretch_Energy-OPLS-2005>
33.0462303161621

> <r_mmod_Bend_Energy-OPLS-2005>
104.830215454102

> <r_mmod_Torsional_Energy-OPLS-2005>
197.651153564453

> <r_mmod_Improper_Torsional_Energy-OPLS-2005>
2.14525604248047

> <r_mmod_Van_der_Waal_Energy-OPLS-2005>
163.027862548828

> <r_mmod_Electrostatic_Energy-OPLS-2005>
-360.267517089844

> <r_mmod_Solvation_Energy-OPLS-2005>
-203.442565917969

> <b_mmod_Minimization_Converged-OPLS-2005>
0

> <r_mmod_RMS_Derivative-OPLS-2005>
1.61618292331696

$$$$
52
                    3D
 Structure written by MMmdl.
150158  0  0  1  0            999 V2000
  -30.4767  -15.1827   20.3775 C   0  0  0  0  0  0
  -30.4358  -12.7505   19.5175 C   0  0  0  0  0  0
  -29.5286  -12.5584   18.2777 C   0  0  0  0  0  0
  -28.0732  -12.3007   18.7051 C   0  0  0  0  0  0
  -27.6143  -13.2689   19.8249 C   0  0  2  0  0  0
  -28.6515  -13.4138   20.9589 C   0  0  0  0  0  0
  -25.2402  -13.8241   20.5746 C   0  0  0  0  0  0
  -24.1747  -13.0437   20.9258 C   0  0  0  0  0  0
  -24.6394  -11.6932   20.8766 C   0  0  0  0  0  0
  -23.9088  -10.4293   21.0411 C   0  0  0  0  0  0
  -24.3635   -9.4205   21.9187 C   0  0  0  0  0  0
  -23.6306   -8.2242   22.0752 C   0  0  0  0  0  0
  -22.4286   -8.0283   21.3545 C   0  0  0  0  0  0
  -21.9929   -9.0257   20.4644 C   0  0  0  0  0  0
  -22.7262  -10.2134   20.3056 C   0  0  0  0  0  0
  -21.6855   -6.0742   22.5282 C   0  0  0  0  0  0
  -21.4015   -6.5644   23.8217 C   0  0  0  0  0  0
  -21.3658   -5.6795   24.9176 C   0  0  0  0  0  0
  -21.6043   -4.3058   24.7226 C   0  0  0  0  0  0
  -21.8818   -3.8151   23.4348 C   0  0  0  0  0  0
  -21.9194   -4.6969   22.3404 C   0  0  0  0  0  0
  -22.7766  -13.5192   21.1907 C   0  0  0  0  0  0
  -22.1663   -4.2155   21.0983 F   0  0  0  0  0  0
  -21.5626   -3.4540   25.7738 F   0  0  0  0  0  0
  -29.8936  -13.8926   20.3345 N   0  0  0  0  0  0
  -26.2827  -12.9507   20.3227 N   0  0  0  0  0  0
  -25.9329  -11.6617   20.5730 N   0  0  0  0  0  0
  -22.0427  -12.8168   22.0459 N   0  0  0  0  0  0
  -25.4037  -15.1974   20.4180 N   0  0  0  0  0  0
  -31.6956  -15.1819   20.1599 O   0  0  0  0  0  0
  -21.6645   -6.8885   21.4244 O   0  0  0  0  0  0
  -22.3444  -14.5496   20.6750 O   0  0  0  0  0  0
  -24.6590  -31.8286   23.1760 C   0  0  0  0  0  0
  -25.9292  -32.4620   23.8204 C   0  0  1  0  0  0
  -27.2126  -26.9740   20.1719 C   0  0  0  0  0  0
  -25.5978  -33.8432   24.2111 N   0  0  0  0  0  0
  -23.4710  -30.4440   21.5241 C   0  0  2  0  0  0
  -24.9235  -28.8449   20.1094 C   0  0  0  0  0  0
  -22.7646  -29.4469   22.4794 C   0  0  0  0  0  0
  -18.0320  -28.1412   22.8471 C   0  0  0  0  0  0
  -24.1488  -36.7210   23.2645 C   0  0  0  0  0  0
  -26.0386  -30.6495   21.4010 C   0  0  0  0  0  0
  -26.1069  -29.2454   20.7427 C   0  0  0  0  0  0
  -27.2478  -28.3294   20.7538 C   0  0  0  0  0  0
  -26.0031  -26.7235   19.4834 C   0  0  0  0  0  0
  -24.8947  -27.6027   19.4603 C   0  0  0  0  0  0
  -23.7081  -29.7668   20.1476 C   0  0  0  0  0  0
  -25.4128  -36.2984   24.0305 C   0  0  1  0  0  0
  -20.5943  -28.3751   23.1195 C   0  0  2  0  0  0
  -20.6798  -26.9438   22.5401 C   0  0  0  0  0  0
  -19.5769  -26.6386   21.5214 C   0  0  0  0  0  0
  -18.1951  -26.7947   22.1626 C   0  0  0  0  0  0
  -19.1581  -28.8901   23.2824 C   0  0  0  0  0  0
  -18.9492  -30.1492   23.8858 C   0  0  0  0  0  0
  -17.6486  -30.6603   24.0558 C   0  0  0  0  0  0
  -25.9094  -34.9368   23.5026 C   0  0  0  0  0  0
  -16.5375  -29.9093   23.6347 C   0  0  0  0  0  0
  -16.7303  -28.6512   23.0368 C   0  0  0  0  0  0
  -26.4557  -31.6548   25.0712 C   0  0  0  0  0  0
  -25.3695  -31.3787   26.1374 C   0  0  0  0  0  0
  -27.0448  -30.2922   24.6417 C   0  0  0  0  0  0
  -27.6054  -32.4351   25.7513 C   0  0  0  0  0  0
  -27.5567  -37.1761   24.8466 C   0  0  0  0  0  0
  -21.4320  -29.3046   22.3544 N   0  0  0  0  0  0
  -26.4272  -37.3719   23.9415 N   0  0  0  0  0  0
  -24.7438  -30.9993   22.0875 N   0  0  0  0  0  0
  -23.4213  -28.8032   23.3017 O   0  0  0  0  0  0
  -28.1969  -25.8669   20.2612 O   0  0  0  0  0  0
  -26.5693  -34.8892   22.4614 O   0  0  0  0  0  0
  -23.5672  -32.1237   23.6880 O   0  0  0  0  0  0
  -30.1121  -20.7488   19.6351 C   0  0  0  0  0  0
  -28.3154  -20.1880   20.9509 C   0  0  0  0  0  0
  -29.4730  -19.6129   20.2922 C   0  0  0  0  0  0
  -29.6928  -22.1736   19.5967 C   0  0  0  0  0  0
  -28.5265  -22.7441   20.2514 C   0  0  0  0  0  0
  -27.8773  -21.6101   20.9256 C   0  0  0  0  0  0
  -30.5384  -23.1194   18.7647 C   0  0  0  0  0  0
  -30.1857  -18.0276   20.3275 C   0  0  0  0  0  0
  -27.8038  -24.3105   20.0118 C   0  0  0  0  0  0
  -29.7377  -16.4519   20.4559 N   0  0  0  0  0  0
  -26.4086  -21.9303   21.7778 Cl  0  0  0  0  0  0
  -31.4593  -12.9377   19.1897 H   0  0  0  0  0  0
  -30.4811  -11.8357   20.1106 H   0  0  0  0  0  0
  -29.8918  -11.7329   17.6638 H   0  0  0  0  0  0
  -29.5732  -13.4504   17.6511 H   0  0  0  0  0  0
  -28.0147  -11.2726   19.0645 H   0  0  0  0  0  0
  -27.4047  -12.3628   17.8455 H   0  0  0  0  0  0
  -27.5394  -14.2432   19.3408 H   0  0  0  0  0  0
  -28.7997  -12.4716   21.4886 H   0  0  0  0  0  0
  -28.3071  -14.1379   21.6990 H   0  0  0  0  0  0
  -25.2777   -9.5682   22.4766 H   0  0  0  0  0  0
  -24.0015   -7.4631   22.7468 H   0  0  0  0  0  0
  -21.0863   -8.8781   19.8946 H   0  0  0  0  0  0
  -22.3723  -10.9676   19.6166 H   0  0  0  0  0  0
  -21.2008   -7.6152   23.9721 H   0  0  0  0  0  0
  -21.1479   -6.0525   25.9080 H   0  0  0  0  0  0
  -22.0597   -2.7613   23.2846 H   0  0  0  0  0  0
  -22.4066  -11.9836   22.4842 H   0  0  0  0  0  0
  -21.1035  -13.1163   22.2662 H   0  0  0  0  0  0
  -24.6323  -15.8460   20.5327 H   0  0  0  0  0  0
  -26.2425  -15.6402   20.0667 H   0  0  0  0  0  0
  -26.7357  -32.5171   23.0919 H   0  0  0  0  0  0
  -25.0091  -33.9526   25.0238 H   0  0  0  0  0  0
  -22.7820  -31.2749   21.3592 H   0  0  0  0  0  0
  -23.3766  -35.9525   23.3285 H   0  0  0  0  0  0
  -24.3565  -36.8875   22.2064 H   0  0  0  0  0  0
  -23.7229  -37.6389   23.6707 H   0  0  0  0  0  0
  -26.2151  -31.3952   20.6247 H   0  0  0  0  0  0
  -26.9004  -30.7032   22.0540 H   0  0  0  0  0  0
  -28.1405  -28.6300   21.2840 H   0  0  0  0  0  0
  -25.8677  -25.7795   18.9781 H   0  0  0  0  0  0
  -23.9965  -27.2914   18.9448 H   0  0  0  0  0  0
  -23.8602  -30.5391   19.3927 H   0  0  0  0  0  0
  -22.8187  -29.2201   19.8300 H   0  0  0  0  0  0
  -25.1325  -36.1782   25.0796 H   0  0  0  0  0  0
  -21.0035  -28.3354   24.1317 H   0  0  0  0  0  0
  -20.5677  -26.2373   23.3639 H   0  0  0  0  0  0
  -21.6662  -26.7422   22.1203 H   0  0  0  0  0  0
  -19.6927  -25.6287   21.1272 H   0  0  0  0  0  0
  -19.6703  -27.3172   20.6722 H   0  0  0  0  0  0
  -17.4218  -26.6691   21.4030 H   0  0  0  0  0  0
  -18.0345  -26.0101   22.9034 H   0  0  0  0  0  0
  -19.7967  -30.7320   24.2206 H   0  0  0  0  0  0
  -17.5041  -31.6279   24.5171 H   0  0  0  0  0  0
  -15.5374  -30.2984   23.7697 H   0  0  0  0  0  0
  -15.8703  -28.0819   22.7110 H   0  0  0  0  0  0
  -24.5890  -30.7120   25.7688 H   0  0  0  0  0  0
  -24.8865  -32.2984   26.4682 H   0  0  0  0  0  0
  -25.7937  -30.9036   27.0228 H   0  0  0  0  0  0
  -26.3110  -29.6607   24.1393 H   0  0  0  0  0  0
  -27.3964  -29.7275   25.5062 H   0  0  0  0  0  0
  -27.9062  -30.4120   23.9843 H   0  0  0  0  0  0
  -27.2625  -33.3691   26.1977 H   0  0  0  0  0  0
  -28.3924  -32.6848   25.0383 H   0  0  0  0  0  0
  -28.0655  -31.8551   26.5523 H   0  0  0  0  0  0
  -28.2567  -38.0073   24.7527 H   0  0  0  0  0  0
  -28.1083  -36.2605   24.6277 H   0  0  0  0  0  0
  -27.2290  -37.1386   25.8870 H   0  0  0  0  0  0
  -20.9561  -29.8745   21.6689 H   0  0  0  0  0  0
  -26.0123  -38.2775   24.1437 H   0  0  0  0  0  0
  -31.0205  -20.5100   19.0984 H   0  0  0  0  0  0
  -27.7062  -19.5065   21.5269 H   0  0  0  0  0  0
  -31.5569  -22.7477   18.6493 H   0  0  0  0  0  0
  -30.5979  -24.1029   19.2323 H   0  0  0  0  0  0
  -30.1057  -23.2398   17.7712 H   0  0  0  0  0  0
  -30.9289  -18.1239   21.1197 H   0  0  0  0  0  0
  -30.7880  -18.0191   19.4185 H   0  0  0  0  0  0
  -26.8280  -24.2268   20.4862 H   0  0  0  0  0  0
  -27.5784  -24.2843   18.9458 H   0  0  0  0  0  0
  -28.7455  -16.3236   20.5862 H   0  0  0  0  0  0
  1 25  1  0  0  0
  1 30  2  0  0  0
  1 80  1  0  0  0
  2  3  1  0  0  0
  2 25  1  0  0  0
  2 82  1  0  0  0
  2 83  1  0  0  0
  3  4  1  0  0  0
  3 84  1  0  0  0
  3 85  1  0  0  0
  4  5  1  0  0  0
  4 86  1  0  0  0
  4 87  1  0  0  0
  5  6  1  0  0  0
  5 26  1  0  0  0
  5 88  1  0  0  0
  6 25  1  0  0  0
  6 89  1  0  0  0
  6 90  1  0  0  0
  7  8  2  0  0  0
  7 26  1  0  0  0
  7 29  1  0  0  0
  8  9  1  0  0  0
  8 22  1  0  0  0
  9 10  1  0  0  0
  9 27  2  0  0  0
 10 11  2  0  0  0
 10 15  1  0  0  0
 11 12  1  0  0  0
 11 91  1  0  0  0
 12 13  2  0  0  0
 12 92  1  0  0  0
 13 14  1  0  0  0
 13 31  1  0  0  0
 14 15  2  0  0  0
 14 93  1  0  0  0
 15 94  1  0  0  0
 16 17  2  0  0  0
 16 21  1  0  0  0
 16 31  1  0  0  0
 17 18  1  0  0  0
 17 95  1  0  0  0
 18 19  2  0  0  0
 18 96  1  0  0  0
 19 20  1  0  0  0
 19 24  1  0  0  0
 20 21  2  0  0  0
 20 97  1  0  0  0
 21 23  1  0  0  0
 22 28  1  0  0  0
 22 32  2  0  0  0
 26 27  1  0  0  0
 28 98  1  0  0  0
 28 99  1  0  0  0
 29100  1  0  0  0
 29101  1  0  0  0
 33 34  1  0  0  0
 33 66  1  0  0  0
 33 70  2  0  0  0
 34 36  1  0  0  0
 34 59  1  0  0  0
 34102  1  0  0  0
 35 44  2  0  0  0
 35 45  1  0  0  0
 35 68  1  0  0  0
 36 56  1  0  0  0
 36103  1  0  0  0
 37 39  1  0  0  0
 37 47  1  0  0  0
 37 66  1  0  0  0
 37104  1  0  0  0
 38 43  2  0  0  0
 38 46  1  0  0  0
 38 47  1  0  0  0
 39 64  1  0  0  0
 39 67  2  0  0  0
 40 52  1  0  0  0
 40 53  2  0  0  0
 40 58  1  0  0  0
 41105  1  0  0  0
 41106  1  0  0  0
 41107  1  0  0  0
 41 48  1  0  0  0
 42 43  1  0  0  0
 42 66  1  0  0  0
 42108  1  0  0  0
 42109  1  0  0  0
 43 44  1  0  0  0
 44110  1  0  0  0
 45 46  2  0  0  0
 45111  1  0  0  0
 46112  1  0  0  0
 47113  1  0  0  0
 47114  1  0  0  0
 48 56  1  0  0  0
 48 65  1  0  0  0
 48115  1  0  0  0
 49 50  1  0  0  0
 49 53  1  0  0  0
 49 64  1  0  0  0
 49116  1  0  0  0
 50 51  1  0  0  0
 50117  1  0  0  0
 50118  1  0  0  0
 51 52  1  0  0  0
 51119  1  0  0  0
 51120  1  0  0  0
 52121  1  0  0  0
 52122  1  0  0  0
 53 54  1  0  0  0
 54 55  2  0  0  0
 54123  1  0  0  0
 55 57  1  0  0  0
 55124  1  0  0  0
 56 69  2  0  0  0
 57 58  2  0  0  0
 57125  1  0  0  0
 58126  1  0  0  0
 59 60  1  0  0  0
 59 61  1  0  0  0
 59 62  1  0  0  0
 60127  1  0  0  0
 60128  1  0  0  0
 60129  1  0  0  0
 61130  1  0  0  0
 61131  1  0  0  0
 61132  1  0  0  0
 62133  1  0  0  0
 62134  1  0  0  0
 62135  1  0  0  0
 63 65  1  0  0  0
 63136  1  0  0  0
 63137  1  0  0  0
 63138  1  0  0  0
 64139  1  0  0  0
 65140  1  0  0  0
 68 79  1  0  0  0
 71 73  2  0  0  0
 71 74  1  0  0  0
 71141  1  0  0  0
 72 73  1  0  0  0
 72 76  2  0  0  0
 72142  1  0  0  0
 73 78  1  0  0  0
 74 75  2  0  0  0
 74 77  1  0  0  0
 75 76  1  0  0  0
 75 79  1  0  0  0
 76 81  1  0  0  0
 77143  1  0  0  0
 77144  1  0  0  0
 77145  1  0  0  0
 78 80  1  0  0  0
 78146  1  0  0  0
 78147  1  0  0  0
 79148  1  0  0  0
 79149  1  0  0  0
 80150  1  0  0  0
M  ISO  4   1 100  68 101  79 101  80 100
M  END
> <chiral flag>
0

> <version>
0

> <s_m_source_file>
/data/baiqing/PycharmProjects/Reinvent-master-3.2/result/LINK_invent/BTK/process_docking_weight1_custom_sum_contain_oxygen_bond_distance_aromatic_linkinvent_7_9_3/rearranged_h_0033.sdf

> <i_m_source_file_index>
52

> <r_mmod_Potential_Energy-OPLS-2005>
1026.71179199219

> <r_mmod_Stretch_Energy-OPLS-2005>
448.893371582031

> <r_mmod_Bend_Energy-OPLS-2005>
420.013641357422

> <r_mmod_Torsional_Energy-OPLS-2005>
216.519607543945

> <r_mmod_Improper_Torsional_Energy-OPLS-2005>
7.39369821548462

> <r_mmod_Van_der_Waal_Energy-OPLS-2005>
132.374404907227

> <r_mmod_Electrostatic_Energy-OPLS-2005>
-374.445678710938

> <r_mmod_Solvation_Energy-OPLS-2005>
-211.400512695312

> <b_mmod_Minimization_Converged-OPLS-2005>
0

> <r_mmod_RMS_Derivative-OPLS-2005>
0.526840269565582

$$$$
53
                    3D
 Structure written by MMmdl.
167176  0  0  1  0            999 V2000
  -30.5468  -14.9342   20.4221 C   0  0  0  0  0  0
  -30.4463  -12.5734   19.5135 C   0  0  0  0  0  0
  -29.5341  -12.5494   18.2635 C   0  0  0  0  0  0
  -28.0573  -12.3541   18.6588 C   0  0  0  0  0  0
  -27.6397  -13.2560   19.8496 C   0  0  2  0  0  0
  -28.6806  -13.2607   20.9920 C   0  0  0  0  0  0
  -25.2493  -13.8194   20.5737 C   0  0  0  0  0  0
  -24.1808  -13.0404   20.9221 C   0  0  0  0  0  0
  -24.6411  -11.6900   20.8677 C   0  0  0  0  0  0
  -23.9076  -10.4266   21.0295 C   0  0  0  0  0  0
  -24.3628   -9.4211   21.9105 C   0  0  0  0  0  0
  -23.6318   -8.2244   22.0711 C   0  0  0  0  0  0
  -22.4285   -8.0273   21.3532 C   0  0  0  0  0  0
  -21.9916   -9.0221   20.4612 C   0  0  0  0  0  0
  -22.7222  -10.2104   20.2972 C   0  0  0  0  0  0
  -21.6880   -6.0733   22.5272 C   0  0  0  0  0  0
  -21.4020   -6.5636   23.8211 C   0  0  0  0  0  0
  -21.3659   -5.6784   24.9175 C   0  0  0  0  0  0
  -21.6050   -4.3048   24.7206 C   0  0  0  0  0  0
  -21.8832   -3.8139   23.4326 C   0  0  0  0  0  0
  -21.9202   -4.6958   22.3393 C   0  0  0  0  0  0
  -22.7825  -13.5155   21.1890 C   0  0  0  0  0  0
  -22.1677   -4.2158   21.0971 F   0  0  0  0  0  0
  -21.5622   -3.4530   25.7715 F   0  0  0  0  0  0
  -29.9677  -13.6661   20.4121 N   0  0  0  0  0  0
  -26.2956  -12.9465   20.3266 N   0  0  0  0  0  0
  -25.9357  -11.6586   20.5696 N   0  0  0  0  0  0
  -22.0509  -12.8109   22.0436 N   0  0  0  0  0  0
  -25.4076  -15.1952   20.4212 N   0  0  0  0  0  0
  -31.7228  -15.0250   20.0566 O   0  0  0  0  0  0
  -21.6657   -6.8860   21.4241 O   0  0  0  0  0  0
  -22.3493  -14.5452   20.6727 O   0  0  0  0  0  0
  -24.6409  -31.8455   23.1915 C   0  0  0  0  0  0
  -25.9170  -32.4704   23.8312 C   0  0  1  0  0  0
  -27.2217  -27.1398   20.1436 C   0  0  0  0  0  0
  -25.5920  -33.8514   24.2223 N   0  0  0  0  0  0
  -23.4415  -30.4668   21.5355 C   0  0  2  0  0  0
  -24.8917  -28.8901   20.1042 C   0  0  0  0  0  0
  -22.7534  -29.4580   22.4878 C   0  0  0  0  0  0
  -18.0305  -28.1350   22.8470 C   0  0  0  0  0  0
  -24.1490  -36.7284   23.2647 C   0  0  0  0  0  0
  -25.9968  -30.7201   21.3853 C   0  0  0  0  0  0
  -26.0673  -29.3305   20.7251 C   0  0  0  0  0  0
  -27.2315  -28.4715   20.7263 C   0  0  0  0  0  0
  -26.0192  -26.7959   19.4860 C   0  0  0  0  0  0
  -24.8796  -27.6362   19.4696 C   0  0  0  0  0  0
  -23.6650  -29.7942   20.1529 C   0  0  0  0  0  0
  -25.4114  -36.3063   24.0328 C   0  0  1  0  0  0
  -20.5912  -28.3684   23.1230 C   0  0  2  0  0  0
  -20.6792  -26.9394   22.5388 C   0  0  0  0  0  0
  -19.5783  -26.6340   21.5190 C   0  0  0  0  0  0
  -18.1956  -26.7889   22.1601 C   0  0  0  0  0  0
  -19.1557  -28.8834   23.2848 C   0  0  0  0  0  0
  -18.9483  -30.1431   23.8870 C   0  0  0  0  0  0
  -17.6482  -30.6557   24.0547 C   0  0  0  0  0  0
  -25.9054  -34.9423   23.5098 C   0  0  0  0  0  0
  -16.5373  -29.9045   23.6324 C   0  0  0  0  0  0
  -16.7293  -28.6458   23.0356 C   0  0  0  0  0  0
  -26.4495  -31.6560   25.0744 C   0  0  0  0  0  0
  -25.3690  -31.3692   26.1445 C   0  0  0  0  0  0
  -27.0347  -30.2970   24.6286 C   0  0  0  0  0  0
  -27.6059  -32.4297   25.7514 C   0  0  0  0  0  0
  -27.5591  -37.1795   24.8451 C   0  0  0  0  0  0
  -21.4229  -29.3031   22.3611 N   0  0  0  0  0  0
  -26.4292  -37.3768   23.9421 N   0  0  0  0  0  0
  -24.7129  -31.0315   22.0931 N   0  0  0  0  0  0
  -23.4199  -28.8126   23.3011 O   0  0  0  0  0  0
  -28.2917  -26.1725   20.2216 O   0  0  0  0  0  0
  -26.5656  -34.8927   22.4685 O   0  0  0  0  0  0
  -23.5526  -32.1323   23.7144 O   0  0  0  0  0  0
  -30.4652  -24.1874   20.7587 C   0  0  0  0  0  0
  -29.2656  -23.5715   20.5511 C   0  0  0  0  0  0
  -29.5855  -22.0827   20.8156 C   0  0  0  0  0  0
  -30.6311  -22.1974   21.7298 C   0  0  0  0  0  0
  -30.6059  -20.1104   24.9237 C   0  0  0  0  0  0
  -31.8683  -20.9313   25.1847 C   0  0  0  0  0  0
  -29.9479  -20.7847   23.7261 C   0  0  0  0  0  0
  -32.0385  -21.8372   23.9541 C   0  0  0  0  0  0
  -31.1127  -21.2750   22.8459 C   0  0  0  0  0  0
  -32.7058  -23.7138   21.7031 C   0  0  0  0  0  0
  -29.0599  -20.5669   20.3206 C   0  0  0  0  0  0
  -28.1044  -24.6285   20.0486 C   0  0  0  0  0  0
  -29.5370  -19.0147   20.8874 C   0  0  0  0  0  0
  -29.7715  -17.5688   20.0410 C   0  0  0  0  0  0
  -31.3301  -23.3494   21.3983 N   0  0  0  0  0  0
  -29.7548  -16.0978   20.6381 N   0  0  0  0  0  0
  -31.4835  -12.7211   19.2134 H   0  0  0  0  0  0
  -30.4237  -11.6124   20.0294 H   0  0  0  0  0  0
  -29.8491  -11.7687   17.5696 H   0  0  0  0  0  0
  -29.6406  -13.4940   17.7285 H   0  0  0  0  0  0
  -27.9170  -11.3025   18.9139 H   0  0  0  0  0  0
  -27.4132  -12.5513   17.7984 H   0  0  0  0  0  0
  -27.6072  -14.2693   19.4493 H   0  0  0  0  0  0
  -28.7533  -12.2748   21.4522 H   0  0  0  0  0  0
  -28.3851  -13.9545   21.7814 H   0  0  0  0  0  0
  -25.2754   -9.5750   22.4701 H   0  0  0  0  0  0
  -24.0075   -7.4625   22.7403 H   0  0  0  0  0  0
  -21.0869   -8.8649   19.8904 H   0  0  0  0  0  0
  -22.3591  -10.9625   19.6093 H   0  0  0  0  0  0
  -21.2000   -7.6146   23.9717 H   0  0  0  0  0  0
  -21.1495   -6.0512   25.9092 H   0  0  0  0  0  0
  -22.0613   -2.7609   23.2803 H   0  0  0  0  0  0
  -22.4215  -11.9816   22.4857 H   0  0  0  0  0  0
  -21.1076  -13.1019   22.2555 H   0  0  0  0  0  0
  -24.6236  -15.8302   20.5320 H   0  0  0  0  0  0
  -26.2382  -15.6535   20.0675 H   0  0  0  0  0  0
  -26.7246  -32.5303   23.1052 H   0  0  0  0  0  0
  -25.0025  -33.9645   25.0343 H   0  0  0  0  0  0
  -22.7431  -31.2936   21.3846 H   0  0  0  0  0  0
  -23.3771  -35.9600   23.3259 H   0  0  0  0  0  0
  -24.3588  -36.8960   22.2077 H   0  0  0  0  0  0
  -23.7218  -37.6456   23.6701 H   0  0  0  0  0  0
  -26.1438  -31.4737   20.6095 H   0  0  0  0  0  0
  -26.8736  -30.7747   22.0207 H   0  0  0  0  0  0
  -28.1265  -28.8072   21.2311 H   0  0  0  0  0  0
  -25.9341  -25.8393   18.9908 H   0  0  0  0  0  0
  -23.9826  -27.2974   18.9709 H   0  0  0  0  0  0
  -23.7922  -30.5736   19.4005 H   0  0  0  0  0  0
  -22.7770  -29.2376   19.8477 H   0  0  0  0  0  0
  -25.1293  -36.1922   25.0819 H   0  0  0  0  0  0
  -21.0022  -28.3270   24.1349 H   0  0  0  0  0  0
  -20.5625  -26.2318   23.3606 H   0  0  0  0  0  0
  -21.6673  -26.7356   22.1243 H   0  0  0  0  0  0
  -19.6952  -25.6233   21.1258 H   0  0  0  0  0  0
  -19.6741  -27.3126   20.6703 H   0  0  0  0  0  0
  -17.4234  -26.6631   21.3998 H   0  0  0  0  0  0
  -18.0376  -26.0004   22.8977 H   0  0  0  0  0  0
  -19.7962  -30.7242   24.2246 H   0  0  0  0  0  0
  -17.5037  -31.6246   24.5131 H   0  0  0  0  0  0
  -15.5376  -30.2957   23.7617 H   0  0  0  0  0  0
  -15.8694  -28.0753   22.7102 H   0  0  0  0  0  0
  -24.5936  -30.6960   25.7773 H   0  0  0  0  0  0
  -24.8785  -32.2821   26.4833 H   0  0  0  0  0  0
  -25.8001  -30.8920   27.0258 H   0  0  0  0  0  0
  -26.2943  -29.6714   24.1294 H   0  0  0  0  0  0
  -27.3967  -29.7252   25.4839 H   0  0  0  0  0  0
  -27.8848  -30.4227   23.9586 H   0  0  0  0  0  0
  -27.2712  -33.3649   26.2032 H   0  0  0  0  0  0
  -28.3908  -32.6764   25.0346 H   0  0  0  0  0  0
  -28.0687  -31.8434   26.5470 H   0  0  0  0  0  0
  -28.2557  -38.0141   24.7556 H   0  0  0  0  0  0
  -28.1132  -36.2669   24.6186 H   0  0  0  0  0  0
  -27.2317  -37.1345   25.8854 H   0  0  0  0  0  0
  -20.9414  -29.8760   21.6824 H   0  0  0  0  0  0
  -26.0159  -38.2843   24.1425 H   0  0  0  0  0  0
  -30.7677  -25.2047   20.5476 H   0  0  0  0  0  0
  -29.9441  -20.0550   25.7871 H   0  0  0  0  0  0
  -30.8750  -19.0873   24.6550 H   0  0  0  0  0  0
  -32.7305  -20.2738   25.3161 H   0  0  0  0  0  0
  -31.7810  -21.5246   26.0968 H   0  0  0  0  0  0
  -29.3616  -21.6395   24.0726 H   0  0  0  0  0  0
  -29.2440  -20.1294   23.2313 H   0  0  0  0  0  0
  -33.0875  -21.8808   23.6614 H   0  0  0  0  0  0
  -31.7278  -22.8445   24.2367 H   0  0  0  0  0  0
  -31.6599  -20.4427   22.4143 H   0  0  0  0  0  0
  -33.0824  -24.4109   20.9531 H   0  0  0  0  0  0
  -33.3453  -22.8307   21.6638 H   0  0  0  0  0  0
  -32.7761  -24.1873   22.6817 H   0  0  0  0  0  0
  -29.2633  -20.5591   19.2489 H   0  0  0  0  0  0
  -27.9711  -20.6012   20.3824 H   0  0  0  0  0  0
  -27.1832  -24.3443   20.5590 H   0  0  0  0  0  0
  -27.9311  -24.4274   18.9904 H   0  0  0  0  0  0
  -28.8221  -18.7604   21.6674 H   0  0  0  0  0  0
  -30.4832  -19.1246   21.3971 H   0  0  0  0  0  0
  -28.9820  -17.5384   19.2899 H   0  0  0  0  0  0
  -30.6880  -17.6612   19.4535 H   0  0  0  0  0  0
  -28.8705  -15.8578   21.0615 H   0  0  0  0  0  0
  1 25  1  0  0  0
  1 30  2  0  0  0
  1 86  1  0  0  0
  2  3  1  0  0  0
  2 25  1  0  0  0
  2 87  1  0  0  0
  2 88  1  0  0  0
  3  4  1  0  0  0
  3 89  1  0  0  0
  3 90  1  0  0  0
  4  5  1  0  0  0
  4 91  1  0  0  0
  4 92  1  0  0  0
  5  6  1  0  0  0
  5 26  1  0  0  0
  5 93  1  0  0  0
  6 25  1  0  0  0
  6 94  1  0  0  0
  6 95  1  0  0  0
  7  8  2  0  0  0
  7 26  1  0  0  0
  7 29  1  0  0  0
  8  9  1  0  0  0
  8 22  1  0  0  0
  9 10  1  0  0  0
  9 27  2  0  0  0
 10 11  2  0  0  0
 10 15  1  0  0  0
 11 12  1  0  0  0
 11 96  1  0  0  0
 12 13  2  0  0  0
 12 97  1  0  0  0
 13 14  1  0  0  0
 13 31  1  0  0  0
 14 15  2  0  0  0
 14 98  1  0  0  0
 15 99  1  0  0  0
 16 17  2  0  0  0
 16 21  1  0  0  0
 16 31  1  0  0  0
 17 18  1  0  0  0
 17100  1  0  0  0
 18 19  2  0  0  0
 18101  1  0  0  0
 19 20  1  0  0  0
 19 24  1  0  0  0
 20 21  2  0  0  0
 20102  1  0  0  0
 21 23  1  0  0  0
 22 28  1  0  0  0
 22 32  2  0  0  0
 26 27  1  0  0  0
 28103  1  0  0  0
 28104  1  0  0  0
 29105  1  0  0  0
 29106  1  0  0  0
 33 34  1  0  0  0
 33 66  1  0  0  0
 33 70  2  0  0  0
 34 36  1  0  0  0
 34 59  1  0  0  0
 34107  1  0  0  0
 35 44  2  0  0  0
 35 45  1  0  0  0
 35 68  1  0  0  0
 36 56  1  0  0  0
 36108  1  0  0  0
 37 39  1  0  0  0
 37 47  1  0  0  0
 37 66  1  0  0  0
 37109  1  0  0  0
 38 43  2  0  0  0
 38 46  1  0  0  0
 38 47  1  0  0  0
 39 64  1  0  0  0
 39 67  2  0  0  0
 40 52  1  0  0  0
 40 53  2  0  0  0
 40 58  1  0  0  0
 41110  1  0  0  0
 41111  1  0  0  0
 41112  1  0  0  0
 41 48  1  0  0  0
 42 43  1  0  0  0
 42 66  1  0  0  0
 42113  1  0  0  0
 42114  1  0  0  0
 43 44  1  0  0  0
 44115  1  0  0  0
 45 46  2  0  0  0
 45116  1  0  0  0
 46117  1  0  0  0
 47118  1  0  0  0
 47119  1  0  0  0
 48 56  1  0  0  0
 48 65  1  0  0  0
 48120  1  0  0  0
 49 50  1  0  0  0
 49 53  1  0  0  0
 49 64  1  0  0  0
 49121  1  0  0  0
 50 51  1  0  0  0
 50122  1  0  0  0
 50123  1  0  0  0
 51 52  1  0  0  0
 51124  1  0  0  0
 51125  1  0  0  0
 52126  1  0  0  0
 52127  1  0  0  0
 53 54  1  0  0  0
 54 55  2  0  0  0
 54128  1  0  0  0
 55 57  1  0  0  0
 55129  1  0  0  0
 56 69  2  0  0  0
 57 58  2  0  0  0
 57130  1  0  0  0
 58131  1  0  0  0
 59 60  1  0  0  0
 59 61  1  0  0  0
 59 62  1  0  0  0
 60132  1  0  0  0
 60133  1  0  0  0
 60134  1  0  0  0
 61135  1  0  0  0
 61136  1  0  0  0
 61137  1  0  0  0
 62138  1  0  0  0
 62139  1  0  0  0
 62140  1  0  0  0
 63 65  1  0  0  0
 63141  1  0  0  0
 63142  1  0  0  0
 63143  1  0  0  0
 64144  1  0  0  0
 65145  1  0  0  0
 68 82  1  0  0  0
 71 72  2  0  0  0
 71 85  1  0  0  0
 71146  1  0  0  0
 72 73  1  0  0  0
 72 82  1  0  0  0
 73 74  2  0  0  0
 73 81  1  0  0  0
 74 85  1  0  0  0
 74 79  1  0  0  0
 75 76  1  0  0  0
 75 77  1  0  0  0
 75147  1  0  0  0
 75148  1  0  0  0
 76 78  1  0  0  0
 76149  1  0  0  0
 76150  1  0  0  0
 77 79  1  0  0  0
 77151  1  0  0  0
 77152  1  0  0  0
 78 79  1  0  0  0
 78153  1  0  0  0
 78154  1  0  0  0
 79155  1  0  0  0
 80 85  1  0  0  0
 80156  1  0  0  0
 80157  1  0  0  0
 80158  1  0  0  0
 81 83  1  0  0  0
 81159  1  0  0  0
 81160  1  0  0  0
 82161  1  0  0  0
 82162  1  0  0  0
 83 84  1  0  0  0
 83163  1  0  0  0
 83164  1  0  0  0
 84 86  1  0  0  0
 84165  1  0  0  0
 84166  1  0  0  0
 86167  1  0  0  0
M  ISO  4   1 100  68 101  82 101  86 100
M  END
> <chiral flag>
0

> <version>
0

> <s_m_source_file>
/data/baiqing/PycharmProjects/Reinvent-master-3.2/result/LINK_invent/BTK/process_docking_weight1_custom_sum_contain_oxygen_bond_distance_aromatic_linkinvent_7_9_3/rearranged_h_0033.sdf

> <i_m_source_file_index>
53

> <r_mmod_Potential_Energy-OPLS-2005>
719.160339355469

> <r_mmod_Stretch_Energy-OPLS-2005>
306.833190917969

> <r_mmod_Bend_Energy-OPLS-2005>
333.359039306641

> <r_mmod_Torsional_Energy-OPLS-2005>
363.331512451172

> <r_mmod_Improper_Torsional_Energy-OPLS-2005>
6.44058990478516

> <r_mmod_Van_der_Waal_Energy-OPLS-2005>
116.476913452148

> <r_mmod_Electrostatic_Energy-OPLS-2005>
-368.858459472656

> <r_mmod_Solvation_Energy-OPLS-2005>
-220.038619995117

> <b_mmod_Minimization_Converged-OPLS-2005>
0

> <r_mmod_RMS_Derivative-OPLS-2005>
4.16164827346802

$$$$
54
                    3D
 Structure written by MMmdl.
160168  0  0  1  0            999 V2000
  -30.6183  -14.7000   20.4958 C   0  0  0  0  0  0
  -30.4327  -12.4297   19.4716 C   0  0  0  0  0  0
  -29.5145  -12.5014   18.2326 C   0  0  0  0  0  0
  -28.0354  -12.3319   18.6399 C   0  0  0  0  0  0
  -27.6414  -13.2261   19.8464 C   0  0  2  0  0  0
  -28.6804  -13.1429   20.9836 C   0  0  0  0  0  0
  -25.2519  -13.8187   20.5671 C   0  0  0  0  0  0
  -24.1796  -13.0445   20.9176 C   0  0  0  0  0  0
  -24.6374  -11.6920   20.8714 C   0  0  0  0  0  0
  -23.9043  -10.4295   21.0388 C   0  0  0  0  0  0
  -24.3612   -9.4219   21.9179 C   0  0  0  0  0  0
  -23.6297   -8.2239   22.0745 C   0  0  0  0  0  0
  -22.4277   -8.0263   21.3528 C   0  0  0  0  0  0
  -21.9897   -9.0232   20.4643 C   0  0  0  0  0  0
  -22.7201  -10.2118   20.3052 C   0  0  0  0  0  0
  -21.6860   -6.0736   22.5264 C   0  0  0  0  0  0
  -21.4017   -6.5638   23.8198 C   0  0  0  0  0  0
  -21.3666   -5.6782   24.9158 C   0  0  0  0  0  0
  -21.6051   -4.3044   24.7199 C   0  0  0  0  0  0
  -21.8815   -3.8142   23.4315 C   0  0  0  0  0  0
  -21.9193   -4.6967   22.3382 C   0  0  0  0  0  0
  -22.7818  -13.5242   21.1828 C   0  0  0  0  0  0
  -22.1656   -4.2162   21.0957 F   0  0  0  0  0  0
  -21.5640   -3.4527   25.7714 F   0  0  0  0  0  0
  -29.9869  -13.4849   20.4043 N   0  0  0  0  0  0
  -26.2924  -12.9384   20.3230 N   0  0  0  0  0  0
  -25.9302  -11.6530   20.5715 N   0  0  0  0  0  0
  -22.0468  -12.8258   22.0405 N   0  0  0  0  0  0
  -25.4245  -15.1895   20.4053 N   0  0  0  0  0  0
  -31.8190  -14.8013   20.2303 O   0  0  0  0  0  0
  -21.6642   -6.8861   21.4220 O   0  0  0  0  0  0
  -22.3511  -14.5550   20.6676 O   0  0  0  0  0  0
  -24.6256  -31.8597   23.1992 C   0  0  0  0  0  0
  -25.9096  -32.4788   23.8331 C   0  0  1  0  0  0
  -27.2298  -27.3080   20.1341 C   0  0  0  0  0  0
  -25.5908  -33.8588   24.2266 N   0  0  0  0  0  0
  -23.4197  -30.4810   21.5421 C   0  0  2  0  0  0
  -24.8694  -28.9270   20.1167 C   0  0  0  0  0  0
  -22.7460  -29.4633   22.4929 C   0  0  0  0  0  0
  -18.0287  -28.1382   22.8492 C   0  0  0  0  0  0
  -24.1492  -36.7285   23.2635 C   0  0  0  0  0  0
  -25.9612  -30.7885   21.3711 C   0  0  0  0  0  0
  -26.0392  -29.4128   20.7181 C   0  0  0  0  0  0
  -27.2244  -28.6167   20.7113 C   0  0  0  0  0  0
  -26.0413  -26.8738   19.5121 C   0  0  0  0  0  0
  -24.8733  -27.6632   19.5041 C   0  0  0  0  0  0
  -23.6364  -29.8075   20.1616 C   0  0  0  0  0  0
  -25.4116  -36.3095   24.0336 C   0  0  1  0  0  0
  -20.5886  -28.3696   23.1280 C   0  0  2  0  0  0
  -20.6795  -26.9425   22.5399 C   0  0  0  0  0  0
  -19.5765  -26.6389   21.5212 C   0  0  0  0  0  0
  -18.1944  -26.7926   22.1626 C   0  0  0  0  0  0
  -19.1540  -28.8851   23.2887 C   0  0  0  0  0  0
  -18.9467  -30.1451   23.8906 C   0  0  0  0  0  0
  -17.6474  -30.6602   24.0557 C   0  0  0  0  0  0
  -25.9052  -34.9467   23.5113 C   0  0  0  0  0  0
  -16.5359  -29.9100   23.6329 C   0  0  0  0  0  0
  -16.7275  -28.6501   23.0375 C   0  0  0  0  0  0
  -26.4478  -31.6586   25.0693 C   0  0  0  0  0  0
  -25.3700  -31.3778   26.1418 C   0  0  0  0  0  0
  -27.0306  -30.2991   24.6162 C   0  0  0  0  0  0
  -27.6050  -32.4308   25.7458 C   0  0  0  0  0  0
  -27.5591  -37.1802   24.8470 C   0  0  0  0  0  0
  -21.4173  -29.3053   22.3666 N   0  0  0  0  0  0
  -26.4301  -37.3782   23.9414 N   0  0  0  0  0  0
  -24.6871  -31.0609   22.0942 N   0  0  0  0  0  0
  -23.4176  -28.8190   23.3035 O   0  0  0  0  0  0
  -28.3484  -26.4578   20.1376 O   0  0  0  0  0  0
  -26.5625  -34.8932   22.4681 O   0  0  0  0  0  0
  -23.5419  -32.1386   23.7317 O   0  0  0  0  0  0
  -29.4196  -19.7608   20.6913 C   0  0  0  0  0  0
  -30.7064  -19.8268   18.2495 C   0  0  0  0  0  0
  -30.0289  -18.5304   20.2190 C   0  0  0  0  0  0
  -29.4587  -21.0321   19.9862 C   0  0  0  0  0  0
  -30.6494  -18.6014   18.9504 C   0  0  0  0  0  0
  -30.1658  -21.0375   18.7553 C   0  0  0  0  0  0
  -31.3364  -17.3986   18.3283 C   0  0  0  0  0  0
  -31.4290  -22.3387   17.1788 C   0  0  0  0  0  0
  -28.7820  -22.3500   20.5881 C   0  0  0  0  0  0
  -30.2015  -17.2303   21.1249 C   0  0  0  0  0  0
  -28.8761  -23.8198   19.9140 C   0  0  0  0  0  0
  -28.1926  -25.0697   20.6586 C   0  0  0  0  0  0
  -29.8335  -15.8154   20.7055 N   0  0  0  0  0  0
  -30.3242  -22.2248   18.0737 O   0  0  0  0  0  0
  -31.4776  -12.5573   19.1775 H   0  0  0  0  0  0
  -30.3645  -11.4510   19.9487 H   0  0  0  0  0  0
  -29.7979  -11.7360   17.5066 H   0  0  0  0  0  0
  -29.6492  -13.4631   17.7371 H   0  0  0  0  0  0
  -27.8794  -11.2830   18.8922 H   0  0  0  0  0  0
  -27.3840  -12.5355   17.7899 H   0  0  0  0  0  0
  -27.6420  -14.2508   19.4727 H   0  0  0  0  0  0
  -28.6997  -12.1435   21.4198 H   0  0  0  0  0  0
  -28.4150  -13.8197   21.7976 H   0  0  0  0  0  0
  -25.2764   -9.5723   22.4742 H   0  0  0  0  0  0
  -24.0010   -7.4659   22.7498 H   0  0  0  0  0  0
  -21.0807   -8.8733   19.8983 H   0  0  0  0  0  0
  -22.3629  -10.9648   19.6163 H   0  0  0  0  0  0
  -21.1993   -7.6146   23.9692 H   0  0  0  0  0  0
  -21.1518   -6.0520   25.9060 H   0  0  0  0  0  0
  -22.0598   -2.7611   23.2797 H   0  0  0  0  0  0
  -22.4078  -11.9922   22.4804 H   0  0  0  0  0  0
  -21.1101  -13.1326   22.2648 H   0  0  0  0  0  0
  -24.6501  -15.8375   20.4893 H   0  0  0  0  0  0
  -26.2596  -15.6193   20.0291 H   0  0  0  0  0  0
  -26.7166  -32.5468   23.1086 H   0  0  0  0  0  0
  -25.0084  -33.9731   25.0430 H   0  0  0  0  0  0
  -22.7146  -31.3023   21.3953 H   0  0  0  0  0  0
  -23.3774  -35.9598   23.3286 H   0  0  0  0  0  0
  -24.3593  -36.8903   22.2052 H   0  0  0  0  0  0
  -23.7220  -37.6480   23.6639 H   0  0  0  0  0  0
  -26.0939  -31.5520   20.6022 H   0  0  0  0  0  0
  -26.8399  -30.8397   22.0025 H   0  0  0  0  0  0
  -28.1226  -28.9875   21.1843 H   0  0  0  0  0  0
  -26.0135  -25.9048   19.0363 H   0  0  0  0  0  0
  -23.9783  -27.2826   19.0311 H   0  0  0  0  0  0
  -23.7529  -30.5773   19.3986 H   0  0  0  0  0  0
  -22.7561  -29.2346   19.8636 H   0  0  0  0  0  0
  -25.1296  -36.1962   25.0831 H   0  0  0  0  0  0
  -20.9987  -28.3289   24.1395 H   0  0  0  0  0  0
  -20.5740  -26.2303   23.3599 H   0  0  0  0  0  0
  -21.6664  -26.7511   22.1169 H   0  0  0  0  0  0
  -19.6949  -25.6301   21.1249 H   0  0  0  0  0  0
  -19.6701  -27.3192   20.6735 H   0  0  0  0  0  0
  -17.4217  -26.6661   21.4029 H   0  0  0  0  0  0
  -18.0359  -26.0062   22.9018 H   0  0  0  0  0  0
  -19.7951  -30.7253   24.2284 H   0  0  0  0  0  0
  -17.5045  -31.6288   24.5154 H   0  0  0  0  0  0
  -15.5366  -30.3027   23.7648 H   0  0  0  0  0  0
  -15.8661  -28.0823   22.7123 H   0  0  0  0  0  0
  -24.5837  -30.7169   25.7744 H   0  0  0  0  0  0
  -24.8936  -32.2985   26.4806 H   0  0  0  0  0  0
  -25.7997  -30.8959   27.0209 H   0  0  0  0  0  0
  -26.2879  -29.6750   24.1171 H   0  0  0  0  0  0
  -27.3971  -29.7247   25.4683 H   0  0  0  0  0  0
  -27.8766  -30.4251   23.9396 H   0  0  0  0  0  0
  -27.2669  -33.3620   26.2018 H   0  0  0  0  0  0
  -28.3864  -32.6848   25.0278 H   0  0  0  0  0  0
  -28.0693  -31.8426   26.5384 H   0  0  0  0  0  0
  -28.2620  -38.0091   24.7530 H   0  0  0  0  0  0
  -28.1084  -36.2633   24.6286 H   0  0  0  0  0  0
  -27.2309  -37.1437   25.8872 H   0  0  0  0  0  0
  -20.9342  -29.8728   21.6843 H   0  0  0  0  0  0
  -26.0199  -38.2866   24.1396 H   0  0  0  0  0  0
  -28.9372  -19.7476   21.6583 H   0  0  0  0  0  0
  -31.2173  -19.8236   17.2996 H   0  0  0  0  0  0
  -31.7523  -17.6311   17.3484 H   0  0  0  0  0  0
  -30.6327  -16.5781   18.1901 H   0  0  0  0  0  0
  -32.1592  -17.0617   18.9577 H   0  0  0  0  0  0
  -31.5906  -23.3884   16.9351 H   0  0  0  0  0  0
  -31.2465  -21.8124   16.2403 H   0  0  0  0  0  0
  -32.3569  -21.9669   17.6206 H   0  0  0  0  0  0
  -29.1469  -22.4400   21.6120 H   0  0  0  0  0  0
  -27.7207  -22.1211   20.6893 H   0  0  0  0  0  0
  -29.6685  -17.4186   22.0582 H   0  0  0  0  0  0
  -31.2511  -17.2110   21.4211 H   0  0  0  0  0  0
  -28.4484  -23.7693   18.9122 H   0  0  0  0  0  0
  -29.9288  -24.0677   19.7794 H   0  0  0  0  0  0
  -28.6110  -25.1027   21.6660 H   0  0  0  0  0  0
  -27.1398  -24.8406   20.8196 H   0  0  0  0  0  0
  -28.8466  -15.6171   20.7709 H   0  0  0  0  0  0
  1 25  1  0  0  0
  1 30  2  0  0  0
  1 83  1  0  0  0
  2  3  1  0  0  0
  2 25  1  0  0  0
  2 85  1  0  0  0
  2 86  1  0  0  0
  3  4  1  0  0  0
  3 87  1  0  0  0
  3 88  1  0  0  0
  4  5  1  0  0  0
  4 89  1  0  0  0
  4 90  1  0  0  0
  5  6  1  0  0  0
  5 26  1  0  0  0
  5 91  1  0  0  0
  6 25  1  0  0  0
  6 92  1  0  0  0
  6 93  1  0  0  0
  7  8  2  0  0  0
  7 26  1  0  0  0
  7 29  1  0  0  0
  8  9  1  0  0  0
  8 22  1  0  0  0
  9 10  1  0  0  0
  9 27  2  0  0  0
 10 11  2  0  0  0
 10 15  1  0  0  0
 11 12  1  0  0  0
 11 94  1  0  0  0
 12 13  2  0  0  0
 12 95  1  0  0  0
 13 14  1  0  0  0
 13 31  1  0  0  0
 14 15  2  0  0  0
 14 96  1  0  0  0
 15 97  1  0  0  0
 16 17  2  0  0  0
 16 21  1  0  0  0
 16 31  1  0  0  0
 17 18  1  0  0  0
 17 98  1  0  0  0
 18 19  2  0  0  0
 18 99  1  0  0  0
 19 20  1  0  0  0
 19 24  1  0  0  0
 20 21  2  0  0  0
 20100  1  0  0  0
 21 23  1  0  0  0
 22 28  1  0  0  0
 22 32  2  0  0  0
 26 27  1  0  0  0
 28101  1  0  0  0
 28102  1  0  0  0
 29103  1  0  0  0
 29104  1  0  0  0
 33 34  1  0  0  0
 33 66  1  0  0  0
 33 70  2  0  0  0
 34 36  1  0  0  0
 34 59  1  0  0  0
 34105  1  0  0  0
 35 44  2  0  0  0
 35 45  1  0  0  0
 35 68  1  0  0  0
 36 56  1  0  0  0
 36106  1  0  0  0
 37 39  1  0  0  0
 37 47  1  0  0  0
 37 66  1  0  0  0
 37107  1  0  0  0
 38 43  2  0  0  0
 38 46  1  0  0  0
 38 47  1  0  0  0
 39 64  1  0  0  0
 39 67  2  0  0  0
 40 52  1  0  0  0
 40 53  2  0  0  0
 40 58  1  0  0  0
 41108  1  0  0  0
 41109  1  0  0  0
 41110  1  0  0  0
 41 48  1  0  0  0
 42 43  1  0  0  0
 42 66  1  0  0  0
 42111  1  0  0  0
 42112  1  0  0  0
 43 44  1  0  0  0
 44113  1  0  0  0
 45 46  2  0  0  0
 45114  1  0  0  0
 46115  1  0  0  0
 47116  1  0  0  0
 47117  1  0  0  0
 48 56  1  0  0  0
 48 65  1  0  0  0
 48118  1  0  0  0
 49 50  1  0  0  0
 49 53  1  0  0  0
 49 64  1  0  0  0
 49119  1  0  0  0
 50 51  1  0  0  0
 50120  1  0  0  0
 50121  1  0  0  0
 51 52  1  0  0  0
 51122  1  0  0  0
 51123  1  0  0  0
 52124  1  0  0  0
 52125  1  0  0  0
 53 54  1  0  0  0
 54 55  2  0  0  0
 54126  1  0  0  0
 55 57  1  0  0  0
 55127  1  0  0  0
 56 69  2  0  0  0
 57 58  2  0  0  0
 57128  1  0  0  0
 58129  1  0  0  0
 59 60  1  0  0  0
 59 61  1  0  0  0
 59 62  1  0  0  0
 60130  1  0  0  0
 60131  1  0  0  0
 60132  1  0  0  0
 61133  1  0  0  0
 61134  1  0  0  0
 61135  1  0  0  0
 62136  1  0  0  0
 62137  1  0  0  0
 62138  1  0  0  0
 63 65  1  0  0  0
 63139  1  0  0  0
 63140  1  0  0  0
 63141  1  0  0  0
 64142  1  0  0  0
 65143  1  0  0  0
 68 82  1  0  0  0
 71 73  2  0  0  0
 71 74  1  0  0  0
 71144  1  0  0  0
 72 75  2  0  0  0
 72 76  1  0  0  0
 72145  1  0  0  0
 73 75  1  0  0  0
 73 80  1  0  0  0
 74 76  2  0  0  0
 74 79  1  0  0  0
 75 77  1  0  0  0
 76 84  1  0  0  0
 77146  1  0  0  0
 77147  1  0  0  0
 77148  1  0  0  0
 78 84  1  0  0  0
 78149  1  0  0  0
 78150  1  0  0  0
 78151  1  0  0  0
 79 81  1  0  0  0
 79152  1  0  0  0
 79153  1  0  0  0
 80 83  1  0  0  0
 80154  1  0  0  0
 80155  1  0  0  0
 81 82  1  0  0  0
 81156  1  0  0  0
 81157  1  0  0  0
 82158  1  0  0  0
 82159  1  0  0  0
 83160  1  0  0  0
M  ISO  4   1 100  68 101  82 101  83 100
M  END
> <chiral flag>
0

> <version>
0

> <s_m_source_file>
/data/baiqing/PycharmProjects/Reinvent-master-3.2/result/LINK_invent/BTK/process_docking_weight1_custom_sum_contain_oxygen_bond_distance_aromatic_linkinvent_7_9_3/rearranged_h_0033.sdf

> <i_m_source_file_index>
54

> <r_mmod_Potential_Energy-OPLS-2005>
86.7100524902344

> <r_mmod_Stretch_Energy-OPLS-2005>
108.32438659668

> <r_mmod_Bend_Energy-OPLS-2005>
162.379989624023

> <r_mmod_Torsional_Energy-OPLS-2005>
231.100311279297

> <r_mmod_Improper_Torsional_Energy-OPLS-2005>
5.59216451644897

> <r_mmod_Van_der_Waal_Energy-OPLS-2005>
145.43229675293

> <r_mmod_Electrostatic_Energy-OPLS-2005>
-420.085144042969

> <r_mmod_Solvation_Energy-OPLS-2005>
-210.447875976562

> <b_mmod_Minimization_Converged-OPLS-2005>
0

> <r_mmod_RMS_Derivative-OPLS-2005>
3.23395895957947

$$$$
55
                    3D
 Structure written by MMmdl.
179187  0  0  1  0            999 V2000
  -30.6603  -14.4801   20.4958 C   0  0  0  0  0  0
  -30.4429  -12.2913   19.4064 C   0  0  0  0  0  0
  -29.5017  -12.5049   18.1979 C   0  0  0  0  0  0
  -28.0237  -12.3619   18.6176 C   0  0  0  0  0  0
  -27.6720  -13.1936   19.8813 C   0  0  2  0  0  0
  -28.7232  -12.9405   20.9918 C   0  0  0  0  0  0
  -25.2639  -13.8128   20.5578 C   0  0  0  0  0  0
  -24.1846  -13.0425   20.9089 C   0  0  0  0  0  0
  -24.6394  -11.6900   20.8699 C   0  0  0  0  0  0
  -23.9019  -10.4303   21.0345 C   0  0  0  0  0  0
  -24.3577   -9.4223   21.9113 C   0  0  0  0  0  0
  -23.6252   -8.2262   22.0728 C   0  0  0  0  0  0
  -22.4245   -8.0291   21.3526 C   0  0  0  0  0  0
  -21.9843   -9.0229   20.4609 C   0  0  0  0  0  0
  -22.7181  -10.2125   20.3006 C   0  0  0  0  0  0
  -21.6873   -6.0708   22.5271 C   0  0  0  0  0  0
  -21.4027   -6.5602   23.8194 C   0  0  0  0  0  0
  -21.3627   -5.6771   24.9170 C   0  0  0  0  0  0
  -21.6040   -4.3033   24.7252 C   0  0  0  0  0  0
  -21.8829   -3.8117   23.4382 C   0  0  0  0  0  0
  -21.9194   -4.6926   22.3417 C   0  0  0  0  0  0
  -22.7878  -13.5217   21.1745 C   0  0  0  0  0  0
  -22.1658   -4.2097   21.1009 F   0  0  0  0  0  0
  -21.5614   -3.4517   25.7759 F   0  0  0  0  0  0
  -30.0485  -13.2645   20.4353 N   0  0  0  0  0  0
  -26.3078  -12.9267   20.3351 N   0  0  0  0  0  0
  -25.9321  -11.6435   20.5726 N   0  0  0  0  0  0
  -22.0525  -12.8200   22.0320 N   0  0  0  0  0  0
  -25.4419  -15.1834   20.3931 N   0  0  0  0  0  0
  -31.8048  -14.6819   20.0841 O   0  0  0  0  0  0
  -21.6659   -6.8854   21.4229 O   0  0  0  0  0  0
  -22.3546  -14.5495   20.6596 O   0  0  0  0  0  0
  -24.6101  -31.8722   23.2142 C   0  0  0  0  0  0
  -25.9002  -32.4851   23.8433 C   0  0  1  0  0  0
  -27.2544  -27.4792   20.0983 C   0  0  0  0  0  0
  -25.5865  -33.8646   24.2368 N   0  0  0  0  0  0
  -23.3951  -30.4939   21.5533 C   0  0  2  0  0  0
  -24.8474  -28.9641   20.1198 C   0  0  0  0  0  0
  -22.7376  -29.4673   22.5019 C   0  0  0  0  0  0
  -18.0262  -28.1384   22.8492 C   0  0  0  0  0  0
  -24.1475  -36.7326   23.2633 C   0  0  0  0  0  0
  -25.9164  -30.8542   21.3586 C   0  0  0  0  0  0
  -26.0001  -29.4882   20.7159 C   0  0  0  0  0  0
  -27.2033  -28.7545   20.7117 C   0  0  0  0  0  0
  -26.0847  -26.9638   19.5012 C   0  0  0  0  0  0
  -24.8809  -27.6968   19.5127 C   0  0  0  0  0  0
  -23.6038  -29.8235   20.1678 C   0  0  0  0  0  0
  -25.4091  -36.3131   24.0346 C   0  0  1  0  0  0
  -20.5842  -28.3655   23.1339 C   0  0  2  0  0  0
  -20.6754  -26.9399   22.5419 C   0  0  0  0  0  0
  -19.5733  -26.6394   21.5211 C   0  0  0  0  0  0
  -18.1907  -26.7935   22.1621 C   0  0  0  0  0  0
  -19.1505  -28.8835   23.2911 C   0  0  0  0  0  0
  -18.9442  -30.1438   23.8927 C   0  0  0  0  0  0
  -17.6448  -30.6587   24.0568 C   0  0  0  0  0  0
  -25.9022  -34.9486   23.5152 C   0  0  0  0  0  0
  -16.5342  -29.9095   23.6321 C   0  0  0  0  0  0
  -16.7251  -28.6511   23.0342 C   0  0  0  0  0  0
  -26.4453  -31.6602   25.0725 C   0  0  0  0  0  0
  -25.3739  -31.3665   26.1477 C   0  0  0  0  0  0
  -27.0296  -30.3067   24.6035 C   0  0  0  0  0  0
  -27.6038  -32.4309   25.7486 C   0  0  0  0  0  0
  -27.5589  -37.1805   24.8452 C   0  0  0  0  0  0
  -21.4119  -29.3030   22.3764 N   0  0  0  0  0  0
  -26.4283  -37.3815   23.9427 N   0  0  0  0  0  0
  -24.6584  -31.0867   22.1022 N   0  0  0  0  0  0
  -23.4172  -28.8216   23.3053 O   0  0  0  0  0  0
  -28.3829  -26.6923   20.0322 O   0  0  0  0  0  0
  -26.5586  -34.8929   22.4719 O   0  0  0  0  0  0
  -23.5304  -32.1444   23.7558 O   0  0  0  0  0  0
  -32.6624  -22.2204   16.3340 C   0  0  0  0  0  0
  -31.9242  -21.2548   15.6156 C   0  0  0  0  0  0
  -30.5203  -21.1916   15.8171 C   0  0  0  0  0  0
  -31.9846  -23.1165   17.1765 C   0  0  0  0  0  0
  -29.9355  -22.1595   16.6692 C   0  0  0  0  0  0
  -33.5981  -19.3453   15.2907 C   0  0  0  0  0  0
  -32.6674  -20.3650   14.6283 C   0  0  0  0  0  0
  -29.6363  -20.1474   15.1152 C   0  0  0  0  0  0
  -32.7180  -24.2060   17.9497 C   0  0  0  0  0  0
  -29.7357  -18.7013   15.6714 C   0  0  0  0  0  0
  -32.1418  -24.4810   19.3593 C   0  0  0  0  0  0
  -29.8009  -18.5978   17.2214 C   0  0  0  0  0  0
  -31.0777  -25.5982   19.3674 C   0  0  0  0  0  0
  -29.3098  -17.2365   17.7958 C   0  0  0  0  0  0
  -28.8779  -17.2517   19.2881 C   0  0  0  0  0  0
  -30.5437  -25.9164   20.7735 C   0  0  0  0  0  0
  -29.9480  -16.8990   20.3588 C   0  0  0  0  0  0
  -29.5217  -27.0638   20.7987 C   0  0  0  0  0  0
  -30.6483  -23.1054   17.3025 N   0  0  0  0  0  0
  -29.8394  -15.4985   20.8089 N   0  0  0  0  0  0
  -28.2374  -22.2129   16.9794 Cl  0  0  0  0  0  0
  -31.4882  -12.3966   19.1075 H   0  0  0  0  0  0
  -30.3450  -11.2707   19.7833 H   0  0  0  0  0  0
  -29.7328  -11.7925   17.4053 H   0  0  0  0  0  0
  -29.6661  -13.4949   17.7732 H   0  0  0  0  0  0
  -27.8357  -11.3049   18.8068 H   0  0  0  0  0  0
  -27.3704  -12.6359   17.7926 H   0  0  0  0  0  0
  -27.7201  -14.2430   19.5959 H   0  0  0  0  0  0
  -28.7027  -11.8834   21.2657 H   0  0  0  0  0  0
  -28.5061  -13.4814   21.9147 H   0  0  0  0  0  0
  -25.2734   -9.5699   22.4670 H   0  0  0  0  0  0
  -23.9937   -7.4668   22.7488 H   0  0  0  0  0  0
  -21.0752   -8.8722   19.8935 H   0  0  0  0  0  0
  -22.3599  -10.9607   19.6112 H   0  0  0  0  0  0
  -21.2050   -7.6117   23.9679 H   0  0  0  0  0  0
  -21.1406   -6.0515   25.9048 H   0  0  0  0  0  0
  -22.0650   -2.7580   23.2919 H   0  0  0  0  0  0
  -22.4196  -11.9847   22.4613 H   0  0  0  0  0  0
  -21.1163  -13.1249   22.2572 H   0  0  0  0  0  0
  -24.6895  -15.8543   20.5053 H   0  0  0  0  0  0
  -26.2898  -15.6008   20.0282 H   0  0  0  0  0  0
  -26.7078  -32.5597   23.1217 H   0  0  0  0  0  0
  -25.0018  -33.9824   25.0511 H   0  0  0  0  0  0
  -22.6814  -31.3081   21.4154 H   0  0  0  0  0  0
  -23.3751  -35.9646   23.3272 H   0  0  0  0  0  0
  -24.3586  -36.8964   22.2059 H   0  0  0  0  0  0
  -23.7205  -37.6513   23.6659 H   0  0  0  0  0  0
  -26.0108  -31.6161   20.5844 H   0  0  0  0  0  0
  -26.8104  -30.9228   21.9652 H   0  0  0  0  0  0
  -28.0796  -29.1858   21.1739 H   0  0  0  0  0  0
  -26.1087  -25.9911   19.0299 H   0  0  0  0  0  0
  -23.9951  -27.2837   19.0524 H   0  0  0  0  0  0
  -23.7062  -30.5979   19.4079 H   0  0  0  0  0  0
  -22.7310  -29.2379   19.8753 H   0  0  0  0  0  0
  -25.1261  -36.2007   25.0843 H   0  0  0  0  0  0
  -20.9927  -28.3213   24.1457 H   0  0  0  0  0  0
  -20.5667  -26.2263   23.3595 H   0  0  0  0  0  0
  -21.6626  -26.7454   22.1207 H   0  0  0  0  0  0
  -19.6894  -25.6310   21.1226 H   0  0  0  0  0  0
  -19.6679  -27.3219   20.6753 H   0  0  0  0  0  0
  -17.4181  -26.6688   21.4011 H   0  0  0  0  0  0
  -18.0295  -26.0070   22.9006 H   0  0  0  0  0  0
  -19.7920  -30.7244   24.2318 H   0  0  0  0  0  0
  -17.5004  -31.6279   24.5164 H   0  0  0  0  0  0
  -15.5341  -30.3012   23.7636 H   0  0  0  0  0  0
  -15.8646  -28.0846   22.7041 H   0  0  0  0  0  0
  -24.5902  -30.7027   25.7794 H   0  0  0  0  0  0
  -24.8932  -32.2808   26.4975 H   0  0  0  0  0  0
  -25.8102  -30.8788   27.0206 H   0  0  0  0  0  0
  -26.2834  -29.6826   24.1098 H   0  0  0  0  0  0
  -27.4131  -29.7285   25.4456 H   0  0  0  0  0  0
  -27.8632  -30.4436   23.9134 H   0  0  0  0  0  0
  -27.2669  -33.3607   26.2083 H   0  0  0  0  0  0
  -28.3836  -32.6873   25.0300 H   0  0  0  0  0  0
  -28.0712  -31.8412   26.5384 H   0  0  0  0  0  0
  -28.2550  -38.0156   24.7585 H   0  0  0  0  0  0
  -28.1138  -36.2697   24.6162 H   0  0  0  0  0  0
  -27.2321  -37.1317   25.8851 H   0  0  0  0  0  0
  -20.9271  -29.8767   21.6996 H   0  0  0  0  0  0
  -26.0171  -38.2886   24.1469 H   0  0  0  0  0  0
  -33.7387  -22.2844   16.2226 H   0  0  0  0  0  0
  -34.1625  -18.7995   14.5344 H   0  0  0  0  0  0
  -33.0362  -18.6183   15.8740 H   0  0  0  0  0  0
  -34.3175  -19.8235   15.9516 H   0  0  0  0  0  0
  -33.2522  -21.0077   13.9679 H   0  0  0  0  0  0
  -31.9781  -19.8341   13.9771 H   0  0  0  0  0  0
  -29.8205  -20.1743   14.0389 H   0  0  0  0  0  0
  -28.5926  -20.4477   15.1846 H   0  0  0  0  0  0
  -32.7362  -25.1216   17.3576 H   0  0  0  0  0  0
  -33.7605  -23.9048   18.0569 H   0  0  0  0  0  0
  -30.6062  -18.2112   15.2319 H   0  0  0  0  0  0
  -28.8771  -18.1461   15.2828 H   0  0  0  0  0  0
  -32.9559  -24.7879   20.0156 H   0  0  0  0  0  0
  -31.7426  -23.5627   19.7909 H   0  0  0  0  0  0
  -29.1712  -19.3887   17.6284 H   0  0  0  0  0  0
  -30.8197  -18.8205   17.5536 H   0  0  0  0  0  0
  -30.2401  -25.3061   18.7314 H   0  0  0  0  0  0
  -31.4946  -26.5044   18.9204 H   0  0  0  0  0  0
  -30.0323  -16.4407   17.6075 H   0  0  0  0  0  0
  -28.4142  -16.9639   17.2284 H   0  0  0  0  0  0
  -28.0466  -16.5539   19.3932 H   0  0  0  0  0  0
  -28.4348  -18.2219   19.5284 H   0  0  0  0  0  0
  -31.3776  -26.1814   21.4228 H   0  0  0  0  0  0
  -30.0909  -25.0239   21.2076 H   0  0  0  0  0  0
  -29.7610  -17.5277   21.2326 H   0  0  0  0  0  0
  -30.9496  -17.1482   20.0119 H   0  0  0  0  0  0
  -29.9646  -27.9803   20.4073 H   0  0  0  0  0  0
  -29.2354  -27.2555   21.8336 H   0  0  0  0  0  0
  -28.9754  -15.2463   21.2659 H   0  0  0  0  0  0
  1 25  1  0  0  0
  1 30  2  0  0  0
  1 90  1  0  0  0
  2  3  1  0  0  0
  2 25  1  0  0  0
  2 92  1  0  0  0
  2 93  1  0  0  0
  3  4  1  0  0  0
  3 94  1  0  0  0
  3 95  1  0  0  0
  4  5  1  0  0  0
  4 96  1  0  0  0
  4 97  1  0  0  0
  5  6  1  0  0  0
  5 26  1  0  0  0
  5 98  1  0  0  0
  6 25  1  0  0  0
  6 99  1  0  0  0
  6100  1  0  0  0
  7  8  2  0  0  0
  7 26  1  0  0  0
  7 29  1  0  0  0
  8  9  1  0  0  0
  8 22  1  0  0  0
  9 10  1  0  0  0
  9 27  2  0  0  0
 10 11  2  0  0  0
 10 15  1  0  0  0
 11 12  1  0  0  0
 11101  1  0  0  0
 12 13  2  0  0  0
 12102  1  0  0  0
 13 14  1  0  0  0
 13 31  1  0  0  0
 14 15  2  0  0  0
 14103  1  0  0  0
 15104  1  0  0  0
 16 17  2  0  0  0
 16 21  1  0  0  0
 16 31  1  0  0  0
 17 18  1  0  0  0
 17105  1  0  0  0
 18 19  2  0  0  0
 18106  1  0  0  0
 19 20  1  0  0  0
 19 24  1  0  0  0
 20 21  2  0  0  0
 20107  1  0  0  0
 21 23  1  0  0  0
 22 28  1  0  0  0
 22 32  2  0  0  0
 26 27  1  0  0  0
 28108  1  0  0  0
 28109  1  0  0  0
 29110  1  0  0  0
 29111  1  0  0  0
 33 34  1  0  0  0
 33 66  1  0  0  0
 33 70  2  0  0  0
 34 36  1  0  0  0
 34 59  1  0  0  0
 34112  1  0  0  0
 35 44  2  0  0  0
 35 45  1  0  0  0
 35 68  1  0  0  0
 36 56  1  0  0  0
 36113  1  0  0  0
 37 39  1  0  0  0
 37 47  1  0  0  0
 37 66  1  0  0  0
 37114  1  0  0  0
 38 43  2  0  0  0
 38 46  1  0  0  0
 38 47  1  0  0  0
 39 64  1  0  0  0
 39 67  2  0  0  0
 40 52  1  0  0  0
 40 53  2  0  0  0
 40 58  1  0  0  0
 41115  1  0  0  0
 41116  1  0  0  0
 41117  1  0  0  0
 41 48  1  0  0  0
 42 43  1  0  0  0
 42 66  1  0  0  0
 42118  1  0  0  0
 42119  1  0  0  0
 43 44  1  0  0  0
 44120  1  0  0  0
 45 46  2  0  0  0
 45121  1  0  0  0
 46122  1  0  0  0
 47123  1  0  0  0
 47124  1  0  0  0
 48 56  1  0  0  0
 48 65  1  0  0  0
 48125  1  0  0  0
 49 50  1  0  0  0
 49 53  1  0  0  0
 49 64  1  0  0  0
 49126  1  0  0  0
 50 51  1  0  0  0
 50127  1  0  0  0
 50128  1  0  0  0
 51 52  1  0  0  0
 51129  1  0  0  0
 51130  1  0  0  0
 52131  1  0  0  0
 52132  1  0  0  0
 53 54  1  0  0  0
 54 55  2  0  0  0
 54133  1  0  0  0
 55 57  1  0  0  0
 55134  1  0  0  0
 56 69  2  0  0  0
 57 58  2  0  0  0
 57135  1  0  0  0
 58136  1  0  0  0
 59 60  1  0  0  0
 59 61  1  0  0  0
 59 62  1  0  0  0
 60137  1  0  0  0
 60138  1  0  0  0
 60139  1  0  0  0
 61140  1  0  0  0
 61141  1  0  0  0
 61142  1  0  0  0
 62143  1  0  0  0
 62144  1  0  0  0
 62145  1  0  0  0
 63 65  1  0  0  0
 63146  1  0  0  0
 63147  1  0  0  0
 63148  1  0  0  0
 64149  1  0  0  0
 65150  1  0  0  0
 68 88  1  0  0  0
 71 72  2  0  0  0
 71 74  1  0  0  0
 71151  1  0  0  0
 72 73  1  0  0  0
 72 77  1  0  0  0
 73 75  2  0  0  0
 73 78  1  0  0  0
 74 79  1  0  0  0
 74 89  2  0  0  0
 75 89  1  0  0  0
 75 91  1  0  0  0
 76 77  1  0  0  0
 76152  1  0  0  0
 76153  1  0  0  0
 76154  1  0  0  0
 77155  1  0  0  0
 77156  1  0  0  0
 78 80  1  0  0  0
 78157  1  0  0  0
 78158  1  0  0  0
 79 81  1  0  0  0
 79159  1  0  0  0
 79160  1  0  0  0
 80 82  1  0  0  0
 80161  1  0  0  0
 80162  1  0  0  0
 81 83  1  0  0  0
 81163  1  0  0  0
 81164  1  0  0  0
 82 84  1  0  0  0
 82165  1  0  0  0
 82166  1  0  0  0
 83 86  1  0  0  0
 83167  1  0  0  0
 83168  1  0  0  0
 84 85  1  0  0  0
 84169  1  0  0  0
 84170  1  0  0  0
 85 87  1  0  0  0
 85171  1  0  0  0
 85172  1  0  0  0
 86 88  1  0  0  0
 86173  1  0  0  0
 86174  1  0  0  0
 87 90  1  0  0  0
 87175  1  0  0  0
 87176  1  0  0  0
 88177  1  0  0  0
 88178  1  0  0  0
 90179  1  0  0  0
M  ISO  4   1 100  68 101  88 101  90 100
M  END
> <chiral flag>
0

> <version>
0

> <s_m_source_file>
/data/baiqing/PycharmProjects/Reinvent-master-3.2/result/LINK_invent/BTK/process_docking_weight1_custom_sum_contain_oxygen_bond_distance_aromatic_linkinvent_7_9_3/rearranged_h_0033.sdf

> <i_m_source_file_index>
55

> <r_mmod_Potential_Energy-OPLS-2005>
-176.985961914062

> <r_mmod_Stretch_Energy-OPLS-2005>
38.4690704345703

> <r_mmod_Bend_Energy-OPLS-2005>
112.154579162598

> <r_mmod_Torsional_Energy-OPLS-2005>
239.955108642578

> <r_mmod_Improper_Torsional_Energy-OPLS-2005>
6.4451470375061

> <r_mmod_Van_der_Waal_Energy-OPLS-2005>
150.72737121582

> <r_mmod_Electrostatic_Energy-OPLS-2005>
-523.302978515625

> <r_mmod_Solvation_Energy-OPLS-2005>
-213.671615600586

> <b_mmod_Minimization_Converged-OPLS-2005>
0

> <r_mmod_RMS_Derivative-OPLS-2005>
6.4728422164917

$$$$
56
                    3D
 Structure written by MMmdl.
199207  0  0  1  0            999 V2000
  -30.7704  -14.3436   20.7081 C   0  0  0  0  0  0
  -30.4146  -12.2878   19.3823 C   0  0  0  0  0  0
  -29.4783  -12.5296   18.1858 C   0  0  0  0  0  0
  -28.0051  -12.3809   18.6089 C   0  0  0  0  0  0
  -27.6682  -13.1999   19.8828 C   0  0  2  0  0  0
  -28.7088  -12.9394   20.9951 C   0  0  0  0  0  0
  -25.2618  -13.8151   20.5684 C   0  0  0  0  0  0
  -24.1855  -13.0440   20.9165 C   0  0  0  0  0  0
  -24.6394  -11.6899   20.8728 C   0  0  0  0  0  0
  -23.9058  -10.4290   21.0401 C   0  0  0  0  0  0
  -24.3610   -9.4208   21.9183 C   0  0  0  0  0  0
  -23.6286   -8.2245   22.0756 C   0  0  0  0  0  0
  -22.4272   -8.0280   21.3541 C   0  0  0  0  0  0
  -21.9904   -9.0255   20.4645 C   0  0  0  0  0  0
  -22.7231  -10.2133   20.3051 C   0  0  0  0  0  0
  -21.6851   -6.0734   22.5280 C   0  0  0  0  0  0
  -21.4013   -6.5640   23.8213 C   0  0  0  0  0  0
  -21.3659   -5.6791   24.9175 C   0  0  0  0  0  0
  -21.6044   -4.3055   24.7225 C   0  0  0  0  0  0
  -21.8820   -3.8146   23.4347 C   0  0  0  0  0  0
  -21.9192   -4.6963   22.3402 C   0  0  0  0  0  0
  -22.7876  -13.5241   21.1829 C   0  0  0  0  0  0
  -22.1661   -4.2148   21.0979 F   0  0  0  0  0  0
  -21.5630   -3.4539   25.7739 F   0  0  0  0  0  0
  -30.0461  -13.2258   20.4507 N   0  0  0  0  0  0
  -26.3061  -12.9312   20.3408 N   0  0  0  0  0  0
  -25.9321  -11.6474   20.5769 N   0  0  0  0  0  0
  -22.0513  -12.8237   22.0384 N   0  0  0  0  0  0
  -25.4359  -15.1869   20.4096 N   0  0  0  0  0  0
  -31.7791  -14.6382   20.0563 O   0  0  0  0  0  0
  -21.6637   -6.8878   21.4240 O   0  0  0  0  0  0
  -22.3563  -14.5552   20.6683 O   0  0  0  0  0  0
  -24.6078  -31.8706   23.2117 C   0  0  0  0  0  0
  -25.8999  -32.4833   23.8396 C   0  0  1  0  0  0
  -27.2628  -27.5001   20.0812 C   0  0  0  0  0  0
  -25.5870  -33.8634   24.2321 N   0  0  0  0  0  0
  -23.3919  -30.4909   21.5505 C   0  0  2  0  0  0
  -24.8398  -28.9601   20.1149 C   0  0  0  0  0  0
  -22.7368  -29.4658   22.5013 C   0  0  0  0  0  0
  -18.0261  -28.1365   22.8488 C   0  0  0  0  0  0
  -24.1485  -36.7322   23.2638 C   0  0  0  0  0  0
  -25.9114  -30.8566   21.3520 C   0  0  0  0  0  0
  -25.9911  -29.4945   20.7019 C   0  0  0  0  0  0
  -27.1957  -28.7718   20.6826 C   0  0  0  0  0  0
  -26.0889  -26.9590   19.5160 C   0  0  0  0  0  0
  -24.8793  -27.6850   19.5210 C   0  0  0  0  0  0
  -23.5968  -29.8175   20.1649 C   0  0  0  0  0  0
  -25.4103  -36.3114   24.0330 C   0  0  1  0  0  0
  -20.5844  -28.3637   23.1341 C   0  0  2  0  0  0
  -20.6745  -26.9383   22.5420 C   0  0  0  0  0  0
  -19.5732  -26.6377   21.5200 C   0  0  0  0  0  0
  -18.1908  -26.7913   22.1610 C   0  0  0  0  0  0
  -19.1508  -28.8814   23.2916 C   0  0  0  0  0  0
  -18.9444  -30.1424   23.8919 C   0  0  0  0  0  0
  -17.6452  -30.6575   24.0562 C   0  0  0  0  0  0
  -25.9027  -34.9483   23.5122 C   0  0  0  0  0  0
  -16.5342  -29.9086   23.6311 C   0  0  0  0  0  0
  -16.7253  -28.6503   23.0327 C   0  0  0  0  0  0
  -26.4473  -31.6602   25.0701 C   0  0  0  0  0  0
  -25.3766  -31.3687   26.1475 C   0  0  0  0  0  0
  -27.0306  -30.3059   24.6015 C   0  0  0  0  0  0
  -27.6050  -32.4332   25.7456 C   0  0  0  0  0  0
  -27.5573  -37.1821   24.8461 C   0  0  0  0  0  0
  -21.4102  -29.3019   22.3760 N   0  0  0  0  0  0
  -26.4285  -37.3800   23.9405 N   0  0  0  0  0  0
  -24.6549  -31.0863   22.0979 N   0  0  0  0  0  0
  -23.4170  -28.8217   23.3040 O   0  0  0  0  0  0
  -28.4038  -26.7272   20.0282 O   0  0  0  0  0  0
  -26.5609  -34.8930   22.4694 O   0  0  0  0  0  0
  -23.5292  -32.1443   23.7549 O   0  0  0  0  0  0
  -31.0756  -28.5762   18.0209 C   0  0  0  0  0  0
  -32.2555  -27.8001   18.6184 C   0  0  0  0  0  0
  -29.7471  -28.3919   18.7902 C   0  0  0  0  0  0
  -31.9319  -26.3021   18.7630 C   0  0  2  0  0  0
  -30.4941  -26.0285   19.3008 C   0  0  1  0  0  0
  -29.7358  -27.2717   19.8813 C   0  0  2  0  0  0
  -33.0209  -25.5647   19.5603 C   0  0  0  0  0  0
  -30.6841  -29.1521   21.5607 C   0  0  0  0  0  0
  -30.3467  -15.2593   21.8700 C   0  0  0  0  0  0
  -31.3421  -16.4054   22.1399 C   0  0  0  0  0  0
  -30.9692  -17.2677   23.3553 C   0  0  0  0  0  0
  -31.9650  -18.4195   23.5492 C   0  0  0  0  0  0
  -31.6537  -19.3047   24.7644 C   0  0  0  0  0  0
  -32.6188  -20.4957   24.8469 C   0  0  0  0  0  0
  -32.3411  -21.4338   26.0304 C   0  0  0  0  0  0
  -33.2134  -22.6949   25.9556 C   0  0  0  0  0  0
  -32.9221  -23.7093   27.0739 C   0  0  0  0  0  0
  -33.7241  -25.0245   26.9508 C   0  0  0  0  0  0
  -33.5068  -25.8098   25.6394 C   0  0  0  0  0  0
  -32.0799  -26.3608   25.4706 C   0  0  0  0  0  0
  -31.6872  -26.5748   24.0014 C   0  0  0  0  0  0
  -30.2711  -27.1585   23.8687 C   0  0  0  0  0  0
  -29.6361  -26.9826   22.4770 C   0  0  0  0  0  0
  -30.3670  -27.6569   21.2872 C   0  0  1  0  0  0
  -29.5503  -25.2815   17.9670 Cl  0  0  0  0  0  0
  -31.4566  -12.3912   19.0742 H   0  0  0  0  0  0
  -30.3154  -11.2630   19.7438 H   0  0  0  0  0  0
  -29.7090  -11.8314   17.3805 H   0  0  0  0  0  0
  -29.6472  -13.5298   17.7839 H   0  0  0  0  0  0
  -27.8143  -11.3221   18.7875 H   0  0  0  0  0  0
  -27.3478  -12.6738   17.7896 H   0  0  0  0  0  0
  -27.7286  -14.2546   19.6135 H   0  0  0  0  0  0
  -28.6675  -11.8974   21.3154 H   0  0  0  0  0  0
  -28.4619  -13.5239   21.8802 H   0  0  0  0  0  0
  -25.2756   -9.5688   22.4755 H   0  0  0  0  0  0
  -23.9998   -7.4638   22.7476 H   0  0  0  0  0  0
  -21.0837   -8.8769   19.8949 H   0  0  0  0  0  0
  -22.3690  -10.9670   19.6157 H   0  0  0  0  0  0
  -21.2005   -7.6148   23.9715 H   0  0  0  0  0  0
  -21.1480   -6.0522   25.9077 H   0  0  0  0  0  0
  -22.0600   -2.7609   23.2846 H   0  0  0  0  0  0
  -22.4119  -11.9887   22.4763 H   0  0  0  0  0  0
  -21.1133  -13.1269   22.2592 H   0  0  0  0  0  0
  -24.6753  -15.8484   20.5218 H   0  0  0  0  0  0
  -26.3004  -15.6239   20.1141 H   0  0  0  0  0  0
  -26.7071  -32.5576   23.1173 H   0  0  0  0  0  0
  -25.0010  -33.9814   25.0454 H   0  0  0  0  0  0
  -22.6772  -31.3044   21.4108 H   0  0  0  0  0  0
  -23.3733  -35.9671   23.3323 H   0  0  0  0  0  0
  -24.3575  -36.8927   22.2050 H   0  0  0  0  0  0
  -23.7262  -37.6534   23.6660 H   0  0  0  0  0  0
  -26.0142  -31.6245   20.5840 H   0  0  0  0  0  0
  -26.8027  -30.9134   21.9648 H   0  0  0  0  0  0
  -28.0622  -29.2045   21.1350 H   0  0  0  0  0  0
  -26.1188  -25.9796   19.0586 H   0  0  0  0  0  0
  -23.9931  -27.2590   19.0705 H   0  0  0  0  0  0
  -23.6995  -30.5911   19.4029 H   0  0  0  0  0  0
  -22.7239  -29.2308   19.8722 H   0  0  0  0  0  0
  -25.1285  -36.1967   25.0823 H   0  0  0  0  0  0
  -20.9926  -28.3189   24.1465 H   0  0  0  0  0  0
  -20.5622  -26.2248   23.3599 H   0  0  0  0  0  0
  -21.6627  -26.7431   22.1235 H   0  0  0  0  0  0
  -19.6906  -25.6292   21.1217 H   0  0  0  0  0  0
  -19.6672  -27.3195   20.6737 H   0  0  0  0  0  0
  -17.4180  -26.6644   21.4013 H   0  0  0  0  0  0
  -18.0331  -26.0048   22.9003 H   0  0  0  0  0  0
  -19.7929  -30.7219   24.2301 H   0  0  0  0  0  0
  -17.5020  -31.6257   24.5163 H   0  0  0  0  0  0
  -15.5345  -30.3003   23.7621 H   0  0  0  0  0  0
  -15.8652  -28.0840   22.7017 H   0  0  0  0  0  0
  -24.5912  -30.7057   25.7828 H   0  0  0  0  0  0
  -24.8984  -32.2842   26.4977 H   0  0  0  0  0  0
  -25.8145  -30.8825   27.0200 H   0  0  0  0  0  0
  -26.2843  -29.6845   24.1051 H   0  0  0  0  0  0
  -27.4099  -29.7252   25.4434 H   0  0  0  0  0  0
  -27.8665  -30.4404   23.9142 H   0  0  0  0  0  0
  -27.2639  -33.3572   26.2137 H   0  0  0  0  0  0
  -28.3791  -32.7004   25.0252 H   0  0  0  0  0  0
  -28.0807  -31.8414   26.5286 H   0  0  0  0  0  0
  -28.2602  -38.0109   24.7495 H   0  0  0  0  0  0
  -28.1058  -36.2642   24.6294 H   0  0  0  0  0  0
  -27.2298  -37.1476   25.8868 H   0  0  0  0  0  0
  -20.9249  -29.8768   21.7015 H   0  0  0  0  0  0
  -26.0164  -38.2874   24.1406 H   0  0  0  0  0  0
  -30.9321  -28.2434   16.9920 H   0  0  0  0  0  0
  -31.3227  -29.6366   17.9547 H   0  0  0  0  0  0
  -32.5338  -28.2282   19.5805 H   0  0  0  0  0  0
  -33.1334  -27.9235   17.9825 H   0  0  0  0  0  0
  -28.9894  -28.1543   18.0423 H   0  0  0  0  0  0
  -29.4235  -29.3476   19.1989 H   0  0  0  0  0  0
  -31.9856  -25.8885   17.7547 H   0  0  0  0  0  0
  -30.5337  -25.2593   20.0737 H   0  0  0  0  0  0
  -33.0795  -25.9118   20.5913 H   0  0  0  0  0  0
  -34.0023  -25.7111   19.1084 H   0  0  0  0  0  0
  -32.8309  -24.4916   19.5829 H   0  0  0  0  0  0
  -31.1114  -29.6612   20.6982 H   0  0  0  0  0  0
  -31.4359  -29.2350   22.3455 H   0  0  0  0  0  0
  -29.8378  -29.7362   21.9095 H   0  0  0  0  0  0
  -29.3620  -15.6739   21.6512 H   0  0  0  0  0  0
  -30.2520  -14.6511   22.7702 H   0  0  0  0  0  0
  -31.4057  -17.0395   21.2541 H   0  0  0  0  0  0
  -32.3408  -15.9915   22.2922 H   0  0  0  0  0  0
  -30.9423  -16.6469   24.2523 H   0  0  0  0  0  0
  -29.9639  -17.6713   23.2257 H   0  0  0  0  0  0
  -31.9728  -19.0363   22.6489 H   0  0  0  0  0  0
  -32.9733  -18.0148   23.6491 H   0  0  0  0  0  0
  -31.7138  -18.7133   25.6790 H   0  0  0  0  0  0
  -30.6283  -19.6714   24.6971 H   0  0  0  0  0  0
  -32.5509  -21.0632   23.9172 H   0  0  0  0  0  0
  -33.6463  -20.1337   24.9077 H   0  0  0  0  0  0
  -32.5151  -20.9110   26.9720 H   0  0  0  0  0  0
  -31.2890  -21.7225   26.0245 H   0  0  0  0  0  0
  -33.0372  -23.1570   24.9853 H   0  0  0  0  0  0
  -34.2685  -22.4185   25.9789 H   0  0  0  0  0  0
  -33.1525  -23.2488   28.0356 H   0  0  0  0  0  0
  -31.8539  -23.9215   27.1084 H   0  0  0  0  0  0
  -34.7863  -24.7970   27.0500 H   0  0  0  0  0  0
  -33.4822  -25.6696   27.7971 H   0  0  0  0  0  0
  -33.7802  -25.1895   24.7864 H   0  0  0  0  0  0
  -34.2065  -26.6463   25.6053 H   0  0  0  0  0  0
  -31.9817  -27.2913   26.0311 H   0  0  0  0  0  0
  -31.3552  -25.6756   25.9068 H   0  0  0  0  0  0
  -31.7357  -25.6159   23.4826 H   0  0  0  0  0  0
  -32.4089  -27.2281   23.5096 H   0  0  0  0  0  0
  -30.2702  -28.2085   24.1631 H   0  0  0  0  0  0
  -29.6171  -26.6586   24.5849 H   0  0  0  0  0  0
  -28.6161  -27.3577   22.5401 H   0  0  0  0  0  0
  -29.5403  -25.9146   22.2756 H   0  0  0  0  0  0
  -31.3570  -27.2084   21.2922 H   0  0  0  0  0  0
  1 25  1  0  0  0
  1 30  2  0  0  0
  1 79  1  0  0  0
  2  3  1  0  0  0
  2 25  1  0  0  0
  2 96  1  0  0  0
  2 97  1  0  0  0
  3  4  1  0  0  0
  3 98  1  0  0  0
  3 99  1  0  0  0
  4  5  1  0  0  0
  4100  1  0  0  0
  4101  1  0  0  0
  5  6  1  0  0  0
  5 26  1  0  0  0
  5102  1  0  0  0
  6 25  1  0  0  0
  6103  1  0  0  0
  6104  1  0  0  0
  7  8  2  0  0  0
  7 26  1  0  0  0
  7 29  1  0  0  0
  8  9  1  0  0  0
  8 22  1  0  0  0
  9 10  1  0  0  0
  9 27  2  0  0  0
 10 11  2  0  0  0
 10 15  1  0  0  0
 11 12  1  0  0  0
 11105  1  0  0  0
 12 13  2  0  0  0
 12106  1  0  0  0
 13 14  1  0  0  0
 13 31  1  0  0  0
 14 15  2  0  0  0
 14107  1  0  0  0
 15108  1  0  0  0
 16 17  2  0  0  0
 16 21  1  0  0  0
 16 31  1  0  0  0
 17 18  1  0  0  0
 17109  1  0  0  0
 18 19  2  0  0  0
 18110  1  0  0  0
 19 20  1  0  0  0
 19 24  1  0  0  0
 20 21  2  0  0  0
 20111  1  0  0  0
 21 23  1  0  0  0
 22 28  1  0  0  0
 22 32  2  0  0  0
 26 27  1  0  0  0
 28112  1  0  0  0
 28113  1  0  0  0
 29114  1  0  0  0
 29115  1  0  0  0
 33 34  1  0  0  0
 33 66  1  0  0  0
 33 70  2  0  0  0
 34 36  1  0  0  0
 34 59  1  0  0  0
 34116  1  0  0  0
 35 44  2  0  0  0
 35 45  1  0  0  0
 35 68  1  0  0  0
 36 56  1  0  0  0
 36117  1  0  0  0
 37 39  1  0  0  0
 37 47  1  0  0  0
 37 66  1  0  0  0
 37118  1  0  0  0
 38 43  2  0  0  0
 38 46  1  0  0  0
 38 47  1  0  0  0
 39 64  1  0  0  0
 39 67  2  0  0  0
 40 52  1  0  0  0
 40 53  2  0  0  0
 40 58  1  0  0  0
 41119  1  0  0  0
 41120  1  0  0  0
 41121  1  0  0  0
 41 48  1  0  0  0
 42 43  1  0  0  0
 42 66  1  0  0  0
 42122  1  0  0  0
 42123  1  0  0  0
 43 44  1  0  0  0
 44124  1  0  0  0
 45 46  2  0  0  0
 45125  1  0  0  0
 46126  1  0  0  0
 47127  1  0  0  0
 47128  1  0  0  0
 48 56  1  0  0  0
 48 65  1  0  0  0
 48129  1  0  0  0
 49 50  1  0  0  0
 49 53  1  0  0  0
 49 64  1  0  0  0
 49130  1  0  0  0
 50 51  1  0  0  0
 50131  1  0  0  0
 50132  1  0  0  0
 51 52  1  0  0  0
 51133  1  0  0  0
 51134  1  0  0  0
 52135  1  0  0  0
 52136  1  0  0  0
 53 54  1  0  0  0
 54 55  2  0  0  0
 54137  1  0  0  0
 55 57  1  0  0  0
 55138  1  0  0  0
 56 69  2  0  0  0
 57 58  2  0  0  0
 57139  1  0  0  0
 58140  1  0  0  0
 59 60  1  0  0  0
 59 61  1  0  0  0
 59 62  1  0  0  0
 60141  1  0  0  0
 60142  1  0  0  0
 60143  1  0  0  0
 61144  1  0  0  0
 61145  1  0  0  0
 61146  1  0  0  0
 62147  1  0  0  0
 62148  1  0  0  0
 62149  1  0  0  0
 63 65  1  0  0  0
 63150  1  0  0  0
 63151  1  0  0  0
 63152  1  0  0  0
 64153  1  0  0  0
 65154  1  0  0  0
 68 76  1  0  0  0
 71 72  1  0  0  0
 71 73  1  0  0  0
 71155  1  0  0  0
 71156  1  0  0  0
 72 74  1  0  0  0
 72157  1  0  0  0
 72158  1  0  0  0
 73 76  1  0  0  0
 73159  1  0  0  0
 73160  1  0  0  0
 74 75  1  0  0  0
 74 77  1  0  0  0
 74161  1  0  0  0
 75 76  1  0  0  0
 75 95  1  0  0  0
 75162  1  0  0  0
 76 94  1  0  0  0
 77163  1  0  0  0
 77164  1  0  0  0
 77165  1  0  0  0
 78166  1  0  0  0
 78167  1  0  0  0
 78168  1  0  0  0
 78 94  1  0  0  0
 79 80  1  0  0  0
 79169  1  0  0  0
 79170  1  0  0  0
 80 81  1  0  0  0
 80171  1  0  0  0
 80172  1  0  0  0
 81 82  1  0  0  0
 81173  1  0  0  0
 81174  1  0  0  0
 82 83  1  0  0  0
 82175  1  0  0  0
 82176  1  0  0  0
 83 84  1  0  0  0
 83177  1  0  0  0
 83178  1  0  0  0
 84 85  1  0  0  0
 84179  1  0  0  0
 84180  1  0  0  0
 85 86  1  0  0  0
 85181  1  0  0  0
 85182  1  0  0  0
 86 87  1  0  0  0
 86183  1  0  0  0
 86184  1  0  0  0
 87 88  1  0  0  0
 87185  1  0  0  0
 87186  1  0  0  0
 88 89  1  0  0  0
 88187  1  0  0  0
 88188  1  0  0  0
 89 90  1  0  0  0
 89189  1  0  0  0
 89190  1  0  0  0
 90 91  1  0  0  0
 90191  1  0  0  0
 90192  1  0  0  0
 91 92  1  0  0  0
 91193  1  0  0  0
 91194  1  0  0  0
 92 93  1  0  0  0
 92195  1  0  0  0
 92196  1  0  0  0
 93 94  1  0  0  0
 93197  1  0  0  0
 93198  1  0  0  0
 94199  1  0  0  0
M  ISO  4   1 100  68 101  76 101  79 100
M  END
> <chiral flag>
0

> <version>
0

> <s_m_source_file>
/data/baiqing/PycharmProjects/Reinvent-master-3.2/result/LINK_invent/BTK/process_docking_weight1_custom_sum_contain_oxygen_bond_distance_aromatic_linkinvent_7_9_3/rearranged_h_0033.sdf

> <i_m_source_file_index>
56

> <r_mmod_Potential_Energy-OPLS-2005>
161.994964599609

> <r_mmod_Stretch_Energy-OPLS-2005>
42.011058807373

> <r_mmod_Bend_Energy-OPLS-2005>
134.105545043945

> <r_mmod_Torsional_Energy-OPLS-2005>
274.937774658203

> <r_mmod_Improper_Torsional_Energy-OPLS-2005>
1.57803070545197

> <r_mmod_Van_der_Waal_Energy-OPLS-2005>
145.094039916992

> <r_mmod_Electrostatic_Energy-OPLS-2005>
-279.408752441406

> <r_mmod_Solvation_Energy-OPLS-2005>
-162.152420043945

> <b_mmod_Minimization_Converged-OPLS-2005>
0

> <r_mmod_RMS_Derivative-OPLS-2005>
0.946982622146606

$$$$
57
                    3D
 Structure written by MMmdl.
165173  0  0  1  0            999 V2000
  -30.6274  -14.4348   20.5884 C   0  0  0  0  0  0
  -30.4309  -12.2914   19.3886 C   0  0  0  0  0  0
  -29.4872  -12.5272   18.1893 C   0  0  0  0  0  0
  -28.0106  -12.3716   18.6083 C   0  0  0  0  0  0
  -27.6644  -13.1789   19.8866 C   0  0  2  0  0  0
  -28.7011  -12.8787   20.9910 C   0  0  0  0  0  0
  -25.2595  -13.8059   20.5642 C   0  0  0  0  0  0
  -24.1826  -13.0396   20.9133 C   0  0  0  0  0  0
  -24.6329  -11.6850   20.8677 C   0  0  0  0  0  0
  -23.8997  -10.4287   21.0365 C   0  0  0  0  0  0
  -24.3552   -9.4207   21.9165 C   0  0  0  0  0  0
  -23.6255   -8.2245   22.0748 C   0  0  0  0  0  0
  -22.4256   -8.0255   21.3538 C   0  0  0  0  0  0
  -21.9857   -9.0212   20.4640 C   0  0  0  0  0  0
  -22.7153  -10.2108   20.3045 C   0  0  0  0  0  0
  -21.6862   -6.0709   22.5294 C   0  0  0  0  0  0
  -21.4010   -6.5616   23.8202 C   0  0  0  0  0  0
  -21.3649   -5.6779   24.9181 C   0  0  0  0  0  0
  -21.6048   -4.3042   24.7230 C   0  0  0  0  0  0
  -21.8819   -3.8134   23.4362 C   0  0  0  0  0  0
  -21.9189   -4.6948   22.3410 C   0  0  0  0  0  0
  -22.7856  -13.5211   21.1832 C   0  0  0  0  0  0
  -22.1670   -4.2120   21.0995 F   0  0  0  0  0  0
  -21.5622   -3.4529   25.7749 F   0  0  0  0  0  0
  -30.0323  -13.2210   20.4517 N   0  0  0  0  0  0
  -26.3004  -12.9186   20.3401 N   0  0  0  0  0  0
  -25.9240  -11.6368   20.5723 N   0  0  0  0  0  0
  -22.0569  -12.8190   22.0416 N   0  0  0  0  0  0
  -25.4330  -15.1776   20.4001 N   0  0  0  0  0  0
  -31.7548  -14.7029   20.1626 O   0  0  0  0  0  0
  -21.6645   -6.8855   21.4247 O   0  0  0  0  0  0
  -22.3510  -14.5528   20.6723 O   0  0  0  0  0  0
  -24.6252  -31.8652   23.2090 C   0  0  0  0  0  0
  -25.9162  -32.4771   23.8362 C   0  0  1  0  0  0
  -27.1927  -27.3684   20.0552 C   0  0  0  0  0  0
  -25.6008  -33.8568   24.2283 N   0  0  0  0  0  0
  -23.4105  -30.4978   21.5557 C   0  0  2  0  0  0
  -24.8359  -28.9593   20.1192 C   0  0  0  0  0  0
  -22.7421  -29.4683   22.4999 C   0  0  0  0  0  0
  -18.0298  -28.1400   22.8493 C   0  0  0  0  0  0
  -24.1511  -36.7281   23.2637 C   0  0  0  0  0  0
  -25.9533  -30.7965   21.3844 C   0  0  0  0  0  0
  -26.0106  -29.4361   20.7117 C   0  0  0  0  0  0
  -27.1920  -28.6488   20.6771 C   0  0  0  0  0  0
  -25.9731  -26.9119   19.5001 C   0  0  0  0  0  0
  -24.8125  -27.6959   19.5202 C   0  0  0  0  0  0
  -23.6133  -29.8427   20.1682 C   0  0  0  0  0  0
  -25.4147  -36.3072   24.0325 C   0  0  1  0  0  0
  -20.5877  -28.3701   23.1309 C   0  0  2  0  0  0
  -20.6810  -26.9441   22.5406 C   0  0  0  0  0  0
  -19.5787  -26.6401   21.5213 C   0  0  0  0  0  0
  -18.1958  -26.7948   22.1606 C   0  0  0  0  0  0
  -19.1542  -28.8864   23.2893 C   0  0  0  0  0  0
  -18.9461  -30.1465   23.8921 C   0  0  0  0  0  0
  -17.6460  -30.6599   24.0576 C   0  0  0  0  0  0
  -25.9076  -34.9445   23.5080 C   0  0  0  0  0  0
  -16.5355  -29.9091   23.6330 C   0  0  0  0  0  0
  -16.7289  -28.6512   23.0346 C   0  0  0  0  0  0
  -26.4539  -31.6579   25.0734 C   0  0  0  0  0  0
  -25.3785  -31.3713   26.1459 C   0  0  0  0  0  0
  -27.0396  -30.3001   24.6244 C   0  0  0  0  0  0
  -27.6088  -32.4333   25.7500 C   0  0  0  0  0  0
  -27.5594  -37.1803   24.8462 C   0  0  0  0  0  0
  -21.4164  -29.3071   22.3699 N   0  0  0  0  0  0
  -26.4314  -37.3771   23.9397 N   0  0  0  0  0  0
  -24.6826  -31.0693   22.1049 N   0  0  0  0  0  0
  -23.4164  -28.8245   23.3074 O   0  0  0  0  0  0
  -28.3638  -26.6179   19.9798 O   0  0  0  0  0  0
  -26.5598  -34.8908   22.4624 O   0  0  0  0  0  0
  -23.5441  -32.1464   23.7444 O   0  0  0  0  0  0
  -30.6391  -22.5164   19.5822 C   0  0  0  0  0  0
  -29.4193  -21.0947   17.5232 C   0  0  0  0  0  0
  -30.9332  -21.1405   19.4221 C   0  0  0  0  0  0
  -29.7617  -23.2102   18.7236 C   0  0  0  0  0  0
  -30.3169  -20.3991   18.3732 C   0  0  0  0  0  0
  -29.1377  -22.4728   17.6855 C   0  0  0  0  0  0
  -33.2926  -20.2109   19.7201 C   0  0  0  0  0  0
  -31.9471  -20.5400   20.3849 C   0  0  0  0  0  0
  -29.6041  -24.7374   18.9145 C   0  0  0  0  0  0
  -30.6635  -18.9376   17.9945 C   0  0  0  0  0  0
  -30.7593  -17.8078   19.0615 C   0  0  0  0  0  0
  -29.5782  -17.6666   20.0318 C   0  0  0  0  0  0
  -29.9085  -16.8000   21.2751 C   0  0  0  0  0  0
  -28.3026  -25.2095   19.6002 C   0  0  0  0  0  0
  -29.7849  -15.3565   21.0880 N   0  0  0  0  0  0
  -27.9367  -23.3000   16.4603 Br  0  0  0  0  0  0
  -31.4712  -12.4290   19.0893 H   0  0  0  0  0  0
  -30.3544  -11.2558   19.7290 H   0  0  0  0  0  0
  -29.7235  -11.8326   17.3823 H   0  0  0  0  0  0
  -29.6449  -13.5266   17.7803 H   0  0  0  0  0  0
  -27.8365  -11.3118   18.7898 H   0  0  0  0  0  0
  -27.3501  -12.6612   17.7920 H   0  0  0  0  0  0
  -27.7306  -14.2360   19.6246 H   0  0  0  0  0  0
  -28.6746  -11.8198   21.2593 H   0  0  0  0  0  0
  -28.4572  -13.3979   21.9204 H   0  0  0  0  0  0
  -25.2721   -9.5683   22.4682 H   0  0  0  0  0  0
  -23.9960   -7.4638   22.7429 H   0  0  0  0  0  0
  -21.0803   -8.8707   19.8923 H   0  0  0  0  0  0
  -22.3619  -10.9613   19.6123 H   0  0  0  0  0  0
  -21.2034   -7.6133   23.9702 H   0  0  0  0  0  0
  -21.1456   -6.0529   25.9072 H   0  0  0  0  0  0
  -22.0613   -2.7588   23.2878 H   0  0  0  0  0  0
  -22.4236  -11.9816   22.4684 H   0  0  0  0  0  0
  -21.1206  -13.1177   22.2705 H   0  0  0  0  0  0
  -24.6627  -15.8280   20.4946 H   0  0  0  0  0  0
  -26.2792  -15.6221   20.0668 H   0  0  0  0  0  0
  -26.7221  -32.5403   23.1075 H   0  0  0  0  0  0
  -25.0251  -33.9713   25.0497 H   0  0  0  0  0  0
  -22.7072  -31.3216   21.4203 H   0  0  0  0  0  0
  -23.3761  -35.9613   23.3292 H   0  0  0  0  0  0
  -24.3625  -36.8903   22.2049 H   0  0  0  0  0  0
  -23.7255  -37.6490   23.6659 H   0  0  0  0  0  0
  -26.1120  -31.5731   20.6340 H   0  0  0  0  0  0
  -26.8239  -30.8091   22.0301 H   0  0  0  0  0  0
  -28.1034  -29.0129   21.1316 H   0  0  0  0  0  0
  -25.8399  -25.9540   19.0306 H   0  0  0  0  0  0
  -23.9028  -27.3163   19.0773 H   0  0  0  0  0  0
  -23.7343  -30.6216   19.4126 H   0  0  0  0  0  0
  -22.7302  -29.2786   19.8685 H   0  0  0  0  0  0
  -25.1317  -36.1920   25.0813 H   0  0  0  0  0  0
  -20.9976  -28.3277   24.1422 H   0  0  0  0  0  0
  -20.5781  -26.2303   23.3590 H   0  0  0  0  0  0
  -21.6677  -26.7538   22.1157 H   0  0  0  0  0  0
  -19.6974  -25.6310   21.1258 H   0  0  0  0  0  0
  -19.6742  -27.3199   20.6738 H   0  0  0  0  0  0
  -17.4236  -26.6710   21.3984 H   0  0  0  0  0  0
  -18.0351  -26.0081   22.8987 H   0  0  0  0  0  0
  -19.7932  -30.7280   24.2288 H   0  0  0  0  0  0
  -17.5018  -31.6288   24.5157 H   0  0  0  0  0  0
  -15.5360  -30.3001   23.7668 H   0  0  0  0  0  0
  -15.8678  -28.0851   22.7038 H   0  0  0  0  0  0
  -24.5929  -30.7106   25.7758 H   0  0  0  0  0  0
  -24.9023  -32.2887   26.4943 H   0  0  0  0  0  0
  -25.8114  -30.8818   27.0189 H   0  0  0  0  0  0
  -26.2974  -29.6708   24.1317 H   0  0  0  0  0  0
  -27.4109  -29.7307   25.4769 H   0  0  0  0  0  0
  -27.8844  -30.4231   23.9461 H   0  0  0  0  0  0
  -27.2678  -33.3605   26.2111 H   0  0  0  0  0  0
  -28.3883  -32.6950   25.0332 H   0  0  0  0  0  0
  -28.0798  -31.8464   26.5393 H   0  0  0  0  0  0
  -28.2584  -38.0114   24.7529 H   0  0  0  0  0  0
  -28.1106  -36.2654   24.6263 H   0  0  0  0  0  0
  -27.2316  -37.1423   25.8859 H   0  0  0  0  0  0
  -20.9341  -29.8750   21.6875 H   0  0  0  0  0  0
  -26.0182  -38.2838   24.1399 H   0  0  0  0  0  0
  -31.1283  -23.0743   20.3660 H   0  0  0  0  0  0
  -28.9629  -20.5696   16.6932 H   0  0  0  0  0  0
  -34.0135  -19.8678   20.4631 H   0  0  0  0  0  0
  -33.7158  -21.0816   19.2157 H   0  0  0  0  0  0
  -33.2008  -19.4255   18.9738 H   0  0  0  0  0  0
  -31.5077  -19.6762   20.8764 H   0  0  0  0  0  0
  -32.1376  -21.2349   21.2058 H   0  0  0  0  0  0
  -29.7056  -25.2389   17.9514 H   0  0  0  0  0  0
  -30.4375  -25.0932   19.5184 H   0  0  0  0  0  0
  -31.6150  -18.9694   17.4613 H   0  0  0  0  0  0
  -29.9397  -18.6034   17.2514 H   0  0  0  0  0  0
  -31.6779  -17.9153   19.6336 H   0  0  0  0  0  0
  -30.8907  -16.8565   18.5448 H   0  0  0  0  0  0
  -28.6907  -17.3032   19.5088 H   0  0  0  0  0  0
  -29.3103  -18.6611   20.3862 H   0  0  0  0  0  0
  -29.1749  -17.0467   22.0414 H   0  0  0  0  0  0
  -30.8796  -17.0469   21.7027 H   0  0  0  0  0  0
  -28.1239  -24.6166   20.4973 H   0  0  0  0  0  0
  -27.5142  -24.9430   18.9025 H   0  0  0  0  0  0
  -28.8991  -14.9734   21.3823 H   0  0  0  0  0  0
  1 25  1  0  0  0
  1 30  2  0  0  0
  1 85  1  0  0  0
  2  3  1  0  0  0
  2 25  1  0  0  0
  2 87  1  0  0  0
  2 88  1  0  0  0
  3  4  1  0  0  0
  3 89  1  0  0  0
  3 90  1  0  0  0
  4  5  1  0  0  0
  4 91  1  0  0  0
  4 92  1  0  0  0
  5  6  1  0  0  0
  5 26  1  0  0  0
  5 93  1  0  0  0
  6 25  1  0  0  0
  6 94  1  0  0  0
  6 95  1  0  0  0
  7  8  2  0  0  0
  7 26  1  0  0  0
  7 29  1  0  0  0
  8  9  1  0  0  0
  8 22  1  0  0  0
  9 10  1  0  0  0
  9 27  2  0  0  0
 10 11  2  0  0  0
 10 15  1  0  0  0
 11 12  1  0  0  0
 11 96  1  0  0  0
 12 13  2  0  0  0
 12 97  1  0  0  0
 13 14  1  0  0  0
 13 31  1  0  0  0
 14 15  2  0  0  0
 14 98  1  0  0  0
 15 99  1  0  0  0
 16 17  2  0  0  0
 16 21  1  0  0  0
 16 31  1  0  0  0
 17 18  1  0  0  0
 17100  1  0  0  0
 18 19  2  0  0  0
 18101  1  0  0  0
 19 20  1  0  0  0
 19 24  1  0  0  0
 20 21  2  0  0  0
 20102  1  0  0  0
 21 23  1  0  0  0
 22 28  1  0  0  0
 22 32  2  0  0  0
 26 27  1  0  0  0
 28103  1  0  0  0
 28104  1  0  0  0
 29105  1  0  0  0
 29106  1  0  0  0
 33 34  1  0  0  0
 33 66  1  0  0  0
 33 70  2  0  0  0
 34 36  1  0  0  0
 34 59  1  0  0  0
 34107  1  0  0  0
 35 44  2  0  0  0
 35 45  1  0  0  0
 35 68  1  0  0  0
 36 56  1  0  0  0
 36108  1  0  0  0
 37 39  1  0  0  0
 37 47  1  0  0  0
 37 66  1  0  0  0
 37109  1  0  0  0
 38 43  2  0  0  0
 38 46  1  0  0  0
 38 47  1  0  0  0
 39 64  1  0  0  0
 39 67  2  0  0  0
 40 52  1  0  0  0
 40 53  2  0  0  0
 40 58  1  0  0  0
 41110  1  0  0  0
 41111  1  0  0  0
 41112  1  0  0  0
 41 48  1  0  0  0
 42 43  1  0  0  0
 42 66  1  0  0  0
 42113  1  0  0  0
 42114  1  0  0  0
 43 44  1  0  0  0
 44115  1  0  0  0
 45 46  2  0  0  0
 45116  1  0  0  0
 46117  1  0  0  0
 47118  1  0  0  0
 47119  1  0  0  0
 48 56  1  0  0  0
 48 65  1  0  0  0
 48120  1  0  0  0
 49 50  1  0  0  0
 49 53  1  0  0  0
 49 64  1  0  0  0
 49121  1  0  0  0
 50 51  1  0  0  0
 50122  1  0  0  0
 50123  1  0  0  0
 51 52  1  0  0  0
 51124  1  0  0  0
 51125  1  0  0  0
 52126  1  0  0  0
 52127  1  0  0  0
 53 54  1  0  0  0
 54 55  2  0  0  0
 54128  1  0  0  0
 55 57  1  0  0  0
 55129  1  0  0  0
 56 69  2  0  0  0
 57 58  2  0  0  0
 57130  1  0  0  0
 58131  1  0  0  0
 59 60  1  0  0  0
 59 61  1  0  0  0
 59 62  1  0  0  0
 60132  1  0  0  0
 60133  1  0  0  0
 60134  1  0  0  0
 61135  1  0  0  0
 61136  1  0  0  0
 61137  1  0  0  0
 62138  1  0  0  0
 62139  1  0  0  0
 62140  1  0  0  0
 63 65  1  0  0  0
 63141  1  0  0  0
 63142  1  0  0  0
 63143  1  0  0  0
 64144  1  0  0  0
 65145  1  0  0  0
 68 84  1  0  0  0
 71 73  2  0  0  0
 71 74  1  0  0  0
 71146  1  0  0  0
 72 75  2  0  0  0
 72 76  1  0  0  0
 72147  1  0  0  0
 73 75  1  0  0  0
 73 78  1  0  0  0
 74 76  2  0  0  0
 74 79  1  0  0  0
 75 80  1  0  0  0
 76 86  1  0  0  0
 77 78  1  0  0  0
 77148  1  0  0  0
 77149  1  0  0  0
 77150  1  0  0  0
 78151  1  0  0  0
 78152  1  0  0  0
 79 84  1  0  0  0
 79153  1  0  0  0
 79154  1  0  0  0
 80 81  1  0  0  0
 80155  1  0  0  0
 80156  1  0  0  0
 81 82  1  0  0  0
 81157  1  0  0  0
 81158  1  0  0  0
 82 83  1  0  0  0
 82159  1  0  0  0
 82160  1  0  0  0
 83 85  1  0  0  0
 83161  1  0  0  0
 83162  1  0  0  0
 84163  1  0  0  0
 84164  1  0  0  0
 85165  1  0  0  0
M  ISO  4   1 100  68 101  84 101  85 100
M  END
> <chiral flag>
0

> <version>
0

> <s_m_source_file>
/data/baiqing/PycharmProjects/Reinvent-master-3.2/result/LINK_invent/BTK/process_docking_weight1_custom_sum_contain_oxygen_bond_distance_aromatic_linkinvent_7_9_3/rearranged_h_0033.sdf

> <i_m_source_file_index>
57

> <r_mmod_Potential_Energy-OPLS-2005>
-25.9478073120117

> <r_mmod_Stretch_Energy-OPLS-2005>
44.6905746459961

> <r_mmod_Bend_Energy-OPLS-2005>
131.000442504883

> <r_mmod_Torsional_Energy-OPLS-2005>
204.823669433594

> <r_mmod_Improper_Torsional_Energy-OPLS-2005>
4.6857123374939

> <r_mmod_Van_der_Waal_Energy-OPLS-2005>
154.339004516602

> <r_mmod_Electrostatic_Energy-OPLS-2005>
-387.717193603516

> <r_mmod_Solvation_Energy-OPLS-2005>
-199.034088134766

> <b_mmod_Minimization_Converged-OPLS-2005>
0

> <r_mmod_RMS_Derivative-OPLS-2005>
5.7822413444519

$$$$
58
                    3D
 Structure written by MMmdl.
183191  0  0  1  0            999 V2000
  -30.8247  -14.3024   20.7511 C   0  0  0  0  0  0
  -30.4105  -12.2972   19.3802 C   0  0  0  0  0  0
  -29.4810  -12.5573   18.1845 C   0  0  0  0  0  0
  -28.0066  -12.4043   18.6011 C   0  0  0  0  0  0
  -27.6658  -13.2120   19.8807 C   0  0  2  0  0  0
  -28.7050  -12.9504   20.9937 C   0  0  0  0  0  0
  -25.2562  -13.8177   20.5674 C   0  0  0  0  0  0
  -24.1819  -13.0436   20.9176 C   0  0  0  0  0  0
  -24.6379  -11.6913   20.8707 C   0  0  0  0  0  0
  -23.9043  -10.4289   21.0370 C   0  0  0  0  0  0
  -24.3585   -9.4211   21.9160 C   0  0  0  0  0  0
  -23.6279   -8.2239   22.0725 C   0  0  0  0  0  0
  -22.4264   -8.0272   21.3521 C   0  0  0  0  0  0
  -21.9891   -9.0229   20.4626 C   0  0  0  0  0  0
  -22.7206  -10.2124   20.3025 C   0  0  0  0  0  0
  -21.6860   -6.0726   22.5266 C   0  0  0  0  0  0
  -21.4013   -6.5630   23.8198 C   0  0  0  0  0  0
  -21.3655   -5.6783   24.9166 C   0  0  0  0  0  0
  -21.6058   -4.3044   24.7218 C   0  0  0  0  0  0
  -21.8817   -3.8139   23.4338 C   0  0  0  0  0  0
  -21.9192   -4.6952   22.3399 C   0  0  0  0  0  0
  -22.7839  -13.5232   21.1866 C   0  0  0  0  0  0
  -22.1667   -4.2138   21.0974 F   0  0  0  0  0  0
  -21.5628   -3.4529   25.7732 F   0  0  0  0  0  0
  -30.0553  -13.2208   20.4642 N   0  0  0  0  0  0
  -26.3026  -12.9355   20.3382 N   0  0  0  0  0  0
  -25.9311  -11.6504   20.5721 N   0  0  0  0  0  0
  -22.0461  -12.8195   22.0411 N   0  0  0  0  0  0
  -25.4307  -15.1875   20.4114 N   0  0  0  0  0  0
  -31.7812  -14.6589   20.0579 O   0  0  0  0  0  0
  -21.6634   -6.8860   21.4231 O   0  0  0  0  0  0
  -22.3517  -14.5533   20.6740 O   0  0  0  0  0  0
  -24.6182  -31.8711   23.2112 C   0  0  0  0  0  0
  -25.9099  -32.4827   23.8378 C   0  0  1  0  0  0
  -27.2441  -27.4869   20.0562 C   0  0  0  0  0  0
  -25.5978  -33.8616   24.2328 N   0  0  0  0  0  0
  -23.3966  -30.4958   21.5580 C   0  0  2  0  0  0
  -24.8432  -28.9628   20.1256 C   0  0  0  0  0  0
  -22.7409  -29.4683   22.5056 C   0  0  0  0  0  0
  -18.0246  -28.1421   22.8473 C   0  0  0  0  0  0
  -24.1493  -36.7258   23.2629 C   0  0  0  0  0  0
  -25.9234  -30.8516   21.3568 C   0  0  0  0  0  0
  -26.0038  -29.4892   20.7034 C   0  0  0  0  0  0
  -27.2084  -28.7573   20.6699 C   0  0  0  0  0  0
  -26.0547  -26.9434   19.5294 C   0  0  0  0  0  0
  -24.8551  -27.6811   19.5467 C   0  0  0  0  0  0
  -23.6025  -29.8233   20.1737 C   0  0  0  0  0  0
  -25.4125  -36.3113   24.0306 C   0  0  1  0  0  0
  -20.5835  -28.3699   23.1343 C   0  0  2  0  0  0
  -20.6768  -26.9430   22.5464 C   0  0  0  0  0  0
  -19.5759  -26.6431   21.5229 C   0  0  0  0  0  0
  -18.1905  -26.7982   22.1584 C   0  0  0  0  0  0
  -19.1497  -28.8873   23.2910 C   0  0  0  0  0  0
  -18.9432  -30.1486   23.8916 C   0  0  0  0  0  0
  -17.6441  -30.6614   24.0572 C   0  0  0  0  0  0
  -25.9050  -34.9470   23.5111 C   0  0  0  0  0  0
  -16.5321  -29.9114   23.6327 C   0  0  0  0  0  0
  -16.7241  -28.6543   23.0303 C   0  0  0  0  0  0
  -26.4525  -31.6593   25.0693 C   0  0  0  0  0  0
  -25.3761  -31.3661   26.1398 C   0  0  0  0  0  0
  -27.0287  -30.3030   24.6047 C   0  0  0  0  0  0
  -27.6102  -32.4275   25.7468 C   0  0  0  0  0  0
  -27.5593  -37.1775   24.8445 C   0  0  0  0  0  0
  -21.4134  -29.3065   22.3773 N   0  0  0  0  0  0
  -26.4299  -37.3828   23.9404 N   0  0  0  0  0  0
  -24.6628  -31.0862   22.0999 N   0  0  0  0  0  0
  -23.4207  -28.8196   23.3061 O   0  0  0  0  0  0
  -28.4205  -26.7768   19.9973 O   0  0  0  0  0  0
  -26.5618  -34.8930   22.4682 O   0  0  0  0  0  0
  -23.5391  -32.1392   23.7593 O   0  0  0  0  0  0
  -31.3984  -27.5656   17.8290 C   0  0  0  0  0  0
  -31.3164  -26.4211   16.8012 C   0  0  0  0  0  0
  -30.5729  -27.3049   19.0981 C   0  0  0  0  0  0
  -30.5019  -25.2034   17.2904 C   0  0  0  0  0  0
  -29.1433  -26.8489   18.7533 C   0  0  1  0  0  0
  -29.1036  -25.4949   17.9296 C   0  0  2  0  0  0
  -28.3129  -26.4456   15.5910 C   0  0  0  0  0  0
  -27.2247  -24.3650   16.3965 C   0  0  0  0  0  0
  -28.8481  -24.3407   18.9654 C   0  0  0  0  0  0
  -29.0842  -22.8615   18.5575 C   0  0  0  0  0  0
  -28.8581  -21.8917   19.7281 C   0  0  0  0  0  0
  -28.5048  -20.4785   19.2360 C   0  0  0  0  0  0
  -28.5446  -19.3914   20.3202 C   0  0  0  0  0  0
  -29.9650  -19.0796   20.8175 C   0  0  0  0  0  0
  -29.9892  -17.7905   21.6439 C   0  0  0  0  0  0
  -31.4017  -17.2429   21.8972 C   0  0  0  0  0  0
  -31.3772  -15.8793   22.6194 C   0  0  0  0  0  0
  -27.9502  -25.6400   16.8501 C   0  0  0  0  0  0
  -30.5654  -14.8657   21.9384 N   0  0  0  0  0  0
  -31.4532  -12.3975   19.0757 H   0  0  0  0  0  0
  -30.3008  -11.2701   19.7299 H   0  0  0  0  0  0
  -29.7130  -11.8709   17.3681 H   0  0  0  0  0  0
  -29.6530  -13.5635   17.7968 H   0  0  0  0  0  0
  -27.8108  -11.3451   18.7688 H   0  0  0  0  0  0
  -27.3536  -12.7100   17.7812 H   0  0  0  0  0  0
  -27.7236  -14.2690   19.6180 H   0  0  0  0  0  0
  -28.6548  -11.9086   21.3155 H   0  0  0  0  0  0
  -28.4500  -13.5422   21.8736 H   0  0  0  0  0  0
  -25.2724   -9.5714   22.4739 H   0  0  0  0  0  0
  -24.0004   -7.4630   22.7437 H   0  0  0  0  0  0
  -21.0813   -8.8733   19.8930 H   0  0  0  0  0  0
  -22.3638  -10.9646   19.6125 H   0  0  0  0  0  0
  -21.1996   -7.6135   23.9698 H   0  0  0  0  0  0
  -21.1492   -6.0512   25.9069 H   0  0  0  0  0  0
  -22.0600   -2.7598   23.2837 H   0  0  0  0  0  0
  -22.4054  -11.9857   22.4794 H   0  0  0  0  0  0
  -21.1077  -13.1211   22.2592 H   0  0  0  0  0  0
  -24.6707  -15.8523   20.5173 H   0  0  0  0  0  0
  -26.2986  -15.6208   20.1178 H   0  0  0  0  0  0
  -26.7171  -32.5516   23.1135 H   0  0  0  0  0  0
  -25.0189  -33.9765   25.0514 H   0  0  0  0  0  0
  -22.6838  -31.3115   21.4221 H   0  0  0  0  0  0
  -23.3787  -35.9564   23.3336 H   0  0  0  0  0  0
  -24.3592  -36.8894   22.2060 H   0  0  0  0  0  0
  -23.7225  -37.6452   23.6615 H   0  0  0  0  0  0
  -26.0397  -31.6240   20.5941 H   0  0  0  0  0  0
  -26.8132  -30.8986   21.9714 H   0  0  0  0  0  0
  -28.1098  -29.1734   21.0998 H   0  0  0  0  0  0
  -26.0498  -25.9447   19.1202 H   0  0  0  0  0  0
  -23.9525  -27.2500   19.1355 H   0  0  0  0  0  0
  -23.6968  -30.5931   19.4062 H   0  0  0  0  0  0
  -22.7277  -29.2398   19.8798 H   0  0  0  0  0  0
  -25.1336  -36.1970   25.0801 H   0  0  0  0  0  0
  -20.9893  -28.3283   24.1470 H   0  0  0  0  0  0
  -20.5719  -26.2258   23.3635 H   0  0  0  0  0  0
  -21.6630  -26.7519   22.1228 H   0  0  0  0  0  0
  -19.6912  -25.6351   21.1229 H   0  0  0  0  0  0
  -19.6747  -27.3276   20.6781 H   0  0  0  0  0  0
  -17.4227  -26.6752   21.3949 H   0  0  0  0  0  0
  -18.0252  -26.0124   22.8970 H   0  0  0  0  0  0
  -19.7909  -30.7290   24.2274 H   0  0  0  0  0  0
  -17.4988  -31.6256   24.5253 H   0  0  0  0  0  0
  -15.5327  -30.3004   23.7711 H   0  0  0  0  0  0
  -15.8618  -28.0923   22.6948 H   0  0  0  0  0  0
  -24.6075  -30.6867   25.7721 H   0  0  0  0  0  0
  -24.8697  -32.2749   26.4646 H   0  0  0  0  0  0
  -25.8094  -30.8991   27.0255 H   0  0  0  0  0  0
  -26.2767  -29.6863   24.1126 H   0  0  0  0  0  0
  -27.4107  -29.7253   25.4490 H   0  0  0  0  0  0
  -27.8598  -30.4363   23.9122 H   0  0  0  0  0  0
  -27.2778  -33.3633   26.1982 H   0  0  0  0  0  0
  -28.3941  -32.6781   25.0287 H   0  0  0  0  0  0
  -28.0688  -31.8394   26.5454 H   0  0  0  0  0  0
  -28.2601  -38.0092   24.7560 H   0  0  0  0  0  0
  -28.1103  -36.2631   24.6170 H   0  0  0  0  0  0
  -27.2286  -37.1332   25.8844 H   0  0  0  0  0  0
  -20.9299  -29.8673   21.6889 H   0  0  0  0  0  0
  -26.0191  -38.2900   24.1463 H   0  0  0  0  0  0
  -31.0523  -28.4867   17.3553 H   0  0  0  0  0  0
  -32.4383  -27.7435   18.1082 H   0  0  0  0  0  0
  -32.3241  -26.0837   16.5495 H   0  0  0  0  0  0
  -30.9218  -26.8044   15.8628 H   0  0  0  0  0  0
  -30.5377  -28.2228   19.6846 H   0  0  0  0  0  0
  -31.0672  -26.5574   19.7208 H   0  0  0  0  0  0
  -31.1373  -24.7238   18.0383 H   0  0  0  0  0  0
  -30.4049  -24.4730   16.4887 H   0  0  0  0  0  0
  -28.7284  -27.6582   18.1466 H   0  0  0  0  0  0
  -28.7218  -27.4238   15.8362 H   0  0  0  0  0  0
  -27.4275  -26.6200   14.9760 H   0  0  0  0  0  0
  -29.0308  -25.9136   14.9689 H   0  0  0  0  0  0
  -26.8081  -23.8118   17.2353 H   0  0  0  0  0  0
  -27.8866  -23.7142   15.8254 H   0  0  0  0  0  0
  -26.3728  -24.6106   15.7603 H   0  0  0  0  0  0
  -27.8366  -24.4343   19.3595 H   0  0  0  0  0  0
  -29.5075  -24.5118   19.8185 H   0  0  0  0  0  0
  -30.0965  -22.7078   18.1821 H   0  0  0  0  0  0
  -28.4304  -22.5575   17.7475 H   0  0  0  0  0  0
  -28.0510  -22.2525   20.3675 H   0  0  0  0  0  0
  -29.7551  -21.8797   20.3475 H   0  0  0  0  0  0
  -29.1668  -20.1901   18.4186 H   0  0  0  0  0  0
  -27.4988  -20.4986   18.8125 H   0  0  0  0  0  0
  -28.1151  -18.4844   19.8864 H   0  0  0  0  0  0
  -27.8943  -19.6532   21.1574 H   0  0  0  0  0  0
  -30.3494  -19.9088   21.4146 H   0  0  0  0  0  0
  -30.6353  -18.9766   19.9630 H   0  0  0  0  0  0
  -29.4073  -17.0365   21.1147 H   0  0  0  0  0  0
  -29.4863  -17.9569   22.5979 H   0  0  0  0  0  0
  -31.9746  -17.9559   22.4942 H   0  0  0  0  0  0
  -31.9443  -17.1495   20.9547 H   0  0  0  0  0  0
  -30.9716  -16.0139   23.6234 H   0  0  0  0  0  0
  -32.3919  -15.5023   22.7505 H   0  0  0  0  0  0
  -27.1708  -26.2333   17.3140 H   0  0  0  0  0  0
  -29.7892  -14.4802   22.4573 H   0  0  0  0  0  0
  1 25  1  0  0  0
  1 30  2  0  0  0
  1 89  1  0  0  0
  2  3  1  0  0  0
  2 25  1  0  0  0
  2 90  1  0  0  0
  2 91  1  0  0  0
  3  4  1  0  0  0
  3 92  1  0  0  0
  3 93  1  0  0  0
  4  5  1  0  0  0
  4 94  1  0  0  0
  4 95  1  0  0  0
  5  6  1  0  0  0
  5 26  1  0  0  0
  5 96  1  0  0  0
  6 25  1  0  0  0
  6 97  1  0  0  0
  6 98  1  0  0  0
  7  8  2  0  0  0
  7 26  1  0  0  0
  7 29  1  0  0  0
  8  9  1  0  0  0
  8 22  1  0  0  0
  9 10  1  0  0  0
  9 27  2  0  0  0
 10 11  2  0  0  0
 10 15  1  0  0  0
 11 12  1  0  0  0
 11 99  1  0  0  0
 12 13  2  0  0  0
 12100  1  0  0  0
 13 14  1  0  0  0
 13 31  1  0  0  0
 14 15  2  0  0  0
 14101  1  0  0  0
 15102  1  0  0  0
 16 17  2  0  0  0
 16 21  1  0  0  0
 16 31  1  0  0  0
 17 18  1  0  0  0
 17103  1  0  0  0
 18 19  2  0  0  0
 18104  1  0  0  0
 19 20  1  0  0  0
 19 24  1  0  0  0
 20 21  2  0  0  0
 20105  1  0  0  0
 21 23  1  0  0  0
 22 28  1  0  0  0
 22 32  2  0  0  0
 26 27  1  0  0  0
 28106  1  0  0  0
 28107  1  0  0  0
 29108  1  0  0  0
 29109  1  0  0  0
 33 34  1  0  0  0
 33 66  1  0  0  0
 33 70  2  0  0  0
 34 36  1  0  0  0
 34 59  1  0  0  0
 34110  1  0  0  0
 35 44  2  0  0  0
 35 45  1  0  0  0
 35 68  1  0  0  0
 36 56  1  0  0  0
 36111  1  0  0  0
 37 39  1  0  0  0
 37 47  1  0  0  0
 37 66  1  0  0  0
 37112  1  0  0  0
 38 43  2  0  0  0
 38 46  1  0  0  0
 38 47  1  0  0  0
 39 64  1  0  0  0
 39 67  2  0  0  0
 40 52  1  0  0  0
 40 53  2  0  0  0
 40 58  1  0  0  0
 41113  1  0  0  0
 41114  1  0  0  0
 41115  1  0  0  0
 41 48  1  0  0  0
 42 43  1  0  0  0
 42 66  1  0  0  0
 42116  1  0  0  0
 42117  1  0  0  0
 43 44  1  0  0  0
 44118  1  0  0  0
 45 46  2  0  0  0
 45119  1  0  0  0
 46120  1  0  0  0
 47121  1  0  0  0
 47122  1  0  0  0
 48 56  1  0  0  0
 48 65  1  0  0  0
 48123  1  0  0  0
 49 50  1  0  0  0
 49 53  1  0  0  0
 49 64  1  0  0  0
 49124  1  0  0  0
 50 51  1  0  0  0
 50125  1  0  0  0
 50126  1  0  0  0
 51 52  1  0  0  0
 51127  1  0  0  0
 51128  1  0  0  0
 52129  1  0  0  0
 52130  1  0  0  0
 53 54  1  0  0  0
 54 55  2  0  0  0
 54131  1  0  0  0
 55 57  1  0  0  0
 55132  1  0  0  0
 56 69  2  0  0  0
 57 58  2  0  0  0
 57133  1  0  0  0
 58134  1  0  0  0
 59 60  1  0  0  0
 59 61  1  0  0  0
 59 62  1  0  0  0
 60135  1  0  0  0
 60136  1  0  0  0
 60137  1  0  0  0
 61138  1  0  0  0
 61139  1  0  0  0
 61140  1  0  0  0
 62141  1  0  0  0
 62142  1  0  0  0
 62143  1  0  0  0
 63 65  1  0  0  0
 63144  1  0  0  0
 63145  1  0  0  0
 63146  1  0  0  0
 64147  1  0  0  0
 65148  1  0  0  0
 68 75  1  0  0  0
 71 72  1  0  0  0
 71 73  1  0  0  0
 71149  1  0  0  0
 71150  1  0  0  0
 72 74  1  0  0  0
 72151  1  0  0  0
 72152  1  0  0  0
 73 75  1  0  0  0
 73153  1  0  0  0
 73154  1  0  0  0
 74 76  1  0  0  0
 74155  1  0  0  0
 74156  1  0  0  0
 75 76  1  0  0  0
 75157  1  0  0  0
 76 79  1  0  0  0
 76 88  1  0  0  0
 77158  1  0  0  0
 77159  1  0  0  0
 77160  1  0  0  0
 77 88  1  0  0  0
 78 88  1  0  0  0
 78161  1  0  0  0
 78162  1  0  0  0
 78163  1  0  0  0
 79 80  1  0  0  0
 79164  1  0  0  0
 79165  1  0  0  0
 80 81  1  0  0  0
 80166  1  0  0  0
 80167  1  0  0  0
 81 82  1  0  0  0
 81168  1  0  0  0
 81169  1  0  0  0
 82 83  1  0  0  0
 82170  1  0  0  0
 82171  1  0  0  0
 83 84  1  0  0  0
 83172  1  0  0  0
 83173  1  0  0  0
 84 85  1  0  0  0
 84174  1  0  0  0
 84175  1  0  0  0
 85 86  1  0  0  0
 85176  1  0  0  0
 85177  1  0  0  0
 86 87  1  0  0  0
 86178  1  0  0  0
 86179  1  0  0  0
 87 89  1  0  0  0
 87180  1  0  0  0
 87181  1  0  0  0
 88182  1  0  0  0
 89183  1  0  0  0
M  ISO  4   1 100  68 101  75 101  89 100
M  END
> <chiral flag>
0

> <version>
0

> <s_m_source_file>
/data/baiqing/PycharmProjects/Reinvent-master-3.2/result/LINK_invent/BTK/process_docking_weight1_custom_sum_contain_oxygen_bond_distance_aromatic_linkinvent_7_9_3/rearranged_h_0033.sdf

> <i_m_source_file_index>
58

> <r_mmod_Potential_Energy-OPLS-2005>
101.412963867188

> <r_mmod_Stretch_Energy-OPLS-2005>
42.6741065979004

> <r_mmod_Bend_Energy-OPLS-2005>
119.726913452148

> <r_mmod_Torsional_Energy-OPLS-2005>
315.529968261719

> <r_mmod_Improper_Torsional_Energy-OPLS-2005>
3.07947015762329

> <r_mmod_Van_der_Waal_Energy-OPLS-2005>
155.351684570312

> <r_mmod_Electrostatic_Energy-OPLS-2005>
-362.818023681641

> <r_mmod_Solvation_Energy-OPLS-2005>
-180.764785766602

> <b_mmod_Minimization_Converged-OPLS-2005>
0

> <r_mmod_RMS_Derivative-OPLS-2005>
5.16298007965088

$$$$
59
                    3D
 Structure written by MMmdl.
159167  0  0  1  0            999 V2000
  -30.6676  -14.5281   20.5689 C   0  0  0  0  0  0
  -30.4347  -12.3462   19.4245 C   0  0  0  0  0  0
  -29.4977  -12.5047   18.2091 C   0  0  0  0  0  0
  -28.0195  -12.3551   18.6221 C   0  0  0  0  0  0
  -27.6572  -13.2060   19.8683 C   0  0  2  0  0  0
  -28.6997  -13.0082   20.9894 C   0  0  0  0  0  0
  -25.2577  -13.8162   20.5664 C   0  0  0  0  0  0
  -24.1834  -13.0443   20.9185 C   0  0  0  0  0  0
  -24.6390  -11.6909   20.8748 C   0  0  0  0  0  0
  -23.9055  -10.4298   21.0405 C   0  0  0  0  0  0
  -24.3614   -9.4212   21.9175 C   0  0  0  0  0  0
  -23.6295   -8.2242   22.0744 C   0  0  0  0  0  0
  -22.4273   -8.0285   21.3540 C   0  0  0  0  0  0
  -21.9911   -9.0257   20.4638 C   0  0  0  0  0  0
  -22.7235  -10.2136   20.3045 C   0  0  0  0  0  0
  -21.6853   -6.0740   22.5275 C   0  0  0  0  0  0
  -21.4019   -6.5640   23.8209 C   0  0  0  0  0  0
  -21.3658   -5.6789   24.9168 C   0  0  0  0  0  0
  -21.6040   -4.3052   24.7217 C   0  0  0  0  0  0
  -21.8824   -3.8149   23.4336 C   0  0  0  0  0  0
  -21.9199   -4.6970   22.3396 C   0  0  0  0  0  0
  -22.7857  -13.5241   21.1849 C   0  0  0  0  0  0
  -22.1663   -4.2159   21.0972 F   0  0  0  0  0  0
  -21.5626   -3.4533   25.7726 F   0  0  0  0  0  0
  -30.0216  -13.3372   20.4301 N   0  0  0  0  0  0
  -26.3002  -12.9321   20.3330 N   0  0  0  0  0  0
  -25.9312  -11.6488   20.5766 N   0  0  0  0  0  0
  -22.0497  -12.8240   22.0406 N   0  0  0  0  0  0
  -25.4323  -15.1877   20.4051 N   0  0  0  0  0  0
  -31.8169  -14.7163   20.1601 O   0  0  0  0  0  0
  -21.6639   -6.8883   21.4234 O   0  0  0  0  0  0
  -22.3544  -14.5546   20.6693 O   0  0  0  0  0  0
  -24.6181  -31.8655   23.2069 C   0  0  0  0  0  0
  -25.9070  -32.4807   23.8371 C   0  0  1  0  0  0
  -27.2316  -27.3986   20.1092 C   0  0  0  0  0  0
  -25.5920  -33.8609   24.2314 N   0  0  0  0  0  0
  -23.4077  -30.4884   21.5485 C   0  0  2  0  0  0
  -24.8533  -28.9457   20.1209 C   0  0  0  0  0  0
  -22.7424  -29.4653   22.4978 C   0  0  0  0  0  0
  -18.0273  -28.1373   22.8490 C   0  0  0  0  0  0
  -24.1490  -36.7310   23.2637 C   0  0  0  0  0  0
  -25.9398  -30.8216   21.3630 C   0  0  0  0  0  0
  -26.0168  -29.4513   20.7147 C   0  0  0  0  0  0
  -27.2105  -28.6875   20.6996 C   0  0  0  0  0  0
  -26.0481  -26.9137   19.5135 C   0  0  0  0  0  0
  -24.8657  -27.6773   19.5167 C   0  0  0  0  0  0
  -23.6189  -29.8181   20.1648 C   0  0  0  0  0  0
  -25.4106  -36.3101   24.0336 C   0  0  1  0  0  0
  -20.5867  -28.3670   23.1312 C   0  0  2  0  0  0
  -20.6774  -26.9408   22.5414 C   0  0  0  0  0  0
  -19.5756  -26.6388   21.5213 C   0  0  0  0  0  0
  -18.1930  -26.7920   22.1620 C   0  0  0  0  0  0
  -19.1523  -28.8837   23.2897 C   0  0  0  0  0  0
  -18.9451  -30.1441   23.8906 C   0  0  0  0  0  0
  -17.6454  -30.6582   24.0566 C   0  0  0  0  0  0
  -25.9038  -34.9468   23.5117 C   0  0  0  0  0  0
  -16.5345  -29.9083   23.6326 C   0  0  0  0  0  0
  -16.7262  -28.6500   23.0346 C   0  0  0  0  0  0
  -26.4484  -31.6582   25.0705 C   0  0  0  0  0  0
  -25.3740  -31.3696   26.1444 C   0  0  0  0  0  0
  -27.0315  -30.3016   24.6102 C   0  0  0  0  0  0
  -27.6066  -32.4283   25.7471 C   0  0  0  0  0  0
  -27.5577  -37.1806   24.8465 C   0  0  0  0  0  0
  -21.4143  -29.3035   22.3714 N   0  0  0  0  0  0
  -26.4291  -37.3786   23.9410 N   0  0  0  0  0  0
  -24.6739  -31.0741   22.0976 N   0  0  0  0  0  0
  -23.4181  -28.8195   23.3031 O   0  0  0  0  0  0
  -28.3954  -26.6509   20.0648 O   0  0  0  0  0  0
  -26.5600  -34.8927   22.4677 O   0  0  0  0  0  0
  -23.5366  -32.1412   23.7457 O   0  0  0  0  0  0
  -28.8525  -21.6947   20.2225 C   0  0  0  0  0  0
  -30.8089  -22.1566   18.3024 C   0  0  0  0  0  0
  -29.6915  -20.5998   19.8412 C   0  0  0  0  0  0
  -28.9598  -22.9961   19.6481 C   0  0  0  0  0  0
  -30.6707  -20.8533   18.8311 C   0  0  0  0  0  0
  -29.9719  -23.2152   18.6916 C   0  0  0  0  0  0
  -31.5807  -19.7944   18.2259 C   0  0  0  0  0  0
  -29.4247  -19.2256   20.5398 C   0  0  0  0  0  0
  -27.9278  -24.1088   19.9472 C   0  0  0  0  0  0
  -30.4141  -18.0128   20.4017 C   0  0  0  0  0  0
  -30.3380  -16.8918   21.4929 C   0  0  0  0  0  0
  -28.4044  -25.3694   20.7434 C   0  0  0  0  0  0
  -29.9156  -15.5381   21.0642 N   0  0  0  0  0  0
  -30.1809  -24.7551   17.9336 Cl  0  0  0  0  0  0
  -31.4735  -12.4791   19.1171 H   0  0  0  0  0  0
  -30.3717  -11.3393   19.8391 H   0  0  0  0  0  0
  -29.7486  -11.7680   17.4451 H   0  0  0  0  0  0
  -29.6517  -13.4834   17.7516 H   0  0  0  0  0  0
  -27.8388  -11.2995   18.8295 H   0  0  0  0  0  0
  -27.3682  -12.6166   17.7876 H   0  0  0  0  0  0
  -27.6936  -14.2500   19.5564 H   0  0  0  0  0  0
  -28.6948  -11.9741   21.3367 H   0  0  0  0  0  0
  -28.4518  -13.6113   21.8643 H   0  0  0  0  0  0
  -25.2756   -9.5690   22.4747 H   0  0  0  0  0  0
  -24.0014   -7.4630   22.7451 H   0  0  0  0  0  0
  -21.0845   -8.8772   19.8941 H   0  0  0  0  0  0
  -22.3693  -10.9677   19.6154 H   0  0  0  0  0  0
  -21.2010   -7.6149   23.9721 H   0  0  0  0  0  0
  -21.1471   -6.0510   25.9072 H   0  0  0  0  0  0
  -22.0609   -2.7614   23.2826 H   0  0  0  0  0  0
  -22.4117  -11.9910   22.4808 H   0  0  0  0  0  0
  -21.1100  -13.1248   22.2587 H   0  0  0  0  0  0
  -24.6675  -15.8467   20.5043 H   0  0  0  0  0  0
  -26.2841  -15.6213   20.0719 H   0  0  0  0  0  0
  -26.7142  -32.5511   23.1136 H   0  0  0  0  0  0
  -25.0092  -33.9769   25.0475 H   0  0  0  0  0  0
  -22.6981  -31.3053   21.4050 H   0  0  0  0  0  0
  -23.3746  -35.9651   23.3299 H   0  0  0  0  0  0
  -24.3588  -36.8919   22.2051 H   0  0  0  0  0  0
  -23.7247  -37.6518   23.6647 H   0  0  0  0  0  0
  -26.0529  -31.5834   20.5902 H   0  0  0  0  0  0
  -26.8284  -30.8785   21.9801 H   0  0  0  0  0  0
  -28.1115  -29.0804   21.1499 H   0  0  0  0  0  0
  -26.0276  -25.9513   19.0289 H   0  0  0  0  0  0
  -23.9718  -27.2824   19.0535 H   0  0  0  0  0  0
  -23.7357  -30.5922   19.4056 H   0  0  0  0  0  0
  -22.7420  -29.2412   19.8649 H   0  0  0  0  0  0
  -25.1279  -36.1961   25.0830 H   0  0  0  0  0  0
  -20.9951  -28.3239   24.1436 H   0  0  0  0  0  0
  -20.5697  -26.2271   23.3596 H   0  0  0  0  0  0
  -21.6642  -26.7467   22.1195 H   0  0  0  0  0  0
  -19.6928  -25.6303   21.1229 H   0  0  0  0  0  0
  -19.6700  -27.3210   20.6755 H   0  0  0  0  0  0
  -17.4203  -26.6665   21.4019 H   0  0  0  0  0  0
  -18.0337  -26.0056   22.9009 H   0  0  0  0  0  0
  -19.7931  -30.7254   24.2278 H   0  0  0  0  0  0
  -17.5013  -31.6264   24.5162 H   0  0  0  0  0  0
  -15.5347  -30.2992   23.7644 H   0  0  0  0  0  0
  -15.8659  -28.0828   22.7051 H   0  0  0  0  0  0
  -24.5940  -30.7011   25.7778 H   0  0  0  0  0  0
  -24.8905  -32.2854   26.4855 H   0  0  0  0  0  0
  -25.8089  -30.8897   27.0220 H   0  0  0  0  0  0
  -26.2865  -29.6768   24.1161 H   0  0  0  0  0  0
  -27.4071  -29.7262   25.4573 H   0  0  0  0  0  0
  -27.8707  -30.4309   23.9262 H   0  0  0  0  0  0
  -27.2712  -33.3598   26.2039 H   0  0  0  0  0  0
  -28.3893  -32.6800   25.0304 H   0  0  0  0  0  0
  -28.0711  -31.8393   26.5388 H   0  0  0  0  0  0
  -28.2595  -38.0104   24.7505 H   0  0  0  0  0  0
  -28.1066  -36.2630   24.6288 H   0  0  0  0  0  0
  -27.2296  -37.1453   25.8869 H   0  0  0  0  0  0
  -20.9303  -29.8738   21.6922 H   0  0  0  0  0  0
  -26.0175  -38.2866   24.1400 H   0  0  0  0  0  0
  -28.0745  -21.5168   20.9525 H   0  0  0  0  0  0
  -31.5562  -22.3534   17.5462 H   0  0  0  0  0  0
  -32.1415  -20.1890   17.3773 H   0  0  0  0  0  0
  -31.0029  -18.9536   17.8457 H   0  0  0  0  0  0
  -32.3283  -19.4471   18.9351 H   0  0  0  0  0  0
  -28.4325  -18.8918   20.2331 H   0  0  0  0  0  0
  -29.3339  -19.4526   21.6027 H   0  0  0  0  0  0
  -27.0865  -23.6621   20.4786 H   0  0  0  0  0  0
  -27.5211  -24.4174   18.9860 H   0  0  0  0  0  0
  -31.4180  -18.4130   20.5193 H   0  0  0  0  0  0
  -30.3578  -17.5706   19.4083 H   0  0  0  0  0  0
  -29.6853  -17.2112   22.3061 H   0  0  0  0  0  0
  -31.3224  -16.7870   21.9533 H   0  0  0  0  0  0
  -29.4246  -25.2015   21.0882 H   0  0  0  0  0  0
  -27.8146  -25.4562   21.6580 H   0  0  0  0  0  0
  -28.9674  -15.2808   21.2951 H   0  0  0  0  0  0
  1 25  1  0  0  0
  1 30  2  0  0  0
  1 83  1  0  0  0
  2  3  1  0  0  0
  2 25  1  0  0  0
  2 85  1  0  0  0
  2 86  1  0  0  0
  3  4  1  0  0  0
  3 87  1  0  0  0
  3 88  1  0  0  0
  4  5  1  0  0  0
  4 89  1  0  0  0
  4 90  1  0  0  0
  5  6  1  0  0  0
  5 26  1  0  0  0
  5 91  1  0  0  0
  6 25  1  0  0  0
  6 92  1  0  0  0
  6 93  1  0  0  0
  7  8  2  0  0  0
  7 26  1  0  0  0
  7 29  1  0  0  0
  8  9  1  0  0  0
  8 22  1  0  0  0
  9 10  1  0  0  0
  9 27  2  0  0  0
 10 11  2  0  0  0
 10 15  1  0  0  0
 11 12  1  0  0  0
 11 94  1  0  0  0
 12 13  2  0  0  0
 12 95  1  0  0  0
 13 14  1  0  0  0
 13 31  1  0  0  0
 14 15  2  0  0  0
 14 96  1  0  0  0
 15 97  1  0  0  0
 16 17  2  0  0  0
 16 21  1  0  0  0
 16 31  1  0  0  0
 17 18  1  0  0  0
 17 98  1  0  0  0
 18 19  2  0  0  0
 18 99  1  0  0  0
 19 20  1  0  0  0
 19 24  1  0  0  0
 20 21  2  0  0  0
 20100  1  0  0  0
 21 23  1  0  0  0
 22 28  1  0  0  0
 22 32  2  0  0  0
 26 27  1  0  0  0
 28101  1  0  0  0
 28102  1  0  0  0
 29103  1  0  0  0
 29104  1  0  0  0
 33 34  1  0  0  0
 33 66  1  0  0  0
 33 70  2  0  0  0
 34 36  1  0  0  0
 34 59  1  0  0  0
 34105  1  0  0  0
 35 44  2  0  0  0
 35 45  1  0  0  0
 35 68  1  0  0  0
 36 56  1  0  0  0
 36106  1  0  0  0
 37 39  1  0  0  0
 37 47  1  0  0  0
 37 66  1  0  0  0
 37107  1  0  0  0
 38 43  2  0  0  0
 38 46  1  0  0  0
 38 47  1  0  0  0
 39 64  1  0  0  0
 39 67  2  0  0  0
 40 52  1  0  0  0
 40 53  2  0  0  0
 40 58  1  0  0  0
 41108  1  0  0  0
 41109  1  0  0  0
 41110  1  0  0  0
 41 48  1  0  0  0
 42 43  1  0  0  0
 42 66  1  0  0  0
 42111  1  0  0  0
 42112  1  0  0  0
 43 44  1  0  0  0
 44113  1  0  0  0
 45 46  2  0  0  0
 45114  1  0  0  0
 46115  1  0  0  0
 47116  1  0  0  0
 47117  1  0  0  0
 48 56  1  0  0  0
 48 65  1  0  0  0
 48118  1  0  0  0
 49 50  1  0  0  0
 49 53  1  0  0  0
 49 64  1  0  0  0
 49119  1  0  0  0
 50 51  1  0  0  0
 50120  1  0  0  0
 50121  1  0  0  0
 51 52  1  0  0  0
 51122  1  0  0  0
 51123  1  0  0  0
 52124  1  0  0  0
 52125  1  0  0  0
 53 54  1  0  0  0
 54 55  2  0  0  0
 54126  1  0  0  0
 55 57  1  0  0  0
 55127  1  0  0  0
 56 69  2  0  0  0
 57 58  2  0  0  0
 57128  1  0  0  0
 58129  1  0  0  0
 59 60  1  0  0  0
 59 61  1  0  0  0
 59 62  1  0  0  0
 60130  1  0  0  0
 60131  1  0  0  0
 60132  1  0  0  0
 61133  1  0  0  0
 61134  1  0  0  0
 61135  1  0  0  0
 62136  1  0  0  0
 62137  1  0  0  0
 62138  1  0  0  0
 63 65  1  0  0  0
 63139  1  0  0  0
 63140  1  0  0  0
 63141  1  0  0  0
 64142  1  0  0  0
 65143  1  0  0  0
 68 82  1  0  0  0
 71 73  2  0  0  0
 71 74  1  0  0  0
 71144  1  0  0  0
 72 75  2  0  0  0
 72 76  1  0  0  0
 72145  1  0  0  0
 73 75  1  0  0  0
 73 78  1  0  0  0
 74 76  2  0  0  0
 74 79  1  0  0  0
 75 77  1  0  0  0
 76 84  1  0  0  0
 77146  1  0  0  0
 77147  1  0  0  0
 77148  1  0  0  0
 78 80  1  0  0  0
 78149  1  0  0  0
 78150  1  0  0  0
 79 82  1  0  0  0
 79151  1  0  0  0
 79152  1  0  0  0
 80 81  1  0  0  0
 80153  1  0  0  0
 80154  1  0  0  0
 81 83  1  0  0  0
 81155  1  0  0  0
 81156  1  0  0  0
 82157  1  0  0  0
 82158  1  0  0  0
 83159  1  0  0  0
M  ISO  4   1 100  68 101  82 101  83 100
M  END
> <chiral flag>
0

> <version>
0

> <s_m_source_file>
/data/baiqing/PycharmProjects/Reinvent-master-3.2/result/LINK_invent/BTK/process_docking_weight1_custom_sum_contain_oxygen_bond_distance_aromatic_linkinvent_7_9_3/rearranged_h_0033.sdf

> <i_m_source_file_index>
59

> <r_mmod_Potential_Energy-OPLS-2005>
21.0940074920654

> <r_mmod_Stretch_Energy-OPLS-2005>
51.6173248291016

> <r_mmod_Bend_Energy-OPLS-2005>
128.99772644043

> <r_mmod_Torsional_Energy-OPLS-2005>
244.504425048828

> <r_mmod_Improper_Torsional_Energy-OPLS-2005>
3.73677158355713

> <r_mmod_Van_der_Waal_Energy-OPLS-2005>
150.601501464844

> <r_mmod_Electrostatic_Energy-OPLS-2005>
-371.079681396484

> <r_mmod_Solvation_Energy-OPLS-2005>
-206.652099609375

> <b_mmod_Minimization_Converged-OPLS-2005>
0

> <r_mmod_RMS_Derivative-OPLS-2005>
1.41773819923401

$$$$
60
                    3D
 Structure written by MMmdl.
167175  0  0  1  0            999 V2000
  -30.7644  -14.4098   20.6275 C   0  0  0  0  0  0
  -30.4107  -12.3153   19.3821 C   0  0  0  0  0  0
  -29.4671  -12.5528   18.1876 C   0  0  0  0  0  0
  -27.9943  -12.4008   18.6122 C   0  0  0  0  0  0
  -27.6553  -13.2078   19.8871 C   0  0  2  0  0  0
  -28.7094  -12.9791   20.9912 C   0  0  0  0  0  0
  -25.2564  -13.8081   20.5742 C   0  0  0  0  0  0
  -24.1801  -13.0431   20.9195 C   0  0  0  0  0  0
  -24.6338  -11.6867   20.8736 C   0  0  0  0  0  0
  -23.9006  -10.4289   21.0382 C   0  0  0  0  0  0
  -24.3558   -9.4214   21.9176 C   0  0  0  0  0  0
  -23.6265   -8.2236   22.0738 C   0  0  0  0  0  0
  -22.4257   -8.0248   21.3501 C   0  0  0  0  0  0
  -21.9874   -9.0231   20.4601 C   0  0  0  0  0  0
  -22.7184  -10.2126   20.3034 C   0  0  0  0  0  0
  -21.6855   -6.0674   22.5278 C   0  0  0  0  0  0
  -21.4044   -6.5595   23.8203 C   0  0  0  0  0  0
  -21.3681   -5.6755   24.9178 C   0  0  0  0  0  0
  -21.6049   -4.3008   24.7240 C   0  0  0  0  0  0
  -21.8815   -3.8100   23.4363 C   0  0  0  0  0  0
  -21.9183   -4.6902   22.3413 C   0  0  0  0  0  0
  -22.7826  -13.5255   21.1888 C   0  0  0  0  0  0
  -22.1637   -4.2074   21.0983 F   0  0  0  0  0  0
  -21.5638   -3.4510   25.7761 F   0  0  0  0  0  0
  -30.0420  -13.2737   20.4342 N   0  0  0  0  0  0
  -26.2996  -12.9268   20.3507 N   0  0  0  0  0  0
  -25.9286  -11.6407   20.5850 N   0  0  0  0  0  0
  -22.0512  -12.8226   22.0422 N   0  0  0  0  0  0
  -25.4339  -15.1806   20.4113 N   0  0  0  0  0  0
  -31.8474  -14.6225   20.0804 O   0  0  0  0  0  0
  -21.6625   -6.8834   21.4238 O   0  0  0  0  0  0
  -22.3539  -14.5627   20.6798 O   0  0  0  0  0  0
  -24.6303  -31.8842   23.2181 C   0  0  0  0  0  0
  -25.9220  -32.4890   23.8472 C   0  0  1  0  0  0
  -27.2660  -27.4768   20.0995 C   0  0  0  0  0  0
  -25.6120  -33.8687   24.2405 N   0  0  0  0  0  0
  -23.4333  -30.5099   21.5749 C   0  0  2  0  0  0
  -24.8520  -28.9544   20.1389 C   0  0  0  0  0  0
  -22.7800  -29.4986   22.5371 C   0  0  0  0  0  0
  -17.9966  -28.1036   22.8702 C   0  0  0  0  0  0
  -24.1516  -36.7335   23.2611 C   0  0  0  0  0  0
  -25.9420  -30.8547   21.3630 C   0  0  0  0  0  0
  -26.0114  -29.4859   20.7160 C   0  0  0  0  0  0
  -27.2155  -28.7525   20.6928 C   0  0  0  0  0  0
  -26.0847  -26.9330   19.5377 C   0  0  0  0  0  0
  -24.8789  -27.6669   19.5635 C   0  0  0  0  0  0
  -23.6197  -29.8281   20.1879 C   0  0  0  0  0  0
  -25.4129  -36.3118   24.0299 C   0  0  1  0  0  0
  -20.4758  -28.4882   22.7893 C   0  0  2  0  0  0
  -20.7178  -26.9956   22.5543 C   0  0  0  0  0  0
  -19.6030  -26.4772   21.6265 C   0  0  0  0  0  0
  -18.1930  -26.7393   22.2021 C   0  0  0  0  0  0
  -19.1025  -28.9011   23.2550 C   0  0  0  0  0  0
  -18.8957  -30.1501   23.8769 C   0  0  0  0  0  0
  -17.5895  -30.6266   24.0851 C   0  0  0  0  0  0
  -25.9070  -34.9486   23.5093 C   0  0  0  0  0  0
  -16.4917  -29.8436   23.6846 C   0  0  0  0  0  0
  -16.6933  -28.5840   23.0901 C   0  0  0  0  0  0
  -26.4596  -31.6577   25.0735 C   0  0  0  0  0  0
  -25.3869  -31.3695   26.1448 C   0  0  0  0  0  0
  -27.0401  -30.2986   24.6097 C   0  0  0  0  0  0
  -27.6138  -32.4262   25.7593 C   0  0  0  0  0  0
  -27.5581  -37.1822   24.8451 C   0  0  0  0  0  0
  -21.4536  -29.4938   22.4560 N   0  0  0  0  0  0
  -26.4316  -37.3793   23.9362 N   0  0  0  0  0  0
  -24.6916  -31.0934   22.1132 N   0  0  0  0  0  0
  -23.4340  -28.7509   23.2631 O   0  0  0  0  0  0
  -28.4849  -26.8404   20.0288 O   0  0  0  0  0  0
  -26.5552  -34.8931   22.4600 O   0  0  0  0  0  0
  -23.5487  -32.1654   23.7502 O   0  0  0  0  0  0
  -28.3869  -19.2122   22.9129 C   0  0  0  0  0  0
  -27.4345  -20.2053   23.1964 C   0  0  0  0  0  0
  -28.5592  -18.7195   21.6034 C   0  0  0  0  0  0
  -26.9373  -20.3889   20.8052 C   0  0  0  0  0  0
  -26.7010  -20.7904   22.1449 C   0  0  0  0  0  0
  -27.7957  -19.2822   20.5527 C   0  0  0  0  0  0
  -27.2863  -20.6834   24.6276 C   0  0  0  0  0  0
  -28.2587  -21.6676   18.2681 C   0  0  0  0  0  0
  -29.6469  -17.6690   21.3608 C   0  0  0  0  0  0
  -28.4047  -24.4355   19.6231 C   0  0  0  0  0  0
  -27.5329  -23.2955   20.1710 C   0  0  0  0  0  0
  -29.1793  -16.1945   21.2690 C   0  0  0  0  0  0
  -28.5904  -25.5686   20.6551 C   0  0  0  0  0  0
  -27.1161  -22.1917   19.1508 C   0  0  2  0  0  0
  -26.3303  -21.1066   19.7573 N   0  0  0  0  0  0
  -30.3021  -15.2850   21.5255 N   0  0  0  0  0  0
  -25.5429  -22.0344   22.4894 Cl  0  0  0  0  0  0
  -27.9092  -18.5985   18.9673 Cl  0  0  0  0  0  0
  -31.4497  -12.4275   19.0582 H   0  0  0  0  0  0
  -30.3200  -11.2930   19.7512 H   0  0  0  0  0  0
  -29.6971  -11.8602   17.3749 H   0  0  0  0  0  0
  -29.6309  -13.5545   17.7869 H   0  0  0  0  0  0
  -27.7893  -11.3449   18.7762 H   0  0  0  0  0  0
  -27.3398  -12.7158   17.8006 H   0  0  0  0  0  0
  -27.6840  -14.2552   19.6003 H   0  0  0  0  0  0
  -28.6813  -11.9428   21.3262 H   0  0  0  0  0  0
  -28.4766  -13.5684   21.8785 H   0  0  0  0  0  0
  -25.2707   -9.5690   22.4718 H   0  0  0  0  0  0
  -23.9952   -7.4620   22.7444 H   0  0  0  0  0  0
  -21.0813   -8.8746   19.8899 H   0  0  0  0  0  0
  -22.3650  -10.9630   19.6101 H   0  0  0  0  0  0
  -21.2071   -7.6101   23.9700 H   0  0  0  0  0  0
  -21.1518   -6.0480   25.9064 H   0  0  0  0  0  0
  -22.0585   -2.7556   23.2892 H   0  0  0  0  0  0
  -22.4130  -11.9863   22.4773 H   0  0  0  0  0  0
  -21.1135  -13.1268   22.2630 H   0  0  0  0  0  0
  -24.6724  -15.8392   20.5086 H   0  0  0  0  0  0
  -26.3061  -15.6093   20.1353 H   0  0  0  0  0  0
  -26.7328  -32.5593   23.1292 H   0  0  0  0  0  0
  -25.0436  -33.9955   25.0639 H   0  0  0  0  0  0
  -22.7363  -31.3390   21.4338 H   0  0  0  0  0  0
  -23.3744  -35.9706   23.3297 H   0  0  0  0  0  0
  -24.3621  -36.8925   22.2026 H   0  0  0  0  0  0
  -23.7334  -37.6567   23.6629 H   0  0  0  0  0  0
  -26.0423  -31.6345   20.6065 H   0  0  0  0  0  0
  -26.8319  -30.9127   21.9757 H   0  0  0  0  0  0
  -28.1055  -29.1866   21.1241 H   0  0  0  0  0  0
  -26.0836  -25.9637   19.0588 H   0  0  0  0  0  0
  -23.9791  -27.2408   19.1395 H   0  0  0  0  0  0
  -23.7437  -30.6004   19.4289 H   0  0  0  0  0  0
  -22.7290  -29.2730   19.8926 H   0  0  0  0  0  0
  -25.1300  -36.1980   25.0799 H   0  0  0  0  0  0
  -20.1736  -28.7148   21.7659 H   0  0  0  0  0  0
  -20.6932  -26.4672   23.5070 H   0  0  0  0  0  0
  -21.7000  -26.8225   22.1131 H   0  0  0  0  0  0
  -19.7389  -25.4129   21.4574 H   0  0  0  0  0  0
  -19.6983  -26.9353   20.6400 H   0  0  0  0  0  0
  -17.4538  -26.5983   21.4128 H   0  0  0  0  0  0
  -17.9798  -25.9823   22.9560 H   0  0  0  0  0  0
  -19.7379  -30.7710   24.1519 H   0  0  0  0  0  0
  -17.4188  -31.5916   24.5457 H   0  0  0  0  0  0
  -15.4808  -30.1981   23.8458 H   0  0  0  0  0  0
  -15.8372  -27.9852   22.8078 H   0  0  0  0  0  0
  -24.6020  -30.7093   25.7772 H   0  0  0  0  0  0
  -24.9126  -32.2866   26.4917 H   0  0  0  0  0  0
  -25.8216  -30.8827   27.0171 H   0  0  0  0  0  0
  -26.2928  -29.6728   24.1195 H   0  0  0  0  0  0
  -27.4201  -29.7233   25.4559 H   0  0  0  0  0  0
  -27.8764  -30.4238   23.9210 H   0  0  0  0  0  0
  -27.2699  -33.3496   26.2253 H   0  0  0  0  0  0
  -28.3976  -32.6898   25.0492 H   0  0  0  0  0  0
  -28.0777  -31.8321   26.5473 H   0  0  0  0  0  0
  -28.2560  -38.0147   24.7453 H   0  0  0  0  0  0
  -28.1127  -36.2663   24.6326 H   0  0  0  0  0  0
  -27.2292  -37.1490   25.8859 H   0  0  0  0  0  0
  -21.0746  -30.2714   21.9316 H   0  0  0  0  0  0
  -26.0181  -38.2853   24.1396 H   0  0  0  0  0  0
  -29.0113  -18.8480   23.7155 H   0  0  0  0  0  0
  -27.9861  -21.4960   24.8229 H   0  0  0  0  0  0
  -27.5006  -19.8565   25.3077 H   0  0  0  0  0  0
  -26.2777  -21.0231   24.8521 H   0  0  0  0  0  0
  -28.6571  -22.4542   17.6301 H   0  0  0  0  0  0
  -27.8895  -20.8887   17.6013 H   0  0  0  0  0  0
  -29.0955  -21.2582   18.8339 H   0  0  0  0  0  0
  -30.3703  -17.7757   22.1734 H   0  0  0  0  0  0
  -30.1846  -17.9377   20.4498 H   0  0  0  0  0  0
  -27.9341  -24.8356   18.7256 H   0  0  0  0  0  0
  -29.3902  -24.0632   19.3271 H   0  0  0  0  0  0
  -26.6257  -23.7714   20.5484 H   0  0  0  0  0  0
  -28.0350  -22.8753   21.0424 H   0  0  0  0  0  0
  -28.3984  -15.9768   21.9989 H   0  0  0  0  0  0
  -28.7538  -16.0050   20.2857 H   0  0  0  0  0  0
  -29.5829  -25.5027   21.1085 H   0  0  0  0  0  0
  -27.8975  -25.4955   21.4960 H   0  0  0  0  0  0
  -26.4192  -22.6573   18.4483 H   0  0  0  0  0  0
  -25.3952  -21.4149   19.9959 H   0  0  0  0  0  0
  -31.0619  -15.7812   21.9638 H   0  0  0  0  0  0
  1 25  1  0  0  0
  1 30  2  0  0  0
  1 86  1  0  0  0
  2  3  1  0  0  0
  2 25  1  0  0  0
  2 89  1  0  0  0
  2 90  1  0  0  0
  3  4  1  0  0  0
  3 91  1  0  0  0
  3 92  1  0  0  0
  4  5  1  0  0  0
  4 93  1  0  0  0
  4 94  1  0  0  0
  5  6  1  0  0  0
  5 26  1  0  0  0
  5 95  1  0  0  0
  6 25  1  0  0  0
  6 96  1  0  0  0
  6 97  1  0  0  0
  7  8  2  0  0  0
  7 26  1  0  0  0
  7 29  1  0  0  0
  8  9  1  0  0  0
  8 22  1  0  0  0
  9 10  1  0  0  0
  9 27  2  0  0  0
 10 11  2  0  0  0
 10 15  1  0  0  0
 11 12  1  0  0  0
 11 98  1  0  0  0
 12 13  2  0  0  0
 12 99  1  0  0  0
 13 14  1  0  0  0
 13 31  1  0  0  0
 14 15  2  0  0  0
 14100  1  0  0  0
 15101  1  0  0  0
 16 17  2  0  0  0
 16 21  1  0  0  0
 16 31  1  0  0  0
 17 18  1  0  0  0
 17102  1  0  0  0
 18 19  2  0  0  0
 18103  1  0  0  0
 19 20  1  0  0  0
 19 24  1  0  0  0
 20 21  2  0  0  0
 20104  1  0  0  0
 21 23  1  0  0  0
 22 28  1  0  0  0
 22 32  2  0  0  0
 26 27  1  0  0  0
 28105  1  0  0  0
 28106  1  0  0  0
 29107  1  0  0  0
 29108  1  0  0  0
 33 34  1  0  0  0
 33 66  1  0  0  0
 33 70  2  0  0  0
 34 36  1  0  0  0
 34 59  1  0  0  0
 34109  1  0  0  0
 35 44  2  0  0  0
 35 45  1  0  0  0
 35 68  1  0  0  0
 36 56  1  0  0  0
 36110  1  0  0  0
 37 39  1  0  0  0
 37 47  1  0  0  0
 37 66  1  0  0  0
 37111  1  0  0  0
 38 43  2  0  0  0
 38 46  1  0  0  0
 38 47  1  0  0  0
 39 64  1  0  0  0
 39 67  2  0  0  0
 40 52  1  0  0  0
 40 53  2  0  0  0
 40 58  1  0  0  0
 41112  1  0  0  0
 41113  1  0  0  0
 41114  1  0  0  0
 41 48  1  0  0  0
 42 43  1  0  0  0
 42 66  1  0  0  0
 42115  1  0  0  0
 42116  1  0  0  0
 43 44  1  0  0  0
 44117  1  0  0  0
 45 46  2  0  0  0
 45118  1  0  0  0
 46119  1  0  0  0
 47120  1  0  0  0
 47121  1  0  0  0
 48 56  1  0  0  0
 48 65  1  0  0  0
 48122  1  0  0  0
 49 50  1  0  0  0
 49 53  1  0  0  0
 49 64  1  0  0  0
 49123  1  0  0  0
 50 51  1  0  0  0
 50124  1  0  0  0
 50125  1  0  0  0
 51 52  1  0  0  0
 51126  1  0  0  0
 51127  1  0  0  0
 52128  1  0  0  0
 52129  1  0  0  0
 53 54  1  0  0  0
 54 55  2  0  0  0
 54130  1  0  0  0
 55 57  1  0  0  0
 55131  1  0  0  0
 56 69  2  0  0  0
 57 58  2  0  0  0
 57132  1  0  0  0
 58133  1  0  0  0
 59 60  1  0  0  0
 59 61  1  0  0  0
 59 62  1  0  0  0
 60134  1  0  0  0
 60135  1  0  0  0
 60136  1  0  0  0
 61137  1  0  0  0
 61138  1  0  0  0
 61139  1  0  0  0
 62140  1  0  0  0
 62141  1  0  0  0
 62142  1  0  0  0
 63 65  1  0  0  0
 63143  1  0  0  0
 63144  1  0  0  0
 63145  1  0  0  0
 64146  1  0  0  0
 65147  1  0  0  0
 68 83  1  0  0  0
 71 72  2  0  0  0
 71 73  1  0  0  0
 71148  1  0  0  0
 72 75  1  0  0  0
 72 77  1  0  0  0
 73 76  2  0  0  0
 73 79  1  0  0  0
 74 75  2  0  0  0
 74 76  1  0  0  0
 74 85  1  0  0  0
 75 87  1  0  0  0
 76 88  1  0  0  0
 77149  1  0  0  0
 77150  1  0  0  0
 77151  1  0  0  0
 78152  1  0  0  0
 78153  1  0  0  0
 78154  1  0  0  0
 78 84  1  0  0  0
 79 82  1  0  0  0
 79155  1  0  0  0
 79156  1  0  0  0
 80 81  1  0  0  0
 80 83  1  0  0  0
 80157  1  0  0  0
 80158  1  0  0  0
 81 84  1  0  0  0
 81159  1  0  0  0
 81160  1  0  0  0
 82 86  1  0  0  0
 82161  1  0  0  0
 82162  1  0  0  0
 83163  1  0  0  0
 83164  1  0  0  0
 84 85  1  0  0  0
 84165  1  0  0  0
 85166  1  0  0  0
 86167  1  0  0  0
M  ISO  4   1 100  68 101  83 101  86 100
M  END
> <chiral flag>
0

> <version>
0

> <s_m_source_file>
/data/baiqing/PycharmProjects/Reinvent-master-3.2/result/LINK_invent/BTK/process_docking_weight1_custom_sum_contain_oxygen_bond_distance_aromatic_linkinvent_7_9_3/rearranged_h_0033.sdf

> <i_m_source_file_index>
60

> <r_mmod_Potential_Energy-OPLS-2005>
193.431762695312

> <r_mmod_Stretch_Energy-OPLS-2005>
33.1123962402344

> <r_mmod_Bend_Energy-OPLS-2005>
207.973846435547

> <r_mmod_Torsional_Energy-OPLS-2005>
319.374053955078

> <r_mmod_Improper_Torsional_Energy-OPLS-2005>
13.2228012084961

> <r_mmod_Van_der_Waal_Energy-OPLS-2005>
161.178512573242

> <r_mmod_Electrostatic_Energy-OPLS-2005>
-368.516906738281

> <r_mmod_Solvation_Energy-OPLS-2005>
-207.556442260742

> <b_mmod_Minimization_Converged-OPLS-2005>
0

> <r_mmod_RMS_Derivative-OPLS-2005>
9.83485126495361

$$$$
61
                    3D
 Structure written by MMmdl.
156164  0  0  1  0            999 V2000
  -30.5519  -14.9763   20.4848 C   0  0  0  0  0  0
  -30.4434  -12.6057   19.5616 C   0  0  0  0  0  0
  -29.5509  -12.5548   18.2980 C   0  0  0  0  0  0
  -28.0787  -12.3367   18.6938 C   0  0  0  0  0  0
  -27.6357  -13.2631   19.8566 C   0  0  2  0  0  0
  -28.6627  -13.2993   21.0123 C   0  0  0  0  0  0
  -25.2452  -13.8220   20.5733 C   0  0  0  0  0  0
  -24.1755  -13.0434   20.9206 C   0  0  0  0  0  0
  -24.6415  -11.6927   20.8742 C   0  0  0  0  0  0
  -23.9134  -10.4300   21.0404 C   0  0  0  0  0  0
  -24.3674   -9.4192   21.9182 C   0  0  0  0  0  0
  -23.6277   -8.2275   22.0757 C   0  0  0  0  0  0
  -22.4242   -8.0345   21.3597 C   0  0  0  0  0  0
  -21.9932   -9.0314   20.4690 C   0  0  0  0  0  0
  -22.7295  -10.2160   20.3052 C   0  0  0  0  0  0
  -21.6833   -6.0755   22.5276 C   0  0  0  0  0  0
  -21.4034   -6.5638   23.8224 C   0  0  0  0  0  0
  -21.3660   -5.6787   24.9177 C   0  0  0  0  0  0
  -21.6041   -4.3051   24.7212 C   0  0  0  0  0  0
  -21.8807   -3.8157   23.4324 C   0  0  0  0  0  0
  -21.9174   -4.6986   22.3394 C   0  0  0  0  0  0
  -22.7779  -13.5213   21.1844 C   0  0  0  0  0  0
  -22.1652   -4.2205   21.0958 F   0  0  0  0  0  0
  -21.5615   -3.4511   25.7720 F   0  0  0  0  0  0
  -29.9522  -13.7105   20.4404 N   0  0  0  0  0  0
  -26.2909  -12.9499   20.3275 N   0  0  0  0  0  0
  -25.9360  -11.6606   20.5729 N   0  0  0  0  0  0
  -22.0431  -12.8243   22.0438 N   0  0  0  0  0  0
  -25.4062  -15.1959   20.4203 N   0  0  0  0  0  0
  -31.7318  -15.0336   20.1160 O   0  0  0  0  0  0
  -21.6626   -6.8919   21.4247 O   0  0  0  0  0  0
  -22.3461  -14.5517   20.6654 O   0  0  0  0  0  0
  -24.6412  -31.8433   23.1924 C   0  0  0  0  0  0
  -25.9188  -32.4712   23.8298 C   0  0  1  0  0  0
  -27.2131  -27.1189   20.1696 C   0  0  0  0  0  0
  -25.5947  -33.8510   24.2171 N   0  0  0  0  0  0
  -23.4449  -30.4643   21.5392 C   0  0  2  0  0  0
  -24.9010  -28.8921   20.1089 C   0  0  0  0  0  0
  -22.7578  -29.4521   22.4900 C   0  0  0  0  0  0
  -18.0308  -28.1400   22.8504 C   0  0  0  0  0  0
  -24.1510  -36.7244   23.2634 C   0  0  0  0  0  0
  -26.0053  -30.7130   21.3989 C   0  0  0  0  0  0
  -26.0761  -29.3228   20.7347 C   0  0  0  0  0  0
  -27.2353  -28.4559   20.7412 C   0  0  0  0  0  0
  -26.0152  -26.7921   19.4958 C   0  0  0  0  0  0
  -24.8867  -27.6430   19.4680 C   0  0  0  0  0  0
  -23.6749  -29.7969   20.1541 C   0  0  0  0  0  0
  -25.4148  -36.3039   24.0300 C   0  0  1  0  0  0
  -20.5929  -28.3714   23.1297 C   0  0  2  0  0  0
  -20.6806  -26.9418   22.5461 C   0  0  0  0  0  0
  -19.5793  -26.6374   21.5267 C   0  0  0  0  0  0
  -18.1953  -26.7966   22.1628 C   0  0  0  0  0  0
  -19.1558  -28.8887   23.2891 C   0  0  0  0  0  0
  -18.9472  -30.1485   23.8932 C   0  0  0  0  0  0
  -17.6458  -30.6599   24.0566 C   0  0  0  0  0  0
  -25.9082  -34.9420   23.5044 C   0  0  0  0  0  0
  -16.5355  -29.9096   23.6344 C   0  0  0  0  0  0
  -16.7282  -28.6504   23.0389 C   0  0  0  0  0  0
  -26.4512  -31.6582   25.0738 C   0  0  0  0  0  0
  -25.3665  -31.3815   26.1414 C   0  0  0  0  0  0
  -27.0345  -30.2974   24.6329 C   0  0  0  0  0  0
  -27.6081  -32.4333   25.7485 C   0  0  0  0  0  0
  -27.5598  -37.1764   24.8444 C   0  0  0  0  0  0
  -21.4271  -29.3024   22.3644 N   0  0  0  0  0  0
  -26.4298  -37.3762   23.9404 N   0  0  0  0  0  0
  -24.7172  -31.0293   22.0980 N   0  0  0  0  0  0
  -23.4220  -28.8073   23.3033 O   0  0  0  0  0  0
  -28.2707  -26.1262   20.1966 O   0  0  0  0  0  0
  -26.5674  -34.8916   22.4628 O   0  0  0  0  0  0
  -23.5536  -32.1322   23.7151 O   0  0  0  0  0  0
  -28.4371  -21.6313   22.1402 C   0  0  0  0  0  0
  -29.3939  -20.4178   20.2869 C   0  0  0  0  0  0
  -28.9036  -21.7236   20.8147 C   0  0  0  0  0  0
  -28.5189  -20.4412   22.9050 C   0  0  0  0  0  0
  -29.4827  -19.1189   21.0241 C   0  0  0  0  0  0
  -29.0714  -19.2263   22.3883 C   0  0  0  0  0  0
  -28.0317  -20.5301   24.3517 C   0  0  0  0  0  0
  -29.2659  -18.0406   23.3339 C   0  0  0  0  0  0
  -28.9363  -23.2331   20.1101 C   0  0  0  0  0  0
  -30.1636  -17.7057   20.4489 C   0  0  0  0  0  0
  -28.0223  -24.6106   20.5363 C   0  0  0  0  0  0
  -29.8239  -16.1764   20.7511 N   0  0  0  0  0  0
  -31.4928  -12.7342   19.2867 H   0  0  0  0  0  0
  -30.4068  -11.6530   20.0966 H   0  0  0  0  0  0
  -29.8815  -11.7638   17.6231 H   0  0  0  0  0  0
  -29.6596  -13.4889   17.7452 H   0  0  0  0  0  0
  -27.9747  -11.2938   18.9967 H   0  0  0  0  0  0
  -27.4302  -12.4778   17.8268 H   0  0  0  0  0  0
  -27.5987  -14.2673   19.4282 H   0  0  0  0  0  0
  -28.7371  -12.3299   21.5129 H   0  0  0  0  0  0
  -28.3451  -14.0147   21.7742 H   0  0  0  0  0  0
  -25.2817   -9.5619   22.4750 H   0  0  0  0  0  0
  -23.9992   -7.4616   22.7384 H   0  0  0  0  0  0
  -21.0898   -8.8824   19.8963 H   0  0  0  0  0  0
  -22.3770  -10.9698   19.6162 H   0  0  0  0  0  0
  -21.2079   -7.6158   23.9750 H   0  0  0  0  0  0
  -21.1479   -6.0510   25.9086 H   0  0  0  0  0  0
  -22.0586   -2.7624   23.2772 H   0  0  0  0  0  0
  -22.4019  -11.9974   22.4991 H   0  0  0  0  0  0
  -21.1047  -13.1297   22.2581 H   0  0  0  0  0  0
  -24.6352  -15.8418   20.5391 H   0  0  0  0  0  0
  -26.2484  -15.6517   20.0921 H   0  0  0  0  0  0
  -26.7246  -32.5307   23.0995 H   0  0  0  0  0  0
  -25.0092  -33.9666   25.0322 H   0  0  0  0  0  0
  -22.7457  -31.2895   21.3935 H   0  0  0  0  0  0
  -23.3805  -35.9533   23.3278 H   0  0  0  0  0  0
  -24.3574  -36.8903   22.2052 H   0  0  0  0  0  0
  -23.7236  -37.6417   23.6701 H   0  0  0  0  0  0
  -26.1707  -31.4725   20.6341 H   0  0  0  0  0  0
  -26.8697  -30.7579   22.0479 H   0  0  0  0  0  0
  -28.1363  -28.7899   21.2378 H   0  0  0  0  0  0
  -25.9316  -25.8430   18.9890 H   0  0  0  0  0  0
  -23.9939  -27.3169   18.9508 H   0  0  0  0  0  0
  -23.8153  -30.5807   19.4098 H   0  0  0  0  0  0
  -22.7876  -29.2485   19.8364 H   0  0  0  0  0  0
  -25.1327  -36.1873   25.0791 H   0  0  0  0  0  0
  -21.0000  -28.3330   24.1431 H   0  0  0  0  0  0
  -20.5813  -26.2283   23.3638 H   0  0  0  0  0  0
  -21.6663  -26.7499   22.1198 H   0  0  0  0  0  0
  -19.6941  -25.6286   21.1304 H   0  0  0  0  0  0
  -19.6769  -27.3195   20.6819 H   0  0  0  0  0  0
  -17.4237  -26.6765   21.4005 H   0  0  0  0  0  0
  -18.0307  -26.0094   22.9006 H   0  0  0  0  0  0
  -19.7921  -30.7314   24.2336 H   0  0  0  0  0  0
  -17.4991  -31.6302   24.5119 H   0  0  0  0  0  0
  -15.5366  -30.2993   23.7675 H   0  0  0  0  0  0
  -15.8660  -28.0805   22.7151 H   0  0  0  0  0  0
  -24.5827  -30.7189   25.7734 H   0  0  0  0  0  0
  -24.8862  -32.3017   26.4777 H   0  0  0  0  0  0
  -25.7898  -30.9009   27.0233 H   0  0  0  0  0  0
  -26.2949  -29.6727   24.1307 H   0  0  0  0  0  0
  -27.3923  -29.7295   25.4929 H   0  0  0  0  0  0
  -27.8905  -30.4238   23.9681 H   0  0  0  0  0  0
  -27.2700  -33.3629   26.2080 H   0  0  0  0  0  0
  -28.3855  -32.6866   25.0261 H   0  0  0  0  0  0
  -28.0765  -31.8416   26.5354 H   0  0  0  0  0  0
  -28.2582  -38.0103   24.7545 H   0  0  0  0  0  0
  -28.1123  -36.2624   24.6192 H   0  0  0  0  0  0
  -27.2299  -37.1334   25.8842 H   0  0  0  0  0  0
  -20.9479  -29.8619   21.6699 H   0  0  0  0  0  0
  -26.0160  -38.2808   24.1481 H   0  0  0  0  0  0
  -28.0387  -22.5204   22.6099 H   0  0  0  0  0  0
  -29.7529  -20.4172   19.2654 H   0  0  0  0  0  0
  -27.3893  -21.3996   24.5043 H   0  0  0  0  0  0
  -28.8769  -20.6318   25.0361 H   0  0  0  0  0  0
  -27.4501  -19.6541   24.6437 H   0  0  0  0  0  0
  -29.3834  -18.3289   24.3840 H   0  0  0  0  0  0
  -30.1778  -17.4896   23.1001 H   0  0  0  0  0  0
  -28.4059  -17.3722   23.2651 H   0  0  0  0  0  0
  -28.8062  -23.0750   19.0400 H   0  0  0  0  0  0
  -29.9793  -23.5322   20.2083 H   0  0  0  0  0  0
  -31.2199  -17.8031   20.7081 H   0  0  0  0  0  0
  -30.1526  -17.8026   19.3666 H   0  0  0  0  0  0
  -28.0505  -24.6281   21.6222 H   0  0  0  0  0  0
  -26.9847  -24.3712   20.2993 H   0  0  0  0  0  0
  -28.8871  -16.0214   21.0918 H   0  0  0  0  0  0
  1 25  1  0  0  0
  1 30  2  0  0  0
  1 82  1  0  0  0
  2  3  1  0  0  0
  2 25  1  0  0  0
  2 83  1  0  0  0
  2 84  1  0  0  0
  3  4  1  0  0  0
  3 85  1  0  0  0
  3 86  1  0  0  0
  4  5  1  0  0  0
  4 87  1  0  0  0
  4 88  1  0  0  0
  5  6  1  0  0  0
  5 26  1  0  0  0
  5 89  1  0  0  0
  6 25  1  0  0  0
  6 90  1  0  0  0
  6 91  1  0  0  0
  7  8  2  0  0  0
  7 26  1  0  0  0
  7 29  1  0  0  0
  8  9  1  0  0  0
  8 22  1  0  0  0
  9 10  1  0  0  0
  9 27  2  0  0  0
 10 11  2  0  0  0
 10 15  1  0  0  0
 11 12  1  0  0  0
 11 92  1  0  0  0
 12 13  2  0  0  0
 12 93  1  0  0  0
 13 14  1  0  0  0
 13 31  1  0  0  0
 14 15  2  0  0  0
 14 94  1  0  0  0
 15 95  1  0  0  0
 16 17  2  0  0  0
 16 21  1  0  0  0
 16 31  1  0  0  0
 17 18  1  0  0  0
 17 96  1  0  0  0
 18 19  2  0  0  0
 18 97  1  0  0  0
 19 20  1  0  0  0
 19 24  1  0  0  0
 20 21  2  0  0  0
 20 98  1  0  0  0
 21 23  1  0  0  0
 22 28  1  0  0  0
 22 32  2  0  0  0
 26 27  1  0  0  0
 28 99  1  0  0  0
 28100  1  0  0  0
 29101  1  0  0  0
 29102  1  0  0  0
 33 34  1  0  0  0
 33 66  1  0  0  0
 33 70  2  0  0  0
 34 36  1  0  0  0
 34 59  1  0  0  0
 34103  1  0  0  0
 35 44  2  0  0  0
 35 45  1  0  0  0
 35 68  1  0  0  0
 36 56  1  0  0  0
 36104  1  0  0  0
 37 39  1  0  0  0
 37 47  1  0  0  0
 37 66  1  0  0  0
 37105  1  0  0  0
 38 43  2  0  0  0
 38 46  1  0  0  0
 38 47  1  0  0  0
 39 64  1  0  0  0
 39 67  2  0  0  0
 40 52  1  0  0  0
 40 53  2  0  0  0
 40 58  1  0  0  0
 41106  1  0  0  0
 41107  1  0  0  0
 41108  1  0  0  0
 41 48  1  0  0  0
 42 43  1  0  0  0
 42 66  1  0  0  0
 42109  1  0  0  0
 42110  1  0  0  0
 43 44  1  0  0  0
 44111  1  0  0  0
 45 46  2  0  0  0
 45112  1  0  0  0
 46113  1  0  0  0
 47114  1  0  0  0
 47115  1  0  0  0
 48 56  1  0  0  0
 48 65  1  0  0  0
 48116  1  0  0  0
 49 50  1  0  0  0
 49 53  1  0  0  0
 49 64  1  0  0  0
 49117  1  0  0  0
 50 51  1  0  0  0
 50118  1  0  0  0
 50119  1  0  0  0
 51 52  1  0  0  0
 51120  1  0  0  0
 51121  1  0  0  0
 52122  1  0  0  0
 52123  1  0  0  0
 53 54  1  0  0  0
 54 55  2  0  0  0
 54124  1  0  0  0
 55 57  1  0  0  0
 55125  1  0  0  0
 56 69  2  0  0  0
 57 58  2  0  0  0
 57126  1  0  0  0
 58127  1  0  0  0
 59 60  1  0  0  0
 59 61  1  0  0  0
 59 62  1  0  0  0
 60128  1  0  0  0
 60129  1  0  0  0
 60130  1  0  0  0
 61131  1  0  0  0
 61132  1  0  0  0
 61133  1  0  0  0
 62134  1  0  0  0
 62135  1  0  0  0
 62136  1  0  0  0
 63 65  1  0  0  0
 63137  1  0  0  0
 63138  1  0  0  0
 63139  1  0  0  0
 64140  1  0  0  0
 65141  1  0  0  0
 68 81  1  0  0  0
 71 73  2  0  0  0
 71 74  1  0  0  0
 71142  1  0  0  0
 72 73  1  0  0  0
 72 75  2  0  0  0
 72143  1  0  0  0
 73 79  1  0  0  0
 74 76  2  0  0  0
 74 77  1  0  0  0
 75 76  1  0  0  0
 75 80  1  0  0  0
 76 78  1  0  0  0
 77144  1  0  0  0
 77145  1  0  0  0
 77146  1  0  0  0
 78147  1  0  0  0
 78148  1  0  0  0
 78149  1  0  0  0
 79 81  1  0  0  0
 79150  1  0  0  0
 79151  1  0  0  0
 80 82  1  0  0  0
 80152  1  0  0  0
 80153  1  0  0  0
 81154  1  0  0  0
 81155  1  0  0  0
 82156  1  0  0  0
M  ISO  4   1 100  68 101  81 101  82 100
M  END
> <chiral flag>
0

> <version>
0

> <s_m_source_file>
/data/baiqing/PycharmProjects/Reinvent-master-3.2/result/LINK_invent/BTK/process_docking_weight1_custom_sum_contain_oxygen_bond_distance_aromatic_linkinvent_7_9_3/rearranged_h_0033.sdf

> <i_m_source_file_index>
61

> <r_mmod_Potential_Energy-OPLS-2005>
499.949066162109

> <r_mmod_Stretch_Energy-OPLS-2005>
293.719177246094

> <r_mmod_Bend_Energy-OPLS-2005>
264.317138671875

> <r_mmod_Torsional_Energy-OPLS-2005>
217.618362426758

> <r_mmod_Improper_Torsional_Energy-OPLS-2005>
5.01045751571655

> <r_mmod_Van_der_Waal_Energy-OPLS-2005>
132.710266113281

> <r_mmod_Electrostatic_Energy-OPLS-2005>
-412.134552001953

> <r_mmod_Solvation_Energy-OPLS-2005>
-207.829696655273

> <b_mmod_Minimization_Converged-OPLS-2005>
0

> <r_mmod_RMS_Derivative-OPLS-2005>
6.97146034240723

$$$$
62
                    3D
 Structure written by MMmdl.
154162  0  0  1  0            999 V2000
  -30.4781  -15.0277   20.4058 C   0  0  0  0  0  0
  -30.4462  -12.6323   19.5168 C   0  0  0  0  0  0
  -29.5302  -12.5476   18.2703 C   0  0  0  0  0  0
  -28.0636  -12.3160   18.6831 C   0  0  0  0  0  0
  -27.6274  -13.2543   19.8379 C   0  0  2  0  0  0
  -28.6643  -13.3039   20.9781 C   0  0  0  0  0  0
  -25.2447  -13.8226   20.5722 C   0  0  0  0  0  0
  -24.1772  -13.0435   20.9217 C   0  0  0  0  0  0
  -24.6406  -11.6926   20.8762 C   0  0  0  0  0  0
  -23.9103  -10.4297   21.0417 C   0  0  0  0  0  0
  -24.3644   -9.4203   21.9198 C   0  0  0  0  0  0
  -23.6304   -8.2248   22.0763 C   0  0  0  0  0  0
  -22.4291   -8.0294   21.3546 C   0  0  0  0  0  0
  -21.9935   -9.0271   20.4650 C   0  0  0  0  0  0
  -22.7276  -10.2144   20.3061 C   0  0  0  0  0  0
  -21.6855   -6.0753   22.5280 C   0  0  0  0  0  0
  -21.4019   -6.5650   23.8220 C   0  0  0  0  0  0
  -21.3657   -5.6800   24.9175 C   0  0  0  0  0  0
  -21.6042   -4.3065   24.7217 C   0  0  0  0  0  0
  -21.8814   -3.8159   23.4344 C   0  0  0  0  0  0
  -21.9191   -4.6982   22.3404 C   0  0  0  0  0  0
  -22.7794  -13.5203   21.1887 C   0  0  0  0  0  0
  -22.1656   -4.2173   21.0981 F   0  0  0  0  0  0
  -21.5629   -3.4545   25.7728 F   0  0  0  0  0  0
  -29.9409  -13.7326   20.3937 N   0  0  0  0  0  0
  -26.2879  -12.9466   20.3245 N   0  0  0  0  0  0
  -25.9340  -11.6594   20.5737 N   0  0  0  0  0  0
  -22.0450  -12.8185   22.0440 N   0  0  0  0  0  0
  -25.4122  -15.1955   20.4190 N   0  0  0  0  0  0
  -31.6782  -15.1005   20.1119 O   0  0  0  0  0  0
  -21.6642   -6.8897   21.4247 O   0  0  0  0  0  0
  -22.3480  -14.5517   20.6748 O   0  0  0  0  0  0
  -24.6478  -31.8395   23.1853 C   0  0  0  0  0  0
  -25.9224  -32.4684   23.8247 C   0  0  1  0  0  0
  -27.2227  -27.1057   20.1361 C   0  0  0  0  0  0
  -25.5959  -33.8493   24.2171 N   0  0  0  0  0  0
  -23.4547  -30.4583   21.5316 C   0  0  2  0  0  0
  -24.9058  -28.8816   20.1067 C   0  0  0  0  0  0
  -22.7600  -29.4510   22.4836 C   0  0  0  0  0  0
  -18.0310  -28.1418   22.8463 C   0  0  0  0  0  0
  -24.1486  -36.7226   23.2651 C   0  0  0  0  0  0
  -26.0144  -30.7021   21.3900 C   0  0  0  0  0  0
  -26.0853  -29.3119   20.7273 C   0  0  0  0  0  0
  -27.2438  -28.4399   20.7248 C   0  0  0  0  0  0
  -26.0177  -26.7930   19.4691 C   0  0  0  0  0  0
  -24.8870  -27.6384   19.4598 C   0  0  0  0  0  0
  -23.6834  -29.7855   20.1528 C   0  0  0  0  0  0
  -25.4126  -36.3027   24.0328 C   0  0  1  0  0  0
  -20.5927  -28.3732   23.1232 C   0  0  2  0  0  0
  -20.6787  -26.9430   22.5411 C   0  0  0  0  0  0
  -19.5764  -26.6389   21.5220 C   0  0  0  0  0  0
  -18.1937  -26.7953   22.1623 C   0  0  0  0  0  0
  -19.1572  -28.8896   23.2838 C   0  0  0  0  0  0
  -18.9492  -30.1483   23.8877 C   0  0  0  0  0  0
  -17.6493  -30.6606   24.0559 C   0  0  0  0  0  0
  -25.9083  -34.9407   23.5062 C   0  0  0  0  0  0
  -16.5375  -29.9092   23.6357 C   0  0  0  0  0  0
  -16.7297  -28.6520   23.0364 C   0  0  0  0  0  0
  -26.4537  -31.6567   25.0699 C   0  0  0  0  0  0
  -25.3710  -31.3785   26.1387 C   0  0  0  0  0  0
  -27.0395  -30.2962   24.6294 C   0  0  0  0  0  0
  -27.6077  -32.4324   25.7477 C   0  0  0  0  0  0
  -27.5570  -37.1768   24.8480 C   0  0  0  0  0  0
  -21.4287  -29.3039   22.3588 N   0  0  0  0  0  0
  -26.4282  -37.3746   23.9428 N   0  0  0  0  0  0
  -24.7258  -31.0211   22.0908 N   0  0  0  0  0  0
  -23.4217  -28.8071   23.3016 O   0  0  0  0  0  0
  -28.2592  -26.0876   20.2046 O   0  0  0  0  0  0
  -26.5656  -34.8900   22.4627 O   0  0  0  0  0  0
  -23.5587  -32.1282   23.7054 O   0  0  0  0  0  0
  -29.4478  -20.6871   21.4118 C   0  0  0  0  0  0
  -29.3420  -20.5349   19.0329 C   0  0  0  0  0  0
  -28.7005  -22.1466   21.3519 C   0  0  0  0  0  0
  -28.5802  -21.9746   18.9833 C   0  0  0  0  0  0
  -29.1875  -19.5608   20.2928 C   0  0  1  0  0  0
  -28.8585  -23.1077   20.0814 C   0  0  1  0  0  0
  -29.6037  -16.4584   20.6251 C   0  0  0  0  0  0
  -30.0740  -18.0752   20.2862 C   0  0  0  0  0  0
  -27.9599  -24.5676   19.9292 C   0  0  0  0  0  0
  -31.4787  -12.7998   19.2083 H   0  0  0  0  0  0
  -30.4499  -11.6844   20.0567 H   0  0  0  0  0  0
  -29.8636  -11.7478   17.6072 H   0  0  0  0  0  0
  -29.6075  -13.4735   17.6991 H   0  0  0  0  0  0
  -27.9708  -11.2769   18.9993 H   0  0  0  0  0  0
  -27.4013  -12.4341   17.8251 H   0  0  0  0  0  0
  -27.5830  -14.2511   19.3994 H   0  0  0  0  0  0
  -28.7608  -12.3342   21.4687 H   0  0  0  0  0  0
  -28.3490  -14.0104   21.7472 H   0  0  0  0  0  0
  -25.2791   -9.5684   22.4775 H   0  0  0  0  0  0
  -24.0016   -7.4643   22.7486 H   0  0  0  0  0  0
  -21.0871   -8.8797   19.8953 H   0  0  0  0  0  0
  -22.3743  -10.9689   19.6171 H   0  0  0  0  0  0
  -21.2010   -7.6156   23.9729 H   0  0  0  0  0  0
  -21.1484   -6.0527   25.9080 H   0  0  0  0  0  0
  -22.0593   -2.7623   23.2829 H   0  0  0  0  0  0
  -22.4066  -11.9815   22.4784 H   0  0  0  0  0  0
  -21.1076  -13.1220   22.2688 H   0  0  0  0  0  0
  -24.6449  -15.8483   20.5393 H   0  0  0  0  0  0
  -26.2686  -15.6441   20.1195 H   0  0  0  0  0  0
  -26.7282  -32.5264   23.0960 H   0  0  0  0  0  0
  -25.0125  -33.9615   25.0338 H   0  0  0  0  0  0
  -22.7591  -31.2852   21.3721 H   0  0  0  0  0  0
  -23.3775  -35.9531   23.3325 H   0  0  0  0  0  0
  -24.3563  -36.8847   22.2063 H   0  0  0  0  0  0
  -23.7208  -37.6412   23.6670 H   0  0  0  0  0  0
  -26.1725  -31.4565   20.6179 H   0  0  0  0  0  0
  -26.8856  -30.7524   22.0324 H   0  0  0  0  0  0
  -28.1410  -28.7635   21.2340 H   0  0  0  0  0  0
  -25.9101  -25.8490   18.9582 H   0  0  0  0  0  0
  -23.9930  -27.3088   18.9500 H   0  0  0  0  0  0
  -23.8161  -30.5575   19.3946 H   0  0  0  0  0  0
  -22.8002  -29.2249   19.8436 H   0  0  0  0  0  0
  -25.1312  -36.1856   25.0824 H   0  0  0  0  0  0
  -21.0009  -28.3313   24.1359 H   0  0  0  0  0  0
  -20.5700  -26.2337   23.3627 H   0  0  0  0  0  0
  -21.6649  -26.7426   22.1195 H   0  0  0  0  0  0
  -19.6931  -25.6297   21.1255 H   0  0  0  0  0  0
  -19.6729  -27.3188   20.6742 H   0  0  0  0  0  0
  -17.4216  -26.6725   21.4009 H   0  0  0  0  0  0
  -18.0310  -26.0099   22.9030 H   0  0  0  0  0  0
  -19.7976  -30.7290   24.2240 H   0  0  0  0  0  0
  -17.5056  -31.6291   24.5147 H   0  0  0  0  0  0
  -15.5380  -30.2995   23.7703 H   0  0  0  0  0  0
  -15.8692  -28.0831   22.7104 H   0  0  0  0  0  0
  -24.5940  -30.7071   25.7729 H   0  0  0  0  0  0
  -24.8827  -32.2961   26.4664 H   0  0  0  0  0  0
  -25.7972  -30.9084   27.0255 H   0  0  0  0  0  0
  -26.3011  -29.6695   24.1280 H   0  0  0  0  0  0
  -27.3998  -29.7264   25.4867 H   0  0  0  0  0  0
  -27.8920  -30.4229   23.9622 H   0  0  0  0  0  0
  -27.2729  -33.3717   26.1890 H   0  0  0  0  0  0
  -28.3954  -32.6725   25.0328 H   0  0  0  0  0  0
  -28.0640  -31.8531   26.5514 H   0  0  0  0  0  0
  -28.2590  -38.0060   24.7495 H   0  0  0  0  0  0
  -28.1056  -36.2577   24.6335 H   0  0  0  0  0  0
  -27.2272  -37.1446   25.8882 H   0  0  0  0  0  0
  -20.9508  -29.8755   21.6761 H   0  0  0  0  0  0
  -26.0154  -38.2819   24.1433 H   0  0  0  0  0  0
  -29.2170  -20.2472   22.3829 H   0  0  0  0  0  0
  -30.5217  -20.8782   21.4474 H   0  0  0  0  0  0
  -30.4054  -20.7230   18.8765 H   0  0  0  0  0  0
  -29.0329  -19.9758   18.1485 H   0  0  0  0  0  0
  -28.9958  -22.7173   22.2340 H   0  0  0  0  0  0
  -27.6330  -21.9684   21.4874 H   0  0  0  0  0  0
  -27.5075  -21.7714   18.9780 H   0  0  0  0  0  0
  -28.7727  -22.4138   18.0024 H   0  0  0  0  0  0
  -28.1323  -19.2895   20.3470 H   0  0  0  0  0  0
  -29.9095  -23.3855   19.9876 H   0  0  0  0  0  0
  -28.6809  -16.2976   20.0697 H   0  0  0  0  0  0
  -29.2909  -16.4390   21.6695 H   0  0  0  0  0  0
  -30.9400  -18.2569   20.9222 H   0  0  0  0  0  0
  -30.5090  -18.0190   19.2888 H   0  0  0  0  0  0
  -27.0025  -24.3657   20.4106 H   0  0  0  0  0  0
  -27.7272  -24.5883   18.8641 H   0  0  0  0  0  0
  1 25  1  0  0  0
  1 30  2  0  0  0
  1 77  1  0  0  0
  2  3  1  0  0  0
  2 25  1  0  0  0
  2 80  1  0  0  0
  2 81  1  0  0  0
  3  4  1  0  0  0
  3 82  1  0  0  0
  3 83  1  0  0  0
  4  5  1  0  0  0
  4 84  1  0  0  0
  4 85  1  0  0  0
  5  6  1  0  0  0
  5 26  1  0  0  0
  5 86  1  0  0  0
  6 25  1  0  0  0
  6 87  1  0  0  0
  6 88  1  0  0  0
  7  8  2  0  0  0
  7 26  1  0  0  0
  7 29  1  0  0  0
  8  9  1  0  0  0
  8 22  1  0  0  0
  9 10  1  0  0  0
  9 27  2  0  0  0
 10 11  2  0  0  0
 10 15  1  0  0  0
 11 12  1  0  0  0
 11 89  1  0  0  0
 12 13  2  0  0  0
 12 90  1  0  0  0
 13 14  1  0  0  0
 13 31  1  0  0  0
 14 15  2  0  0  0
 14 91  1  0  0  0
 15 92  1  0  0  0
 16 17  2  0  0  0
 16 21  1  0  0  0
 16 31  1  0  0  0
 17 18  1  0  0  0
 17 93  1  0  0  0
 18 19  2  0  0  0
 18 94  1  0  0  0
 19 20  1  0  0  0
 19 24  1  0  0  0
 20 21  2  0  0  0
 20 95  1  0  0  0
 21 23  1  0  0  0
 22 28  1  0  0  0
 22 32  2  0  0  0
 26 27  1  0  0  0
 28 96  1  0  0  0
 28 97  1  0  0  0
 29 98  1  0  0  0
 29 99  1  0  0  0
 33 34  1  0  0  0
 33 66  1  0  0  0
 33 70  2  0  0  0
 34 36  1  0  0  0
 34 59  1  0  0  0
 34100  1  0  0  0
 35 44  2  0  0  0
 35 45  1  0  0  0
 35 68  1  0  0  0
 36 56  1  0  0  0
 36101  1  0  0  0
 37 39  1  0  0  0
 37 47  1  0  0  0
 37 66  1  0  0  0
 37102  1  0  0  0
 38 43  2  0  0  0
 38 46  1  0  0  0
 38 47  1  0  0  0
 39 64  1  0  0  0
 39 67  2  0  0  0
 40 52  1  0  0  0
 40 53  2  0  0  0
 40 58  1  0  0  0
 41103  1  0  0  0
 41104  1  0  0  0
 41105  1  0  0  0
 41 48  1  0  0  0
 42 43  1  0  0  0
 42 66  1  0  0  0
 42106  1  0  0  0
 42107  1  0  0  0
 43 44  1  0  0  0
 44108  1  0  0  0
 45 46  2  0  0  0
 45109  1  0  0  0
 46110  1  0  0  0
 47111  1  0  0  0
 47112  1  0  0  0
 48 56  1  0  0  0
 48 65  1  0  0  0
 48113  1  0  0  0
 49 50  1  0  0  0
 49 53  1  0  0  0
 49 64  1  0  0  0
 49114  1  0  0  0
 50 51  1  0  0  0
 50115  1  0  0  0
 50116  1  0  0  0
 51 52  1  0  0  0
 51117  1  0  0  0
 51118  1  0  0  0
 52119  1  0  0  0
 52120  1  0  0  0
 53 54  1  0  0  0
 54 55  2  0  0  0
 54121  1  0  0  0
 55 57  1  0  0  0
 55122  1  0  0  0
 56 69  2  0  0  0
 57 58  2  0  0  0
 57123  1  0  0  0
 58124  1  0  0  0
 59 60  1  0  0  0
 59 61  1  0  0  0
 59 62  1  0  0  0
 60125  1  0  0  0
 60126  1  0  0  0
 60127  1  0  0  0
 61128  1  0  0  0
 61129  1  0  0  0
 61130  1  0  0  0
 62131  1  0  0  0
 62132  1  0  0  0
 62133  1  0  0  0
 63 65  1  0  0  0
 63134  1  0  0  0
 63135  1  0  0  0
 63136  1  0  0  0
 64137  1  0  0  0
 65138  1  0  0  0
 68 79  1  0  0  0
 71 73  1  0  0  0
 71 75  1  0  0  0
 71139  1  0  0  0
 71140  1  0  0  0
 72 74  1  0  0  0
 72 75  1  0  0  0
 72141  1  0  0  0
 72142  1  0  0  0
 73 76  1  0  0  0
 73143  1  0  0  0
 73144  1  0  0  0
 74 76  1  0  0  0
 74145  1  0  0  0
 74146  1  0  0  0
 75 78  1  0  0  0
 75147  1  0  0  0
 76 79  1  0  0  0
 76148  1  0  0  0
 77 78  1  0  0  0
 77149  1  0  0  0
 77150  1  0  0  0
 78151  1  0  0  0
 78152  1  0  0  0
 79153  1  0  0  0
 79154  1  0  0  0
M  ISO  4   1 100  68 101  77 100  79 101
M  END
> <chiral flag>
0

> <version>
0

> <s_m_source_file>
/data/baiqing/PycharmProjects/Reinvent-master-3.2/result/LINK_invent/BTK/process_docking_weight1_custom_sum_contain_oxygen_bond_distance_aromatic_linkinvent_7_9_3/rearranged_h_0033.sdf

> <i_m_source_file_index>
62

> <r_mmod_Potential_Energy-OPLS-2005>
730.40234375

> <r_mmod_Stretch_Energy-OPLS-2005>
320.634552001953

> <r_mmod_Bend_Energy-OPLS-2005>
326.80810546875

> <r_mmod_Torsional_Energy-OPLS-2005>
217.591201782227

> <r_mmod_Improper_Torsional_Energy-OPLS-2005>
2.93572020530701

> <r_mmod_Van_der_Waal_Energy-OPLS-2005>
116.944778442383

> <r_mmod_Electrostatic_Energy-OPLS-2005>
-306.445678710938

> <r_mmod_Solvation_Energy-OPLS-2005>
-187.184585571289

> <b_mmod_Minimization_Converged-OPLS-2005>
0

> <r_mmod_RMS_Derivative-OPLS-2005>
2.41964864730835

$$$$
63
                    3D
 Structure written by MMmdl.
166175  0  0  1  0            999 V2000
  -30.6826  -14.4675   20.6797 C   0  0  0  0  0  0
  -30.4366  -12.3566   19.3824 C   0  0  0  0  0  0
  -29.4714  -12.5166   18.1880 C   0  0  0  0  0  0
  -27.9957  -12.3705   18.6179 C   0  0  0  0  0  0
  -27.6606  -13.1867   19.8934 C   0  0  2  0  0  0
  -28.7078  -12.9303   20.9968 C   0  0  0  0  0  0
  -25.2615  -13.8148   20.5840 C   0  0  0  0  0  0
  -24.1826  -13.0426   20.9262 C   0  0  0  0  0  0
  -24.6304  -11.6886   20.8779 C   0  0  0  0  0  0
  -23.8945  -10.4289   21.0429 C   0  0  0  0  0  0
  -24.3531   -9.4220   21.9185 C   0  0  0  0  0  0
  -23.6292   -8.2217   22.0742 C   0  0  0  0  0  0
  -22.4270   -8.0222   21.3541 C   0  0  0  0  0  0
  -21.9875   -9.0157   20.4629 C   0  0  0  0  0  0
  -22.7111  -10.2085   20.3066 C   0  0  0  0  0  0
  -21.6872   -6.0693   22.5259 C   0  0  0  0  0  0
  -21.3975   -6.5623   23.8166 C   0  0  0  0  0  0
  -21.3677   -5.6801   24.9144 C   0  0  0  0  0  0
  -21.6071   -4.3070   24.7258 C   0  0  0  0  0  0
  -21.8807   -3.8132   23.4381 C   0  0  0  0  0  0
  -21.9204   -4.6936   22.3428 C   0  0  0  0  0  0
  -22.7843  -13.5219   21.1959 C   0  0  0  0  0  0
  -22.1673   -4.2103   21.1000 F   0  0  0  0  0  0
  -21.5688   -3.4552   25.7766 F   0  0  0  0  0  0
  -30.0265  -13.2938   20.4434 N   0  0  0  0  0  0
  -26.3006  -12.9230   20.3540 N   0  0  0  0  0  0
  -25.9226  -11.6416   20.5837 N   0  0  0  0  0  0
  -22.0562  -12.8097   22.0462 N   0  0  0  0  0  0
  -25.4496  -15.1845   20.4252 N   0  0  0  0  0  0
  -31.7551  -14.7554   20.1359 O   0  0  0  0  0  0
  -21.6695   -6.8783   21.4191 O   0  0  0  0  0  0
  -22.3472  -14.5499   20.6811 O   0  0  0  0  0  0
  -24.6142  -31.8671   23.2133 C   0  0  0  0  0  0
  -25.9044  -32.4810   23.8422 C   0  0  1  0  0  0
  -27.2398  -27.4380   20.1135 C   0  0  0  0  0  0
  -25.5913  -33.8613   24.2357 N   0  0  0  0  0  0
  -23.4029  -30.4896   21.5500 C   0  0  2  0  0  0
  -24.8504  -28.9582   20.1136 C   0  0  0  0  0  0
  -22.7430  -29.4629   22.5002 C   0  0  0  0  0  0
  -18.0272  -28.1420   22.8460 C   0  0  0  0  0  0
  -24.1495  -36.7320   23.2641 C   0  0  0  0  0  0
  -25.9283  -30.8334   21.3660 C   0  0  0  0  0  0
  -26.0071  -29.4674   20.7187 C   0  0  0  0  0  0
  -27.2019  -28.7140   20.7172 C   0  0  0  0  0  0
  -26.0678  -26.9400   19.4982 C   0  0  0  0  0  0
  -24.8788  -27.6941   19.4971 C   0  0  0  0  0  0
  -23.6145  -29.8300   20.1609 C   0  0  0  0  0  0
  -25.4109  -36.3103   24.0355 C   0  0  1  0  0  0
  -20.5858  -28.3697   23.1337 C   0  0  2  0  0  0
  -20.6791  -26.9440   22.5437 C   0  0  0  0  0  0
  -19.5777  -26.6399   21.5243 C   0  0  0  0  0  0
  -18.1925  -26.7960   22.1622 C   0  0  0  0  0  0
  -19.1512  -28.8882   23.2879 C   0  0  0  0  0  0
  -18.9452  -30.1478   23.8911 C   0  0  0  0  0  0
  -17.6459  -30.6613   24.0583 C   0  0  0  0  0  0
  -25.9036  -34.9458   23.5144 C   0  0  0  0  0  0
  -16.5348  -29.9129   23.6329 C   0  0  0  0  0  0
  -16.7259  -28.6563   23.0303 C   0  0  0  0  0  0
  -26.4497  -31.6559   25.0724 C   0  0  0  0  0  0
  -25.3784  -31.3611   26.1484 C   0  0  0  0  0  0
  -27.0347  -30.3035   24.6039 C   0  0  0  0  0  0
  -27.6100  -32.4266   25.7450 C   0  0  0  0  0  0
  -27.5598  -37.1793   24.8453 C   0  0  0  0  0  0
  -21.4155  -29.3055   22.3760 N   0  0  0  0  0  0
  -26.4286  -37.3796   23.9437 N   0  0  0  0  0  0
  -24.6657  -31.0771   22.1030 N   0  0  0  0  0  0
  -23.4205  -28.8187   23.3028 O   0  0  0  0  0  0
  -28.4157  -26.7151   20.1401 O   0  0  0  0  0  0
  -26.5568  -34.8915   22.4694 O   0  0  0  0  0  0
  -23.5336  -32.1424   23.7538 O   0  0  0  0  0  0
  -28.8802  -22.7933   22.4072 C   0  0  0  0  0  0
  -30.1864  -22.2149   20.4512 C   0  0  0  0  0  0
  -30.2722  -20.8567   20.9036 C   0  0  0  0  0  0
  -29.5378  -23.2022   21.2362 C   0  0  0  0  0  0
  -29.6248  -20.4514   22.1181 C   0  0  0  0  0  0
  -28.9096  -21.4521   22.8433 C   0  0  0  0  0  0
  -30.8050  -22.6392   19.1196 C   0  0  0  0  0  0
  -31.1025  -19.8476   20.0982 C   0  0  0  0  0  0
  -30.9980  -21.4756   18.1550 C   0  0  0  0  0  0
  -31.8029  -20.3757   18.8382 C   0  0  0  0  0  0
  -29.5877  -24.7061   20.9034 C   0  0  0  0  0  0
  -29.7938  -19.0293   22.7435 C   0  0  0  0  0  0
  -29.4392  -17.7403   21.9295 C   0  0  0  0  0  0
  -30.4738  -16.5872   22.1006 C   0  0  0  0  0  0
  -28.2985  -25.2915   20.2807 C   0  0  0  0  0  0
  -30.0380  -15.3044   21.5232 N   0  0  0  0  0  0
  -28.0974  -21.1108   24.3337 Cl  0  0  0  0  0  0
  -31.4557  -12.5451   19.0382 H   0  0  0  0  0  0
  -30.4273  -11.3320   19.7607 H   0  0  0  0  0  0
  -29.6945  -11.7772   17.4177 H   0  0  0  0  0  0
  -29.6213  -13.4908   17.7228 H   0  0  0  0  0  0
  -27.7831  -11.3103   18.7716 H   0  0  0  0  0  0
  -27.3439  -12.6869   17.8026 H   0  0  0  0  0  0
  -27.7151  -14.2411   19.6248 H   0  0  0  0  0  0
  -28.7175  -11.8793   21.2923 H   0  0  0  0  0  0
  -28.4514  -13.4639   21.9117 H   0  0  0  0  0  0
  -25.2665   -9.5744   22.4744 H   0  0  0  0  0  0
  -24.0094   -7.4570   22.7368 H   0  0  0  0  0  0
  -21.0875   -8.8485   19.8890 H   0  0  0  0  0  0
  -22.3470  -10.9561   19.6169 H   0  0  0  0  0  0
  -21.1850   -7.6102   23.9598 H   0  0  0  0  0  0
  -21.1585   -6.0600   25.9031 H   0  0  0  0  0  0
  -22.0602   -2.7603   23.2917 H   0  0  0  0  0  0
  -22.4319  -11.9752   22.4749 H   0  0  0  0  0  0
  -21.1113  -13.0901   22.2659 H   0  0  0  0  0  0
  -24.7310  -15.8835   20.5842 H   0  0  0  0  0  0
  -26.3246  -15.5901   20.1150 H   0  0  0  0  0  0
  -26.7111  -32.5535   23.1175 H   0  0  0  0  0  0
  -25.0150  -33.9770   25.0568 H   0  0  0  0  0  0
  -22.6907  -31.3048   21.4144 H   0  0  0  0  0  0
  -23.3754  -35.9655   23.3276 H   0  0  0  0  0  0
  -24.3627  -36.8952   22.2065 H   0  0  0  0  0  0
  -23.7243  -37.6524   23.6665 H   0  0  0  0  0  0
  -26.0353  -31.5931   20.5911 H   0  0  0  0  0  0
  -26.8192  -30.8931   21.9777 H   0  0  0  0  0  0
  -28.0897  -29.0956   21.2053 H   0  0  0  0  0  0
  -26.0665  -25.9743   19.0138 H   0  0  0  0  0  0
  -23.9962  -27.2990   19.0116 H   0  0  0  0  0  0
  -23.7420  -30.6138   19.4116 H   0  0  0  0  0  0
  -22.7349  -29.2639   19.8477 H   0  0  0  0  0  0
  -25.1265  -36.1968   25.0849 H   0  0  0  0  0  0
  -20.9904  -28.3255   24.1477 H   0  0  0  0  0  0
  -20.5780  -26.2287   23.3613 H   0  0  0  0  0  0
  -21.6649  -26.7546   22.1173 H   0  0  0  0  0  0
  -19.6958  -25.6305   21.1272 H   0  0  0  0  0  0
  -19.6732  -27.3219   20.6781 H   0  0  0  0  0  0
  -17.4208  -26.6691   21.3998 H   0  0  0  0  0  0
  -18.0304  -26.0112   22.9032 H   0  0  0  0  0  0
  -19.7916  -30.7273   24.2281 H   0  0  0  0  0  0
  -17.5021  -31.6293   24.5197 H   0  0  0  0  0  0
  -15.5353  -30.3065   23.7661 H   0  0  0  0  0  0
  -15.8639  -28.0946   22.6977 H   0  0  0  0  0  0
  -24.5977  -30.6937   25.7806 H   0  0  0  0  0  0
  -24.8954  -32.2736   26.4990 H   0  0  0  0  0  0
  -25.8161  -30.8737   27.0203 H   0  0  0  0  0  0
  -26.2860  -29.6737   24.1216 H   0  0  0  0  0  0
  -27.4318  -29.7312   25.4425 H   0  0  0  0  0  0
  -27.8600  -30.4421   23.9054 H   0  0  0  0  0  0
  -27.2774  -33.3579   26.2050 H   0  0  0  0  0  0
  -28.3879  -32.6784   25.0225 H   0  0  0  0  0  0
  -28.0811  -31.8367   26.5323 H   0  0  0  0  0  0
  -28.2511  -38.0175   24.7590 H   0  0  0  0  0  0
  -28.1164  -36.2707   24.6123 H   0  0  0  0  0  0
  -27.2338  -37.1269   25.8847 H   0  0  0  0  0  0
  -20.9345  -29.8773   21.6966 H   0  0  0  0  0  0
  -26.0157  -38.2854   24.1496 H   0  0  0  0  0  0
  -28.3667  -23.5337   23.0036 H   0  0  0  0  0  0
  -31.7634  -23.1231   19.3075 H   0  0  0  0  0  0
  -30.1721  -23.3763   18.6236 H   0  0  0  0  0  0
  -30.4449  -19.0830   19.7064 H   0  0  0  0  0  0
  -31.8200  -19.3595   20.7590 H   0  0  0  0  0  0
  -31.4984  -21.8125   17.2475 H   0  0  0  0  0  0
  -30.0219  -21.0997   17.8419 H   0  0  0  0  0  0
  -31.9708  -19.5502   18.1458 H   0  0  0  0  0  0
  -32.7860  -20.7646   19.0976 H   0  0  0  0  0  0
  -30.4389  -24.9358   20.2633 H   0  0  0  0  0  0
  -29.8060  -25.2466   21.8247 H   0  0  0  0  0  0
  -29.1868  -18.9380   23.6443 H   0  0  0  0  0  0
  -30.8143  -18.9712   23.1268 H   0  0  0  0  0  0
  -29.3013  -17.9339   20.8765 H   0  0  0  0  0  0
  -28.4506  -17.3955   22.2413 H   0  0  0  0  0  0
  -30.6263  -16.4163   23.1707 H   0  0  0  0  0  0
  -31.4435  -16.8846   21.7051 H   0  0  0  0  0  0
  -27.4576  -25.0497   20.9322 H   0  0  0  0  0  0
  -28.1162  -24.8350   19.3088 H   0  0  0  0  0  0
  -29.1680  -14.9345   21.8771 H   0  0  0  0  0  0
  1 25  1  0  0  0
  1 30  2  0  0  0
  1 86  1  0  0  0
  2  3  1  0  0  0
  2 25  1  0  0  0
  2 88  1  0  0  0
  2 89  1  0  0  0
  3  4  1  0  0  0
  3 90  1  0  0  0
  3 91  1  0  0  0
  4  5  1  0  0  0
  4 92  1  0  0  0
  4 93  1  0  0  0
  5  6  1  0  0  0
  5 26  1  0  0  0
  5 94  1  0  0  0
  6 25  1  0  0  0
  6 95  1  0  0  0
  6 96  1  0  0  0
  7  8  2  0  0  0
  7 26  1  0  0  0
  7 29  1  0  0  0
  8  9  1  0  0  0
  8 22  1  0  0  0
  9 10  1  0  0  0
  9 27  2  0  0  0
 10 11  2  0  0  0
 10 15  1  0  0  0
 11 12  1  0  0  0
 11 97  1  0  0  0
 12 13  2  0  0  0
 12 98  1  0  0  0
 13 14  1  0  0  0
 13 31  1  0  0  0
 14 15  2  0  0  0
 14 99  1  0  0  0
 15100  1  0  0  0
 16 17  2  0  0  0
 16 21  1  0  0  0
 16 31  1  0  0  0
 17 18  1  0  0  0
 17101  1  0  0  0
 18 19  2  0  0  0
 18102  1  0  0  0
 19 20  1  0  0  0
 19 24  1  0  0  0
 20 21  2  0  0  0
 20103  1  0  0  0
 21 23  1  0  0  0
 22 28  1  0  0  0
 22 32  2  0  0  0
 26 27  1  0  0  0
 28104  1  0  0  0
 28105  1  0  0  0
 29106  1  0  0  0
 29107  1  0  0  0
 33 34  1  0  0  0
 33 66  1  0  0  0
 33 70  2  0  0  0
 34 36  1  0  0  0
 34 59  1  0  0  0
 34108  1  0  0  0
 35 44  2  0  0  0
 35 45  1  0  0  0
 35 68  1  0  0  0
 36 56  1  0  0  0
 36109  1  0  0  0
 37 39  1  0  0  0
 37 47  1  0  0  0
 37 66  1  0  0  0
 37110  1  0  0  0
 38 43  2  0  0  0
 38 46  1  0  0  0
 38 47  1  0  0  0
 39 64  1  0  0  0
 39 67  2  0  0  0
 40 52  1  0  0  0
 40 53  2  0  0  0
 40 58  1  0  0  0
 41111  1  0  0  0
 41112  1  0  0  0
 41113  1  0  0  0
 41 48  1  0  0  0
 42 43  1  0  0  0
 42 66  1  0  0  0
 42114  1  0  0  0
 42115  1  0  0  0
 43 44  1  0  0  0
 44116  1  0  0  0
 45 46  2  0  0  0
 45117  1  0  0  0
 46118  1  0  0  0
 47119  1  0  0  0
 47120  1  0  0  0
 48 56  1  0  0  0
 48 65  1  0  0  0
 48121  1  0  0  0
 49 50  1  0  0  0
 49 53  1  0  0  0
 49 64  1  0  0  0
 49122  1  0  0  0
 50 51  1  0  0  0
 50123  1  0  0  0
 50124  1  0  0  0
 51 52  1  0  0  0
 51125  1  0  0  0
 51126  1  0  0  0
 52127  1  0  0  0
 52128  1  0  0  0
 53 54  1  0  0  0
 54 55  2  0  0  0
 54129  1  0  0  0
 55 57  1  0  0  0
 55130  1  0  0  0
 56 69  2  0  0  0
 57 58  2  0  0  0
 57131  1  0  0  0
 58132  1  0  0  0
 59 60  1  0  0  0
 59 61  1  0  0  0
 59 62  1  0  0  0
 60133  1  0  0  0
 60134  1  0  0  0
 60135  1  0  0  0
 61136  1  0  0  0
 61137  1  0  0  0
 61138  1  0  0  0
 62139  1  0  0  0
 62140  1  0  0  0
 62141  1  0  0  0
 63 65  1  0  0  0
 63142  1  0  0  0
 63143  1  0  0  0
 63144  1  0  0  0
 64145  1  0  0  0
 65146  1  0  0  0
 68 85  1  0  0  0
 71 74  2  0  0  0
 71 76  1  0  0  0
 71147  1  0  0  0
 72 73  2  0  0  0
 72 74  1  0  0  0
 72 77  1  0  0  0
 73 75  1  0  0  0
 73 78  1  0  0  0
 74 81  1  0  0  0
 75 76  2  0  0  0
 75 82  1  0  0  0
 76 87  1  0  0  0
 77 79  1  0  0  0
 77148  1  0  0  0
 77149  1  0  0  0
 78 80  1  0  0  0
 78150  1  0  0  0
 78151  1  0  0  0
 79 80  1  0  0  0
 79152  1  0  0  0
 79153  1  0  0  0
 80154  1  0  0  0
 80155  1  0  0  0
 81 85  1  0  0  0
 81156  1  0  0  0
 81157  1  0  0  0
 82 83  1  0  0  0
 82158  1  0  0  0
 82159  1  0  0  0
 83 84  1  0  0  0
 83160  1  0  0  0
 83161  1  0  0  0
 84 86  1  0  0  0
 84162  1  0  0  0
 84163  1  0  0  0
 85164  1  0  0  0
 85165  1  0  0  0
 86166  1  0  0  0
M  ISO  4   1 100  68 101  85 101  86 100
M  END
> <chiral flag>
0

> <version>
0

> <s_m_source_file>
/data/baiqing/PycharmProjects/Reinvent-master-3.2/result/LINK_invent/BTK/process_docking_weight1_custom_sum_contain_oxygen_bond_distance_aromatic_linkinvent_7_9_3/rearranged_h_0033.sdf

> <i_m_source_file_index>
63

> <r_mmod_Potential_Energy-OPLS-2005>
-5.71434450149536

> <r_mmod_Stretch_Energy-OPLS-2005>
49.1236686706543

> <r_mmod_Bend_Energy-OPLS-2005>
114.383186340332

> <r_mmod_Torsional_Energy-OPLS-2005>
221.328262329102

> <r_mmod_Improper_Torsional_Energy-OPLS-2005>
2.35255670547485

> <r_mmod_Van_der_Waal_Energy-OPLS-2005>
165.1015625

> <r_mmod_Electrostatic_Energy-OPLS-2005>
-367.749755859375

> <r_mmod_Solvation_Energy-OPLS-2005>
-204.506774902344

> <b_mmod_Minimization_Converged-OPLS-2005>
0

> <r_mmod_RMS_Derivative-OPLS-2005>
7.09515428543091

$$$$
64
                    3D
 Structure written by MMmdl.
155163  0  0  1  0            999 V2000
  -30.6772  -14.4717   20.6044 C   0  0  0  0  0  0
  -30.4263  -12.3181   19.4176 C   0  0  0  0  0  0
  -29.4959  -12.5231   18.2050 C   0  0  0  0  0  0
  -28.0145  -12.3807   18.6117 C   0  0  0  0  0  0
  -27.6608  -13.2045   19.8793 C   0  0  2  0  0  0
  -28.7002  -12.9587   20.9952 C   0  0  0  0  0  0
  -25.2596  -13.8161   20.5677 C   0  0  0  0  0  0
  -24.1852  -13.0428   20.9158 C   0  0  0  0  0  0
  -24.6397  -11.6893   20.8712 C   0  0  0  0  0  0
  -23.9069  -10.4279   21.0391 C   0  0  0  0  0  0
  -24.3618   -9.4212   21.9187 C   0  0  0  0  0  0
  -23.6284   -8.2255   22.0771 C   0  0  0  0  0  0
  -22.4265   -8.0290   21.3564 C   0  0  0  0  0  0
  -21.9893   -9.0267   20.4672 C   0  0  0  0  0  0
  -22.7227  -10.2140   20.3068 C   0  0  0  0  0  0
  -21.6865   -6.0730   22.5273 C   0  0  0  0  0  0
  -21.4015   -6.5631   23.8206 C   0  0  0  0  0  0
  -21.3664   -5.6794   24.9174 C   0  0  0  0  0  0
  -21.6045   -4.3057   24.7235 C   0  0  0  0  0  0
  -21.8826   -3.8143   23.4357 C   0  0  0  0  0  0
  -21.9192   -4.6954   22.3401 C   0  0  0  0  0  0
  -22.7883  -13.5241   21.1812 C   0  0  0  0  0  0
  -22.1670   -4.2139   21.0984 F   0  0  0  0  0  0
  -21.5630   -3.4532   25.7753 F   0  0  0  0  0  0
  -30.0288  -13.2867   20.4495 N   0  0  0  0  0  0
  -26.3016  -12.9317   20.3367 N   0  0  0  0  0  0
  -25.9318  -11.6473   20.5741 N   0  0  0  0  0  0
  -22.0537  -12.8240   22.0389 N   0  0  0  0  0  0
  -25.4323  -15.1885   20.4091 N   0  0  0  0  0  0
  -31.7956  -14.6957   20.1286 O   0  0  0  0  0  0
  -21.6659   -6.8875   21.4238 O   0  0  0  0  0  0
  -22.3547  -14.5535   20.6653 O   0  0  0  0  0  0
  -24.6168  -31.8688   23.2108 C   0  0  0  0  0  0
  -25.9070  -32.4821   23.8409 C   0  0  1  0  0  0
  -27.2297  -27.4160   20.1032 C   0  0  0  0  0  0
  -25.5927  -33.8620   24.2337 N   0  0  0  0  0  0
  -23.4042  -30.4950   21.5515 C   0  0  2  0  0  0
  -24.8501  -28.9652   20.1094 C   0  0  0  0  0  0
  -22.7436  -29.4687   22.5007 C   0  0  0  0  0  0
  -18.0277  -28.1372   22.8491 C   0  0  0  0  0  0
  -24.1479  -36.7326   23.2631 C   0  0  0  0  0  0
  -25.9352  -30.8307   21.3645 C   0  0  0  0  0  0
  -26.0123  -29.4644   20.7110 C   0  0  0  0  0  0
  -27.2040  -28.6991   20.7013 C   0  0  0  0  0  0
  -26.0442  -26.9421   19.4849 C   0  0  0  0  0  0
  -24.8650  -27.7061   19.4887 C   0  0  0  0  0  0
  -23.6109  -29.8313   20.1647 C   0  0  0  0  0  0
  -25.4095  -36.3122   24.0340 C   0  0  1  0  0  0
  -20.5861  -28.3677   23.1302 C   0  0  2  0  0  0
  -20.6776  -26.9417   22.5413 C   0  0  0  0  0  0
  -19.5749  -26.6379   21.5214 C   0  0  0  0  0  0
  -18.1925  -26.7915   22.1627 C   0  0  0  0  0  0
  -19.1525  -28.8837   23.2891 C   0  0  0  0  0  0
  -18.9463  -30.1439   23.8899 C   0  0  0  0  0  0
  -17.6465  -30.6573   24.0560 C   0  0  0  0  0  0
  -25.9036  -34.9485   23.5130 C   0  0  0  0  0  0
  -16.5355  -29.9079   23.6314 C   0  0  0  0  0  0
  -16.7269  -28.6499   23.0332 C   0  0  0  0  0  0
  -26.4477  -31.6595   25.0736 C   0  0  0  0  0  0
  -25.3750  -31.3703   26.1493 C   0  0  0  0  0  0
  -27.0301  -30.3039   24.6102 C   0  0  0  0  0  0
  -27.6059  -32.4313   25.7497 C   0  0  0  0  0  0
  -27.5595  -37.1790   24.8438 C   0  0  0  0  0  0
  -21.4159  -29.3048   22.3736 N   0  0  0  0  0  0
  -26.4270  -37.3824   23.9444 N   0  0  0  0  0  0
  -24.6713  -31.0783   22.1012 N   0  0  0  0  0  0
  -23.4208  -28.8232   23.3058 O   0  0  0  0  0  0
  -28.3918  -26.6610   20.1523 O   0  0  0  0  0  0
  -26.5603  -34.8945   22.4692 O   0  0  0  0  0  0
  -23.5364  -32.1468   23.7499 O   0  0  0  0  0  0
  -29.6116  -21.8259   20.5060 C   0  0  0  0  0  0
  -29.0568  -21.6001   17.8406 C   0  0  0  0  0  0
  -29.5418  -20.5108   19.9637 C   0  0  0  0  0  0
  -29.2084  -20.4118   18.5802 C   0  0  0  0  0  0
  -29.4168  -22.9596   19.6803 C   0  0  0  0  0  0
  -29.8903  -19.3391   20.9178 C   0  0  0  0  0  0
  -29.5359  -24.4034   20.1918 C   0  0  0  0  0  0
  -29.7146  -17.8508   20.4868 C   0  0  0  0  0  0
  -30.3351  -16.8315   21.4829 C   0  0  0  0  0  0
  -28.2513  -25.2376   19.9557 C   0  0  0  0  0  0
  -29.1767  -22.8394   18.3591 N   0  0  0  0  0  0
  -29.9579  -15.4325   21.2168 N   0  0  0  0  0  0
  -28.9659  -18.9347   17.7131 Cl  0  0  0  0  0  0
  -31.4698  -12.4357   19.1207 H   0  0  0  0  0  0
  -30.3432  -11.2996   19.8034 H   0  0  0  0  0  0
  -29.7414  -11.8105   17.4171 H   0  0  0  0  0  0
  -29.6641  -13.5136   17.7788 H   0  0  0  0  0  0
  -27.8138  -11.3223   18.7854 H   0  0  0  0  0  0
  -27.3728  -12.6783   17.7832 H   0  0  0  0  0  0
  -27.7071  -14.2580   19.5980 H   0  0  0  0  0  0
  -28.6827  -11.9106   21.2971 H   0  0  0  0  0  0
  -28.4536  -13.5165   21.9000 H   0  0  0  0  0  0
  -25.2771   -9.5685   22.4751 H   0  0  0  0  0  0
  -24.0005   -7.4646   22.7477 H   0  0  0  0  0  0
  -21.0832   -8.8782   19.8955 H   0  0  0  0  0  0
  -22.3699  -10.9683   19.6176 H   0  0  0  0  0  0
  -21.2012   -7.6143   23.9701 H   0  0  0  0  0  0
  -21.1477   -6.0532   25.9075 H   0  0  0  0  0  0
  -22.0597   -2.7599   23.2867 H   0  0  0  0  0  0
  -22.4139  -11.9882   22.4755 H   0  0  0  0  0  0
  -21.1176  -13.1301   22.2625 H   0  0  0  0  0  0
  -24.6638  -15.8449   20.5096 H   0  0  0  0  0  0
  -26.2906  -15.6270   20.0958 H   0  0  0  0  0  0
  -26.7158  -32.5527   23.1198 H   0  0  0  0  0  0
  -25.0095  -33.9784   25.0493 H   0  0  0  0  0  0
  -22.6935  -31.3131   21.4136 H   0  0  0  0  0  0
  -23.3754  -35.9632   23.3216 H   0  0  0  0  0  0
  -24.3617  -36.9043   22.2069 H   0  0  0  0  0  0
  -23.7191  -37.6493   23.6683 H   0  0  0  0  0  0
  -26.0459  -31.5955   20.5953 H   0  0  0  0  0  0
  -26.8239  -30.8848   21.9823 H   0  0  0  0  0  0
  -28.0960  -29.0797   21.1790 H   0  0  0  0  0  0
  -25.9983  -25.9796   18.9964 H   0  0  0  0  0  0
  -23.9751  -27.3208   19.0110 H   0  0  0  0  0  0
  -23.7171  -30.6050   19.4030 H   0  0  0  0  0  0
  -22.7334  -29.2514   19.8714 H   0  0  0  0  0  0
  -25.1257  -36.1981   25.0827 H   0  0  0  0  0  0
  -20.9945  -28.3239   24.1422 H   0  0  0  0  0  0
  -20.5689  -26.2299   23.3614 H   0  0  0  0  0  0
  -21.6651  -26.7474   22.1199 H   0  0  0  0  0  0
  -19.6923  -25.6293   21.1242 H   0  0  0  0  0  0
  -19.6658  -27.3193   20.6744 H   0  0  0  0  0  0
  -17.4208  -26.6664   21.4018 H   0  0  0  0  0  0
  -18.0324  -26.0039   22.9006 H   0  0  0  0  0  0
  -19.7944  -30.7250   24.2277 H   0  0  0  0  0  0
  -17.5019  -31.6250   24.5178 H   0  0  0  0  0  0
  -15.5354  -30.2981   23.7620 H   0  0  0  0  0  0
  -15.8677  -28.0815   22.7024 H   0  0  0  0  0  0
  -24.5895  -30.7083   25.7837 H   0  0  0  0  0  0
  -24.8947  -32.2843   26.4981 H   0  0  0  0  0  0
  -25.8102  -30.8841   27.0233 H   0  0  0  0  0  0
  -26.2839  -29.6812   24.1144 H   0  0  0  0  0  0
  -27.4081  -29.7269   25.4554 H   0  0  0  0  0  0
  -27.8664  -30.4373   23.9240 H   0  0  0  0  0  0
  -27.2686  -33.3606   26.2101 H   0  0  0  0  0  0
  -28.3834  -32.6912   25.0300 H   0  0  0  0  0  0
  -28.0745  -31.8419   26.5394 H   0  0  0  0  0  0
  -28.2525  -38.0183   24.7650 H   0  0  0  0  0  0
  -28.1193  -36.2733   24.6026 H   0  0  0  0  0  0
  -27.2359  -37.1169   25.8850 H   0  0  0  0  0  0
  -20.9354  -29.8787   21.6950 H   0  0  0  0  0  0
  -26.0151  -38.2889   24.1507 H   0  0  0  0  0  0
  -29.8436  -21.9671   21.5545 H   0  0  0  0  0  0
  -28.8390  -21.5570   16.7832 H   0  0  0  0  0  0
  -29.3263  -19.4924   21.8378 H   0  0  0  0  0  0
  -30.9349  -19.4850   21.1917 H   0  0  0  0  0  0
  -29.7847  -24.3989   21.2535 H   0  0  0  0  0  0
  -30.3831  -24.8731   19.6928 H   0  0  0  0  0  0
  -30.2183  -17.6771   19.5386 H   0  0  0  0  0  0
  -28.6515  -17.6454   20.3421 H   0  0  0  0  0  0
  -31.4227  -16.9340   21.4887 H   0  0  0  0  0  0
  -30.0037  -17.0656   22.4949 H   0  0  0  0  0  0
  -27.9355  -25.0710   18.9255 H   0  0  0  0  0  0
  -27.4692  -24.8507   20.6131 H   0  0  0  0  0  0
  -29.0450  -15.1483   21.5418 H   0  0  0  0  0  0
  1 25  1  0  0  0
  1 30  2  0  0  0
  1 82  1  0  0  0
  2  3  1  0  0  0
  2 25  1  0  0  0
  2 84  1  0  0  0
  2 85  1  0  0  0
  3  4  1  0  0  0
  3 86  1  0  0  0
  3 87  1  0  0  0
  4  5  1  0  0  0
  4 88  1  0  0  0
  4 89  1  0  0  0
  5  6  1  0  0  0
  5 26  1  0  0  0
  5 90  1  0  0  0
  6 25  1  0  0  0
  6 91  1  0  0  0
  6 92  1  0  0  0
  7  8  2  0  0  0
  7 26  1  0  0  0
  7 29  1  0  0  0
  8  9  1  0  0  0
  8 22  1  0  0  0
  9 10  1  0  0  0
  9 27  2  0  0  0
 10 11  2  0  0  0
 10 15  1  0  0  0
 11 12  1  0  0  0
 11 93  1  0  0  0
 12 13  2  0  0  0
 12 94  1  0  0  0
 13 14  1  0  0  0
 13 31  1  0  0  0
 14 15  2  0  0  0
 14 95  1  0  0  0
 15 96  1  0  0  0
 16 17  2  0  0  0
 16 21  1  0  0  0
 16 31  1  0  0  0
 17 18  1  0  0  0
 17 97  1  0  0  0
 18 19  2  0  0  0
 18 98  1  0  0  0
 19 20  1  0  0  0
 19 24  1  0  0  0
 20 21  2  0  0  0
 20 99  1  0  0  0
 21 23  1  0  0  0
 22 28  1  0  0  0
 22 32  2  0  0  0
 26 27  1  0  0  0
 28100  1  0  0  0
 28101  1  0  0  0
 29102  1  0  0  0
 29103  1  0  0  0
 33 34  1  0  0  0
 33 66  1  0  0  0
 33 70  2  0  0  0
 34 36  1  0  0  0
 34 59  1  0  0  0
 34104  1  0  0  0
 35 44  2  0  0  0
 35 45  1  0  0  0
 35 68  1  0  0  0
 36 56  1  0  0  0
 36105  1  0  0  0
 37 39  1  0  0  0
 37 47  1  0  0  0
 37 66  1  0  0  0
 37106  1  0  0  0
 38 43  2  0  0  0
 38 46  1  0  0  0
 38 47  1  0  0  0
 39 64  1  0  0  0
 39 67  2  0  0  0
 40 52  1  0  0  0
 40 53  2  0  0  0
 40 58  1  0  0  0
 41107  1  0  0  0
 41108  1  0  0  0
 41109  1  0  0  0
 41 48  1  0  0  0
 42 43  1  0  0  0
 42 66  1  0  0  0
 42110  1  0  0  0
 42111  1  0  0  0
 43 44  1  0  0  0
 44112  1  0  0  0
 45 46  2  0  0  0
 45113  1  0  0  0
 46114  1  0  0  0
 47115  1  0  0  0
 47116  1  0  0  0
 48 56  1  0  0  0
 48 65  1  0  0  0
 48117  1  0  0  0
 49 50  1  0  0  0
 49 53  1  0  0  0
 49 64  1  0  0  0
 49118  1  0  0  0
 50 51  1  0  0  0
 50119  1  0  0  0
 50120  1  0  0  0
 51 52  1  0  0  0
 51121  1  0  0  0
 51122  1  0  0  0
 52123  1  0  0  0
 52124  1  0  0  0
 53 54  1  0  0  0
 54 55  2  0  0  0
 54125  1  0  0  0
 55 57  1  0  0  0
 55126  1  0  0  0
 56 69  2  0  0  0
 57 58  2  0  0  0
 57127  1  0  0  0
 58128  1  0  0  0
 59 60  1  0  0  0
 59 61  1  0  0  0
 59 62  1  0  0  0
 60129  1  0  0  0
 60130  1  0  0  0
 60131  1  0  0  0
 61132  1  0  0  0
 61133  1  0  0  0
 61134  1  0  0  0
 62135  1  0  0  0
 62136  1  0  0  0
 62137  1  0  0  0
 63 65  1  0  0  0
 63138  1  0  0  0
 63139  1  0  0  0
 63140  1  0  0  0
 64141  1  0  0  0
 65142  1  0  0  0
 68 80  1  0  0  0
 71 73  2  0  0  0
 71 75  1  0  0  0
 71143  1  0  0  0
 72 74  2  0  0  0
 72 81  1  0  0  0
 72144  1  0  0  0
 73 74  1  0  0  0
 73 76  1  0  0  0
 74 83  1  0  0  0
 75 77  1  0  0  0
 75 81  2  0  0  0
 76 78  1  0  0  0
 76145  1  0  0  0
 76146  1  0  0  0
 77 80  1  0  0  0
 77147  1  0  0  0
 77148  1  0  0  0
 78 79  1  0  0  0
 78149  1  0  0  0
 78150  1  0  0  0
 79 82  1  0  0  0
 79151  1  0  0  0
 79152  1  0  0  0
 80153  1  0  0  0
 80154  1  0  0  0
 82155  1  0  0  0
M  ISO  4   1 100  68 101  80 101  82 100
M  END
> <chiral flag>
0

> <version>
0

> <s_m_source_file>
/data/baiqing/PycharmProjects/Reinvent-master-3.2/result/LINK_invent/BTK/process_docking_weight1_custom_sum_contain_oxygen_bond_distance_aromatic_linkinvent_7_9_3/rearranged_h_0033.sdf

> <i_m_source_file_index>
64

> <r_mmod_Potential_Energy-OPLS-2005>
-139.503387451172

> <r_mmod_Stretch_Energy-OPLS-2005>
42.177417755127

> <r_mmod_Bend_Energy-OPLS-2005>
112.299468994141

> <r_mmod_Torsional_Energy-OPLS-2005>
185.182632446289

> <r_mmod_Improper_Torsional_Energy-OPLS-2005>
2.91962599754333

> <r_mmod_Van_der_Waal_Energy-OPLS-2005>
163.566955566406

> <r_mmod_Electrostatic_Energy-OPLS-2005>
-439.596405029297

> <r_mmod_Solvation_Energy-OPLS-2005>
-220.855453491211

> <b_mmod_Minimization_Converged-OPLS-2005>
0

> <r_mmod_RMS_Derivative-OPLS-2005>
3.21589851379395

$$$$
65
                    3D
 Structure written by MMmdl.
162170  0  0  1  0            999 V2000
  -30.7139  -14.4737   20.5518 C   0  0  0  0  0  0
  -30.4208  -12.2986   19.4411 C   0  0  0  0  0  0
  -29.4994  -12.4976   18.2190 C   0  0  0  0  0  0
  -28.0202  -12.3607   18.6277 C   0  0  0  0  0  0
  -27.6620  -13.2132   19.8753 C   0  0  2  0  0  0
  -28.7024  -13.0172   21.0045 C   0  0  0  0  0  0
  -25.2585  -13.8177   20.5691 C   0  0  0  0  0  0
  -24.1835  -13.0446   20.9172 C   0  0  0  0  0  0
  -24.6394  -11.6921   20.8743 C   0  0  0  0  0  0
  -23.9054  -10.4307   21.0410 C   0  0  0  0  0  0
  -24.3602   -9.4220   21.9196 C   0  0  0  0  0  0
  -23.6279   -8.2252   22.0764 C   0  0  0  0  0  0
  -22.4265   -8.0288   21.3546 C   0  0  0  0  0  0
  -21.9894   -9.0262   20.4654 C   0  0  0  0  0  0
  -22.7221  -10.2145   20.3064 C   0  0  0  0  0  0
  -21.6851   -6.0736   22.5276 C   0  0  0  0  0  0
  -21.4021   -6.5638   23.8210 C   0  0  0  0  0  0
  -21.3664   -5.6786   24.9169 C   0  0  0  0  0  0
  -21.6046   -4.3048   24.7224 C   0  0  0  0  0  0
  -21.8822   -3.8142   23.4345 C   0  0  0  0  0  0
  -21.9187   -4.6961   22.3402 C   0  0  0  0  0  0
  -22.7856  -13.5254   21.1834 C   0  0  0  0  0  0
  -22.1655   -4.2145   21.0980 F   0  0  0  0  0  0
  -21.5626   -3.4532   25.7740 F   0  0  0  0  0  0
  -30.0392  -13.2972   20.4531 N   0  0  0  0  0  0
  -26.3025  -12.9360   20.3361 N   0  0  0  0  0  0
  -25.9330  -11.6516   20.5777 N   0  0  0  0  0  0
  -22.0479  -12.8269   22.0394 N   0  0  0  0  0  0
  -25.4305  -15.1906   20.4146 N   0  0  0  0  0  0
  -31.8412  -14.6411   20.0796 O   0  0  0  0  0  0
  -21.6636   -6.8881   21.4242 O   0  0  0  0  0  0
  -22.3549  -14.5557   20.6671 O   0  0  0  0  0  0
  -24.6163  -31.8688   23.2111 C   0  0  0  0  0  0
  -25.9053  -32.4826   23.8408 C   0  0  1  0  0  0
  -27.2247  -27.4202   20.0976 C   0  0  0  0  0  0
  -25.5909  -33.8626   24.2336 N   0  0  0  0  0  0
  -23.4036  -30.4946   21.5530 C   0  0  2  0  0  0
  -24.8476  -28.9673   20.1092 C   0  0  0  0  0  0
  -22.7412  -29.4669   22.4992 C   0  0  0  0  0  0
  -18.0271  -28.1382   22.8490 C   0  0  0  0  0  0
  -24.1487  -36.7311   23.2637 C   0  0  0  0  0  0
  -25.9350  -30.8318   21.3662 C   0  0  0  0  0  0
  -26.0116  -29.4687   20.7057 C   0  0  0  0  0  0
  -27.2041  -28.7050   20.6935 C   0  0  0  0  0  0
  -26.0436  -26.9522   19.4725 C   0  0  0  0  0  0
  -24.8606  -27.7101   19.4862 C   0  0  0  0  0  0
  -23.6096  -29.8331   20.1658 C   0  0  0  0  0  0
  -25.4112  -36.3115   24.0338 C   0  0  1  0  0  0
  -20.5858  -28.3668   23.1310 C   0  0  2  0  0  0
  -20.6766  -26.9406   22.5411 C   0  0  0  0  0  0
  -19.5747  -26.6389   21.5206 C   0  0  0  0  0  0
  -18.1923  -26.7926   22.1620 C   0  0  0  0  0  0
  -19.1519  -28.8843   23.2894 C   0  0  0  0  0  0
  -18.9448  -30.1447   23.8907 C   0  0  0  0  0  0
  -17.6450  -30.6587   24.0561 C   0  0  0  0  0  0
  -25.9039  -34.9479   23.5133 C   0  0  0  0  0  0
  -16.5342  -29.9087   23.6324 C   0  0  0  0  0  0
  -16.7260  -28.6501   23.0355 C   0  0  0  0  0  0
  -26.4479  -31.6607   25.0737 C   0  0  0  0  0  0
  -25.3739  -31.3711   26.1481 C   0  0  0  0  0  0
  -27.0308  -30.3048   24.6116 C   0  0  0  0  0  0
  -27.6059  -32.4325   25.7498 C   0  0  0  0  0  0
  -27.5581  -37.1811   24.8467 C   0  0  0  0  0  0
  -21.4136  -29.3041   22.3719 N   0  0  0  0  0  0
  -26.4300  -37.3795   23.9401 N   0  0  0  0  0  0
  -24.6702  -31.0780   22.1019 N   0  0  0  0  0  0
  -23.4180  -28.8211   23.3042 O   0  0  0  0  0  0
  -28.3665  -26.6363   20.1553 O   0  0  0  0  0  0
  -26.5593  -34.8931   22.4690 O   0  0  0  0  0  0
  -23.5355  -32.1455   23.7494 O   0  0  0  0  0  0
  -27.7431  -22.9486   22.4230 C   0  0  0  0  0  0
  -29.1930  -21.8012   20.8501 C   0  0  0  0  0  0
  -28.7205  -23.0130   21.4148 C   0  0  0  0  0  0
  -27.1692  -21.7209   22.7985 C   0  0  0  0  0  0
  -28.6455  -20.5412   21.2229 C   0  0  0  0  0  0
  -27.5716  -20.5186   22.1608 C   0  0  0  0  0  0
  -26.1003  -21.7317   23.8810 C   0  0  0  0  0  0
  -26.8117  -19.2347   22.4634 C   0  0  0  0  0  0
  -29.2212  -24.3950   20.9672 C   0  0  0  0  0  0
  -29.1847  -19.2714   20.5207 C   0  0  0  0  0  0
  -29.4560  -17.9860   21.3675 C   0  0  0  0  0  0
  -30.3047  -16.9224   20.6226 C   0  0  0  0  0  0
  -28.1345  -25.2097   20.2205 C   0  0  0  0  0  0
  -30.0048  -15.5268   20.9993 N   0  0  0  0  0  0
  -31.4674  -12.3822   19.1418 H   0  0  0  0  0  0
  -30.3063  -11.2926   19.8496 H   0  0  0  0  0  0
  -29.7434  -11.7729   17.4405 H   0  0  0  0  0  0
  -29.6710  -13.4842   17.7840 H   0  0  0  0  0  0
  -27.8286  -11.3065   18.8328 H   0  0  0  0  0  0
  -27.3711  -12.6249   17.7918 H   0  0  0  0  0  0
  -27.6994  -14.2571   19.5608 H   0  0  0  0  0  0
  -28.6679  -11.9941   21.3809 H   0  0  0  0  0  0
  -28.4693  -13.6502   21.8613 H   0  0  0  0  0  0
  -25.2746   -9.5699   22.4764 H   0  0  0  0  0  0
  -23.9983   -7.4654   22.7490 H   0  0  0  0  0  0
  -21.0815   -8.8784   19.8971 H   0  0  0  0  0  0
  -22.3673  -10.9682   19.6171 H   0  0  0  0  0  0
  -21.2021   -7.6148   23.9712 H   0  0  0  0  0  0
  -21.1478   -6.0519   25.9069 H   0  0  0  0  0  0
  -22.0593   -2.7602   23.2843 H   0  0  0  0  0  0
  -22.4045  -11.9910   22.4789 H   0  0  0  0  0  0
  -21.1122  -13.1351   22.2593 H   0  0  0  0  0  0
  -24.6693  -15.8490   20.5395 H   0  0  0  0  0  0
  -26.2871  -15.6316   20.1076 H   0  0  0  0  0  0
  -26.7121  -32.5535   23.1169 H   0  0  0  0  0  0
  -25.0071  -33.9794   25.0490 H   0  0  0  0  0  0
  -22.6931  -31.3129   21.4183 H   0  0  0  0  0  0
  -23.3747  -35.9643   23.3320 H   0  0  0  0  0  0
  -24.3578  -36.8908   22.2046 H   0  0  0  0  0  0
  -23.7245  -37.6526   23.6640 H   0  0  0  0  0  0
  -26.0529  -31.6025   20.6031 H   0  0  0  0  0  0
  -26.8203  -30.8785   21.9882 H   0  0  0  0  0  0
  -28.1000  -29.0851   21.1644 H   0  0  0  0  0  0
  -26.0148  -25.9926   18.9768 H   0  0  0  0  0  0
  -23.9676  -27.3222   19.0151 H   0  0  0  0  0  0
  -23.7132  -30.6121   19.4097 H   0  0  0  0  0  0
  -22.7331  -29.2532   19.8709 H   0  0  0  0  0  0
  -25.1288  -36.1983   25.0830 H   0  0  0  0  0  0
  -20.9951  -28.3241   24.1429 H   0  0  0  0  0  0
  -20.5666  -26.2282   23.3598 H   0  0  0  0  0  0
  -21.6640  -26.7455   22.1207 H   0  0  0  0  0  0
  -19.6916  -25.6301   21.1233 H   0  0  0  0  0  0
  -19.6689  -27.3202   20.6735 H   0  0  0  0  0  0
  -17.4194  -26.6664   21.4023 H   0  0  0  0  0  0
  -18.0334  -26.0060   22.9010 H   0  0  0  0  0  0
  -19.7930  -30.7252   24.2287 H   0  0  0  0  0  0
  -17.5014  -31.6272   24.5158 H   0  0  0  0  0  0
  -15.5348  -30.2999   23.7641 H   0  0  0  0  0  0
  -15.8656  -28.0820   22.7081 H   0  0  0  0  0  0
  -24.5912  -30.7062   25.7813 H   0  0  0  0  0  0
  -24.8930  -32.2864   26.4940 H   0  0  0  0  0  0
  -25.8089  -30.8873   27.0234 H   0  0  0  0  0  0
  -26.2856  -29.6813   24.1162 H   0  0  0  0  0  0
  -27.4070  -29.7284   25.4577 H   0  0  0  0  0  0
  -27.8696  -30.4368   23.9276 H   0  0  0  0  0  0
  -27.2685  -33.3617   26.2100 H   0  0  0  0  0  0
  -28.3852  -32.6897   25.0313 H   0  0  0  0  0  0
  -28.0740  -31.8433   26.5391 H   0  0  0  0  0  0
  -28.2612  -38.0095   24.7503 H   0  0  0  0  0  0
  -28.1065  -36.2628   24.6308 H   0  0  0  0  0  0
  -27.2294  -37.1480   25.8870 H   0  0  0  0  0  0
  -20.9302  -29.8752   21.6928 H   0  0  0  0  0  0
  -26.0193  -38.2876   24.1399 H   0  0  0  0  0  0
  -27.4017  -23.8626   22.8907 H   0  0  0  0  0  0
  -29.9670  -21.8462   20.0950 H   0  0  0  0  0  0
  -26.0807  -22.6838   24.4125 H   0  0  0  0  0  0
  -26.2870  -20.9520   24.6206 H   0  0  0  0  0  0
  -25.1111  -21.5731   23.4498 H   0  0  0  0  0  0
  -27.3342  -18.6517   23.2213 H   0  0  0  0  0  0
  -26.6849  -18.6394   21.5604 H   0  0  0  0  0  0
  -25.7999  -19.4153   22.8210 H   0  0  0  0  0  0
  -30.1102  -24.2976   20.3446 H   0  0  0  0  0  0
  -29.5294  -24.9427   21.8586 H   0  0  0  0  0  0
  -30.1196  -19.5408   20.0272 H   0  0  0  0  0  0
  -28.4920  -19.0217   19.7170 H   0  0  0  0  0  0
  -28.5239  -17.5105   21.6559 H   0  0  0  0  0  0
  -29.9638  -18.2561   22.2946 H   0  0  0  0  0  0
  -31.3643  -17.1389   20.7730 H   0  0  0  0  0  0
  -30.1258  -17.0015   19.5487 H   0  0  0  0  0  0
  -27.1966  -25.0324   20.7495 H   0  0  0  0  0  0
  -28.0081  -24.8080   19.2134 H   0  0  0  0  0  0
  -29.0914  -15.3261   21.3776 H   0  0  0  0  0  0
  1 25  1  0  0  0
  1 30  2  0  0  0
  1 84  1  0  0  0
  2  3  1  0  0  0
  2 25  1  0  0  0
  2 85  1  0  0  0
  2 86  1  0  0  0
  3  4  1  0  0  0
  3 87  1  0  0  0
  3 88  1  0  0  0
  4  5  1  0  0  0
  4 89  1  0  0  0
  4 90  1  0  0  0
  5  6  1  0  0  0
  5 26  1  0  0  0
  5 91  1  0  0  0
  6 25  1  0  0  0
  6 92  1  0  0  0
  6 93  1  0  0  0
  7  8  2  0  0  0
  7 26  1  0  0  0
  7 29  1  0  0  0
  8  9  1  0  0  0
  8 22  1  0  0  0
  9 10  1  0  0  0
  9 27  2  0  0  0
 10 11  2  0  0  0
 10 15  1  0  0  0
 11 12  1  0  0  0
 11 94  1  0  0  0
 12 13  2  0  0  0
 12 95  1  0  0  0
 13 14  1  0  0  0
 13 31  1  0  0  0
 14 15  2  0  0  0
 14 96  1  0  0  0
 15 97  1  0  0  0
 16 17  2  0  0  0
 16 21  1  0  0  0
 16 31  1  0  0  0
 17 18  1  0  0  0
 17 98  1  0  0  0
 18 19  2  0  0  0
 18 99  1  0  0  0
 19 20  1  0  0  0
 19 24  1  0  0  0
 20 21  2  0  0  0
 20100  1  0  0  0
 21 23  1  0  0  0
 22 28  1  0  0  0
 22 32  2  0  0  0
 26 27  1  0  0  0
 28101  1  0  0  0
 28102  1  0  0  0
 29103  1  0  0  0
 29104  1  0  0  0
 33 34  1  0  0  0
 33 66  1  0  0  0
 33 70  2  0  0  0
 34 36  1  0  0  0
 34 59  1  0  0  0
 34105  1  0  0  0
 35 44  2  0  0  0
 35 45  1  0  0  0
 35 68  1  0  0  0
 36 56  1  0  0  0
 36106  1  0  0  0
 37 39  1  0  0  0
 37 47  1  0  0  0
 37 66  1  0  0  0
 37107  1  0  0  0
 38 43  2  0  0  0
 38 46  1  0  0  0
 38 47  1  0  0  0
 39 64  1  0  0  0
 39 67  2  0  0  0
 40 52  1  0  0  0
 40 53  2  0  0  0
 40 58  1  0  0  0
 41108  1  0  0  0
 41109  1  0  0  0
 41110  1  0  0  0
 41 48  1  0  0  0
 42 43  1  0  0  0
 42 66  1  0  0  0
 42111  1  0  0  0
 42112  1  0  0  0
 43 44  1  0  0  0
 44113  1  0  0  0
 45 46  2  0  0  0
 45114  1  0  0  0
 46115  1  0  0  0
 47116  1  0  0  0
 47117  1  0  0  0
 48 56  1  0  0  0
 48 65  1  0  0  0
 48118  1  0  0  0
 49 50  1  0  0  0
 49 53  1  0  0  0
 49 64  1  0  0  0
 49119  1  0  0  0
 50 51  1  0  0  0
 50120  1  0  0  0
 50121  1  0  0  0
 51 52  1  0  0  0
 51122  1  0  0  0
 51123  1  0  0  0
 52124  1  0  0  0
 52125  1  0  0  0
 53 54  1  0  0  0
 54 55  2  0  0  0
 54126  1  0  0  0
 55 57  1  0  0  0
 55127  1  0  0  0
 56 69  2  0  0  0
 57 58  2  0  0  0
 57128  1  0  0  0
 58129  1  0  0  0
 59 60  1  0  0  0
 59 61  1  0  0  0
 59 62  1  0  0  0
 60130  1  0  0  0
 60131  1  0  0  0
 60132  1  0  0  0
 61133  1  0  0  0
 61134  1  0  0  0
 61135  1  0  0  0
 62136  1  0  0  0
 62137  1  0  0  0
 62138  1  0  0  0
 63 65  1  0  0  0
 63139  1  0  0  0
 63140  1  0  0  0
 63141  1  0  0  0
 64142  1  0  0  0
 65143  1  0  0  0
 68 83  1  0  0  0
 71 73  2  0  0  0
 71 74  1  0  0  0
 71144  1  0  0  0
 72 73  1  0  0  0
 72 75  2  0  0  0
 72145  1  0  0  0
 73 79  1  0  0  0
 74 76  2  0  0  0
 74 77  1  0  0  0
 75 76  1  0  0  0
 75 80  1  0  0  0
 76 78  1  0  0  0
 77146  1  0  0  0
 77147  1  0  0  0
 77148  1  0  0  0
 78149  1  0  0  0
 78150  1  0  0  0
 78151  1  0  0  0
 79 83  1  0  0  0
 79152  1  0  0  0
 79153  1  0  0  0
 80 81  1  0  0  0
 80154  1  0  0  0
 80155  1  0  0  0
 81 82  1  0  0  0
 81156  1  0  0  0
 81157  1  0  0  0
 82 84  1  0  0  0
 82158  1  0  0  0
 82159  1  0  0  0
 83160  1  0  0  0
 83161  1  0  0  0
 84162  1  0  0  0
M  ISO  4   1 100  68 101  83 101  84 100
M  END
> <chiral flag>
0

> <version>
0

> <s_m_source_file>
/data/baiqing/PycharmProjects/Reinvent-master-3.2/result/LINK_invent/BTK/process_docking_weight1_custom_sum_contain_oxygen_bond_distance_aromatic_linkinvent_7_9_3/rearranged_h_0033.sdf

> <i_m_source_file_index>
65

> <r_mmod_Potential_Energy-OPLS-2005>
-48.1197128295898

> <r_mmod_Stretch_Energy-OPLS-2005>
43.2361106872559

> <r_mmod_Bend_Energy-OPLS-2005>
97.2546997070312

> <r_mmod_Torsional_Energy-OPLS-2005>
219.334823608398

> <r_mmod_Improper_Torsional_Energy-OPLS-2005>
5.82792901992798

> <r_mmod_Van_der_Waal_Energy-OPLS-2005>
165.117660522461

> <r_mmod_Electrostatic_Energy-OPLS-2005>
-389.033203125

> <r_mmod_Solvation_Energy-OPLS-2005>
-206.39762878418

> <b_mmod_Minimization_Converged-OPLS-2005>
0

> <r_mmod_RMS_Derivative-OPLS-2005>
1.78628253936768

$$$$
66
                    3D
 Structure written by MMmdl.
170178  0  0  1  0            999 V2000
  -30.7331  -14.4612   20.5349 C   0  0  0  0  0  0
  -30.4143  -12.2909   19.4242 C   0  0  0  0  0  0
  -29.4937  -12.4924   18.2035 C   0  0  0  0  0  0
  -28.0153  -12.3690   18.6190 C   0  0  0  0  0  0
  -27.6615  -13.2169   19.8726 C   0  0  2  0  0  0
  -28.7087  -13.0174   20.9929 C   0  0  0  0  0  0
  -25.2576  -13.8175   20.5704 C   0  0  0  0  0  0
  -24.1850  -13.0425   20.9209 C   0  0  0  0  0  0
  -24.6426  -11.6896   20.8758 C   0  0  0  0  0  0
  -23.9096  -10.4273   21.0417 C   0  0  0  0  0  0
  -24.3630   -9.4190   21.9203 C   0  0  0  0  0  0
  -23.6290   -8.2229   22.0761 C   0  0  0  0  0  0
  -22.4271   -8.0278   21.3540 C   0  0  0  0  0  0
  -21.9927   -9.0256   20.4650 C   0  0  0  0  0  0
  -22.7275  -10.2121   20.3058 C   0  0  0  0  0  0
  -21.6821   -6.0742   22.5268 C   0  0  0  0  0  0
  -21.3952   -6.5660   23.8190 C   0  0  0  0  0  0
  -21.3592   -5.6829   24.9165 C   0  0  0  0  0  0
  -21.6036   -4.3096   24.7237 C   0  0  0  0  0  0
  -21.8849   -3.8173   23.4378 C   0  0  0  0  0  0
  -21.9205   -4.6975   22.3418 C   0  0  0  0  0  0
  -22.7863  -13.5218   21.1866 C   0  0  0  0  0  0
  -22.1692   -4.2146   21.1002 F   0  0  0  0  0  0
  -21.5612   -3.4597   25.7766 F   0  0  0  0  0  0
  -30.0394  -13.2964   20.4307 N   0  0  0  0  0  0
  -26.3042  -12.9378   20.3380 N   0  0  0  0  0  0
  -25.9355  -11.6515   20.5794 N   0  0  0  0  0  0
  -22.0485  -12.8209   22.0403 N   0  0  0  0  0  0
  -25.4232  -15.1890   20.4092 N   0  0  0  0  0  0
  -31.8754  -14.6028   20.0943 O   0  0  0  0  0  0
  -21.6645   -6.8874   21.4216 O   0  0  0  0  0  0
  -22.3570  -14.5517   20.6680 O   0  0  0  0  0  0
  -24.6151  -31.8700   23.2082 C   0  0  0  0  0  0
  -25.9050  -32.4835   23.8370 C   0  0  1  0  0  0
  -27.2311  -27.4285   20.0996 C   0  0  0  0  0  0
  -25.5917  -33.8617   24.2325 N   0  0  0  0  0  0
  -23.4033  -30.4901   21.5513 C   0  0  2  0  0  0
  -24.8500  -28.9534   20.1161 C   0  0  0  0  0  0
  -22.7407  -29.4657   22.5016 C   0  0  0  0  0  0
  -18.0268  -28.1373   22.8485 C   0  0  0  0  0  0
  -24.1475  -36.7300   23.2629 C   0  0  0  0  0  0
  -25.9307  -30.8328   21.3604 C   0  0  0  0  0  0
  -26.0114  -29.4662   20.7082 C   0  0  0  0  0  0
  -27.2090  -28.7130   20.6917 C   0  0  0  0  0  0
  -26.0552  -26.9301   19.5004 C   0  0  0  0  0  0
  -24.8684  -27.6855   19.5076 C   0  0  0  0  0  0
  -23.6125  -29.8210   20.1659 C   0  0  0  0  0  0
  -25.4103  -36.3105   24.0330 C   0  0  1  0  0  0
  -20.5856  -28.3656   23.1324 C   0  0  2  0  0  0
  -20.6749  -26.9393   22.5419 C   0  0  0  0  0  0
  -19.5736  -26.6375   21.5203 C   0  0  0  0  0  0
  -18.1915  -26.7914   22.1612 C   0  0  0  0  0  0
  -19.1517  -28.8831   23.2900 C   0  0  0  0  0  0
  -18.9448  -30.1435   23.8919 C   0  0  0  0  0  0
  -17.6450  -30.6587   24.0556 C   0  0  0  0  0  0
  -25.9039  -34.9477   23.5124 C   0  0  0  0  0  0
  -16.5343  -29.9092   23.6318 C   0  0  0  0  0  0
  -16.7254  -28.6502   23.0353 C   0  0  0  0  0  0
  -26.4483  -31.6611   25.0691 C   0  0  0  0  0  0
  -25.3744  -31.3747   26.1442 C   0  0  0  0  0  0
  -27.0313  -30.3055   24.6058 C   0  0  0  0  0  0
  -27.6070  -32.4316   25.7470 C   0  0  0  0  0  0
  -27.5587  -37.1799   24.8471 C   0  0  0  0  0  0
  -21.4142  -29.3034   22.3755 N   0  0  0  0  0  0
  -26.4298  -37.3785   23.9413 N   0  0  0  0  0  0
  -24.6680  -31.0785   22.0988 N   0  0  0  0  0  0
  -23.4170  -28.8206   23.3075 O   0  0  0  0  0  0
  -28.3854  -26.6746   20.0996 O   0  0  0  0  0  0
  -26.5577  -34.8933   22.4677 O   0  0  0  0  0  0
  -23.5343  -32.1469   23.7476 O   0  0  0  0  0  0
  -27.8985  -20.4081   21.9531 C   0  0  0  0  0  0
  -29.1924  -21.8241   20.4997 C   0  0  0  0  0  0
  -29.0368  -20.5762   21.1483 C   0  0  0  0  0  0
  -26.9347  -21.4327   22.0382 C   0  0  0  0  0  0
  -28.2001  -22.8236   20.6521 C   0  0  0  0  0  0
  -22.4864  -17.6723   24.8637 C   0  0  0  0  0  0
  -30.0629  -19.4469   20.9950 C   0  0  0  0  0  0
  -25.6457  -21.2505   22.8452 C   0  0  0  0  0  0
  -28.2816  -24.1618   19.9015 C   0  0  0  0  0  0
  -23.8543  -18.0230   24.2699 C   0  0  0  0  0  0
  -29.4987  -17.9994   21.1067 C   0  0  0  0  0  0
  -25.3764  -19.7896   23.2807 C   0  0  0  0  0  0
  -24.0111  -19.5170   23.9297 C   0  0  0  0  0  0
  -30.5710  -16.9084   20.8970 C   0  0  0  0  0  0
  -28.3096  -25.4191   20.8097 C   0  0  0  0  0  0
  -27.0847  -22.6141   21.3928 N   0  0  0  0  0  0
  -30.0477  -15.5319   20.9723 N   0  0  0  0  0  0
  -31.4622  -12.3604   19.1262 H   0  0  0  0  0  0
  -30.2888  -11.2885   19.8366 H   0  0  0  0  0  0
  -29.7247  -11.7527   17.4349 H   0  0  0  0  0  0
  -29.6763  -13.4692   17.7538 H   0  0  0  0  0  0
  -27.8233  -11.3161   18.8224 H   0  0  0  0  0  0
  -27.3679  -12.6407   17.7853 H   0  0  0  0  0  0
  -27.7003  -14.2634   19.5690 H   0  0  0  0  0  0
  -28.6745  -11.9931   21.3643 H   0  0  0  0  0  0
  -28.4885  -13.6508   21.8525 H   0  0  0  0  0  0
  -25.2757   -9.5659   22.4795 H   0  0  0  0  0  0
  -23.9999   -7.4602   22.7457 H   0  0  0  0  0  0
  -21.0870   -8.8786   19.8933 H   0  0  0  0  0  0
  -22.3761  -10.9657   19.6150 H   0  0  0  0  0  0
  -21.1892   -7.6159   23.9680 H   0  0  0  0  0  0
  -21.1322   -6.0576   25.9047 H   0  0  0  0  0  0
  -22.0669   -2.7637   23.2901 H   0  0  0  0  0  0
  -22.4089  -11.9892   22.4834 H   0  0  0  0  0  0
  -21.1052  -13.1155   22.2520 H   0  0  0  0  0  0
  -24.6521  -15.8396   20.5127 H   0  0  0  0  0  0
  -26.2727  -15.6307   20.0806 H   0  0  0  0  0  0
  -26.7117  -32.5547   23.1122 H   0  0  0  0  0  0
  -25.0107  -33.9772   25.0500 H   0  0  0  0  0  0
  -22.6915  -31.3066   21.4126 H   0  0  0  0  0  0
  -23.3741  -35.9632   23.3310 H   0  0  0  0  0  0
  -24.3570  -36.8892   22.2041 H   0  0  0  0  0  0
  -23.7205  -37.6499   23.6636 H   0  0  0  0  0  0
  -26.0386  -31.5969   20.5897 H   0  0  0  0  0  0
  -26.8187  -30.8881   21.9781 H   0  0  0  0  0  0
  -28.1083  -29.1037   21.1477 H   0  0  0  0  0  0
  -26.0507  -25.9591   19.0273 H   0  0  0  0  0  0
  -23.9748  -27.2861   19.0455 H   0  0  0  0  0  0
  -23.7250  -30.5952   19.4052 H   0  0  0  0  0  0
  -22.7340  -29.2452   19.8703 H   0  0  0  0  0  0
  -25.1272  -36.1974   25.0821 H   0  0  0  0  0  0
  -20.9939  -28.3213   24.1446 H   0  0  0  0  0  0
  -20.5628  -26.2267   23.3610 H   0  0  0  0  0  0
  -21.6626  -26.7442   22.1227 H   0  0  0  0  0  0
  -19.6901  -25.6286   21.1232 H   0  0  0  0  0  0
  -19.6666  -27.3193   20.6736 H   0  0  0  0  0  0
  -17.4183  -26.6658   21.4017 H   0  0  0  0  0  0
  -18.0327  -26.0065   22.9019 H   0  0  0  0  0  0
  -19.7931  -30.7231   24.2315 H   0  0  0  0  0  0
  -17.5015  -31.6272   24.5140 H   0  0  0  0  0  0
  -15.5343  -30.3001   23.7630 H   0  0  0  0  0  0
  -15.8653  -28.0819   22.7076 H   0  0  0  0  0  0
  -24.5886  -30.7135   25.7774 H   0  0  0  0  0  0
  -24.8964  -32.2926   26.4879 H   0  0  0  0  0  0
  -25.8069  -30.8896   27.0194 H   0  0  0  0  0  0
  -26.2862  -29.6818   24.1090 H   0  0  0  0  0  0
  -27.4097  -29.7290   25.4509 H   0  0  0  0  0  0
  -27.8689  -30.4393   23.9196 H   0  0  0  0  0  0
  -27.2700  -33.3598   26.2097 H   0  0  0  0  0  0
  -28.3860  -32.6906   25.0287 H   0  0  0  0  0  0
  -28.0760  -31.8381   26.5329 H   0  0  0  0  0  0
  -28.2608  -38.0092   24.7526 H   0  0  0  0  0  0
  -28.1067  -36.2624   24.6283 H   0  0  0  0  0  0
  -27.2311  -37.1451   25.8874 H   0  0  0  0  0  0
  -20.9320  -29.8759   21.6968 H   0  0  0  0  0  0
  -26.0187  -38.2859   24.1430 H   0  0  0  0  0  0
  -27.7606  -19.4847   22.4910 H   0  0  0  0  0  0
  -30.0586  -22.0077   19.8776 H   0  0  0  0  0  0
  -22.4216  -16.6057   25.0873 H   0  0  0  0  0  0
  -21.6821  -17.9122   24.1682 H   0  0  0  0  0  0
  -22.3012  -18.2158   25.7902 H   0  0  0  0  0  0
  -30.8435  -19.5895   21.7438 H   0  0  0  0  0  0
  -30.5465  -19.5634   20.0248 H   0  0  0  0  0  0
  -24.8128  -21.6065   22.2379 H   0  0  0  0  0  0
  -25.6869  -21.8974   23.7228 H   0  0  0  0  0  0
  -27.4415  -24.2098   19.2102 H   0  0  0  0  0  0
  -29.1744  -24.1611   19.2762 H   0  0  0  0  0  0
  -24.0139  -17.4201   23.3734 H   0  0  0  0  0  0
  -24.6340  -17.7266   24.9729 H   0  0  0  0  0  0
  -28.7001  -17.8720   20.3750 H   0  0  0  0  0  0
  -29.0531  -17.8406   22.0877 H   0  0  0  0  0  0
  -26.1532  -19.4756   23.9794 H   0  0  0  0  0  0
  -25.4624  -19.1471   22.4033 H   0  0  0  0  0  0
  -23.9097  -20.1149   24.8371 H   0  0  0  0  0  0
  -23.2128  -19.8275   23.2551 H   0  0  0  0  0  0
  -31.0406  -17.0685   19.9237 H   0  0  0  0  0  0
  -31.3638  -17.0180   21.6390 H   0  0  0  0  0  0
  -29.1865  -25.3602   21.4562 H   0  0  0  0  0  0
  -27.4502  -25.4045   21.4811 H   0  0  0  0  0  0
  -29.1021  -15.3847   21.2869 H   0  0  0  0  0  0
  1 25  1  0  0  0
  1 30  2  0  0  0
  1 87  1  0  0  0
  2  3  1  0  0  0
  2 25  1  0  0  0
  2 88  1  0  0  0
  2 89  1  0  0  0
  3  4  1  0  0  0
  3 90  1  0  0  0
  3 91  1  0  0  0
  4  5  1  0  0  0
  4 92  1  0  0  0
  4 93  1  0  0  0
  5  6  1  0  0  0
  5 26  1  0  0  0
  5 94  1  0  0  0
  6 25  1  0  0  0
  6 95  1  0  0  0
  6 96  1  0  0  0
  7  8  2  0  0  0
  7 26  1  0  0  0
  7 29  1  0  0  0
  8  9  1  0  0  0
  8 22  1  0  0  0
  9 10  1  0  0  0
  9 27  2  0  0  0
 10 11  2  0  0  0
 10 15  1  0  0  0
 11 12  1  0  0  0
 11 97  1  0  0  0
 12 13  2  0  0  0
 12 98  1  0  0  0
 13 14  1  0  0  0
 13 31  1  0  0  0
 14 15  2  0  0  0
 14 99  1  0  0  0
 15100  1  0  0  0
 16 17  2  0  0  0
 16 21  1  0  0  0
 16 31  1  0  0  0
 17 18  1  0  0  0
 17101  1  0  0  0
 18 19  2  0  0  0
 18102  1  0  0  0
 19 20  1  0  0  0
 19 24  1  0  0  0
 20 21  2  0  0  0
 20103  1  0  0  0
 21 23  1  0  0  0
 22 28  1  0  0  0
 22 32  2  0  0  0
 26 27  1  0  0  0
 28104  1  0  0  0
 28105  1  0  0  0
 29106  1  0  0  0
 29107  1  0  0  0
 33 34  1  0  0  0
 33 66  1  0  0  0
 33 70  2  0  0  0
 34 36  1  0  0  0
 34 59  1  0  0  0
 34108  1  0  0  0
 35 44  2  0  0  0
 35 45  1  0  0  0
 35 68  1  0  0  0
 36 56  1  0  0  0
 36109  1  0  0  0
 37 39  1  0  0  0
 37 47  1  0  0  0
 37 66  1  0  0  0
 37110  1  0  0  0
 38 43  2  0  0  0
 38 46  1  0  0  0
 38 47  1  0  0  0
 39 64  1  0  0  0
 39 67  2  0  0  0
 40 52  1  0  0  0
 40 53  2  0  0  0
 40 58  1  0  0  0
 41111  1  0  0  0
 41112  1  0  0  0
 41113  1  0  0  0
 41 48  1  0  0  0
 42 43  1  0  0  0
 42 66  1  0  0  0
 42114  1  0  0  0
 42115  1  0  0  0
 43 44  1  0  0  0
 44116  1  0  0  0
 45 46  2  0  0  0
 45117  1  0  0  0
 46118  1  0  0  0
 47119  1  0  0  0
 47120  1  0  0  0
 48 56  1  0  0  0
 48 65  1  0  0  0
 48121  1  0  0  0
 49 50  1  0  0  0
 49 53  1  0  0  0
 49 64  1  0  0  0
 49122  1  0  0  0
 50 51  1  0  0  0
 50123  1  0  0  0
 50124  1  0  0  0
 51 52  1  0  0  0
 51125  1  0  0  0
 51126  1  0  0  0
 52127  1  0  0  0
 52128  1  0  0  0
 53 54  1  0  0  0
 54 55  2  0  0  0
 54129  1  0  0  0
 55 57  1  0  0  0
 55130  1  0  0  0
 56 69  2  0  0  0
 57 58  2  0  0  0
 57131  1  0  0  0
 58132  1  0  0  0
 59 60  1  0  0  0
 59 61  1  0  0  0
 59 62  1  0  0  0
 60133  1  0  0  0
 60134  1  0  0  0
 60135  1  0  0  0
 61136  1  0  0  0
 61137  1  0  0  0
 61138  1  0  0  0
 62139  1  0  0  0
 62140  1  0  0  0
 62141  1  0  0  0
 63 65  1  0  0  0
 63142  1  0  0  0
 63143  1  0  0  0
 63144  1  0  0  0
 64145  1  0  0  0
 65146  1  0  0  0
 68 85  1  0  0  0
 71 73  2  0  0  0
 71 74  1  0  0  0
 71147  1  0  0  0
 72 73  1  0  0  0
 72 75  2  0  0  0
 72148  1  0  0  0
 73 77  1  0  0  0
 74 78  1  0  0  0
 74 86  2  0  0  0
 75 79  1  0  0  0
 75 86  1  0  0  0
 76 80  1  0  0  0
 76149  1  0  0  0
 76150  1  0  0  0
 76151  1  0  0  0
 77 81  1  0  0  0
 77152  1  0  0  0
 77153  1  0  0  0
 78 82  1  0  0  0
 78154  1  0  0  0
 78155  1  0  0  0
 79 85  1  0  0  0
 79156  1  0  0  0
 79157  1  0  0  0
 80 83  1  0  0  0
 80158  1  0  0  0
 80159  1  0  0  0
 81 84  1  0  0  0
 81160  1  0  0  0
 81161  1  0  0  0
 82 83  1  0  0  0
 82162  1  0  0  0
 82163  1  0  0  0
 83164  1  0  0  0
 83165  1  0  0  0
 84 87  1  0  0  0
 84166  1  0  0  0
 84167  1  0  0  0
 85168  1  0  0  0
 85169  1  0  0  0
 87170  1  0  0  0
M  ISO  4   1 100  68 101  85 101  87 100
M  END
> <chiral flag>
0

> <version>
0

> <s_m_source_file>
/data/baiqing/PycharmProjects/Reinvent-master-3.2/result/LINK_invent/BTK/process_docking_weight1_custom_sum_contain_oxygen_bond_distance_aromatic_linkinvent_7_9_3/rearranged_h_0033.sdf

> <i_m_source_file_index>
66

> <r_mmod_Potential_Energy-OPLS-2005>
-205.692123413086

> <r_mmod_Stretch_Energy-OPLS-2005>
39.1910972595215

> <r_mmod_Bend_Energy-OPLS-2005>
94.2726211547852

> <r_mmod_Torsional_Energy-OPLS-2005>
208.400894165039

> <r_mmod_Improper_Torsional_Energy-OPLS-2005>
4.3716082572937

> <r_mmod_Van_der_Waal_Energy-OPLS-2005>
152.383773803711

> <r_mmod_Electrostatic_Energy-OPLS-2005>
-506.646179199219

> <r_mmod_Solvation_Energy-OPLS-2005>
-212.290130615234

> <b_mmod_Minimization_Converged-OPLS-2005>
0

> <r_mmod_RMS_Derivative-OPLS-2005>
2.74415230751038

$$$$
67
                    3D
 Structure written by MMmdl.
152160  0  0  1  0            999 V2000
  -30.5739  -14.8754   20.4178 C   0  0  0  0  0  0
  -30.4316  -12.5370   19.4984 C   0  0  0  0  0  0
  -29.5148  -12.5132   18.2539 C   0  0  0  0  0  0
  -28.0439  -12.3230   18.6661 C   0  0  0  0  0  0
  -27.6300  -13.2468   19.8425 C   0  0  2  0  0  0
  -28.6717  -13.2494   20.9818 C   0  0  0  0  0  0
  -25.2452  -13.8230   20.5718 C   0  0  0  0  0  0
  -24.1765  -13.0449   20.9227 C   0  0  0  0  0  0
  -24.6386  -11.6932   20.8756 C   0  0  0  0  0  0
  -23.9068  -10.4303   21.0404 C   0  0  0  0  0  0
  -24.3624   -9.4217   21.9178 C   0  0  0  0  0  0
  -23.6306   -8.2249   22.0750 C   0  0  0  0  0  0
  -22.4288   -8.0279   21.3540 C   0  0  0  0  0  0
  -21.9914   -9.0255   20.4643 C   0  0  0  0  0  0
  -22.7236  -10.2137   20.3053 C   0  0  0  0  0  0
  -21.6864   -6.0730   22.5278 C   0  0  0  0  0  0
  -21.4026   -6.5637   23.8205 C   0  0  0  0  0  0
  -21.3666   -5.6788   24.9169 C   0  0  0  0  0  0
  -21.6042   -4.3050   24.7219 C   0  0  0  0  0  0
  -21.8816   -3.8138   23.4342 C   0  0  0  0  0  0
  -21.9199   -4.6961   22.3396 C   0  0  0  0  0  0
  -22.7778  -13.5215   21.1877 C   0  0  0  0  0  0
  -22.1657   -4.2143   21.0973 F   0  0  0  0  0  0
  -21.5634   -3.4531   25.7729 F   0  0  0  0  0  0
  -29.9570  -13.6323   20.3870 N   0  0  0  0  0  0
  -26.2876  -12.9462   20.3254 N   0  0  0  0  0  0
  -25.9315  -11.6589   20.5757 N   0  0  0  0  0  0
  -22.0430  -12.8208   22.0437 N   0  0  0  0  0  0
  -25.4116  -15.1958   20.4147 N   0  0  0  0  0  0
  -31.7728  -14.9274   20.1275 O   0  0  0  0  0  0
  -21.6658   -6.8881   21.4237 O   0  0  0  0  0  0
  -22.3452  -14.5507   20.6704 O   0  0  0  0  0  0
  -24.6371  -31.8486   23.1911 C   0  0  0  0  0  0
  -25.9167  -32.4711   23.8273 C   0  0  1  0  0  0
  -27.2090  -27.1854   20.1426 C   0  0  0  0  0  0
  -25.5921  -33.8508   24.2200 N   0  0  0  0  0  0
  -23.4373  -30.4721   21.5348 C   0  0  2  0  0  0
  -24.8847  -28.9065   20.1066 C   0  0  0  0  0  0
  -22.7522  -29.4600   22.4862 C   0  0  0  0  0  0
  -18.0297  -28.1404   22.8474 C   0  0  0  0  0  0
  -24.1497  -36.7283   23.2645 C   0  0  0  0  0  0
  -25.9891  -30.7399   21.3817 C   0  0  0  0  0  0
  -26.0583  -29.3551   20.7236 C   0  0  0  0  0  0
  -27.2226  -28.5081   20.7270 C   0  0  0  0  0  0
  -26.0114  -26.8248   19.4884 C   0  0  0  0  0  0
  -24.8706  -27.6532   19.4756 C   0  0  0  0  0  0
  -23.6593  -29.8030   20.1526 C   0  0  0  0  0  0
  -25.4114  -36.3029   24.0326 C   0  0  1  0  0  0
  -20.5908  -28.3732   23.1241 C   0  0  2  0  0  0
  -20.6792  -26.9434   22.5419 C   0  0  0  0  0  0
  -19.5763  -26.6389   21.5222 C   0  0  0  0  0  0
  -18.1941  -26.7945   22.1630 C   0  0  0  0  0  0
  -19.1551  -28.8876   23.2863 C   0  0  0  0  0  0
  -18.9473  -30.1472   23.8883 C   0  0  0  0  0  0
  -17.6473  -30.6597   24.0559 C   0  0  0  0  0  0
  -25.9057  -34.9414   23.5077 C   0  0  0  0  0  0
  -16.5361  -29.9101   23.6329 C   0  0  0  0  0  0
  -16.7285  -28.6530   23.0330 C   0  0  0  0  0  0
  -26.4490  -31.6556   25.0693 C   0  0  0  0  0  0
  -25.3693  -31.3746   26.1416 C   0  0  0  0  0  0
  -27.0347  -30.2947   24.6248 C   0  0  0  0  0  0
  -27.6005  -32.4314   25.7499 C   0  0  0  0  0  0
  -27.5576  -37.1797   24.8458 C   0  0  0  0  0  0
  -21.4219  -29.3082   22.3625 N   0  0  0  0  0  0
  -26.4278  -37.3736   23.9413 N   0  0  0  0  0  0
  -24.7074  -31.0392   22.0919 N   0  0  0  0  0  0
  -23.4194  -28.8139   23.2983 O   0  0  0  0  0  0
  -28.2759  -26.2346   20.2160 O   0  0  0  0  0  0
  -26.5654  -34.8910   22.4661 O   0  0  0  0  0  0
  -23.5505  -32.1347   23.7169 O   0  0  0  0  0  0
  -29.1476  -21.1004   21.5826 C   0  0  0  0  0  0
  -29.4008  -19.8903   19.1824 C   0  0  0  0  0  0
  -29.4354  -19.6815   21.5284 C   0  0  0  0  0  0
  -29.6032  -18.9908   20.2885 C   0  0  0  0  0  0
  -29.0242  -21.9319   20.4236 C   0  0  0  0  0  0
  -29.6739  -18.9296   22.8224 C   0  0  0  0  0  0
  -30.2795  -17.5021   20.0891 C   0  0  0  0  0  0
  -29.1245  -23.5673   20.5004 C   0  0  0  0  0  0
  -28.0240  -24.7215   20.0606 C   0  0  0  0  0  0
  -29.1456  -21.2577   19.2376 N   0  0  0  0  0  0
  -29.8282  -16.0708   20.5296 N   0  0  0  0  0  0
  -31.4696  -12.6740   19.1892 H   0  0  0  0  0  0
  -30.4046  -11.5803   20.0218 H   0  0  0  0  0  0
  -29.8180  -11.7132   17.5773 H   0  0  0  0  0  0
  -29.6248  -13.4435   17.6948 H   0  0  0  0  0  0
  -27.9199  -11.2795   18.9554 H   0  0  0  0  0  0
  -27.3869  -12.4805   17.8099 H   0  0  0  0  0  0
  -27.6041  -14.2546   19.4278 H   0  0  0  0  0  0
  -28.7410  -12.2690   21.4558 H   0  0  0  0  0  0
  -28.3855  -13.9546   21.7637 H   0  0  0  0  0  0
  -25.2772   -9.5702   22.4749 H   0  0  0  0  0  0
  -24.0019   -7.4646   22.7465 H   0  0  0  0  0  0
  -21.0847   -8.8764   19.8951 H   0  0  0  0  0  0
  -22.3688  -10.9672   19.6161 H   0  0  0  0  0  0
  -21.2018   -7.6144   23.9709 H   0  0  0  0  0  0
  -21.1494   -6.0519   25.9075 H   0  0  0  0  0  0
  -22.0591   -2.7604   23.2838 H   0  0  0  0  0  0
  -22.4073  -11.9916   22.4883 H   0  0  0  0  0  0
  -21.1020  -13.1195   22.2599 H   0  0  0  0  0  0
  -24.6425  -15.8463   20.5338 H   0  0  0  0  0  0
  -26.2521  -15.6387   20.0665 H   0  0  0  0  0  0
  -26.7233  -32.5338   23.1003 H   0  0  0  0  0  0
  -24.9953  -33.9605   25.0262 H   0  0  0  0  0  0
  -22.7384  -31.2990   21.3860 H   0  0  0  0  0  0
  -23.3737  -35.9639   23.3271 H   0  0  0  0  0  0
  -24.3589  -36.8935   22.2066 H   0  0  0  0  0  0
  -23.7298  -37.6489   23.6701 H   0  0  0  0  0  0
  -26.1363  -31.4976   20.6108 H   0  0  0  0  0  0
  -26.8632  -30.7862   22.0194 H   0  0  0  0  0  0
  -28.1165  -28.8427   21.2339 H   0  0  0  0  0  0
  -25.9264  -25.8660   18.9994 H   0  0  0  0  0  0
  -23.9731  -27.3079   18.9819 H   0  0  0  0  0  0
  -23.7936  -30.5785   19.3981 H   0  0  0  0  0  0
  -22.7748  -29.2444   19.8403 H   0  0  0  0  0  0
  -25.1307  -36.1835   25.0820 H   0  0  0  0  0  0
  -21.0003  -28.3330   24.1360 H   0  0  0  0  0  0
  -20.5670  -26.2345   23.3636 H   0  0  0  0  0  0
  -21.6657  -26.7452   22.1211 H   0  0  0  0  0  0
  -19.6902  -25.6290   21.1265 H   0  0  0  0  0  0
  -19.6682  -27.3191   20.6737 H   0  0  0  0  0  0
  -17.4207  -26.6675   21.4039 H   0  0  0  0  0  0
  -18.0329  -26.0109   22.9045 H   0  0  0  0  0  0
  -19.7952  -30.7291   24.2234 H   0  0  0  0  0  0
  -17.5034  -31.6262   24.5183 H   0  0  0  0  0  0
  -15.5360  -30.2991   23.7671 H   0  0  0  0  0  0
  -15.8693  -28.0856   22.7015 H   0  0  0  0  0  0
  -24.5844  -30.7112   25.7762 H   0  0  0  0  0  0
  -24.8916  -32.2932   26.4822 H   0  0  0  0  0  0
  -25.8001  -30.8929   27.0202 H   0  0  0  0  0  0
  -26.2953  -29.6681   24.1253 H   0  0  0  0  0  0
  -27.3953  -29.7234   25.4806 H   0  0  0  0  0  0
  -27.8855  -30.4174   23.9545 H   0  0  0  0  0  0
  -27.2560  -33.3617   26.2032 H   0  0  0  0  0  0
  -28.3864  -32.6871   25.0380 H   0  0  0  0  0  0
  -28.0612  -31.8458   26.5465 H   0  0  0  0  0  0
  -28.2572  -38.0110   24.7486 H   0  0  0  0  0  0
  -28.1095  -36.2638   24.6283 H   0  0  0  0  0  0
  -27.2308  -37.1443   25.8865 H   0  0  0  0  0  0
  -20.9386  -29.8805   21.6838 H   0  0  0  0  0  0
  -26.0132  -38.2806   24.1389 H   0  0  0  0  0  0
  -29.1194  -21.5851   22.5504 H   0  0  0  0  0  0
  -29.5436  -19.5167   18.1786 H   0  0  0  0  0  0
  -29.4473  -19.5437   23.6940 H   0  0  0  0  0  0
  -30.7153  -18.6158   22.8882 H   0  0  0  0  0  0
  -29.0495  -18.0374   22.8664 H   0  0  0  0  0  0
  -31.2841  -17.6187   20.4977 H   0  0  0  0  0  0
  -30.4458  -17.4081   19.0153 H   0  0  0  0  0  0
  -30.0475  -23.8135   19.9751 H   0  0  0  0  0  0
  -29.3503  -23.7784   21.5455 H   0  0  0  0  0  0
  -27.1016  -24.4916   20.5959 H   0  0  0  0  0  0
  -27.7993  -24.5497   19.0080 H   0  0  0  0  0  0
  -28.8533  -15.9577   20.7623 H   0  0  0  0  0  0
  1 25  1  0  0  0
  1 30  2  0  0  0
  1 81  1  0  0  0
  2  3  1  0  0  0
  2 25  1  0  0  0
  2 82  1  0  0  0
  2 83  1  0  0  0
  3  4  1  0  0  0
  3 84  1  0  0  0
  3 85  1  0  0  0
  4  5  1  0  0  0
  4 86  1  0  0  0
  4 87  1  0  0  0
  5  6  1  0  0  0
  5 26  1  0  0  0
  5 88  1  0  0  0
  6 25  1  0  0  0
  6 89  1  0  0  0
  6 90  1  0  0  0
  7  8  2  0  0  0
  7 26  1  0  0  0
  7 29  1  0  0  0
  8  9  1  0  0  0
  8 22  1  0  0  0
  9 10  1  0  0  0
  9 27  2  0  0  0
 10 11  2  0  0  0
 10 15  1  0  0  0
 11 12  1  0  0  0
 11 91  1  0  0  0
 12 13  2  0  0  0
 12 92  1  0  0  0
 13 14  1  0  0  0
 13 31  1  0  0  0
 14 15  2  0  0  0
 14 93  1  0  0  0
 15 94  1  0  0  0
 16 17  2  0  0  0
 16 21  1  0  0  0
 16 31  1  0  0  0
 17 18  1  0  0  0
 17 95  1  0  0  0
 18 19  2  0  0  0
 18 96  1  0  0  0
 19 20  1  0  0  0
 19 24  1  0  0  0
 20 21  2  0  0  0
 20 97  1  0  0  0
 21 23  1  0  0  0
 22 28  1  0  0  0
 22 32  2  0  0  0
 26 27  1  0  0  0
 28 98  1  0  0  0
 28 99  1  0  0  0
 29100  1  0  0  0
 29101  1  0  0  0
 33 34  1  0  0  0
 33 66  1  0  0  0
 33 70  2  0  0  0
 34 36  1  0  0  0
 34 59  1  0  0  0
 34102  1  0  0  0
 35 44  2  0  0  0
 35 45  1  0  0  0
 35 68  1  0  0  0
 36 56  1  0  0  0
 36103  1  0  0  0
 37 39  1  0  0  0
 37 47  1  0  0  0
 37 66  1  0  0  0
 37104  1  0  0  0
 38 43  2  0  0  0
 38 46  1  0  0  0
 38 47  1  0  0  0
 39 64  1  0  0  0
 39 67  2  0  0  0
 40 52  1  0  0  0
 40 53  2  0  0  0
 40 58  1  0  0  0
 41105  1  0  0  0
 41106  1  0  0  0
 41107  1  0  0  0
 41 48  1  0  0  0
 42 43  1  0  0  0
 42 66  1  0  0  0
 42108  1  0  0  0
 42109  1  0  0  0
 43 44  1  0  0  0
 44110  1  0  0  0
 45 46  2  0  0  0
 45111  1  0  0  0
 46112  1  0  0  0
 47113  1  0  0  0
 47114  1  0  0  0
 48 56  1  0  0  0
 48 65  1  0  0  0
 48115  1  0  0  0
 49 50  1  0  0  0
 49 53  1  0  0  0
 49 64  1  0  0  0
 49116  1  0  0  0
 50 51  1  0  0  0
 50117  1  0  0  0
 50118  1  0  0  0
 51 52  1  0  0  0
 51119  1  0  0  0
 51120  1  0  0  0
 52121  1  0  0  0
 52122  1  0  0  0
 53 54  1  0  0  0
 54 55  2  0  0  0
 54123  1  0  0  0
 55 57  1  0  0  0
 55124  1  0  0  0
 56 69  2  0  0  0
 57 58  2  0  0  0
 57125  1  0  0  0
 58126  1  0  0  0
 59 60  1  0  0  0
 59 61  1  0  0  0
 59 62  1  0  0  0
 60127  1  0  0  0
 60128  1  0  0  0
 60129  1  0  0  0
 61130  1  0  0  0
 61131  1  0  0  0
 61132  1  0  0  0
 62133  1  0  0  0
 62134  1  0  0  0
 62135  1  0  0  0
 63 65  1  0  0  0
 63136  1  0  0  0
 63137  1  0  0  0
 63138  1  0  0  0
 64139  1  0  0  0
 65140  1  0  0  0
 68 79  1  0  0  0
 71 73  2  0  0  0
 71 75  1  0  0  0
 71141  1  0  0  0
 72 74  2  0  0  0
 72 80  1  0  0  0
 72142  1  0  0  0
 73 74  1  0  0  0
 73 76  1  0  0  0
 74 77  1  0  0  0
 75 78  1  0  0  0
 75 80  2  0  0  0
 76143  1  0  0  0
 76144  1  0  0  0
 76145  1  0  0  0
 77 81  1  0  0  0
 77146  1  0  0  0
 77147  1  0  0  0
 78 79  1  0  0  0
 78148  1  0  0  0
 78149  1  0  0  0
 79150  1  0  0  0
 79151  1  0  0  0
 81152  1  0  0  0
M  ISO  4   1 100  68 101  79 101  81 100
M  END
> <chiral flag>
0

> <version>
0

> <s_m_source_file>
/data/baiqing/PycharmProjects/Reinvent-master-3.2/result/LINK_invent/BTK/process_docking_weight1_custom_sum_contain_oxygen_bond_distance_aromatic_linkinvent_7_9_3/rearranged_h_0033.sdf

> <i_m_source_file_index>
67

> <r_mmod_Potential_Energy-OPLS-2005>
241.364105224609

> <r_mmod_Stretch_Energy-OPLS-2005>
191.267974853516

> <r_mmod_Bend_Energy-OPLS-2005>
237.231719970703

> <r_mmod_Torsional_Energy-OPLS-2005>
214.420944213867

> <r_mmod_Improper_Torsional_Energy-OPLS-2005>
10.7486810684204

> <r_mmod_Van_der_Waal_Energy-OPLS-2005>
136.036148071289

> <r_mmod_Electrostatic_Energy-OPLS-2005>
-470.667083740234

> <r_mmod_Solvation_Energy-OPLS-2005>
-225.592834472656

> <b_mmod_Minimization_Converged-OPLS-2005>
0

> <r_mmod_RMS_Derivative-OPLS-2005>
2.26421809196472

$$$$
68
                    3D
 Structure written by MMmdl.
171179  0  0  1  0            999 V2000
  -30.7524  -14.3860   20.6308 C   0  0  0  0  0  0
  -30.4142  -12.2793   19.4033 C   0  0  0  0  0  0
  -29.4814  -12.5103   18.1986 C   0  0  0  0  0  0
  -28.0060  -12.3765   18.6172 C   0  0  0  0  0  0
  -27.6666  -13.2039   19.8846 C   0  0  2  0  0  0
  -28.7066  -12.9553   20.9991 C   0  0  0  0  0  0
  -25.2619  -13.8154   20.5711 C   0  0  0  0  0  0
  -24.1856  -13.0441   20.9173 C   0  0  0  0  0  0
  -24.6401  -11.6903   20.8739 C   0  0  0  0  0  0
  -23.9064  -10.4297   21.0411 C   0  0  0  0  0  0
  -24.3620   -9.4209   21.9188 C   0  0  0  0  0  0
  -23.6289   -8.2243   22.0759 C   0  0  0  0  0  0
  -22.4269   -8.0290   21.3548 C   0  0  0  0  0  0
  -21.9909   -9.0263   20.4645 C   0  0  0  0  0  0
  -22.7238  -10.2143   20.3057 C   0  0  0  0  0  0
  -21.6853   -6.0736   22.5279 C   0  0  0  0  0  0
  -21.4017   -6.5641   23.8209 C   0  0  0  0  0  0
  -21.3650   -5.6795   24.9174 C   0  0  0  0  0  0
  -21.6044   -4.3058   24.7230 C   0  0  0  0  0  0
  -21.8820   -3.8147   23.4351 C   0  0  0  0  0  0
  -21.9198   -4.6960   22.3408 C   0  0  0  0  0  0
  -22.7881  -13.5231   21.1841 C   0  0  0  0  0  0
  -22.1666   -4.2137   21.0984 F   0  0  0  0  0  0
  -21.5626   -3.4543   25.7743 F   0  0  0  0  0  0
  -30.0451  -13.2412   20.4533 N   0  0  0  0  0  0
  -26.3061  -12.9331   20.3436 N   0  0  0  0  0  0
  -25.9334  -11.6489   20.5790 N   0  0  0  0  0  0
  -22.0539  -12.8212   22.0397 N   0  0  0  0  0  0
  -25.4376  -15.1866   20.4125 N   0  0  0  0  0  0
  -31.8200  -14.6170   20.0564 O   0  0  0  0  0  0
  -21.6638   -6.8884   21.4240 O   0  0  0  0  0  0
  -22.3560  -14.5537   20.6690 O   0  0  0  0  0  0
  -24.6070  -31.8721   23.2132 C   0  0  0  0  0  0
  -25.8987  -32.4845   23.8412 C   0  0  1  0  0  0
  -27.2602  -27.4905   20.0939 C   0  0  0  0  0  0
  -25.5871  -33.8641   24.2355 N   0  0  0  0  0  0
  -23.3930  -30.4929   21.5522 C   0  0  2  0  0  0
  -24.8435  -28.9613   20.1199 C   0  0  0  0  0  0
  -22.7361  -29.4678   22.5029 C   0  0  0  0  0  0
  -18.0261  -28.1370   22.8499 C   0  0  0  0  0  0
  -24.1482  -36.7334   23.2639 C   0  0  0  0  0  0
  -25.9117  -30.8579   21.3535 C   0  0  0  0  0  0
  -25.9942  -29.4912   20.7121 C   0  0  0  0  0  0
  -27.2018  -28.7683   20.6997 C   0  0  0  0  0  0
  -26.0923  -26.9692   19.4997 C   0  0  0  0  0  0
  -24.8839  -27.6937   19.5118 C   0  0  0  0  0  0
  -23.5992  -29.8179   20.1676 C   0  0  0  0  0  0
  -25.4098  -36.3129   24.0345 C   0  0  1  0  0  0
  -20.5839  -28.3646   23.1346 C   0  0  2  0  0  0
  -20.6748  -26.9390   22.5430 C   0  0  0  0  0  0
  -19.5733  -26.6385   21.5213 C   0  0  0  0  0  0
  -18.1911  -26.7923   22.1617 C   0  0  0  0  0  0
  -19.1507  -28.8820   23.2921 C   0  0  0  0  0  0
  -18.9440  -30.1434   23.8924 C   0  0  0  0  0  0
  -17.6442  -30.6579   24.0567 C   0  0  0  0  0  0
  -25.9019  -34.9489   23.5149 C   0  0  0  0  0  0
  -16.5336  -29.9085   23.6319 C   0  0  0  0  0  0
  -16.7253  -28.6501   23.0345 C   0  0  0  0  0  0
  -26.4451  -31.6600   25.0709 C   0  0  0  0  0  0
  -25.3753  -31.3679   26.1482 C   0  0  0  0  0  0
  -27.0274  -30.3061   24.6017 C   0  0  0  0  0  0
  -27.6042  -32.4310   25.7459 C   0  0  0  0  0  0
  -27.5584  -37.1814   24.8463 C   0  0  0  0  0  0
  -21.4098  -29.3020   22.3758 N   0  0  0  0  0  0
  -26.4296  -37.3802   23.9406 N   0  0  0  0  0  0
  -24.6555  -31.0873   22.1001 N   0  0  0  0  0  0
  -23.4166  -28.8230   23.3059 O   0  0  0  0  0  0
  -28.3987  -26.7233   19.9888 O   0  0  0  0  0  0
  -26.5584  -34.8932   22.4710 O   0  0  0  0  0  0
  -23.5284  -32.1442   23.7571 O   0  0  0  0  0  0
  -31.6279  -22.9844   19.6070 C   0  0  0  0  0  0
  -30.6968  -25.2045   18.1771 C   0  0  0  0  0  0
  -31.4538  -24.2142   20.2717 C   0  0  0  0  0  0
  -30.8883  -23.9773   17.5091 C   0  0  0  0  0  0
  -31.3664  -22.8504   18.2223 C   0  0  0  0  0  0
  -30.9841  -25.3379   19.5513 C   0  0  0  0  0  0
  -31.8014  -24.3041   21.7491 C   0  0  0  0  0  0
  -30.5871  -23.8970   16.0207 C   0  0  0  0  0  0
  -31.6328  -21.5348   17.4807 C   0  0  0  0  0  0
  -30.8116  -26.6989   20.2161 C   0  0  0  0  0  0
  -32.0368  -20.3209   18.3418 C   0  0  0  0  0  0
  -30.8552  -19.6703   19.0833 C   0  0  0  0  0  0
  -31.3128  -18.6977   20.1836 C   0  0  0  0  0  0
  -30.2768  -17.6042   20.4810 C   0  0  0  0  0  0
  -30.7173  -16.6549   21.6162 C   0  0  0  0  0  0
  -29.4617  -26.8820   20.9282 C   0  0  0  0  0  0
  -30.1876  -15.3046   21.4257 N   0  0  0  0  0  0
  -31.4571  -12.3704   19.0943 H   0  0  0  0  0  0
  -30.3084  -11.2599   19.7801 H   0  0  0  0  0  0
  -29.7060  -11.8000   17.4023 H   0  0  0  0  0  0
  -29.6548  -13.5032   17.7807 H   0  0  0  0  0  0
  -27.8096  -11.3197   18.8009 H   0  0  0  0  0  0
  -27.3511  -12.6658   17.7947 H   0  0  0  0  0  0
  -27.7213  -14.2558   19.6030 H   0  0  0  0  0  0
  -28.6693  -11.9156   21.3235 H   0  0  0  0  0  0
  -28.4673  -13.5383   21.8895 H   0  0  0  0  0  0
  -25.2774   -9.5666   22.4755 H   0  0  0  0  0  0
  -23.9994   -7.4625   22.7477 H   0  0  0  0  0  0
  -21.0843   -8.8793   19.8943 H   0  0  0  0  0  0
  -22.3713  -10.9691   19.6166 H   0  0  0  0  0  0
  -21.2011   -7.6152   23.9699 H   0  0  0  0  0  0
  -21.1468   -6.0538   25.9070 H   0  0  0  0  0  0
  -22.0605   -2.7606   23.2860 H   0  0  0  0  0  0
  -22.4160  -11.9850   22.4748 H   0  0  0  0  0  0
  -21.1165  -13.1237   22.2638 H   0  0  0  0  0  0
  -24.6782  -15.8494   20.5228 H   0  0  0  0  0  0
  -26.2995  -15.6213   20.1076 H   0  0  0  0  0  0
  -26.7068  -32.5595   23.1196 H   0  0  0  0  0  0
  -25.0022  -33.9813   25.0500 H   0  0  0  0  0  0
  -22.6784  -31.3072   21.4121 H   0  0  0  0  0  0
  -23.3737  -35.9678   23.3316 H   0  0  0  0  0  0
  -24.3585  -36.8929   22.2054 H   0  0  0  0  0  0
  -23.7246  -37.6549   23.6640 H   0  0  0  0  0  0
  -26.0041  -31.6213   20.5794 H   0  0  0  0  0  0
  -26.8062  -30.9271   21.9602 H   0  0  0  0  0  0
  -28.0703  -29.2405   21.1299 H   0  0  0  0  0  0
  -26.1251  -26.0005   19.0208 H   0  0  0  0  0  0
  -24.0009  -27.2769   19.0468 H   0  0  0  0  0  0
  -23.6971  -30.5906   19.4036 H   0  0  0  0  0  0
  -22.7270  -29.2277   19.8795 H   0  0  0  0  0  0
  -25.1273  -36.2007   25.0842 H   0  0  0  0  0  0
  -20.9932  -28.3204   24.1461 H   0  0  0  0  0  0
  -20.5638  -26.2250   23.3606 H   0  0  0  0  0  0
  -21.6626  -26.7433   22.1227 H   0  0  0  0  0  0
  -19.6895  -25.6301   21.1225 H   0  0  0  0  0  0
  -19.6683  -27.3208   20.6755 H   0  0  0  0  0  0
  -17.4186  -26.6686   21.4014 H   0  0  0  0  0  0
  -18.0305  -26.0054   22.8995 H   0  0  0  0  0  0
  -19.7916  -30.7241   24.2304 H   0  0  0  0  0  0
  -17.5000  -31.6261   24.5167 H   0  0  0  0  0  0
  -15.5337  -30.2996   23.7624 H   0  0  0  0  0  0
  -15.8654  -28.0829   22.7040 H   0  0  0  0  0  0
  -24.5914  -30.7034   25.7825 H   0  0  0  0  0  0
  -24.8959  -32.2829   26.4976 H   0  0  0  0  0  0
  -25.8143  -30.8819   27.0204 H   0  0  0  0  0  0
  -26.2789  -29.6827   24.1110 H   0  0  0  0  0  0
  -27.4120  -29.7280   25.4428 H   0  0  0  0  0  0
  -27.8586  -30.4409   23.9089 H   0  0  0  0  0  0
  -27.2661  -33.3575   26.2108 H   0  0  0  0  0  0
  -28.3806  -32.6926   25.0260 H   0  0  0  0  0  0
  -28.0761  -31.8394   26.5312 H   0  0  0  0  0  0
  -28.2606  -38.0104   24.7501 H   0  0  0  0  0  0
  -28.1072  -36.2638   24.6292 H   0  0  0  0  0  0
  -27.2309  -37.1473   25.8867 H   0  0  0  0  0  0
  -20.9244  -29.8747   21.6987 H   0  0  0  0  0  0
  -26.0195  -38.2886   24.1402 H   0  0  0  0  0  0
  -31.9848  -22.1457   20.1846 H   0  0  0  0  0  0
  -30.3359  -26.0624   17.6248 H   0  0  0  0  0  0
  -32.0579  -23.3269   22.1597 H   0  0  0  0  0  0
  -30.9659  -24.6899   22.3321 H   0  0  0  0  0  0
  -32.6598  -24.9595   21.9004 H   0  0  0  0  0  0
  -30.2979  -24.8683   15.6178 H   0  0  0  0  0  0
  -29.7662  -23.2039   15.8322 H   0  0  0  0  0  0
  -31.4613  -23.5586   15.4638 H   0  0  0  0  0  0
  -32.4358  -21.7279   16.7676 H   0  0  0  0  0  0
  -30.7593  -21.2671   16.8850 H   0  0  0  0  0  0
  -30.9231  -27.4793   19.4628 H   0  0  0  0  0  0
  -31.6235  -26.8699   20.9227 H   0  0  0  0  0  0
  -32.8473  -20.5792   19.0222 H   0  0  0  0  0  0
  -32.4619  -19.5633   17.6819 H   0  0  0  0  0  0
  -30.2383  -19.1501   18.3487 H   0  0  0  0  0  0
  -30.2094  -20.4286   19.5277 H   0  0  0  0  0  0
  -31.5421  -19.2600   21.0902 H   0  0  0  0  0  0
  -32.2435  -18.2138   19.8812 H   0  0  0  0  0  0
  -30.1138  -17.0420   19.5597 H   0  0  0  0  0  0
  -29.3147  -18.0530   20.7320 H   0  0  0  0  0  0
  -30.3819  -17.0426   22.5789 H   0  0  0  0  0  0
  -31.8065  -16.6100   21.6792 H   0  0  0  0  0  0
  -29.4918  -27.8384   21.4399 H   0  0  0  0  0  0
  -29.3337  -26.1332   21.7082 H   0  0  0  0  0  0
  -29.3117  -15.0672   21.8684 H   0  0  0  0  0  0
  1 25  1  0  0  0
  1 30  2  0  0  0
  1 87  1  0  0  0
  2  3  1  0  0  0
  2 25  1  0  0  0
  2 88  1  0  0  0
  2 89  1  0  0  0
  3  4  1  0  0  0
  3 90  1  0  0  0
  3 91  1  0  0  0
  4  5  1  0  0  0
  4 92  1  0  0  0
  4 93  1  0  0  0
  5  6  1  0  0  0
  5 26  1  0  0  0
  5 94  1  0  0  0
  6 25  1  0  0  0
  6 95  1  0  0  0
  6 96  1  0  0  0
  7  8  2  0  0  0
  7 26  1  0  0  0
  7 29  1  0  0  0
  8  9  1  0  0  0
  8 22  1  0  0  0
  9 10  1  0  0  0
  9 27  2  0  0  0
 10 11  2  0  0  0
 10 15  1  0  0  0
 11 12  1  0  0  0
 11 97  1  0  0  0
 12 13  2  0  0  0
 12 98  1  0  0  0
 13 14  1  0  0  0
 13 31  1  0  0  0
 14 15  2  0  0  0
 14 99  1  0  0  0
 15100  1  0  0  0
 16 17  2  0  0  0
 16 21  1  0  0  0
 16 31  1  0  0  0
 17 18  1  0  0  0
 17101  1  0  0  0
 18 19  2  0  0  0
 18102  1  0  0  0
 19 20  1  0  0  0
 19 24  1  0  0  0
 20 21  2  0  0  0
 20103  1  0  0  0
 21 23  1  0  0  0
 22 28  1  0  0  0
 22 32  2  0  0  0
 26 27  1  0  0  0
 28104  1  0  0  0
 28105  1  0  0  0
 29106  1  0  0  0
 29107  1  0  0  0
 33 34  1  0  0  0
 33 66  1  0  0  0
 33 70  2  0  0  0
 34 36  1  0  0  0
 34 59  1  0  0  0
 34108  1  0  0  0
 35 44  2  0  0  0
 35 45  1  0  0  0
 35 68  1  0  0  0
 36 56  1  0  0  0
 36109  1  0  0  0
 37 39  1  0  0  0
 37 47  1  0  0  0
 37 66  1  0  0  0
 37110  1  0  0  0
 38 43  2  0  0  0
 38 46  1  0  0  0
 38 47  1  0  0  0
 39 64  1  0  0  0
 39 67  2  0  0  0
 40 52  1  0  0  0
 40 53  2  0  0  0
 40 58  1  0  0  0
 41111  1  0  0  0
 41112  1  0  0  0
 41113  1  0  0  0
 41 48  1  0  0  0
 42 43  1  0  0  0
 42 66  1  0  0  0
 42114  1  0  0  0
 42115  1  0  0  0
 43 44  1  0  0  0
 44116  1  0  0  0
 45 46  2  0  0  0
 45117  1  0  0  0
 46118  1  0  0  0
 47119  1  0  0  0
 47120  1  0  0  0
 48 56  1  0  0  0
 48 65  1  0  0  0
 48121  1  0  0  0
 49 50  1  0  0  0
 49 53  1  0  0  0
 49 64  1  0  0  0
 49122  1  0  0  0
 50 51  1  0  0  0
 50123  1  0  0  0
 50124  1  0  0  0
 51 52  1  0  0  0
 51125  1  0  0  0
 51126  1  0  0  0
 52127  1  0  0  0
 52128  1  0  0  0
 53 54  1  0  0  0
 54 55  2  0  0  0
 54129  1  0  0  0
 55 57  1  0  0  0
 55130  1  0  0  0
 56 69  2  0  0  0
 57 58  2  0  0  0
 57131  1  0  0  0
 58132  1  0  0  0
 59 60  1  0  0  0
 59 61  1  0  0  0
 59 62  1  0  0  0
 60133  1  0  0  0
 60134  1  0  0  0
 60135  1  0  0  0
 61136  1  0  0  0
 61137  1  0  0  0
 61138  1  0  0  0
 62139  1  0  0  0
 62140  1  0  0  0
 62141  1  0  0  0
 63 65  1  0  0  0
 63142  1  0  0  0
 63143  1  0  0  0
 63144  1  0  0  0
 64145  1  0  0  0
 65146  1  0  0  0
 68 86  1  0  0  0
 71 73  2  0  0  0
 71 75  1  0  0  0
 71147  1  0  0  0
 72 74  1  0  0  0
 72 76  2  0  0  0
 72148  1  0  0  0
 73 76  1  0  0  0
 73 77  1  0  0  0
 74 75  2  0  0  0
 74 78  1  0  0  0
 75 79  1  0  0  0
 76 80  1  0  0  0
 77149  1  0  0  0
 77150  1  0  0  0
 77151  1  0  0  0
 78152  1  0  0  0
 78153  1  0  0  0
 78154  1  0  0  0
 79 81  1  0  0  0
 79155  1  0  0  0
 79156  1  0  0  0
 80 86  1  0  0  0
 80157  1  0  0  0
 80158  1  0  0  0
 81 82  1  0  0  0
 81159  1  0  0  0
 81160  1  0  0  0
 82 83  1  0  0  0
 82161  1  0  0  0
 82162  1  0  0  0
 83 84  1  0  0  0
 83163  1  0  0  0
 83164  1  0  0  0
 84 85  1  0  0  0
 84165  1  0  0  0
 84166  1  0  0  0
 85 87  1  0  0  0
 85167  1  0  0  0
 85168  1  0  0  0
 86169  1  0  0  0
 86170  1  0  0  0
 87171  1  0  0  0
M  ISO  4   1 100  68 101  86 101  87 100
M  END
> <chiral flag>
0

> <version>
0

> <s_m_source_file>
/data/baiqing/PycharmProjects/Reinvent-master-3.2/result/LINK_invent/BTK/process_docking_weight1_custom_sum_contain_oxygen_bond_distance_aromatic_linkinvent_7_9_3/rearranged_h_0033.sdf

> <i_m_source_file_index>
68

> <r_mmod_Potential_Energy-OPLS-2005>
-74.9924392700195

> <r_mmod_Stretch_Energy-OPLS-2005>
33.2105674743652

> <r_mmod_Bend_Energy-OPLS-2005>
100.92064666748

> <r_mmod_Torsional_Energy-OPLS-2005>
201.725921630859

> <r_mmod_Improper_Torsional_Energy-OPLS-2005>
2.2619481086731

> <r_mmod_Van_der_Waal_Energy-OPLS-2005>
164.213104248047

> <r_mmod_Electrostatic_Energy-OPLS-2005>
-376.667053222656

> <r_mmod_Solvation_Energy-OPLS-2005>
-206.650817871094

> <b_mmod_Minimization_Converged-OPLS-2005>
0

> <r_mmod_RMS_Derivative-OPLS-2005>
1.55464351177216

$$$$
69
                    3D
 Structure written by MMmdl.
155163  0  0  1  0            999 V2000
  -30.5054  -14.9961   20.4096 C   0  0  0  0  0  0
  -30.4426  -12.6238   19.4892 C   0  0  0  0  0  0
  -29.5195  -12.5311   18.2515 C   0  0  0  0  0  0
  -28.0546  -12.3077   18.6748 C   0  0  0  0  0  0
  -27.6240  -13.2473   19.8311 C   0  0  2  0  0  0
  -28.6675  -13.2915   20.9655 C   0  0  0  0  0  0
  -25.2445  -13.8211   20.5714 C   0  0  0  0  0  0
  -24.1769  -13.0433   20.9244 C   0  0  0  0  0  0
  -24.6386  -11.6921   20.8764 C   0  0  0  0  0  0
  -23.9080  -10.4292   21.0414 C   0  0  0  0  0  0
  -24.3634   -9.4204   21.9189 C   0  0  0  0  0  0
  -23.6308   -8.2237   22.0752 C   0  0  0  0  0  0
  -22.4286   -8.0280   21.3544 C   0  0  0  0  0  0
  -21.9926   -9.0254   20.4646 C   0  0  0  0  0  0
  -22.7254  -10.2132   20.3060 C   0  0  0  0  0  0
  -21.6852   -6.0740   22.5280 C   0  0  0  0  0  0
  -21.4011   -6.5643   23.8214 C   0  0  0  0  0  0
  -21.3659   -5.6795   24.9175 C   0  0  0  0  0  0
  -21.6045   -4.3060   24.7226 C   0  0  0  0  0  0
  -21.8821   -3.8149   23.4347 C   0  0  0  0  0  0
  -21.9193   -4.6966   22.3403 C   0  0  0  0  0  0
  -22.7789  -13.5203   21.1900 C   0  0  0  0  0  0
  -22.1662   -4.2153   21.0981 F   0  0  0  0  0  0
  -21.5631   -3.4544   25.7737 F   0  0  0  0  0  0
  -29.9305  -13.7246   20.3563 N   0  0  0  0  0  0
  -26.2859  -12.9437   20.3219 N   0  0  0  0  0  0
  -25.9315  -11.6571   20.5731 N   0  0  0  0  0  0
  -22.0449  -12.8181   22.0449 N   0  0  0  0  0  0
  -25.4101  -15.1936   20.4124 N   0  0  0  0  0  0
  -31.7205  -15.0646   20.1934 O   0  0  0  0  0  0
  -21.6642   -6.8880   21.4243 O   0  0  0  0  0  0
  -22.3472  -14.5502   20.6734 O   0  0  0  0  0  0
  -24.6452  -31.8413   23.1826 C   0  0  0  0  0  0
  -25.9213  -32.4681   23.8231 C   0  0  1  0  0  0
  -27.2194  -27.1102   20.1703 C   0  0  0  0  0  0
  -25.5957  -33.8489   24.2163 N   0  0  0  0  0  0
  -23.4495  -30.4571   21.5299 C   0  0  2  0  0  0
  -24.8969  -28.8678   20.1185 C   0  0  0  0  0  0
  -22.7573  -29.4536   22.4865 C   0  0  0  0  0  0
  -18.0308  -28.1405   22.8478 C   0  0  0  0  0  0
  -24.1489  -36.7249   23.2641 C   0  0  0  0  0  0
  -26.0047  -30.7095   21.3798 C   0  0  0  0  0  0
  -26.0755  -29.3143   20.7291 C   0  0  0  0  0  0
  -27.2385  -28.4554   20.7261 C   0  0  0  0  0  0
  -26.0086  -26.7547   19.5406 C   0  0  0  0  0  0
  -24.8774  -27.6030   19.5073 C   0  0  0  0  0  0
  -23.6766  -29.7761   20.1530 C   0  0  0  0  0  0
  -25.4124  -36.3029   24.0313 C   0  0  1  0  0  0
  -20.5922  -28.3730   23.1240 C   0  0  2  0  0  0
  -20.6792  -26.9434   22.5412 C   0  0  0  0  0  0
  -19.5767  -26.6384   21.5221 C   0  0  0  0  0  0
  -18.1946  -26.7944   22.1623 C   0  0  0  0  0  0
  -19.1563  -28.8883   23.2851 C   0  0  0  0  0  0
  -18.9479  -30.1480   23.8875 C   0  0  0  0  0  0
  -17.6475  -30.6595   24.0564 C   0  0  0  0  0  0
  -25.9078  -34.9406   23.5049 C   0  0  0  0  0  0
  -16.5366  -29.9092   23.6336 C   0  0  0  0  0  0
  -16.7293  -28.6514   23.0353 C   0  0  0  0  0  0
  -26.4525  -31.6553   25.0682 C   0  0  0  0  0  0
  -25.3698  -31.3754   26.1370 C   0  0  0  0  0  0
  -27.0381  -30.2948   24.6262 C   0  0  0  0  0  0
  -27.6064  -32.4309   25.7463 C   0  0  0  0  0  0
  -27.5575  -37.1782   24.8466 C   0  0  0  0  0  0
  -21.4267  -29.3050   22.3609 N   0  0  0  0  0  0
  -26.4284  -37.3744   23.9410 N   0  0  0  0  0  0
  -24.7200  -31.0253   22.0859 N   0  0  0  0  0  0
  -23.4205  -28.8103   23.3034 O   0  0  0  0  0  0
  -28.3143  -26.1683   20.1742 O   0  0  0  0  0  0
  -26.5670  -34.8914   22.4633 O   0  0  0  0  0  0
  -23.5565  -32.1289   23.7040 O   0  0  0  0  0  0
  -27.9395  -24.0988   18.1614 C   0  0  0  0  0  0
  -28.2235  -23.4392   19.3765 C   0  0  0  0  0  0
  -28.3020  -21.9009   19.3236 C   0  0  0  0  0  0
  -27.5622  -23.4170   17.0168 C   0  0  0  0  0  0
  -27.7132  -21.3916   18.1119 C   0  0  0  0  0  0
  -27.2233  -24.1513   15.7358 C   0  0  0  0  0  0
  -28.9566  -20.7145   20.3196 C   0  0  0  0  0  0
  -28.2637  -24.6248   20.5059 C   0  0  0  0  0  0
  -29.0422  -19.0099   19.9981 C   0  0  0  0  0  0
  -29.9608  -17.7458   20.6776 C   0  0  0  0  0  0
  -27.3958  -22.1011   17.0157 N   0  0  0  0  0  0
  -29.6965  -16.1761   20.5048 N   0  0  0  0  0  0
  -27.1574  -19.7760   17.8763 Cl  0  0  0  0  0  0
  -31.4702  -12.8059   19.1695 H   0  0  0  0  0  0
  -30.4614  -11.6790   20.0341 H   0  0  0  0  0  0
  -29.8472  -11.7253   17.5935 H   0  0  0  0  0  0
  -29.5946  -13.4512   17.6700 H   0  0  0  0  0  0
  -27.9595  -11.2683   18.9924 H   0  0  0  0  0  0
  -27.3885  -12.4253   17.8193 H   0  0  0  0  0  0
  -27.5804  -14.2451   19.3935 H   0  0  0  0  0  0
  -28.7734  -12.3181   21.4458 H   0  0  0  0  0  0
  -28.3612  -13.9921   21.7443 H   0  0  0  0  0  0
  -25.2782   -9.5675   22.4761 H   0  0  0  0  0  0
  -24.0024   -7.4620   22.7463 H   0  0  0  0  0  0
  -21.0861   -8.8773   19.8944 H   0  0  0  0  0  0
  -22.3722  -10.9672   19.6167 H   0  0  0  0  0  0
  -21.1997   -7.6151   23.9720 H   0  0  0  0  0  0
  -21.1480   -6.0523   25.9079 H   0  0  0  0  0  0
  -22.0599   -2.7614   23.2844 H   0  0  0  0  0  0
  -22.4093  -11.9861   22.4848 H   0  0  0  0  0  0
  -21.1049  -13.1166   22.2638 H   0  0  0  0  0  0
  -24.6383  -15.8416   20.5265 H   0  0  0  0  0  0
  -26.2419  -15.6346   20.0432 H   0  0  0  0  0  0
  -26.7280  -32.5281   23.0959 H   0  0  0  0  0  0
  -25.0088  -33.9588   25.0299 H   0  0  0  0  0  0
  -22.7534  -31.2830   21.3698 H   0  0  0  0  0  0
  -23.3762  -35.9571   23.3290 H   0  0  0  0  0  0
  -24.3567  -36.8891   22.2058 H   0  0  0  0  0  0
  -23.7233  -37.6434   23.6688 H   0  0  0  0  0  0
  -26.1579  -31.4579   20.6014 H   0  0  0  0  0  0
  -26.8768  -30.7649   22.0202 H   0  0  0  0  0  0
  -28.1456  -28.8023   21.2011 H   0  0  0  0  0  0
  -25.9213  -25.7825   19.0780 H   0  0  0  0  0  0
  -23.9760  -27.2531   19.0232 H   0  0  0  0  0  0
  -23.8185  -30.5445   19.3924 H   0  0  0  0  0  0
  -22.7904  -29.2198   19.8424 H   0  0  0  0  0  0
  -25.1315  -36.1847   25.0805 H   0  0  0  0  0  0
  -21.0010  -28.3322   24.1362 H   0  0  0  0  0  0
  -20.5690  -26.2346   23.3633 H   0  0  0  0  0  0
  -21.6659  -26.7439   22.1209 H   0  0  0  0  0  0
  -19.6929  -25.6288   21.1266 H   0  0  0  0  0  0
  -19.6706  -27.3184   20.6744 H   0  0  0  0  0  0
  -17.4221  -26.6694   21.4024 H   0  0  0  0  0  0
  -18.0340  -26.0093   22.9023 H   0  0  0  0  0  0
  -19.7952  -30.7307   24.2232 H   0  0  0  0  0  0
  -17.5025  -31.6272   24.5176 H   0  0  0  0  0  0
  -15.5365  -30.2987   23.7669 H   0  0  0  0  0  0
  -15.8694  -28.0825   22.7077 H   0  0  0  0  0  0
  -24.5885  -30.7104   25.7674 H   0  0  0  0  0  0
  -24.8880  -32.2940   26.4731 H   0  0  0  0  0  0
  -25.7959  -30.8952   27.0185 H   0  0  0  0  0  0
  -26.2989  -29.6680   24.1266 H   0  0  0  0  0  0
  -27.3988  -29.7248   25.4831 H   0  0  0  0  0  0
  -27.8902  -30.4185   23.9576 H   0  0  0  0  0  0
  -27.2677  -33.3636   26.1987 H   0  0  0  0  0  0
  -28.3901  -32.6818   25.0303 H   0  0  0  0  0  0
  -28.0708  -31.8461   26.5412 H   0  0  0  0  0  0
  -28.2591  -38.0081   24.7507 H   0  0  0  0  0  0
  -28.1067  -36.2609   24.6294 H   0  0  0  0  0  0
  -27.2292  -37.1434   25.8868 H   0  0  0  0  0  0
  -20.9489  -29.8740   21.6763 H   0  0  0  0  0  0
  -26.0149  -38.2809   24.1410 H   0  0  0  0  0  0
  -27.9574  -25.1773   18.0997 H   0  0  0  0  0  0
  -27.1346  -25.2246   15.9067 H   0  0  0  0  0  0
  -26.2753  -23.8003   15.3281 H   0  0  0  0  0  0
  -27.9995  -23.9916   14.9877 H   0  0  0  0  0  0
  -28.4703  -20.8327   21.2881 H   0  0  0  0  0  0
  -29.9821  -21.0412   20.4904 H   0  0  0  0  0  0
  -29.1413  -24.4207   21.1191 H   0  0  0  0  0  0
  -27.4135  -24.4647   21.1691 H   0  0  0  0  0  0
  -29.3346  -18.9356   18.9518 H   0  0  0  0  0  0
  -28.0165  -18.6482   20.0656 H   0  0  0  0  0  0
  -29.9348  -17.9052   21.7560 H   0  0  0  0  0  0
  -31.0024  -17.9178   20.4047 H   0  0  0  0  0  0
  -28.7178  -15.9398   20.5746 H   0  0  0  0  0  0
  1 25  1  0  0  0
  1 30  2  0  0  0
  1 82  1  0  0  0
  2  3  1  0  0  0
  2 25  1  0  0  0
  2 84  1  0  0  0
  2 85  1  0  0  0
  3  4  1  0  0  0
  3 86  1  0  0  0
  3 87  1  0  0  0
  4  5  1  0  0  0
  4 88  1  0  0  0
  4 89  1  0  0  0
  5  6  1  0  0  0
  5 26  1  0  0  0
  5 90  1  0  0  0
  6 25  1  0  0  0
  6 91  1  0  0  0
  6 92  1  0  0  0
  7  8  2  0  0  0
  7 26  1  0  0  0
  7 29  1  0  0  0
  8  9  1  0  0  0
  8 22  1  0  0  0
  9 10  1  0  0  0
  9 27  2  0  0  0
 10 11  2  0  0  0
 10 15  1  0  0  0
 11 12  1  0  0  0
 11 93  1  0  0  0
 12 13  2  0  0  0
 12 94  1  0  0  0
 13 14  1  0  0  0
 13 31  1  0  0  0
 14 15  2  0  0  0
 14 95  1  0  0  0
 15 96  1  0  0  0
 16 17  2  0  0  0
 16 21  1  0  0  0
 16 31  1  0  0  0
 17 18  1  0  0  0
 17 97  1  0  0  0
 18 19  2  0  0  0
 18 98  1  0  0  0
 19 20  1  0  0  0
 19 24  1  0  0  0
 20 21  2  0  0  0
 20 99  1  0  0  0
 21 23  1  0  0  0
 22 28  1  0  0  0
 22 32  2  0  0  0
 26 27  1  0  0  0
 28100  1  0  0  0
 28101  1  0  0  0
 29102  1  0  0  0
 29103  1  0  0  0
 33 34  1  0  0  0
 33 66  1  0  0  0
 33 70  2  0  0  0
 34 36  1  0  0  0
 34 59  1  0  0  0
 34104  1  0  0  0
 35 44  2  0  0  0
 35 45  1  0  0  0
 35 68  1  0  0  0
 36 56  1  0  0  0
 36105  1  0  0  0
 37 39  1  0  0  0
 37 47  1  0  0  0
 37 66  1  0  0  0
 37106  1  0  0  0
 38 43  2  0  0  0
 38 46  1  0  0  0
 38 47  1  0  0  0
 39 64  1  0  0  0
 39 67  2  0  0  0
 40 52  1  0  0  0
 40 53  2  0  0  0
 40 58  1  0  0  0
 41107  1  0  0  0
 41108  1  0  0  0
 41109  1  0  0  0
 41 48  1  0  0  0
 42 43  1  0  0  0
 42 66  1  0  0  0
 42110  1  0  0  0
 42111  1  0  0  0
 43 44  1  0  0  0
 44112  1  0  0  0
 45 46  2  0  0  0
 45113  1  0  0  0
 46114  1  0  0  0
 47115  1  0  0  0
 47116  1  0  0  0
 48 56  1  0  0  0
 48 65  1  0  0  0
 48117  1  0  0  0
 49 50  1  0  0  0
 49 53  1  0  0  0
 49 64  1  0  0  0
 49118  1  0  0  0
 50 51  1  0  0  0
 50119  1  0  0  0
 50120  1  0  0  0
 51 52  1  0  0  0
 51121  1  0  0  0
 51122  1  0  0  0
 52123  1  0  0  0
 52124  1  0  0  0
 53 54  1  0  0  0
 54 55  2  0  0  0
 54125  1  0  0  0
 55 57  1  0  0  0
 55126  1  0  0  0
 56 69  2  0  0  0
 57 58  2  0  0  0
 57127  1  0  0  0
 58128  1  0  0  0
 59 60  1  0  0  0
 59 61  1  0  0  0
 59 62  1  0  0  0
 60129  1  0  0  0
 60130  1  0  0  0
 60131  1  0  0  0
 61132  1  0  0  0
 61133  1  0  0  0
 61134  1  0  0  0
 62135  1  0  0  0
 62136  1  0  0  0
 62137  1  0  0  0
 63 65  1  0  0  0
 63138  1  0  0  0
 63139  1  0  0  0
 63140  1  0  0  0
 64141  1  0  0  0
 65142  1  0  0  0
 68 78  1  0  0  0
 71 72  2  0  0  0
 71 74  1  0  0  0
 71143  1  0  0  0
 72 73  1  0  0  0
 72 78  1  0  0  0
 73 75  2  0  0  0
 73 77  1  0  0  0
 74 76  1  0  0  0
 74 81  2  0  0  0
 75 81  1  0  0  0
 75 83  1  0  0  0
 76144  1  0  0  0
 76145  1  0  0  0
 76146  1  0  0  0
 77 79  1  0  0  0
 77147  1  0  0  0
 77148  1  0  0  0
 78149  1  0  0  0
 78150  1  0  0  0
 79 80  1  0  0  0
 79151  1  0  0  0
 79152  1  0  0  0
 80 82  1  0  0  0
 80153  1  0  0  0
 80154  1  0  0  0
 82155  1  0  0  0
M  ISO  4   1 100  68 101  78 101  82 100
M  END
> <chiral flag>
0

> <version>
0

> <s_m_source_file>
/data/baiqing/PycharmProjects/Reinvent-master-3.2/result/LINK_invent/BTK/process_docking_weight1_custom_sum_contain_oxygen_bond_distance_aromatic_linkinvent_7_9_3/rearranged_h_0033.sdf

> <i_m_source_file_index>
69

> <r_mmod_Potential_Energy-OPLS-2005>
582.80419921875

> <r_mmod_Stretch_Energy-OPLS-2005>
341.815460205078

> <r_mmod_Bend_Energy-OPLS-2005>
353.160369873047

> <r_mmod_Torsional_Energy-OPLS-2005>
255.771453857422

> <r_mmod_Improper_Torsional_Energy-OPLS-2005>
5.16611337661743

> <r_mmod_Van_der_Waal_Energy-OPLS-2005>
144.594665527344

> <r_mmod_Electrostatic_Energy-OPLS-2005>
-515.473571777344

> <r_mmod_Solvation_Energy-OPLS-2005>
-218.319885253906

> <b_mmod_Minimization_Converged-OPLS-2005>
0

> <r_mmod_RMS_Derivative-OPLS-2005>
1.0957989692688

$$$$
70
                    3D
 Structure written by MMmdl.
162171  0  0  1  0            999 V2000
  -30.4672  -15.1830   20.3850 C   0  0  0  0  0  0
  -30.4345  -12.7498   19.5224 C   0  0  0  0  0  0
  -29.5298  -12.5653   18.2794 C   0  0  0  0  0  0
  -28.0752  -12.3020   18.7060 C   0  0  0  0  0  0
  -27.6139  -13.2688   19.8258 C   0  0  2  0  0  0
  -28.6483  -13.4103   20.9621 C   0  0  0  0  0  0
  -25.2396  -13.8234   20.5727 C   0  0  0  0  0  0
  -24.1744  -13.0430   20.9244 C   0  0  0  0  0  0
  -24.6390  -11.6921   20.8753 C   0  0  0  0  0  0
  -23.9088  -10.4284   21.0396 C   0  0  0  0  0  0
  -24.3626   -9.4199   21.9179 C   0  0  0  0  0  0
  -23.6293   -8.2244   22.0767 C   0  0  0  0  0  0
  -22.4279   -8.0282   21.3552 C   0  0  0  0  0  0
  -21.9913   -9.0258   20.4660 C   0  0  0  0  0  0
  -22.7252  -10.2129   20.3054 C   0  0  0  0  0  0
  -21.6862   -6.0729   22.5282 C   0  0  0  0  0  0
  -21.4019   -6.5637   23.8211 C   0  0  0  0  0  0
  -21.3655   -5.6795   24.9174 C   0  0  0  0  0  0
  -21.6039   -4.3058   24.7229 C   0  0  0  0  0  0
  -21.8817   -3.8143   23.4353 C   0  0  0  0  0  0
  -21.9193   -4.6954   22.3402 C   0  0  0  0  0  0
  -22.7761  -13.5190   21.1892 C   0  0  0  0  0  0
  -22.1661   -4.2136   21.0981 F   0  0  0  0  0  0
  -21.5622   -3.4545   25.7744 F   0  0  0  0  0  0
  -29.8905  -13.8903   20.3410 N   0  0  0  0  0  0
  -26.2818  -12.9497   20.3218 N   0  0  0  0  0  0
  -25.9324  -11.6608   20.5717 N   0  0  0  0  0  0
  -22.0420  -12.8183   22.0453 N   0  0  0  0  0  0
  -25.4032  -15.1963   20.4150 N   0  0  0  0  0  0
  -31.6859  -15.1869   20.1627 O   0  0  0  0  0  0
  -21.6646   -6.8873   21.4244 O   0  0  0  0  0  0
  -22.3442  -14.5491   20.6735 O   0  0  0  0  0  0
  -24.6595  -31.8268   23.1729 C   0  0  0  0  0  0
  -25.9289  -32.4611   23.8187 C   0  0  1  0  0  0
  -27.2211  -26.9598   20.1764 C   0  0  0  0  0  0
  -25.5965  -33.8429   24.2087 N   0  0  0  0  0  0
  -23.4735  -30.4408   21.5211 C   0  0  2  0  0  0
  -24.9294  -28.8373   20.1095 C   0  0  0  0  0  0
  -22.7655  -29.4459   22.4781 C   0  0  0  0  0  0
  -18.0325  -28.1419   22.8457 C   0  0  0  0  0  0
  -24.1499  -36.7226   23.2650 C   0  0  0  0  0  0
  -26.0419  -30.6429   21.4016 C   0  0  0  0  0  0
  -26.1119  -29.2369   20.7444 C   0  0  0  0  0  0
  -27.2523  -28.3179   20.7562 C   0  0  0  0  0  0
  -26.0122  -26.7138   19.4837 C   0  0  0  0  0  0
  -24.9034  -27.5950   19.4598 C   0  0  0  0  0  0
  -23.7129  -29.7605   20.1459 C   0  0  0  0  0  0
  -25.4131  -36.2978   24.0306 C   0  0  1  0  0  0
  -20.5940  -28.3759   23.1193 C   0  0  2  0  0  0
  -20.6811  -26.9442   22.5401 C   0  0  0  0  0  0
  -19.5783  -26.6373   21.5222 C   0  0  0  0  0  0
  -18.1960  -26.7946   22.1618 C   0  0  0  0  0  0
  -19.1583  -28.8905   23.2817 C   0  0  0  0  0  0
  -18.9495  -30.1491   23.8854 C   0  0  0  0  0  0
  -17.6492  -30.6601   24.0552 C   0  0  0  0  0  0
  -25.9096  -34.9363   23.5016 C   0  0  0  0  0  0
  -16.5382  -29.9089   23.6347 C   0  0  0  0  0  0
  -16.7309  -28.6518   23.0353 C   0  0  0  0  0  0
  -26.4542  -31.6544   25.0710 C   0  0  0  0  0  0
  -25.3666  -31.3786   26.1361 C   0  0  0  0  0  0
  -27.0436  -30.2915   24.6423 C   0  0  0  0  0  0
  -27.6040  -32.4351   25.7496 C   0  0  0  0  0  0
  -27.5567  -37.1760   24.8460 C   0  0  0  0  0  0
  -21.4327  -29.3057   22.3543 N   0  0  0  0  0  0
  -26.4275  -37.3708   23.9411 N   0  0  0  0  0  0
  -24.7461  -30.9955   22.0862 N   0  0  0  0  0  0
  -23.4219  -28.8023   23.3000 O   0  0  0  0  0  0
  -28.2077  -25.8498   20.2745 O   0  0  0  0  0  0
  -26.5700  -34.8891   22.4607 O   0  0  0  0  0  0
  -23.5665  -32.1240   23.6830 O   0  0  0  0  0  0
  -30.3222  -20.8144   20.2393 C   0  0  0  0  0  0
  -29.9417  -22.2453   20.1825 C   0  0  0  0  0  0
  -29.4702  -19.6424   20.3549 C   0  0  0  0  0  0
  -28.5712  -22.7127   20.2585 C   0  0  0  0  0  0
  -28.1315  -20.2042   20.4247 C   0  0  0  0  0  0
  -34.0648  -22.8068   19.6064 C   0  0  0  0  0  0
  -33.0153  -22.3662   18.5619 C   0  0  0  0  0  0
  -33.4833  -23.6976   20.7207 C   0  0  0  0  0  0
  -31.7197  -23.2011   18.6079 C   0  0  0  0  0  0
  -32.1001  -23.2008   21.1610 C   0  0  0  0  0  0
  -31.0625  -23.2715   20.0108 C   0  0  0  0  0  0
  -30.1552  -18.0356   20.3637 C   0  0  0  0  0  0
  -27.8469  -24.2828   19.9965 C   0  0  0  0  0  0
  -27.7492  -21.5801   20.3761 N   0  0  0  0  0  0
  -29.7194  -16.4496   20.4735 N   0  0  0  0  0  0
  -26.8311  -19.0813   20.5663 Cl  0  0  0  0  0  0
  -31.4612  -12.9336   19.2024 H   0  0  0  0  0  0
  -30.4719  -11.8314   20.1109 H   0  0  0  0  0  0
  -29.8952  -11.7466   17.6582 H   0  0  0  0  0  0
  -29.5734  -13.4630   17.6611 H   0  0  0  0  0  0
  -28.0210  -11.2746   19.0674 H   0  0  0  0  0  0
  -27.4065  -12.3586   17.8464 H   0  0  0  0  0  0
  -27.5410  -14.2448   19.3437 H   0  0  0  0  0  0
  -28.7937  -12.4662   21.4892 H   0  0  0  0  0  0
  -28.3035  -14.1319   21.7043 H   0  0  0  0  0  0
  -25.2762   -9.5676   22.4762 H   0  0  0  0  0  0
  -23.9994   -7.4636   22.7494 H   0  0  0  0  0  0
  -21.0841   -8.8780   19.8966 H   0  0  0  0  0  0
  -22.3707  -10.9669   19.6170 H   0  0  0  0  0  0
  -21.2024   -7.6147   23.9710 H   0  0  0  0  0  0
  -21.1474   -6.0530   25.9077 H   0  0  0  0  0  0
  -22.0595   -2.7609   23.2866 H   0  0  0  0  0  0
  -22.4053  -11.9857   22.4847 H   0  0  0  0  0  0
  -21.1039  -13.1204   22.2653 H   0  0  0  0  0  0
  -24.6328  -15.8451   20.5308 H   0  0  0  0  0  0
  -26.2415  -15.6398   20.0650 H   0  0  0  0  0  0
  -26.7357  -32.5164   23.0903 H   0  0  0  0  0  0
  -25.0068  -33.9515   25.0208 H   0  0  0  0  0  0
  -22.7846  -31.2714   21.3515 H   0  0  0  0  0  0
  -23.3771  -35.9544   23.3274 H   0  0  0  0  0  0
  -24.3584  -36.8904   22.2070 H   0  0  0  0  0  0
  -23.7244  -37.6403   23.6732 H   0  0  0  0  0  0
  -26.2159  -31.3862   20.6218 H   0  0  0  0  0  0
  -26.9065  -30.7016   22.0518 H   0  0  0  0  0  0
  -28.1439  -28.6190   21.2884 H   0  0  0  0  0  0
  -25.8779  -25.7703   18.9769 H   0  0  0  0  0  0
  -24.0078  -27.2838   18.9399 H   0  0  0  0  0  0
  -23.8646  -30.5326   19.3907 H   0  0  0  0  0  0
  -22.8252  -29.2113   19.8273 H   0  0  0  0  0  0
  -25.1320  -36.1781   25.0795 H   0  0  0  0  0  0
  -21.0029  -28.3372   24.1318 H   0  0  0  0  0  0
  -20.5714  -26.2376   23.3637 H   0  0  0  0  0  0
  -21.6672  -26.7434   22.1186 H   0  0  0  0  0  0
  -19.6953  -25.6272   21.1282 H   0  0  0  0  0  0
  -19.6730  -27.3163   20.6731 H   0  0  0  0  0  0
  -17.4227  -26.6692   21.4022 H   0  0  0  0  0  0
  -18.0348  -26.0102   22.9024 H   0  0  0  0  0  0
  -19.7976  -30.7317   24.2200 H   0  0  0  0  0  0
  -17.5048  -31.6278   24.5167 H   0  0  0  0  0  0
  -15.5383  -30.2977   23.7704 H   0  0  0  0  0  0
  -15.8707  -28.0829   22.7084 H   0  0  0  0  0  0
  -24.5880  -30.7106   25.7657 H   0  0  0  0  0  0
  -24.8822  -32.2984   26.4651 H   0  0  0  0  0  0
  -25.7886  -30.9035   27.0225 H   0  0  0  0  0  0
  -26.3102  -29.6590   24.1414 H   0  0  0  0  0  0
  -27.3966  -29.7276   25.5066 H   0  0  0  0  0  0
  -27.9033  -30.4111   23.9832 H   0  0  0  0  0  0
  -27.2626  -33.3706   26.1936 H   0  0  0  0  0  0
  -28.3903  -32.6817   25.0356 H   0  0  0  0  0  0
  -28.0648  -31.8575   26.5519 H   0  0  0  0  0  0
  -28.2540  -38.0093   24.7508 H   0  0  0  0  0  0
  -28.1098  -36.2615   24.6272 H   0  0  0  0  0  0
  -27.2287  -37.1376   25.8862 H   0  0  0  0  0  0
  -20.9580  -29.8753   21.6679 H   0  0  0  0  0  0
  -26.0128  -38.2765   24.1432 H   0  0  0  0  0  0
  -31.3743  -20.5872   20.1792 H   0  0  0  0  0  0
  -34.8855  -23.3337   19.1183 H   0  0  0  0  0  0
  -34.5133  -21.9144   20.0468 H   0  0  0  0  0  0
  -32.7783  -21.3134   18.7080 H   0  0  0  0  0  0
  -33.4522  -22.4190   17.5637 H   0  0  0  0  0  0
  -33.4021  -24.7268   20.3670 H   0  0  0  0  0  0
  -34.1677  -23.7210   21.5697 H   0  0  0  0  0  0
  -31.0040  -22.8598   17.8590 H   0  0  0  0  0  0
  -31.9851  -24.2154   18.3053 H   0  0  0  0  0  0
  -31.7384  -23.7594   22.0253 H   0  0  0  0  0  0
  -32.2295  -22.1782   21.5142 H   0  0  0  0  0  0
  -30.6016  -24.2589   20.0721 H   0  0  0  0  0  0
  -30.9169  -18.1147   21.1405 H   0  0  0  0  0  0
  -30.7367  -18.0387   19.4412 H   0  0  0  0  0  0
  -26.8739  -24.1700   20.4745 H   0  0  0  0  0  0
  -27.6229  -24.2614   18.9300 H   0  0  0  0  0  0
  -28.7298  -16.3063   20.6058 H   0  0  0  0  0  0
  1 25  1  0  0  0
  1 30  2  0  0  0
  1 85  1  0  0  0
  2  3  1  0  0  0
  2 25  1  0  0  0
  2 87  1  0  0  0
  2 88  1  0  0  0
  3  4  1  0  0  0
  3 89  1  0  0  0
  3 90  1  0  0  0
  4  5  1  0  0  0
  4 91  1  0  0  0
  4 92  1  0  0  0
  5  6  1  0  0  0
  5 26  1  0  0  0
  5 93  1  0  0  0
  6 25  1  0  0  0
  6 94  1  0  0  0
  6 95  1  0  0  0
  7  8  2  0  0  0
  7 26  1  0  0  0
  7 29  1  0  0  0
  8  9  1  0  0  0
  8 22  1  0  0  0
  9 10  1  0  0  0
  9 27  2  0  0  0
 10 11  2  0  0  0
 10 15  1  0  0  0
 11 12  1  0  0  0
 11 96  1  0  0  0
 12 13  2  0  0  0
 12 97  1  0  0  0
 13 14  1  0  0  0
 13 31  1  0  0  0
 14 15  2  0  0  0
 14 98  1  0  0  0
 15 99  1  0  0  0
 16 17  2  0  0  0
 16 21  1  0  0  0
 16 31  1  0  0  0
 17 18  1  0  0  0
 17100  1  0  0  0
 18 19  2  0  0  0
 18101  1  0  0  0
 19 20  1  0  0  0
 19 24  1  0  0  0
 20 21  2  0  0  0
 20102  1  0  0  0
 21 23  1  0  0  0
 22 28  1  0  0  0
 22 32  2  0  0  0
 26 27  1  0  0  0
 28103  1  0  0  0
 28104  1  0  0  0
 29105  1  0  0  0
 29106  1  0  0  0
 33 34  1  0  0  0
 33 66  1  0  0  0
 33 70  2  0  0  0
 34 36  1  0  0  0
 34 59  1  0  0  0
 34107  1  0  0  0
 35 44  2  0  0  0
 35 45  1  0  0  0
 35 68  1  0  0  0
 36 56  1  0  0  0
 36108  1  0  0  0
 37 39  1  0  0  0
 37 47  1  0  0  0
 37 66  1  0  0  0
 37109  1  0  0  0
 38 43  2  0  0  0
 38 46  1  0  0  0
 38 47  1  0  0  0
 39 64  1  0  0  0
 39 67  2  0  0  0
 40 52  1  0  0  0
 40 53  2  0  0  0
 40 58  1  0  0  0
 41110  1  0  0  0
 41111  1  0  0  0
 41112  1  0  0  0
 41 48  1  0  0  0
 42 43  1  0  0  0
 42 66  1  0  0  0
 42113  1  0  0  0
 42114  1  0  0  0
 43 44  1  0  0  0
 44115  1  0  0  0
 45 46  2  0  0  0
 45116  1  0  0  0
 46117  1  0  0  0
 47118  1  0  0  0
 47119  1  0  0  0
 48 56  1  0  0  0
 48 65  1  0  0  0
 48120  1  0  0  0
 49 50  1  0  0  0
 49 53  1  0  0  0
 49 64  1  0  0  0
 49121  1  0  0  0
 50 51  1  0  0  0
 50122  1  0  0  0
 50123  1  0  0  0
 51 52  1  0  0  0
 51124  1  0  0  0
 51125  1  0  0  0
 52126  1  0  0  0
 52127  1  0  0  0
 53 54  1  0  0  0
 54 55  2  0  0  0
 54128  1  0  0  0
 55 57  1  0  0  0
 55129  1  0  0  0
 56 69  2  0  0  0
 57 58  2  0  0  0
 57130  1  0  0  0
 58131  1  0  0  0
 59 60  1  0  0  0
 59 61  1  0  0  0
 59 62  1  0  0  0
 60132  1  0  0  0
 60133  1  0  0  0
 60134  1  0  0  0
 61135  1  0  0  0
 61136  1  0  0  0
 61137  1  0  0  0
 62138  1  0  0  0
 62139  1  0  0  0
 62140  1  0  0  0
 63 65  1  0  0  0
 63141  1  0  0  0
 63142  1  0  0  0
 63143  1  0  0  0
 64144  1  0  0  0
 65145  1  0  0  0
 68 83  1  0  0  0
 71 72  2  0  0  0
 71 73  1  0  0  0
 71146  1  0  0  0
 72 74  1  0  0  0
 72 81  1  0  0  0
 73 75  2  0  0  0
 73 82  1  0  0  0
 74 83  1  0  0  0
 74 84  2  0  0  0
 75 84  1  0  0  0
 75 86  1  0  0  0
 76 77  1  0  0  0
 76 78  1  0  0  0
 76147  1  0  0  0
 76148  1  0  0  0
 77 79  1  0  0  0
 77149  1  0  0  0
 77150  1  0  0  0
 78 80  1  0  0  0
 78151  1  0  0  0
 78152  1  0  0  0
 79 81  1  0  0  0
 79153  1  0  0  0
 79154  1  0  0  0
 80 81  1  0  0  0
 80155  1  0  0  0
 80156  1  0  0  0
 81157  1  0  0  0
 82 85  1  0  0  0
 82158  1  0  0  0
 82159  1  0  0  0
 83160  1  0  0  0
 83161  1  0  0  0
 85162  1  0  0  0
M  ISO  4   1 100  68 101  83 101  85 100
M  END
> <chiral flag>
0

> <version>
0

> <s_m_source_file>
/data/baiqing/PycharmProjects/Reinvent-master-3.2/result/LINK_invent/BTK/process_docking_weight1_custom_sum_contain_oxygen_bond_distance_aromatic_linkinvent_7_9_3/rearranged_h_0033.sdf

> <i_m_source_file_index>
70

> <r_mmod_Potential_Energy-OPLS-2005>
1042.91015625

> <r_mmod_Stretch_Energy-OPLS-2005>
469.716400146484

> <r_mmod_Bend_Energy-OPLS-2005>
462.976409912109

> <r_mmod_Torsional_Energy-OPLS-2005>
258.460845947266

> <r_mmod_Improper_Torsional_Energy-OPLS-2005>
4.89490175247192

> <r_mmod_Van_der_Waal_Energy-OPLS-2005>
137.420471191406

> <r_mmod_Electrostatic_Energy-OPLS-2005>
-474.760711669922

> <r_mmod_Solvation_Energy-OPLS-2005>
-211.742462158203

> <b_mmod_Minimization_Converged-OPLS-2005>
0

> <r_mmod_RMS_Derivative-OPLS-2005>
1.55968368053436

$$$$
71
                    3D
 Structure written by MMmdl.
162170  0  0  1  0            999 V2000
  -30.8182  -14.2956   20.7499 C   0  0  0  0  0  0
  -30.4075  -12.2920   19.3745 C   0  0  0  0  0  0
  -29.4728  -12.5451   18.1814 C   0  0  0  0  0  0
  -28.0035  -12.3800   18.6061 C   0  0  0  0  0  0
  -27.6645  -13.2035   19.8750 C   0  0  2  0  0  0
  -28.7005  -12.9542   20.9920 C   0  0  0  0  0  0
  -25.2600  -13.8165   20.5667 C   0  0  0  0  0  0
  -24.1848  -13.0446   20.9159 C   0  0  0  0  0  0
  -24.6400  -11.6912   20.8722 C   0  0  0  0  0  0
  -23.9067  -10.4298   21.0402 C   0  0  0  0  0  0
  -24.3623   -9.4212   21.9181 C   0  0  0  0  0  0
  -23.6295   -8.2247   22.0756 C   0  0  0  0  0  0
  -22.4276   -8.0289   21.3550 C   0  0  0  0  0  0
  -21.9913   -9.0257   20.4648 C   0  0  0  0  0  0
  -22.7243  -10.2134   20.3050 C   0  0  0  0  0  0
  -21.6851   -6.0743   22.5284 C   0  0  0  0  0  0
  -21.4016   -6.5644   23.8220 C   0  0  0  0  0  0
  -21.3657   -5.6795   24.9181 C   0  0  0  0  0  0
  -21.6040   -4.3056   24.7229 C   0  0  0  0  0  0
  -21.8819   -3.8152   23.4350 C   0  0  0  0  0  0
  -21.9192   -4.6971   22.3409 C   0  0  0  0  0  0
  -22.7868  -13.5238   21.1822 C   0  0  0  0  0  0
  -22.1659   -4.2159   21.0985 F   0  0  0  0  0  0
  -21.5624   -3.4542   25.7741 F   0  0  0  0  0  0
  -30.0502  -13.2182   20.4575 N   0  0  0  0  0  0
  -26.3034  -12.9328   20.3352 N   0  0  0  0  0  0
  -25.9322  -11.6489   20.5749 N   0  0  0  0  0  0
  -22.0513  -12.8233   22.0386 N   0  0  0  0  0  0
  -25.4327  -15.1884   20.4088 N   0  0  0  0  0  0
  -31.7700  -14.6671   20.0565 O   0  0  0  0  0  0
  -21.6637   -6.8888   21.4246 O   0  0  0  0  0  0
  -22.3557  -14.5550   20.6683 O   0  0  0  0  0  0
  -24.6124  -31.8706   23.2116 C   0  0  0  0  0  0
  -25.9032  -32.4834   23.8411 C   0  0  1  0  0  0
  -27.2348  -27.4694   20.0935 C   0  0  0  0  0  0
  -25.5915  -33.8630   24.2346 N   0  0  0  0  0  0
  -23.3975  -30.4931   21.5514 C   0  0  2  0  0  0
  -24.8442  -28.9593   20.1167 C   0  0  0  0  0  0
  -22.7394  -29.4678   22.5015 C   0  0  0  0  0  0
  -18.0270  -28.1366   22.8486 C   0  0  0  0  0  0
  -24.1485  -36.7311   23.2639 C   0  0  0  0  0  0
  -25.9208  -30.8463   21.3593 C   0  0  0  0  0  0
  -25.9990  -29.4803   20.7141 C   0  0  0  0  0  0
  -27.1989  -28.7392   20.7087 C   0  0  0  0  0  0
  -26.0730  -26.9591   19.4833 C   0  0  0  0  0  0
  -24.8718  -27.6937   19.5031 C   0  0  0  0  0  0
  -23.6039  -29.8216   20.1666 C   0  0  0  0  0  0
  -25.4097  -36.3110   24.0348 C   0  0  1  0  0  0
  -20.5858  -28.3650   23.1320 C   0  0  2  0  0  0
  -20.6762  -26.9395   22.5410 C   0  0  0  0  0  0
  -19.5747  -26.6376   21.5203 C   0  0  0  0  0  0
  -18.1916  -26.7915   22.1606 C   0  0  0  0  0  0
  -19.1519  -28.8822   23.2893 C   0  0  0  0  0  0
  -18.9461  -30.1431   23.8904 C   0  0  0  0  0  0
  -17.6466  -30.6576   24.0566 C   0  0  0  0  0  0
  -25.9028  -34.9479   23.5130 C   0  0  0  0  0  0
  -16.5349  -29.9080   23.6337 C   0  0  0  0  0  0
  -16.7259  -28.6498   23.0346 C   0  0  0  0  0  0
  -26.4471  -31.6604   25.0728 C   0  0  0  0  0  0
  -25.3764  -31.3697   26.1500 C   0  0  0  0  0  0
  -27.0315  -30.3067   24.6071 C   0  0  0  0  0  0
  -27.6037  -32.4334   25.7497 C   0  0  0  0  0  0
  -27.5572  -37.1799   24.8473 C   0  0  0  0  0  0
  -21.4131  -29.3031   22.3748 N   0  0  0  0  0  0
  -26.4282  -37.3797   23.9422 N   0  0  0  0  0  0
  -24.6614  -31.0834   22.0998 N   0  0  0  0  0  0
  -23.4181  -28.8244   23.3061 O   0  0  0  0  0  0
  -28.3864  -26.7263   20.0456 O   0  0  0  0  0  0
  -26.5576  -34.8922   22.4686 O   0  0  0  0  0  0
  -23.5331  -32.1450   23.7541 O   0  0  0  0  0  0
  -29.0581  -23.7709   21.9119 C   0  0  0  0  0  0
  -28.4914  -22.5327   22.2593 C   0  0  0  0  0  0
  -27.0727  -22.4631   22.3955 C   0  0  0  0  0  0
  -28.2374  -24.8882   21.6895 C   0  0  0  0  0  0
  -26.3333  -23.6445   22.1488 C   0  0  0  0  0  0
  -24.8202  -23.6704   22.2650 C   0  0  0  0  0  0
  -28.8469  -26.2360   21.3074 C   0  0  0  0  0  0
  -30.1862  -17.8519   22.4795 C   0  0  0  0  0  0
  -31.5237  -17.1201   22.2851 C   0  0  0  0  0  0
  -30.3545  -19.3660   22.2925 C   0  0  0  0  0  0
  -31.5101  -15.6474   22.7234 C   0  0  0  0  0  0
  -29.0569  -20.1627   22.4634 C   0  0  0  0  0  0
  -26.8968  -24.8233   21.8115 N   0  0  0  0  0  0
  -30.5865  -14.8118   21.9625 N   0  0  0  0  0  0
  -29.4242  -21.5316   22.4455 O   0  0  0  0  0  0
  -26.2084  -21.0407   22.8861 Cl  0  0  0  0  0  0
  -31.4502  -12.3936   19.0666 H   0  0  0  0  0  0
  -30.3031  -11.2649   19.7280 H   0  0  0  0  0  0
  -29.7070  -11.8614   17.3641 H   0  0  0  0  0  0
  -29.6326  -13.5540   17.7968 H   0  0  0  0  0  0
  -27.8226  -11.3199   18.7902 H   0  0  0  0  0  0
  -27.3412  -12.6634   17.7874 H   0  0  0  0  0  0
  -27.7220  -14.2572   19.5992 H   0  0  0  0  0  0
  -28.6505  -11.9196   21.3345 H   0  0  0  0  0  0
  -28.4444  -13.5645   21.8584 H   0  0  0  0  0  0
  -25.2776   -9.5683   22.4754 H   0  0  0  0  0  0
  -24.0004   -7.4640   22.7483 H   0  0  0  0  0  0
  -21.0841   -8.8778   19.8958 H   0  0  0  0  0  0
  -22.3709  -10.9671   19.6154 H   0  0  0  0  0  0
  -21.2013   -7.6155   23.9730 H   0  0  0  0  0  0
  -21.1475   -6.0525   25.9085 H   0  0  0  0  0  0
  -22.0599   -2.7616   23.2848 H   0  0  0  0  0  0
  -22.4115  -11.9877   22.4751 H   0  0  0  0  0  0
  -21.1135  -13.1266   22.2600 H   0  0  0  0  0  0
  -24.6702  -15.8479   20.5246 H   0  0  0  0  0  0
  -26.2965  -15.6287   20.1149 H   0  0  0  0  0  0
  -26.7108  -32.5597   23.1186 H   0  0  0  0  0  0
  -25.0136  -33.9798   25.0538 H   0  0  0  0  0  0
  -22.6862  -31.3099   21.4114 H   0  0  0  0  0  0
  -23.3741  -35.9657   23.3329 H   0  0  0  0  0  0
  -24.3564  -36.8902   22.2048 H   0  0  0  0  0  0
  -23.7238  -37.6522   23.6634 H   0  0  0  0  0  0
  -26.0224  -31.6107   20.5877 H   0  0  0  0  0  0
  -26.8120  -30.9079   21.9721 H   0  0  0  0  0  0
  -28.0925  -29.1421   21.1634 H   0  0  0  0  0  0
  -26.0994  -25.9858   19.0135 H   0  0  0  0  0  0
  -23.9836  -27.2820   19.0431 H   0  0  0  0  0  0
  -23.7142  -30.5953   19.4055 H   0  0  0  0  0  0
  -22.7291  -29.2388   19.8729 H   0  0  0  0  0  0
  -25.1263  -36.1974   25.0841 H   0  0  0  0  0  0
  -20.9933  -28.3206   24.1444 H   0  0  0  0  0  0
  -20.5674  -26.2252   23.3587 H   0  0  0  0  0  0
  -21.6632  -26.7453   22.1198 H   0  0  0  0  0  0
  -19.6926  -25.6294   21.1221 H   0  0  0  0  0  0
  -19.6685  -27.3201   20.6746 H   0  0  0  0  0  0
  -17.4190  -26.6679   21.3997 H   0  0  0  0  0  0
  -18.0303  -26.0041   22.8988 H   0  0  0  0  0  0
  -19.7949  -30.7231   24.2271 H   0  0  0  0  0  0
  -17.5037  -31.6264   24.5158 H   0  0  0  0  0  0
  -15.5351  -30.2985   23.7664 H   0  0  0  0  0  0
  -15.8657  -28.0822   22.7049 H   0  0  0  0  0  0
  -24.5918  -30.7059   25.7844 H   0  0  0  0  0  0
  -24.8978  -32.2850   26.5004 H   0  0  0  0  0  0
  -25.8147  -30.8833   27.0227 H   0  0  0  0  0  0
  -26.2844  -29.6785   24.1199 H   0  0  0  0  0  0
  -27.4198  -29.7335   25.4499 H   0  0  0  0  0  0
  -27.8624  -30.4411   23.9139 H   0  0  0  0  0  0
  -27.2646  -33.3614   26.2115 H   0  0  0  0  0  0
  -28.3830  -32.6933   25.0319 H   0  0  0  0  0  0
  -28.0726  -31.8448   26.5394 H   0  0  0  0  0  0
  -28.2597  -38.0084   24.7504 H   0  0  0  0  0  0
  -28.1054  -36.2613   24.6311 H   0  0  0  0  0  0
  -27.2292  -37.1475   25.8877 H   0  0  0  0  0  0
  -20.9294  -29.8756   21.6972 H   0  0  0  0  0  0
  -26.0179  -38.2883   24.1416 H   0  0  0  0  0  0
  -30.1302  -23.8599   21.8121 H   0  0  0  0  0  0
  -24.3763  -22.8790   21.6608 H   0  0  0  0  0  0
  -24.4090  -24.6211   21.9247 H   0  0  0  0  0  0
  -24.5188  -23.5237   23.3018 H   0  0  0  0  0  0
  -29.9303  -26.1337   21.2437 H   0  0  0  0  0  0
  -28.6638  -26.9463   22.1147 H   0  0  0  0  0  0
  -29.8026  -17.6572   23.4822 H   0  0  0  0  0  0
  -29.4419  -17.4657   21.7817 H   0  0  0  0  0  0
  -32.2936  -17.6259   22.8699 H   0  0  0  0  0  0
  -31.8432  -17.2019   21.2451 H   0  0  0  0  0  0
  -30.7727  -19.5688   21.3055 H   0  0  0  0  0  0
  -31.0864  -19.7293   23.0159 H   0  0  0  0  0  0
  -31.2395  -15.5815   23.7779 H   0  0  0  0  0  0
  -32.5167  -15.2313   22.6476 H   0  0  0  0  0  0
  -28.5965  -19.9146   23.4201 H   0  0  0  0  0  0
  -28.3653  -19.9226   21.6547 H   0  0  0  0  0  0
  -29.8087  -14.4130   22.4683 H   0  0  0  0  0  0
  1 25  1  0  0  0
  1 30  2  0  0  0
  1 84  1  0  0  0
  2  3  1  0  0  0
  2 25  1  0  0  0
  2 87  1  0  0  0
  2 88  1  0  0  0
  3  4  1  0  0  0
  3 89  1  0  0  0
  3 90  1  0  0  0
  4  5  1  0  0  0
  4 91  1  0  0  0
  4 92  1  0  0  0
  5  6  1  0  0  0
  5 26  1  0  0  0
  5 93  1  0  0  0
  6 25  1  0  0  0
  6 94  1  0  0  0
  6 95  1  0  0  0
  7  8  2  0  0  0
  7 26  1  0  0  0
  7 29  1  0  0  0
  8  9  1  0  0  0
  8 22  1  0  0  0
  9 10  1  0  0  0
  9 27  2  0  0  0
 10 11  2  0  0  0
 10 15  1  0  0  0
 11 12  1  0  0  0
 11 96  1  0  0  0
 12 13  2  0  0  0
 12 97  1  0  0  0
 13 14  1  0  0  0
 13 31  1  0  0  0
 14 15  2  0  0  0
 14 98  1  0  0  0
 15 99  1  0  0  0
 16 17  2  0  0  0
 16 21  1  0  0  0
 16 31  1  0  0  0
 17 18  1  0  0  0
 17100  1  0  0  0
 18 19  2  0  0  0
 18101  1  0  0  0
 19 20  1  0  0  0
 19 24  1  0  0  0
 20 21  2  0  0  0
 20102  1  0  0  0
 21 23  1  0  0  0
 22 28  1  0  0  0
 22 32  2  0  0  0
 26 27  1  0  0  0
 28103  1  0  0  0
 28104  1  0  0  0
 29105  1  0  0  0
 29106  1  0  0  0
 33 34  1  0  0  0
 33 66  1  0  0  0
 33 70  2  0  0  0
 34 36  1  0  0  0
 34 59  1  0  0  0
 34107  1  0  0  0
 35 44  2  0  0  0
 35 45  1  0  0  0
 35 68  1  0  0  0
 36 56  1  0  0  0
 36108  1  0  0  0
 37 39  1  0  0  0
 37 47  1  0  0  0
 37 66  1  0  0  0
 37109  1  0  0  0
 38 43  2  0  0  0
 38 46  1  0  0  0
 38 47  1  0  0  0
 39 64  1  0  0  0
 39 67  2  0  0  0
 40 52  1  0  0  0
 40 53  2  0  0  0
 40 58  1  0  0  0
 41110  1  0  0  0
 41111  1  0  0  0
 41112  1  0  0  0
 41 48  1  0  0  0
 42 43  1  0  0  0
 42 66  1  0  0  0
 42113  1  0  0  0
 42114  1  0  0  0
 43 44  1  0  0  0
 44115  1  0  0  0
 45 46  2  0  0  0
 45116  1  0  0  0
 46117  1  0  0  0
 47118  1  0  0  0
 47119  1  0  0  0
 48 56  1  0  0  0
 48 65  1  0  0  0
 48120  1  0  0  0
 49 50  1  0  0  0
 49 53  1  0  0  0
 49 64  1  0  0  0
 49121  1  0  0  0
 50 51  1  0  0  0
 50122  1  0  0  0
 50123  1  0  0  0
 51 52  1  0  0  0
 51124  1  0  0  0
 51125  1  0  0  0
 52126  1  0  0  0
 52127  1  0  0  0
 53 54  1  0  0  0
 54 55  2  0  0  0
 54128  1  0  0  0
 55 57  1  0  0  0
 55129  1  0  0  0
 56 69  2  0  0  0
 57 58  2  0  0  0
 57130  1  0  0  0
 58131  1  0  0  0
 59 60  1  0  0  0
 59 61  1  0  0  0
 59 62  1  0  0  0
 60132  1  0  0  0
 60133  1  0  0  0
 60134  1  0  0  0
 61135  1  0  0  0
 61136  1  0  0  0
 61137  1  0  0  0
 62138  1  0  0  0
 62139  1  0  0  0
 62140  1  0  0  0
 63 65  1  0  0  0
 63141  1  0  0  0
 63142  1  0  0  0
 63143  1  0  0  0
 64144  1  0  0  0
 65145  1  0  0  0
 68 77  1  0  0  0
 71 72  2  0  0  0
 71 74  1  0  0  0
 71146  1  0  0  0
 72 73  1  0  0  0
 72 85  1  0  0  0
 73 75  2  0  0  0
 73 86  1  0  0  0
 74 77  1  0  0  0
 74 83  2  0  0  0
 75 76  1  0  0  0
 75 83  1  0  0  0
 76147  1  0  0  0
 76148  1  0  0  0
 76149  1  0  0  0
 77150  1  0  0  0
 77151  1  0  0  0
 78 79  1  0  0  0
 78 80  1  0  0  0
 78152  1  0  0  0
 78153  1  0  0  0
 79 81  1  0  0  0
 79154  1  0  0  0
 79155  1  0  0  0
 80 82  1  0  0  0
 80156  1  0  0  0
 80157  1  0  0  0
 81 84  1  0  0  0
 81158  1  0  0  0
 81159  1  0  0  0
 82 85  1  0  0  0
 82160  1  0  0  0
 82161  1  0  0  0
 84162  1  0  0  0
M  ISO  4   1 100  68 101  77 101  84 100
M  END
> <chiral flag>
0

> <version>
0

> <s_m_source_file>
/data/baiqing/PycharmProjects/Reinvent-master-3.2/result/LINK_invent/BTK/process_docking_weight1_custom_sum_contain_oxygen_bond_distance_aromatic_linkinvent_7_9_3/rearranged_h_0033.sdf

> <i_m_source_file_index>
71

> <r_mmod_Potential_Energy-OPLS-2005>
-143.546051025391

> <r_mmod_Stretch_Energy-OPLS-2005>
32.143138885498

> <r_mmod_Bend_Energy-OPLS-2005>
108.517463684082

> <r_mmod_Torsional_Energy-OPLS-2005>
225.890579223633

> <r_mmod_Improper_Torsional_Energy-OPLS-2005>
4.32771253585815

> <r_mmod_Van_der_Waal_Energy-OPLS-2005>
156.804412841797

> <r_mmod_Electrostatic_Energy-OPLS-2005>
-464.646057128906

> <r_mmod_Solvation_Energy-OPLS-2005>
-214.142425537109

> <b_mmod_Minimization_Converged-OPLS-2005>
0

> <r_mmod_RMS_Derivative-OPLS-2005>
1.50086665153503

$$$$
72
                    3D
 Structure written by MMmdl.
159167  0  0  1  0            999 V2000
  -30.5819  -14.8292   20.4227 C   0  0  0  0  0  0
  -30.4274  -12.4977   19.5153 C   0  0  0  0  0  0
  -29.5242  -12.5051   18.2617 C   0  0  0  0  0  0
  -28.0483  -12.3189   18.6622 C   0  0  0  0  0  0
  -27.6344  -13.2406   19.8412 C   0  0  2  0  0  0
  -28.6690  -13.2325   20.9876 C   0  0  0  0  0  0
  -25.2485  -13.8208   20.5694 C   0  0  0  0  0  0
  -24.1793  -13.0452   20.9212 C   0  0  0  0  0  0
  -24.6382  -11.6921   20.8735 C   0  0  0  0  0  0
  -23.9075  -10.4295   21.0406 C   0  0  0  0  0  0
  -24.3622   -9.4204   21.9188 C   0  0  0  0  0  0
  -23.6292   -8.2243   22.0766 C   0  0  0  0  0  0
  -22.4271   -8.0291   21.3567 C   0  0  0  0  0  0
  -21.9905   -9.0268   20.4674 C   0  0  0  0  0  0
  -22.7242  -10.2136   20.3071 C   0  0  0  0  0  0
  -21.6844   -6.0739   22.5284 C   0  0  0  0  0  0
  -21.4016   -6.5642   23.8222 C   0  0  0  0  0  0
  -21.3666   -5.6796   24.9184 C   0  0  0  0  0  0
  -21.6043   -4.3060   24.7230 C   0  0  0  0  0  0
  -21.8818   -3.8148   23.4349 C   0  0  0  0  0  0
  -21.9190   -4.6966   22.3404 C   0  0  0  0  0  0
  -22.7819  -13.5230   21.1876 C   0  0  0  0  0  0
  -22.1658   -4.2144   21.0982 F   0  0  0  0  0  0
  -21.5629   -3.4553   25.7744 F   0  0  0  0  0  0
  -29.9678  -13.5895   20.4096 N   0  0  0  0  0  0
  -26.2898  -12.9429   20.3225 N   0  0  0  0  0  0
  -25.9310  -11.6567   20.5721 N   0  0  0  0  0  0
  -22.0451  -12.8267   22.0430 N   0  0  0  0  0  0
  -25.4187  -15.1942   20.4119 N   0  0  0  0  0  0
  -31.7715  -14.8968   20.0976 O   0  0  0  0  0  0
  -21.6650   -6.8883   21.4247 O   0  0  0  0  0  0
  -22.3497  -14.5522   20.6683 O   0  0  0  0  0  0
  -24.6319  -31.8513   23.1945 C   0  0  0  0  0  0
  -25.9133  -32.4739   23.8306 C   0  0  1  0  0  0
  -27.2151  -27.2078   20.1394 C   0  0  0  0  0  0
  -25.5935  -33.8551   24.2236 N   0  0  0  0  0  0
  -23.4344  -30.4690   21.5364 C   0  0  2  0  0  0
  -24.8832  -28.9025   20.1119 C   0  0  0  0  0  0
  -22.7515  -29.4560   22.4869 C   0  0  0  0  0  0
  -18.0315  -28.1395   22.8481 C   0  0  0  0  0  0
  -24.1502  -36.7244   23.2647 C   0  0  0  0  0  0
  -25.9829  -30.7423   21.3894 C   0  0  0  0  0  0
  -26.0530  -29.3624   20.7280 C   0  0  0  0  0  0
  -27.2187  -28.5247   20.7292 C   0  0  0  0  0  0
  -26.0178  -26.8195   19.5013 C   0  0  0  0  0  0
  -24.8727  -27.6444   19.4883 C   0  0  0  0  0  0
  -23.6571  -29.7949   20.1570 C   0  0  0  0  0  0
  -25.4141  -36.3055   24.0323 C   0  0  1  0  0  0
  -20.5907  -28.3711   23.1261 C   0  0  2  0  0  0
  -20.6777  -26.9409   22.5447 C   0  0  0  0  0  0
  -19.5767  -26.6366   21.5233 C   0  0  0  0  0  0
  -18.1941  -26.7942   22.1610 C   0  0  0  0  0  0
  -19.1564  -28.8869   23.2874 C   0  0  0  0  0  0
  -18.9479  -30.1462   23.8897 C   0  0  0  0  0  0
  -17.6472  -30.6591   24.0554 C   0  0  0  0  0  0
  -25.9070  -34.9425   23.5078 C   0  0  0  0  0  0
  -16.5369  -29.9079   23.6331 C   0  0  0  0  0  0
  -16.7297  -28.6494   23.0360 C   0  0  0  0  0  0
  -26.4516  -31.6603   25.0716 C   0  0  0  0  0  0
  -25.3711  -31.3810   26.1430 C   0  0  0  0  0  0
  -27.0345  -30.2987   24.6267 C   0  0  0  0  0  0
  -27.6074  -32.4352   25.7463 C   0  0  0  0  0  0
  -27.5596  -37.1774   24.8458 C   0  0  0  0  0  0
  -21.4215  -29.3048   22.3618 N   0  0  0  0  0  0
  -26.4308  -37.3756   23.9408 N   0  0  0  0  0  0
  -24.7012  -31.0418   22.0951 N   0  0  0  0  0  0
  -23.4187  -28.8100   23.2979 O   0  0  0  0  0  0
  -28.3208  -26.3189   20.2206 O   0  0  0  0  0  0
  -26.5632  -34.8892   22.4641 O   0  0  0  0  0  0
  -23.5451  -32.1368   23.7201 O   0  0  0  0  0  0
  -27.6717  -20.8034   20.4727 C   0  0  0  0  0  0
  -28.1868  -19.2933   20.7107 C   0  0  0  0  0  0
  -29.9397  -21.6024   19.7758 C   0  0  0  0  0  0
  -28.6869  -22.0009   20.6196 C   0  0  2  0  0  0
  -29.6838  -18.9169   20.3858 C   0  0  2  0  0  0
  -30.1224  -20.0603   19.3634 C   0  0  2  0  0  0
  -31.5525  -19.8560   18.8406 C   0  0  0  0  0  0
  -28.1287  -23.5761   20.7354 C   0  0  0  0  0  0
  -30.0974  -17.3762   19.8942 C   0  0  0  0  0  0
  -28.3678  -24.8666   19.7518 C   0  0  0  0  0  0
  -29.8174  -16.0008   20.5524 N   0  0  0  0  0  0
  -31.4732  -12.6123   19.2279 H   0  0  0  0  0  0
  -30.3665  -11.5385   20.0313 H   0  0  0  0  0  0
  -29.8285  -11.7123   17.5770 H   0  0  0  0  0  0
  -29.6492  -13.4452   17.7206 H   0  0  0  0  0  0
  -27.9171  -11.2752   18.9514 H   0  0  0  0  0  0
  -27.3967  -12.4794   17.8028 H   0  0  0  0  0  0
  -27.6168  -14.2506   19.4298 H   0  0  0  0  0  0
  -28.7139  -12.2563   21.4712 H   0  0  0  0  0  0
  -28.3833  -13.9474   21.7601 H   0  0  0  0  0  0
  -25.2765   -9.5683   22.4768 H   0  0  0  0  0  0
  -24.0008   -7.4633   22.7476 H   0  0  0  0  0  0
  -21.0840   -8.8798   19.8974 H   0  0  0  0  0  0
  -22.3710  -10.9687   19.6187 H   0  0  0  0  0  0
  -21.2014   -7.6151   23.9729 H   0  0  0  0  0  0
  -21.1490   -6.0525   25.9090 H   0  0  0  0  0  0
  -22.0582   -2.7607   23.2856 H   0  0  0  0  0  0
  -22.4058  -11.9956   22.4885 H   0  0  0  0  0  0
  -21.1070  -13.1326   22.2616 H   0  0  0  0  0  0
  -24.6499  -15.8452   20.5283 H   0  0  0  0  0  0
  -26.2649  -15.6356   20.0745 H   0  0  0  0  0  0
  -26.7166  -32.5362   23.1013 H   0  0  0  0  0  0
  -25.0134  -33.9724   25.0420 H   0  0  0  0  0  0
  -22.7338  -31.2935   21.3818 H   0  0  0  0  0  0
  -23.3791  -35.9547   23.3303 H   0  0  0  0  0  0
  -24.3582  -36.8873   22.2056 H   0  0  0  0  0  0
  -23.7231  -37.6426   23.6685 H   0  0  0  0  0  0
  -26.1419  -31.5028   20.6246 H   0  0  0  0  0  0
  -26.8531  -30.7869   22.0319 H   0  0  0  0  0  0
  -28.1115  -28.8663   21.2325 H   0  0  0  0  0  0
  -25.9354  -25.8492   19.0356 H   0  0  0  0  0  0
  -23.9716  -27.2886   19.0087 H   0  0  0  0  0  0
  -23.7884  -30.5653   19.3967 H   0  0  0  0  0  0
  -22.7788  -29.2267   19.8476 H   0  0  0  0  0  0
  -25.1339  -36.1893   25.0813 H   0  0  0  0  0  0
  -21.0046  -28.3334   24.1359 H   0  0  0  0  0  0
  -20.5630  -26.2343   23.3686 H   0  0  0  0  0  0
  -21.6649  -26.7377   22.1277 H   0  0  0  0  0  0
  -19.6922  -25.6265   21.1291 H   0  0  0  0  0  0
  -19.6722  -27.3148   20.6741 H   0  0  0  0  0  0
  -17.4228  -26.6733   21.3985 H   0  0  0  0  0  0
  -18.0283  -26.0083   22.8984 H   0  0  0  0  0  0
  -19.7956  -30.7281   24.2263 H   0  0  0  0  0  0
  -17.5027  -31.6272   24.5152 H   0  0  0  0  0  0
  -15.5366  -30.2969   23.7665 H   0  0  0  0  0  0
  -15.8702  -28.0803   22.7083 H   0  0  0  0  0  0
  -24.5917  -30.7118   25.7784 H   0  0  0  0  0  0
  -24.8861  -32.2986   26.4752 H   0  0  0  0  0  0
  -25.8007  -30.9080   27.0266 H   0  0  0  0  0  0
  -26.2922  -29.6739   24.1274 H   0  0  0  0  0  0
  -27.3957  -29.7280   25.4836 H   0  0  0  0  0  0
  -27.8853  -30.4223   23.9561 H   0  0  0  0  0  0
  -27.2714  -33.3678   26.2015 H   0  0  0  0  0  0
  -28.3889  -32.6882   25.0284 H   0  0  0  0  0  0
  -28.0743  -31.8491   26.5395 H   0  0  0  0  0  0
  -28.2622  -38.0068   24.7518 H   0  0  0  0  0  0
  -28.1089  -36.2596   24.6279 H   0  0  0  0  0  0
  -27.2303  -37.1407   25.8860 H   0  0  0  0  0  0
  -20.9416  -29.8747   21.6794 H   0  0  0  0  0  0
  -26.0181  -38.2816   24.1451 H   0  0  0  0  0  0
  -26.8218  -20.9710   21.1378 H   0  0  0  0  0  0
  -27.2481  -20.8625   19.4702 H   0  0  0  0  0  0
  -27.5388  -18.6413   20.1226 H   0  0  0  0  0  0
  -27.9847  -19.0147   21.7454 H   0  0  0  0  0  0
  -30.8260  -21.9353   20.3197 H   0  0  0  0  0  0
  -29.9345  -22.1991   18.8608 H   0  0  0  0  0  0
  -29.0450  -21.8331   21.6380 H   0  0  0  0  0  0
  -30.2492  -19.1029   21.3003 H   0  0  0  0  0  0
  -29.4788  -19.9211   18.4894 H   0  0  0  0  0  0
  -32.2739  -19.8166   19.6592 H   0  0  0  0  0  0
  -31.8380  -20.6734   18.1802 H   0  0  0  0  0  0
  -31.6473  -18.9422   18.2522 H   0  0  0  0  0  0
  -28.4900  -23.9206   21.7065 H   0  0  0  0  0  0
  -27.0475  -23.5191   20.8905 H   0  0  0  0  0  0
  -31.1829  -17.3863   19.7956 H   0  0  0  0  0  0
  -29.7260  -17.2726   18.8735 H   0  0  0  0  0  0
  -27.7762  -24.7473   18.8413 H   0  0  0  0  0  0
  -29.3938  -24.7699   19.3959 H   0  0  0  0  0  0
  -28.8663  -15.8641   20.8614 H   0  0  0  0  0  0
  1 25  1  0  0  0
  1 30  2  0  0  0
  1 81  1  0  0  0
  2  3  1  0  0  0
  2 25  1  0  0  0
  2 82  1  0  0  0
  2 83  1  0  0  0
  3  4  1  0  0  0
  3 84  1  0  0  0
  3 85  1  0  0  0
  4  5  1  0  0  0
  4 86  1  0  0  0
  4 87  1  0  0  0
  5  6  1  0  0  0
  5 26  1  0  0  0
  5 88  1  0  0  0
  6 25  1  0  0  0
  6 89  1  0  0  0
  6 90  1  0  0  0
  7  8  2  0  0  0
  7 26  1  0  0  0
  7 29  1  0  0  0
  8  9  1  0  0  0
  8 22  1  0  0  0
  9 10  1  0  0  0
  9 27  2  0  0  0
 10 11  2  0  0  0
 10 15  1  0  0  0
 11 12  1  0  0  0
 11 91  1  0  0  0
 12 13  2  0  0  0
 12 92  1  0  0  0
 13 14  1  0  0  0
 13 31  1  0  0  0
 14 15  2  0  0  0
 14 93  1  0  0  0
 15 94  1  0  0  0
 16 17  2  0  0  0
 16 21  1  0  0  0
 16 31  1  0  0  0
 17 18  1  0  0  0
 17 95  1  0  0  0
 18 19  2  0  0  0
 18 96  1  0  0  0
 19 20  1  0  0  0
 19 24  1  0  0  0
 20 21  2  0  0  0
 20 97  1  0  0  0
 21 23  1  0  0  0
 22 28  1  0  0  0
 22 32  2  0  0  0
 26 27  1  0  0  0
 28 98  1  0  0  0
 28 99  1  0  0  0
 29100  1  0  0  0
 29101  1  0  0  0
 33 34  1  0  0  0
 33 66  1  0  0  0
 33 70  2  0  0  0
 34 36  1  0  0  0
 34 59  1  0  0  0
 34102  1  0  0  0
 35 44  2  0  0  0
 35 45  1  0  0  0
 35 68  1  0  0  0
 36 56  1  0  0  0
 36103  1  0  0  0
 37 39  1  0  0  0
 37 47  1  0  0  0
 37 66  1  0  0  0
 37104  1  0  0  0
 38 43  2  0  0  0
 38 46  1  0  0  0
 38 47  1  0  0  0
 39 64  1  0  0  0
 39 67  2  0  0  0
 40 52  1  0  0  0
 40 53  2  0  0  0
 40 58  1  0  0  0
 41105  1  0  0  0
 41106  1  0  0  0
 41107  1  0  0  0
 41 48  1  0  0  0
 42 43  1  0  0  0
 42 66  1  0  0  0
 42108  1  0  0  0
 42109  1  0  0  0
 43 44  1  0  0  0
 44110  1  0  0  0
 45 46  2  0  0  0
 45111  1  0  0  0
 46112  1  0  0  0
 47113  1  0  0  0
 47114  1  0  0  0
 48 56  1  0  0  0
 48 65  1  0  0  0
 48115  1  0  0  0
 49 50  1  0  0  0
 49 53  1  0  0  0
 49 64  1  0  0  0
 49116  1  0  0  0
 50 51  1  0  0  0
 50117  1  0  0  0
 50118  1  0  0  0
 51 52  1  0  0  0
 51119  1  0  0  0
 51120  1  0  0  0
 52121  1  0  0  0
 52122  1  0  0  0
 53 54  1  0  0  0
 54 55  2  0  0  0
 54123  1  0  0  0
 55 57  1  0  0  0
 55124  1  0  0  0
 56 69  2  0  0  0
 57 58  2  0  0  0
 57125  1  0  0  0
 58126  1  0  0  0
 59 60  1  0  0  0
 59 61  1  0  0  0
 59 62  1  0  0  0
 60127  1  0  0  0
 60128  1  0  0  0
 60129  1  0  0  0
 61130  1  0  0  0
 61131  1  0  0  0
 61132  1  0  0  0
 62133  1  0  0  0
 62134  1  0  0  0
 62135  1  0  0  0
 63 65  1  0  0  0
 63136  1  0  0  0
 63137  1  0  0  0
 63138  1  0  0  0
 64139  1  0  0  0
 65140  1  0  0  0
 68 80  1  0  0  0
 71 72  1  0  0  0
 71 74  1  0  0  0
 71141  1  0  0  0
 71142  1  0  0  0
 72 75  1  0  0  0
 72143  1  0  0  0
 72144  1  0  0  0
 73 74  1  0  0  0
 73 76  1  0  0  0
 73145  1  0  0  0
 73146  1  0  0  0
 74 78  1  0  0  0
 74147  1  0  0  0
 75 76  1  0  0  0
 75 79  1  0  0  0
 75148  1  0  0  0
 76 77  1  0  0  0
 76149  1  0  0  0
 77150  1  0  0  0
 77151  1  0  0  0
 77152  1  0  0  0
 78 80  1  0  0  0
 78153  1  0  0  0
 78154  1  0  0  0
 79 81  1  0  0  0
 79155  1  0  0  0
 79156  1  0  0  0
 80157  1  0  0  0
 80158  1  0  0  0
 81159  1  0  0  0
M  ISO  4   1 100  68 101  80 101  81 100
M  END
> <chiral flag>
0

> <version>
0

> <s_m_source_file>
/data/baiqing/PycharmProjects/Reinvent-master-3.2/result/LINK_invent/BTK/process_docking_weight1_custom_sum_contain_oxygen_bond_distance_aromatic_linkinvent_7_9_3/rearranged_h_0033.sdf

> <i_m_source_file_index>
72

> <r_mmod_Potential_Energy-OPLS-2005>
416.151458740234

> <r_mmod_Stretch_Energy-OPLS-2005>
176.260299682617

> <r_mmod_Bend_Energy-OPLS-2005>
279.227813720703

> <r_mmod_Torsional_Energy-OPLS-2005>
276.159698486328

> <r_mmod_Improper_Torsional_Energy-OPLS-2005>
6.63676118850708

> <r_mmod_Van_der_Waal_Energy-OPLS-2005>
122.497665405273

> <r_mmod_Electrostatic_Energy-OPLS-2005>
-369.095672607422

> <r_mmod_Solvation_Energy-OPLS-2005>
-198.885437011719

> <b_mmod_Minimization_Converged-OPLS-2005>
0

> <r_mmod_RMS_Derivative-OPLS-2005>
3.29945826530457

$$$$
73
                    3D
 Structure written by MMmdl.
201209  0  0  1  0            999 V2000
  -30.8837  -14.2162   20.8521 C   0  0  0  0  0  0
  -30.4086  -12.2872   19.3881 C   0  0  0  0  0  0
  -29.4717  -12.5462   18.1975 C   0  0  0  0  0  0
  -28.0055  -12.3689   18.6136 C   0  0  0  0  0  0
  -27.6696  -13.2007   19.8723 C   0  0  2  0  0  0
  -28.7006  -12.9577   21.0060 C   0  0  0  0  0  0
  -25.2396  -13.8025   20.5121 C   0  0  0  0  0  0
  -24.1755  -13.0349   20.9141 C   0  0  0  0  0  0
  -24.6434  -11.6902   20.8811 C   0  0  0  0  0  0
  -23.9141  -10.4235   21.0372 C   0  0  0  0  0  0
  -24.3688   -9.4176   21.9164 C   0  0  0  0  0  0
  -23.6335   -8.2240   22.0789 C   0  0  0  0  0  0
  -22.4291   -8.0306   21.3593 C   0  0  0  0  0  0
  -21.9910   -9.0243   20.4673 C   0  0  0  0  0  0
  -22.7281  -10.2100   20.3036 C   0  0  0  0  0  0
  -21.6865   -6.0762   22.5290 C   0  0  0  0  0  0
  -21.3996   -6.5650   23.8234 C   0  0  0  0  0  0
  -21.3644   -5.6798   24.9171 C   0  0  0  0  0  0
  -21.6024   -4.3059   24.7214 C   0  0  0  0  0  0
  -21.8825   -3.8171   23.4310 C   0  0  0  0  0  0
  -21.9194   -4.6996   22.3386 C   0  0  0  0  0  0
  -22.7738  -13.5159   21.1787 C   0  0  0  0  0  0
  -22.1671   -4.2168   21.0959 F   0  0  0  0  0  0
  -21.5613   -3.4540   25.7718 F   0  0  0  0  0  0
  -30.0707  -13.1824   20.5081 N   0  0  0  0  0  0
  -26.3028  -12.9289   20.3286 N   0  0  0  0  0  0
  -25.9383  -11.6508   20.5906 N   0  0  0  0  0  0
  -22.0333  -12.8274   22.0464 N   0  0  0  0  0  0
  -25.3680  -15.1552   20.2418 N   0  0  0  0  0  0
  -31.7155  -14.7073   20.0815 O   0  0  0  0  0  0
  -21.6656   -6.8905   21.4277 O   0  0  0  0  0  0
  -22.3389  -14.5381   20.6546 O   0  0  0  0  0  0
  -24.6111  -31.8723   23.2165 C   0  0  0  0  0  0
  -25.9013  -32.4838   23.8466 C   0  0  1  0  0  0
  -27.2569  -27.4779   20.0969 C   0  0  0  0  0  0
  -25.5929  -33.8643   24.2399 N   0  0  0  0  0  0
  -23.4040  -30.4849   21.5550 C   0  0  2  0  0  0
  -24.8521  -28.9611   20.1240 C   0  0  0  0  0  0
  -22.7480  -29.4549   22.4983 C   0  0  0  0  0  0
  -18.0307  -28.1415   22.8472 C   0  0  0  0  0  0
  -24.1467  -36.7292   23.2650 C   0  0  0  0  0  0
  -25.9241  -30.8514   21.3614 C   0  0  0  0  0  0
  -26.0046  -29.4811   20.7245 C   0  0  0  0  0  0
  -27.2116  -28.7491   20.7136 C   0  0  0  0  0  0
  -26.0877  -26.9630   19.5033 C   0  0  0  0  0  0
  -24.8846  -27.6945   19.5172 C   0  0  0  0  0  0
  -23.6147  -29.8288   20.1652 C   0  0  0  0  0  0
  -25.4091  -36.3078   24.0345 C   0  0  1  0  0  0
  -20.5916  -28.3708   23.1377 C   0  0  2  0  0  0
  -20.6779  -26.9355   22.5685 C   0  0  0  0  0  0
  -19.5775  -26.6216   21.5473 C   0  0  0  0  0  0
  -18.1933  -26.7898   22.1760 C   0  0  0  0  0  0
  -19.1571  -28.8887   23.2871 C   0  0  0  0  0  0
  -18.9463  -30.1501   23.8852 C   0  0  0  0  0  0
  -17.6437  -30.6603   24.0526 C   0  0  0  0  0  0
  -25.9044  -34.9458   23.5154 C   0  0  0  0  0  0
  -16.5345  -29.9087   23.6265 C   0  0  0  0  0  0
  -16.7287  -28.6514   23.0263 C   0  0  0  0  0  0
  -26.4543  -31.6596   25.0738 C   0  0  0  0  0  0
  -25.3909  -31.3643   26.1536 C   0  0  0  0  0  0
  -27.0343  -30.3016   24.6064 C   0  0  0  0  0  0
  -27.6097  -32.4332   25.7546 C   0  0  0  0  0  0
  -27.5556  -37.1803   24.8469 C   0  0  0  0  0  0
  -21.4192  -29.3000   22.3743 N   0  0  0  0  0  0
  -26.4256  -37.3762   23.9438 N   0  0  0  0  0  0
  -24.6631  -31.0866   22.1056 N   0  0  0  0  0  0
  -23.4266  -28.8087   23.3002 O   0  0  0  0  0  0
  -28.3969  -26.7098   20.0405 O   0  0  0  0  0  0
  -26.5526  -34.8862   22.4672 O   0  0  0  0  0  0
  -23.5286  -32.1437   23.7619 O   0  0  0  0  0  0
  -27.5687  -22.4645   23.1115 C   0  0  0  0  0  0
  -26.0491  -21.2619   21.0960 C   0  0  0  0  0  0
  -27.4259  -21.0571   23.1021 C   0  0  0  0  0  0
  -26.1579  -22.6601   21.1271 C   0  0  0  0  0  0
  -26.9821  -23.2711   22.1096 C   0  0  0  0  0  0
  -26.7072  -20.4532   22.0382 C   0  0  0  0  0  0
  -28.0647  -20.2373   24.2246 C   0  0  0  0  0  0
  -25.3676  -23.4159   20.0752 C   0  0  0  0  0  0
  -27.3022  -24.7612   22.1122 C   0  0  0  0  0  0
  -26.6244  -18.9491   21.8352 C   0  0  0  0  0  0
  -28.7932  -25.0499   21.8233 C   0  0  0  0  0  0
  -26.7478  -15.4078   29.2217 C   0  0  0  0  0  0
  -28.0024  -14.7803   28.5548 C   0  0  0  0  0  0
  -26.7075  -16.9553   29.1615 C   0  0  0  0  0  0
  -27.7339  -13.5844   27.5993 C   0  0  0  0  0  0
  -25.9363  -17.4941   27.9444 C   0  0  0  0  0  0
  -28.9106  -13.2722   26.6358 C   0  0  0  0  0  0
  -26.6253  -17.1653   26.6196 C   0  0  0  0  0  0
  -28.8985  -14.1029   25.3301 C   0  0  0  0  0  0
  -25.7320  -17.3927   25.4043 C   0  0  0  0  0  0
  -30.0358  -13.7216   24.3456 C   0  0  0  0  0  0
  -26.3851  -16.7790   24.1587 C   0  0  0  0  0  0
  -30.2785  -14.7853   23.2464 C   0  0  0  0  0  0
  -25.5934  -16.9699   22.8640 C   0  0  0  0  0  0
  -29.0659  -26.4767   21.2856 C   0  0  0  0  0  0
  -31.1467  -14.2916   22.1701 N   0  0  0  0  0  0
  -25.4366  -18.3920   22.4961 N   0  3  0  0  0  0
  -31.4439  -12.4159   19.0718 H   0  0  0  0  0  0
  -30.3270  -11.2428   19.6967 H   0  0  0  0  0  0
  -29.7170  -11.8784   17.3697 H   0  0  0  0  0  0
  -29.6266  -13.5548   17.8217 H   0  0  0  0  0  0
  -27.8255  -11.3083   18.7951 H   0  0  0  0  0  0
  -27.3432  -12.6457   17.7932 H   0  0  0  0  0  0
  -27.7243  -14.2508   19.5800 H   0  0  0  0  0  0
  -28.6184  -11.9299   21.3708 H   0  0  0  0  0  0
  -28.4371  -13.5893   21.8513 H   0  0  0  0  0  0
  -25.2796   -9.5667   22.4808 H   0  0  0  0  0  0
  -23.9971   -7.4659   22.7570 H   0  0  0  0  0  0
  -21.0805   -8.8805   19.9040 H   0  0  0  0  0  0
  -22.3689  -10.9645   19.6198 H   0  0  0  0  0  0
  -21.2005   -7.6160   23.9724 H   0  0  0  0  0  0
  -21.1450   -6.0521   25.9076 H   0  0  0  0  0  0
  -22.0620   -2.7635   23.2790 H   0  0  0  0  0  0
  -22.3769  -11.9917   22.4931 H   0  0  0  0  0  0
  -21.0976  -13.1430   22.2653 H   0  0  0  0  0  0
  -24.4995  -15.6252   20.0125 H   0  0  0  0  0  0
  -26.1242  -15.4512   19.6377 H   0  0  0  0  0  0
  -26.7094  -32.5551   23.1257 H   0  0  0  0  0  0
  -25.0078  -33.9904   25.0526 H   0  0  0  0  0  0
  -22.6800  -31.2930   21.4302 H   0  0  0  0  0  0
  -23.3668  -35.9675   23.3281 H   0  0  0  0  0  0
  -24.3591  -36.8913   22.2078 H   0  0  0  0  0  0
  -23.7289  -37.6531   23.6653 H   0  0  0  0  0  0
  -26.0304  -31.6050   20.5797 H   0  0  0  0  0  0
  -26.8169  -30.9273   21.9689 H   0  0  0  0  0  0
  -28.1014  -29.1774   21.1559 H   0  0  0  0  0  0
  -26.1027  -25.9802   19.0573 H   0  0  0  0  0  0
  -23.9981  -27.2817   19.0521 H   0  0  0  0  0  0
  -23.7312  -30.6121   19.4130 H   0  0  0  0  0  0
  -22.7367  -29.2592   19.8605 H   0  0  0  0  0  0
  -25.1269  -36.1933   25.0834 H   0  0  0  0  0  0
  -21.0012  -28.3448   24.1510 H   0  0  0  0  0  0
  -20.5660  -26.2378   23.4004 H   0  0  0  0  0  0
  -21.6666  -26.7285   22.1595 H   0  0  0  0  0  0
  -19.6876  -25.6048   21.1723 H   0  0  0  0  0  0
  -19.6785  -27.2853   20.6898 H   0  0  0  0  0  0
  -17.4264  -26.6577   21.4121 H   0  0  0  0  0  0
  -18.0126  -26.0213   22.9306 H   0  0  0  0  0  0
  -19.7917  -30.7365   24.2203 H   0  0  0  0  0  0
  -17.4965  -31.6270   24.5152 H   0  0  0  0  0  0
  -15.5333  -30.2950   23.7606 H   0  0  0  0  0  0
  -15.8714  -28.0819   22.6928 H   0  0  0  0  0  0
  -24.6094  -30.6990   25.7859 H   0  0  0  0  0  0
  -24.9142  -32.2813   26.4995 H   0  0  0  0  0  0
  -25.8404  -30.8802   27.0240 H   0  0  0  0  0  0
  -26.2847  -29.6786   24.1173 H   0  0  0  0  0  0
  -27.4152  -29.7228   25.4494 H   0  0  0  0  0  0
  -27.8651  -30.4210   23.9108 H   0  0  0  0  0  0
  -27.2650  -33.3591   26.2141 H   0  0  0  0  0  0
  -28.3955  -32.7012   25.0480 H   0  0  0  0  0  0
  -28.0714  -31.8477   26.5504 H   0  0  0  0  0  0
  -28.2568  -38.0085   24.7494 H   0  0  0  0  0  0
  -28.1081  -36.2659   24.6308 H   0  0  0  0  0  0
  -27.2311  -37.1441   25.8874 H   0  0  0  0  0  0
  -20.9394  -29.8752   21.6981 H   0  0  0  0  0  0
  -26.0087  -38.2804   24.1482 H   0  0  0  0  0  0
  -28.1561  -22.9483   23.8839 H   0  0  0  0  0  0
  -25.4582  -20.7949   20.3189 H   0  0  0  0  0  0
  -28.7979  -20.8258   24.7740 H   0  0  0  0  0  0
  -28.5907  -19.3550   23.8683 H   0  0  0  0  0  0
  -27.3260  -19.8982   24.9485 H   0  0  0  0  0  0
  -24.4261  -22.8896   19.9120 H   0  0  0  0  0  0
  -25.9082  -23.4281   19.1260 H   0  0  0  0  0  0
  -25.0954  -24.4284   20.3644 H   0  0  0  0  0  0
  -27.0032  -25.1957   23.0656 H   0  0  0  0  0  0
  -26.7078  -25.2836   21.3729 H   0  0  0  0  0  0
  -27.5480  -18.4689   22.1614 H   0  0  0  0  0  0
  -26.5391  -18.7174   20.7716 H   0  0  0  0  0  0
  -29.1919  -24.3024   21.1282 H   0  0  0  0  0  0
  -29.3607  -24.9175   22.7462 H   0  0  0  0  0  0
  -26.7118  -15.1003   30.2697 H   0  0  0  0  0  0
  -25.8330  -15.0176   28.7685 H   0  0  0  0  0  0
  -28.7010  -14.4738   29.3363 H   0  0  0  0  0  0
  -28.5374  -15.5556   28.0028 H   0  0  0  0  0  0
  -27.7157  -17.3713   29.1955 H   0  0  0  0  0  0
  -26.2136  -17.3483   30.0528 H   0  0  0  0  0  0
  -26.8340  -13.7548   27.0078 H   0  0  0  0  0  0
  -27.5062  -12.6962   28.1936 H   0  0  0  0  0  0
  -25.8381  -18.5774   28.0168 H   0  0  0  0  0  0
  -24.9215  -17.0922   27.9543 H   0  0  0  0  0  0
  -28.8841  -12.2095   26.3781 H   0  0  0  0  0  0
  -29.8648  -13.4173   27.1474 H   0  0  0  0  0  0
  -26.9144  -16.1171   26.6129 H   0  0  0  0  0  0
  -27.5377  -17.7587   26.5314 H   0  0  0  0  0  0
  -28.9452  -15.1664   25.5708 H   0  0  0  0  0  0
  -27.9480  -13.9614   24.8162 H   0  0  0  0  0  0
  -25.5499  -18.4609   25.2717 H   0  0  0  0  0  0
  -24.7687  -16.9133   25.5773 H   0  0  0  0  0  0
  -29.8083  -12.7583   23.8837 H   0  0  0  0  0  0
  -30.9622  -13.5583   24.9003 H   0  0  0  0  0  0
  -26.5165  -15.7080   24.3144 H   0  0  0  0  0  0
  -27.3928  -17.1819   24.0467 H   0  0  0  0  0  0
  -30.8022  -15.6184   23.7095 H   0  0  0  0  0  0
  -29.3497  -15.2139   22.8615 H   0  0  0  0  0  0
  -24.6210  -16.4800   22.9284 H   0  0  0  0  0  0
  -26.1481  -16.4666   22.0780 H   0  0  0  0  0  0
  -28.8149  -27.2040   22.0559 H   0  0  0  0  0  0
  -30.1352  -26.6085   21.1281 H   0  0  0  0  0  0
  -32.1126  -14.5500   22.3283 H   0  0  0  0  0  0
  -24.6732  -18.4860   21.8412 H   0  0  0  0  0  0
  -25.2170  -18.9488   23.3064 H   0  0  0  0  0  0
  1 25  1  0  0  0
  1 30  2  0  0  0
  1 96  1  0  0  0
  2  3  1  0  0  0
  2 25  1  0  0  0
  2 98  1  0  0  0
  2 99  1  0  0  0
  3  4  1  0  0  0
  3100  1  0  0  0
  3101  1  0  0  0
  4  5  1  0  0  0
  4102  1  0  0  0
  4103  1  0  0  0
  5  6  1  0  0  0
  5 26  1  0  0  0
  5104  1  0  0  0
  6 25  1  0  0  0
  6105  1  0  0  0
  6106  1  0  0  0
  7  8  2  0  0  0
  7 26  1  0  0  0
  7 29  1  0  0  0
  8  9  1  0  0  0
  8 22  1  0  0  0
  9 10  1  0  0  0
  9 27  2  0  0  0
 10 11  2  0  0  0
 10 15  1  0  0  0
 11 12  1  0  0  0
 11107  1  0  0  0
 12 13  2  0  0  0
 12108  1  0  0  0
 13 14  1  0  0  0
 13 31  1  0  0  0
 14 15  2  0  0  0
 14109  1  0  0  0
 15110  1  0  0  0
 16 17  2  0  0  0
 16 21  1  0  0  0
 16 31  1  0  0  0
 17 18  1  0  0  0
 17111  1  0  0  0
 18 19  2  0  0  0
 18112  1  0  0  0
 19 20  1  0  0  0
 19 24  1  0  0  0
 20 21  2  0  0  0
 20113  1  0  0  0
 21 23  1  0  0  0
 22 28  1  0  0  0
 22 32  2  0  0  0
 26 27  1  0  0  0
 28114  1  0  0  0
 28115  1  0  0  0
 29116  1  0  0  0
 29117  1  0  0  0
 33 34  1  0  0  0
 33 66  1  0  0  0
 33 70  2  0  0  0
 34 36  1  0  0  0
 34 59  1  0  0  0
 34118  1  0  0  0
 35 44  2  0  0  0
 35 45  1  0  0  0
 35 68  1  0  0  0
 36 56  1  0  0  0
 36119  1  0  0  0
 37 39  1  0  0  0
 37 47  1  0  0  0
 37 66  1  0  0  0
 37120  1  0  0  0
 38 43  2  0  0  0
 38 46  1  0  0  0
 38 47  1  0  0  0
 39 64  1  0  0  0
 39 67  2  0  0  0
 40 52  1  0  0  0
 40 53  2  0  0  0
 40 58  1  0  0  0
 41121  1  0  0  0
 41122  1  0  0  0
 41123  1  0  0  0
 41 48  1  0  0  0
 42 43  1  0  0  0
 42 66  1  0  0  0
 42124  1  0  0  0
 42125  1  0  0  0
 43 44  1  0  0  0
 44126  1  0  0  0
 45 46  2  0  0  0
 45127  1  0  0  0
 46128  1  0  0  0
 47129  1  0  0  0
 47130  1  0  0  0
 48 56  1  0  0  0
 48 65  1  0  0  0
 48131  1  0  0  0
 49 50  1  0  0  0
 49 53  1  0  0  0
 49 64  1  0  0  0
 49132  1  0  0  0
 50 51  1  0  0  0
 50133  1  0  0  0
 50134  1  0  0  0
 51 52  1  0  0  0
 51135  1  0  0  0
 51136  1  0  0  0
 52137  1  0  0  0
 52138  1  0  0  0
 53 54  1  0  0  0
 54 55  2  0  0  0
 54139  1  0  0  0
 55 57  1  0  0  0
 55140  1  0  0  0
 56 69  2  0  0  0
 57 58  2  0  0  0
 57141  1  0  0  0
 58142  1  0  0  0
 59 60  1  0  0  0
 59 61  1  0  0  0
 59 62  1  0  0  0
 60143  1  0  0  0
 60144  1  0  0  0
 60145  1  0  0  0
 61146  1  0  0  0
 61147  1  0  0  0
 61148  1  0  0  0
 62149  1  0  0  0
 62150  1  0  0  0
 62151  1  0  0  0
 63 65  1  0  0  0
 63152  1  0  0  0
 63153  1  0  0  0
 63154  1  0  0  0
 64155  1  0  0  0
 65156  1  0  0  0
 68 95  1  0  0  0
 71 73  2  0  0  0
 71 75  1  0  0  0
 71157  1  0  0  0
 72 74  1  0  0  0
 72 76  2  0  0  0
 72158  1  0  0  0
 73 76  1  0  0  0
 73 77  1  0  0  0
 74 75  2  0  0  0
 74 78  1  0  0  0
 75 79  1  0  0  0
 76 80  1  0  0  0
 77159  1  0  0  0
 77160  1  0  0  0
 77161  1  0  0  0
 78162  1  0  0  0
 78163  1  0  0  0
 78164  1  0  0  0
 79 81  1  0  0  0
 79165  1  0  0  0
 79166  1  0  0  0
 80 97  1  0  0  0
 80167  1  0  0  0
 80168  1  0  0  0
 81 95  1  0  0  0
 81169  1  0  0  0
 81170  1  0  0  0
 82 83  1  0  0  0
 82 84  1  0  0  0
 82171  1  0  0  0
 82172  1  0  0  0
 83 85  1  0  0  0
 83173  1  0  0  0
 83174  1  0  0  0
 84 86  1  0  0  0
 84175  1  0  0  0
 84176  1  0  0  0
 85 87  1  0  0  0
 85177  1  0  0  0
 85178  1  0  0  0
 86 88  1  0  0  0
 86179  1  0  0  0
 86180  1  0  0  0
 87 89  1  0  0  0
 87181  1  0  0  0
 87182  1  0  0  0
 88 90  1  0  0  0
 88183  1  0  0  0
 88184  1  0  0  0
 89 91  1  0  0  0
 89185  1  0  0  0
 89186  1  0  0  0
 90 92  1  0  0  0
 90187  1  0  0  0
 90188  1  0  0  0
 91 93  1  0  0  0
 91189  1  0  0  0
 91190  1  0  0  0
 92 94  1  0  0  0
 92191  1  0  0  0
 92192  1  0  0  0
 93 96  1  0  0  0
 93193  1  0  0  0
 93194  1  0  0  0
 94 97  1  0  0  0
 94195  1  0  0  0
 94196  1  0  0  0
 95197  1  0  0  0
 95198  1  0  0  0
 96199  1  0  0  0
 97200  1  0  0  0
 97201  1  0  0  0
M  CHG  1  97   1
M  ISO  4   1 100  68 101  95 101  96 100
M  END
> <chiral flag>
0

> <version>
0

> <s_m_source_file>
/data/baiqing/PycharmProjects/Reinvent-master-3.2/result/LINK_invent/BTK/process_docking_weight1_custom_sum_contain_oxygen_bond_distance_aromatic_linkinvent_7_9_3/rearranged_h_0033.sdf

> <i_m_source_file_index>
73

> <r_mmod_Potential_Energy-OPLS-2005>
-121.196044921875

> <r_mmod_Stretch_Energy-OPLS-2005>
39.2638473510742

> <r_mmod_Bend_Energy-OPLS-2005>
114.394950866699

> <r_mmod_Torsional_Energy-OPLS-2005>
329.436370849609

> <r_mmod_Improper_Torsional_Energy-OPLS-2005>
25.5456657409668

> <r_mmod_Van_der_Waal_Energy-OPLS-2005>
134.731811523438

> <r_mmod_Electrostatic_Energy-OPLS-2005>
-360.192932128906

> <r_mmod_Solvation_Energy-OPLS-2005>
-422.445495605469

> <b_mmod_Minimization_Converged-OPLS-2005>
0

> <r_mmod_RMS_Derivative-OPLS-2005>
10.060941696167

$$$$
74
                    3D
 Structure written by MMmdl.
166174  0  0  1  0            999 V2000
  -30.7084  -14.4410   20.5724 C   0  0  0  0  0  0
  -30.4187  -12.2926   19.4091 C   0  0  0  0  0  0
  -29.4884  -12.5147   18.2004 C   0  0  0  0  0  0
  -28.0073  -12.3895   18.6110 C   0  0  0  0  0  0
  -27.6645  -13.2087   19.8847 C   0  0  2  0  0  0
  -28.7073  -12.9695   21.0013 C   0  0  0  0  0  0
  -25.2602  -13.8188   20.5725 C   0  0  0  0  0  0
  -24.1837  -13.0446   20.9199 C   0  0  0  0  0  0
  -24.6397  -11.6930   20.8730 C   0  0  0  0  0  0
  -23.9055  -10.4308   21.0371 C   0  0  0  0  0  0
  -24.3617   -9.4232   21.9136 C   0  0  0  0  0  0
  -23.6327   -8.2250   22.0722 C   0  0  0  0  0  0
  -22.4293   -8.0292   21.3533 C   0  0  0  0  0  0
  -21.9918   -9.0247   20.4611 C   0  0  0  0  0  0
  -22.7228  -10.2136   20.3032 C   0  0  0  0  0  0
  -21.6868   -6.0768   22.5297 C   0  0  0  0  0  0
  -21.4000   -6.5671   23.8225 C   0  0  0  0  0  0
  -21.3641   -5.6815   24.9189 C   0  0  0  0  0  0
  -21.6033   -4.3064   24.7233 C   0  0  0  0  0  0
  -21.8811   -3.8168   23.4349 C   0  0  0  0  0  0
  -21.9180   -4.6985   22.3403 C   0  0  0  0  0  0
  -22.7863  -13.5250   21.1878 C   0  0  0  0  0  0
  -22.1670   -4.2186   21.0973 F   0  0  0  0  0  0
  -21.5626   -3.4530   25.7730 F   0  0  0  0  0  0
  -30.0377  -13.2670   20.4405 N   0  0  0  0  0  0
  -26.3047  -12.9358   20.3460 N   0  0  0  0  0  0
  -25.9343  -11.6514   20.5823 N   0  0  0  0  0  0
  -22.0507  -12.8203   22.0408 N   0  0  0  0  0  0
  -25.4333  -15.1904   20.4159 N   0  0  0  0  0  0
  -31.8261  -14.6363   20.0880 O   0  0  0  0  0  0
  -21.6649   -6.8908   21.4260 O   0  0  0  0  0  0
  -22.3528  -14.5540   20.6733 O   0  0  0  0  0  0
  -24.6110  -31.8696   23.2079 C   0  0  0  0  0  0
  -25.9007  -32.4842   23.8382 C   0  0  1  0  0  0
  -27.2389  -27.4442   20.1067 C   0  0  0  0  0  0
  -25.5873  -33.8635   24.2330 N   0  0  0  0  0  0
  -23.3987  -30.4906   21.5489 C   0  0  2  0  0  0
  -24.8451  -28.9537   20.1154 C   0  0  0  0  0  0
  -22.7389  -29.4667   22.4992 C   0  0  0  0  0  0
  -18.0272  -28.1379   22.8476 C   0  0  0  0  0  0
  -24.1486  -36.7325   23.2642 C   0  0  0  0  0  0
  -25.9230  -30.8397   21.3572 C   0  0  0  0  0  0
  -26.0007  -29.4728   20.7101 C   0  0  0  0  0  0
  -27.1954  -28.7232   20.7030 C   0  0  0  0  0  0
  -26.0677  -26.9424   19.4887 C   0  0  0  0  0  0
  -24.8734  -27.6890   19.5020 C   0  0  0  0  0  0
  -23.6054  -29.8165   20.1652 C   0  0  0  0  0  0
  -25.4107  -36.3131   24.0345 C   0  0  1  0  0  0
  -20.5854  -28.3668   23.1320 C   0  0  2  0  0  0
  -20.6762  -26.9412   22.5419 C   0  0  0  0  0  0
  -19.5753  -26.6389   21.5205 C   0  0  0  0  0  0
  -18.1923  -26.7923   22.1605 C   0  0  0  0  0  0
  -19.1513  -28.8838   23.2901 C   0  0  0  0  0  0
  -18.9446  -30.1435   23.8925 C   0  0  0  0  0  0
  -17.6452  -30.6590   24.0558 C   0  0  0  0  0  0
  -25.9027  -34.9490   23.5140 C   0  0  0  0  0  0
  -16.5346  -29.9088   23.6323 C   0  0  0  0  0  0
  -16.7261  -28.6502   23.0351 C   0  0  0  0  0  0
  -26.4452  -31.6611   25.0697 C   0  0  0  0  0  0
  -25.3731  -31.3692   26.1457 C   0  0  0  0  0  0
  -27.0294  -30.3070   24.6048 C   0  0  0  0  0  0
  -27.6046  -32.4328   25.7444 C   0  0  0  0  0  0
  -27.5596  -37.1808   24.8460 C   0  0  0  0  0  0
  -21.4120  -29.3032   22.3735 N   0  0  0  0  0  0
  -26.4302  -37.3812   23.9412 N   0  0  0  0  0  0
  -24.6627  -31.0809   22.0976 N   0  0  0  0  0  0
  -23.4158  -28.8236   23.3044 O   0  0  0  0  0  0
  -28.4318  -26.7561   20.1783 O   0  0  0  0  0  0
  -26.5610  -34.8939   22.4713 O   0  0  0  0  0  0
  -23.5307  -32.1437   23.7494 O   0  0  0  0  0  0
  -30.1349  -25.9947   16.6804 C   0  0  0  0  0  0
  -29.2695  -23.7750   17.9526 C   0  0  0  0  0  0
  -29.9402  -23.7200   16.7097 C   0  0  0  0  0  0
  -29.1124  -25.0714   18.5059 C   0  0  0  0  0  0
  -29.1611  -22.2310   14.8210 C   0  0  0  0  0  0
  -28.6848  -22.5115   18.5991 C   0  0  0  0  0  0
  -30.1937  -22.4371   15.9353 C   0  0  0  0  0  0
  -28.4927  -25.3530   19.8741 C   0  0  0  0  0  0
  -29.6943  -21.6094   19.3530 C   0  0  0  0  0  0
  -29.2065  -20.1406   19.4243 C   0  0  0  0  0  0
  -30.0602  -19.2240   20.3276 C   0  0  0  0  0  0
  -29.5981  -17.7478   20.3032 C   0  0  0  0  0  0
  -30.4281  -16.8391   21.2367 C   0  0  0  0  0  0
  -30.3656  -24.8337   16.0892 N   0  0  0  0  0  0
  -29.5522  -26.1644   17.8519 N   0  0  0  0  0  0
  -30.0132  -15.4362   21.1461 N   0  0  0  0  0  0
  -31.4655  -12.3876   19.1077 H   0  0  0  0  0  0
  -30.3106  -11.2766   19.7920 H   0  0  0  0  0  0
  -29.7168  -11.7992   17.4099 H   0  0  0  0  0  0
  -29.6686  -13.5066   17.7801 H   0  0  0  0  0  0
  -27.7928  -11.3329   18.7753 H   0  0  0  0  0  0
  -27.3668  -12.7005   17.7842 H   0  0  0  0  0  0
  -27.7181  -14.2629   19.6078 H   0  0  0  0  0  0
  -28.6787  -11.9301   21.3369 H   0  0  0  0  0  0
  -28.4746  -13.5640   21.8862 H   0  0  0  0  0  0
  -25.2750   -9.5739   22.4717 H   0  0  0  0  0  0
  -24.0037   -7.4639   22.7451 H   0  0  0  0  0  0
  -21.0839   -8.8761   19.8932 H   0  0  0  0  0  0
  -22.3662  -10.9676   19.6152 H   0  0  0  0  0  0
  -21.2005   -7.6183   23.9750 H   0  0  0  0  0  0
  -21.1474   -6.0546   25.9101 H   0  0  0  0  0  0
  -22.0596   -2.7641   23.2837 H   0  0  0  0  0  0
  -22.4165  -11.9897   22.4807 H   0  0  0  0  0  0
  -21.1119  -13.1204   22.2625 H   0  0  0  0  0  0
  -24.6587  -15.8399   20.5220 H   0  0  0  0  0  0
  -26.2900  -15.6378   20.1150 H   0  0  0  0  0  0
  -26.7079  -32.5564   23.1155 H   0  0  0  0  0  0
  -24.9997  -33.9797   25.0456 H   0  0  0  0  0  0
  -22.6865  -31.3055   21.4080 H   0  0  0  0  0  0
  -23.3759  -35.9650   23.3300 H   0  0  0  0  0  0
  -24.3583  -36.8936   22.2056 H   0  0  0  0  0  0
  -23.7213  -37.6520   23.6650 H   0  0  0  0  0  0
  -26.0280  -31.6012   20.5827 H   0  0  0  0  0  0
  -26.8137  -30.9010   21.9704 H   0  0  0  0  0  0
  -28.0861  -29.1191   21.1713 H   0  0  0  0  0  0
  -26.0525  -25.9848   18.9887 H   0  0  0  0  0  0
  -23.9846  -27.2822   19.0389 H   0  0  0  0  0  0
  -23.7089  -30.5863   19.3999 H   0  0  0  0  0  0
  -22.7306  -29.2303   19.8780 H   0  0  0  0  0  0
  -25.1283  -36.2014   25.0841 H   0  0  0  0  0  0
  -20.9944  -28.3231   24.1436 H   0  0  0  0  0  0
  -20.5653  -26.2281   23.3600 H   0  0  0  0  0  0
  -21.6636  -26.7452   22.1223 H   0  0  0  0  0  0
  -19.6920  -25.6300   21.1230 H   0  0  0  0  0  0
  -19.6699  -27.3195   20.6729 H   0  0  0  0  0  0
  -17.4202  -26.6673   21.3998 H   0  0  0  0  0  0
  -18.0329  -26.0061   22.8996 H   0  0  0  0  0  0
  -19.7929  -30.7241   24.2301 H   0  0  0  0  0  0
  -17.5016  -31.6268   24.5172 H   0  0  0  0  0  0
  -15.5346  -30.3009   23.7635 H   0  0  0  0  0  0
  -15.8656  -28.0835   22.7053 H   0  0  0  0  0  0
  -24.5862  -30.7109   25.7752 H   0  0  0  0  0  0
  -24.8975  -32.2844   26.4995 H   0  0  0  0  0  0
  -25.8074  -30.8755   27.0161 H   0  0  0  0  0  0
  -26.2820  -29.6806   24.1164 H   0  0  0  0  0  0
  -27.4157  -29.7333   25.4483 H   0  0  0  0  0  0
  -27.8609  -30.4421   23.9128 H   0  0  0  0  0  0
  -27.2677  -33.3597   26.2106 H   0  0  0  0  0  0
  -28.3791  -32.6946   25.0219 H   0  0  0  0  0  0
  -28.0803  -31.8408   26.5279 H   0  0  0  0  0  0
  -28.2613  -38.0113   24.7556 H   0  0  0  0  0  0
  -28.1099  -36.2652   24.6234 H   0  0  0  0  0  0
  -27.2326  -37.1394   25.8867 H   0  0  0  0  0  0
  -20.9292  -29.8741   21.6947 H   0  0  0  0  0  0
  -26.0206  -38.2899   24.1414 H   0  0  0  0  0  0
  -30.4659  -26.8847   16.1669 H   0  0  0  0  0  0
  -29.3923  -21.3375   14.2407 H   0  0  0  0  0  0
  -29.1578  -23.0793   14.1355 H   0  0  0  0  0  0
  -28.1563  -22.1248   15.2304 H   0  0  0  0  0  0
  -28.2081  -21.9383   17.8015 H   0  0  0  0  0  0
  -27.8614  -22.7619   19.2680 H   0  0  0  0  0  0
  -30.2134  -21.5697   16.5917 H   0  0  0  0  0  0
  -31.1923  -22.4929   15.5011 H   0  0  0  0  0  0
  -29.1508  -24.9022   20.6172 H   0  0  0  0  0  0
  -27.5387  -24.8436   20.0015 H   0  0  0  0  0  0
  -29.8616  -22.0129   20.3521 H   0  0  0  0  0  0
  -30.6686  -21.6233   18.8611 H   0  0  0  0  0  0
  -29.1884  -19.7301   18.4122 H   0  0  0  0  0  0
  -28.1717  -20.1168   19.7761 H   0  0  0  0  0  0
  -30.0225  -19.5945   21.3544 H   0  0  0  0  0  0
  -31.1058  -19.2822   20.0179 H   0  0  0  0  0  0
  -29.6674  -17.3740   19.2801 H   0  0  0  0  0  0
  -28.5425  -17.6850   20.5775 H   0  0  0  0  0  0
  -30.3029  -17.1613   22.2723 H   0  0  0  0  0  0
  -31.4924  -16.9518   21.0117 H   0  0  0  0  0  0
  -29.0954  -15.1975   21.4900 H   0  0  0  0  0  0
  1 25  1  0  0  0
  1 30  2  0  0  0
  1 86  1  0  0  0
  2  3  1  0  0  0
  2 25  1  0  0  0
  2 87  1  0  0  0
  2 88  1  0  0  0
  3  4  1  0  0  0
  3 89  1  0  0  0
  3 90  1  0  0  0
  4  5  1  0  0  0
  4 91  1  0  0  0
  4 92  1  0  0  0
  5  6  1  0  0  0
  5 26  1  0  0  0
  5 93  1  0  0  0
  6 25  1  0  0  0
  6 94  1  0  0  0
  6 95  1  0  0  0
  7  8  2  0  0  0
  7 26  1  0  0  0
  7 29  1  0  0  0
  8  9  1  0  0  0
  8 22  1  0  0  0
  9 10  1  0  0  0
  9 27  2  0  0  0
 10 11  2  0  0  0
 10 15  1  0  0  0
 11 12  1  0  0  0
 11 96  1  0  0  0
 12 13  2  0  0  0
 12 97  1  0  0  0
 13 14  1  0  0  0
 13 31  1  0  0  0
 14 15  2  0  0  0
 14 98  1  0  0  0
 15 99  1  0  0  0
 16 17  2  0  0  0
 16 21  1  0  0  0
 16 31  1  0  0  0
 17 18  1  0  0  0
 17100  1  0  0  0
 18 19  2  0  0  0
 18101  1  0  0  0
 19 20  1  0  0  0
 19 24  1  0  0  0
 20 21  2  0  0  0
 20102  1  0  0  0
 21 23  1  0  0  0
 22 28  1  0  0  0
 22 32  2  0  0  0
 26 27  1  0  0  0
 28103  1  0  0  0
 28104  1  0  0  0
 29105  1  0  0  0
 29106  1  0  0  0
 33 34  1  0  0  0
 33 66  1  0  0  0
 33 70  2  0  0  0
 34 36  1  0  0  0
 34 59  1  0  0  0
 34107  1  0  0  0
 35 44  2  0  0  0
 35 45  1  0  0  0
 35 68  1  0  0  0
 36 56  1  0  0  0
 36108  1  0  0  0
 37 39  1  0  0  0
 37 47  1  0  0  0
 37 66  1  0  0  0
 37109  1  0  0  0
 38 43  2  0  0  0
 38 46  1  0  0  0
 38 47  1  0  0  0
 39 64  1  0  0  0
 39 67  2  0  0  0
 40 52  1  0  0  0
 40 53  2  0  0  0
 40 58  1  0  0  0
 41110  1  0  0  0
 41111  1  0  0  0
 41112  1  0  0  0
 41 48  1  0  0  0
 42 43  1  0  0  0
 42 66  1  0  0  0
 42113  1  0  0  0
 42114  1  0  0  0
 43 44  1  0  0  0
 44115  1  0  0  0
 45 46  2  0  0  0
 45116  1  0  0  0
 46117  1  0  0  0
 47118  1  0  0  0
 47119  1  0  0  0
 48 56  1  0  0  0
 48 65  1  0  0  0
 48120  1  0  0  0
 49 50  1  0  0  0
 49 53  1  0  0  0
 49 64  1  0  0  0
 49121  1  0  0  0
 50 51  1  0  0  0
 50122  1  0  0  0
 50123  1  0  0  0
 51 52  1  0  0  0
 51124  1  0  0  0
 51125  1  0  0  0
 52126  1  0  0  0
 52127  1  0  0  0
 53 54  1  0  0  0
 54 55  2  0  0  0
 54128  1  0  0  0
 55 57  1  0  0  0
 55129  1  0  0  0
 56 69  2  0  0  0
 57 58  2  0  0  0
 57130  1  0  0  0
 58131  1  0  0  0
 59 60  1  0  0  0
 59 61  1  0  0  0
 59 62  1  0  0  0
 60132  1  0  0  0
 60133  1  0  0  0
 60134  1  0  0  0
 61135  1  0  0  0
 61136  1  0  0  0
 61137  1  0  0  0
 62138  1  0  0  0
 62139  1  0  0  0
 62140  1  0  0  0
 63 65  1  0  0  0
 63141  1  0  0  0
 63142  1  0  0  0
 63143  1  0  0  0
 64144  1  0  0  0
 65145  1  0  0  0
 68 78  1  0  0  0
 71 84  2  0  0  0
 71 85  1  0  0  0
 71146  1  0  0  0
 72 73  2  0  0  0
 72 74  1  0  0  0
 72 76  1  0  0  0
 73 77  1  0  0  0
 73 84  1  0  0  0
 74 78  1  0  0  0
 74 85  2  0  0  0
 75 77  1  0  0  0
 75147  1  0  0  0
 75148  1  0  0  0
 75149  1  0  0  0
 76 79  1  0  0  0
 76150  1  0  0  0
 76151  1  0  0  0
 77152  1  0  0  0
 77153  1  0  0  0
 78154  1  0  0  0
 78155  1  0  0  0
 79 80  1  0  0  0
 79156  1  0  0  0
 79157  1  0  0  0
 80 81  1  0  0  0
 80158  1  0  0  0
 80159  1  0  0  0
 81 82  1  0  0  0
 81160  1  0  0  0
 81161  1  0  0  0
 82 83  1  0  0  0
 82162  1  0  0  0
 82163  1  0  0  0
 83 86  1  0  0  0
 83164  1  0  0  0
 83165  1  0  0  0
 86166  1  0  0  0
M  ISO  4   1 100  68 101  78 101  86 100
M  END
> <chiral flag>
0

> <version>
0

> <s_m_source_file>
/data/baiqing/PycharmProjects/Reinvent-master-3.2/result/LINK_invent/BTK/process_docking_weight1_custom_sum_contain_oxygen_bond_distance_aromatic_linkinvent_7_9_3/rearranged_h_0033.sdf

> <i_m_source_file_index>
74

> <r_mmod_Potential_Energy-OPLS-2005>
-461.759246826172

> <r_mmod_Stretch_Energy-OPLS-2005>
35.3348197937012

> <r_mmod_Bend_Energy-OPLS-2005>
106.485694885254

> <r_mmod_Torsional_Energy-OPLS-2005>
187.95100402832

> <r_mmod_Improper_Torsional_Energy-OPLS-2005>
3.35075712203979

> <r_mmod_Van_der_Waal_Energy-OPLS-2005>
162.263916015625

> <r_mmod_Electrostatic_Energy-OPLS-2005>
-736.833068847656

> <r_mmod_Solvation_Energy-OPLS-2005>
-232.464447021484

> <b_mmod_Minimization_Converged-OPLS-2005>
0

> <r_mmod_RMS_Derivative-OPLS-2005>
3.99787878990173

$$$$
75
                    3D
 Structure written by MMmdl.
177185  0  0  1  0            999 V2000
  -30.7834  -14.3383   20.7140 C   0  0  0  0  0  0
  -30.4133  -12.2895   19.3890 C   0  0  0  0  0  0
  -29.4815  -12.5386   18.1897 C   0  0  0  0  0  0
  -28.0074  -12.3866   18.6068 C   0  0  0  0  0  0
  -27.6659  -13.2034   19.8800 C   0  0  2  0  0  0
  -28.7016  -12.9404   20.9947 C   0  0  0  0  0  0
  -25.2602  -13.8159   20.5667 C   0  0  0  0  0  0
  -24.1846  -13.0437   20.9150 C   0  0  0  0  0  0
  -24.6394  -11.6904   20.8717 C   0  0  0  0  0  0
  -23.9058  -10.4292   21.0394 C   0  0  0  0  0  0
  -24.3609   -9.4212   21.9181 C   0  0  0  0  0  0
  -23.6288   -8.2251   22.0758 C   0  0  0  0  0  0
  -22.4273   -8.0281   21.3542 C   0  0  0  0  0  0
  -21.9905   -9.0250   20.4644 C   0  0  0  0  0  0
  -22.7232  -10.2129   20.3046 C   0  0  0  0  0  0
  -21.6849   -6.0737   22.5274 C   0  0  0  0  0  0
  -21.4015   -6.5639   23.8212 C   0  0  0  0  0  0
  -21.3662   -5.6790   24.9172 C   0  0  0  0  0  0
  -21.6045   -4.3055   24.7220 C   0  0  0  0  0  0
  -21.8819   -3.8145   23.4345 C   0  0  0  0  0  0
  -21.9195   -4.6963   22.3398 C   0  0  0  0  0  0
  -22.7869  -13.5241   21.1831 C   0  0  0  0  0  0
  -22.1661   -4.2147   21.0978 F   0  0  0  0  0  0
  -21.5631   -3.4538   25.7738 F   0  0  0  0  0  0
  -30.0488  -13.2256   20.4619 N   0  0  0  0  0  0
  -26.3039  -12.9325   20.3366 N   0  0  0  0  0  0
  -25.9317  -11.6484   20.5737 N   0  0  0  0  0  0
  -22.0508  -12.8222   22.0376 N   0  0  0  0  0  0
  -25.4347  -15.1877   20.4098 N   0  0  0  0  0  0
  -31.7905  -14.6499   20.0701 O   0  0  0  0  0  0
  -21.6639   -6.8875   21.4241 O   0  0  0  0  0  0
  -22.3558  -14.5558   20.6698 O   0  0  0  0  0  0
  -24.6131  -31.8716   23.2136 C   0  0  0  0  0  0
  -25.9035  -32.4841   23.8415 C   0  0  1  0  0  0
  -27.2303  -27.4551   20.0694 C   0  0  0  0  0  0
  -25.5889  -33.8631   24.2364 N   0  0  0  0  0  0
  -23.3976  -30.4997   21.5562 C   0  0  2  0  0  0
  -24.8386  -28.9672   20.1207 C   0  0  0  0  0  0
  -22.7402  -29.4695   22.5022 C   0  0  0  0  0  0
  -18.0287  -28.1383   22.8512 C   0  0  0  0  0  0
  -24.1482  -36.7322   23.2633 C   0  0  0  0  0  0
  -25.9256  -30.8421   21.3614 C   0  0  0  0  0  0
  -26.0009  -29.4778   20.7085 C   0  0  0  0  0  0
  -27.1969  -28.7281   20.6818 C   0  0  0  0  0  0
  -26.0377  -26.9459   19.5051 C   0  0  0  0  0  0
  -24.8491  -27.6973   19.5248 C   0  0  0  0  0  0
  -23.6028  -29.8346   20.1694 C   0  0  0  0  0  0
  -25.4101  -36.3135   24.0346 C   0  0  1  0  0  0
  -20.5873  -28.3678   23.1329 C   0  0  2  0  0  0
  -20.6779  -26.9417   22.5422 C   0  0  0  0  0  0
  -19.5752  -26.6402   21.5223 C   0  0  0  0  0  0
  -18.1927  -26.7933   22.1633 C   0  0  0  0  0  0
  -19.1531  -28.8849   23.2922 C   0  0  0  0  0  0
  -18.9442  -30.1453   23.8930 C   0  0  0  0  0  0
  -17.6441  -30.6585   24.0578 C   0  0  0  0  0  0
  -25.9026  -34.9488   23.5163 C   0  0  0  0  0  0
  -16.5345  -29.9084   23.6326 C   0  0  0  0  0  0
  -16.7273  -28.6503   23.0353 C   0  0  0  0  0  0
  -26.4477  -31.6595   25.0718 C   0  0  0  0  0  0
  -25.3744  -31.3620   26.1453 C   0  0  0  0  0  0
  -27.0337  -30.3068   24.6053 C   0  0  0  0  0  0
  -27.6075  -32.4292   25.7472 C   0  0  0  0  0  0
  -27.5589  -37.1831   24.8465 C   0  0  0  0  0  0
  -21.4139  -29.3052   22.3744 N   0  0  0  0  0  0
  -26.4300  -37.3803   23.9406 N   0  0  0  0  0  0
  -24.6647  -31.0830   22.1031 N   0  0  0  0  0  0
  -23.4188  -28.8236   23.3049 O   0  0  0  0  0  0
  -28.4313  -26.7765   20.0560 O   0  0  0  0  0  0
  -26.5575  -34.8919   22.4717 O   0  0  0  0  0  0
  -23.5329  -32.1488   23.7532 O   0  0  0  0  0  0
  -27.3128  -23.4375   16.6539 C   0  0  0  0  0  0
  -25.0377  -22.7629   16.1335 C   0  0  0  0  0  0
  -26.3788  -22.4191   16.3781 C   0  0  0  0  0  0
  -26.9359  -24.8034   16.6644 C   0  0  0  0  0  0
  -25.5843  -25.1438   16.3492 C   0  0  0  0  0  0
  -24.6425  -24.1103   16.1109 C   0  0  0  0  0  0
  -25.0982  -26.5847   16.1924 C   0  0  0  0  0  0
  -28.0215  -25.8606   16.9252 C   0  0  0  0  0  0
  -26.8171  -20.9660   16.2662 C   0  0  0  0  0  0
  -29.0589  -25.5297   18.0248 C   0  0  0  0  0  0
  -29.4758  -17.8046   21.0097 C   0  0  0  0  0  0
  -29.4043  -19.0419   20.1019 C   0  0  0  0  0  0
  -30.9143  -17.4813   21.4478 C   0  0  0  0  0  0
  -28.0278  -19.1980   19.4348 C   0  0  0  0  0  0
  -31.0320  -16.2288   22.3377 C   0  0  0  0  0  0
  -28.0083  -20.2926   18.3502 C   0  0  0  0  0  0
  -28.5354  -25.4736   19.4744 C   0  0  0  0  0  0
  -30.3744  -15.0530   21.7695 N   0  0  0  0  0  0
  -26.7645  -20.2470   17.5532 N   0  3  0  0  0  0
  -22.9895  -24.4639   15.7393 Cl  0  0  0  0  0  0
  -31.4570  -12.3890   19.0857 H   0  0  0  0  0  0
  -30.3069  -11.2638   19.7456 H   0  0  0  0  0  0
  -29.7156  -11.8471   17.3794 H   0  0  0  0  0  0
  -29.6509  -13.5420   17.7952 H   0  0  0  0  0  0
  -27.8178  -11.3273   18.7826 H   0  0  0  0  0  0
  -27.3526  -12.6807   17.7856 H   0  0  0  0  0  0
  -27.7261  -14.2588   19.6130 H   0  0  0  0  0  0
  -28.6577  -11.8973   21.3119 H   0  0  0  0  0  0
  -28.4421  -13.5193   21.8811 H   0  0  0  0  0  0
  -25.2754   -9.5693   22.4754 H   0  0  0  0  0  0
  -23.9994   -7.4645   22.7481 H   0  0  0  0  0  0
  -21.0839   -8.8766   19.8942 H   0  0  0  0  0  0
  -22.3694  -10.9667   19.6148 H   0  0  0  0  0  0
  -21.2006   -7.6146   23.9710 H   0  0  0  0  0  0
  -21.1484   -6.0524   25.9074 H   0  0  0  0  0  0
  -22.0599   -2.7609   23.2844 H   0  0  0  0  0  0
  -22.4113  -11.9859   22.4732 H   0  0  0  0  0  0
  -21.1123  -13.1247   22.2585 H   0  0  0  0  0  0
  -24.6749  -15.8486   20.5286 H   0  0  0  0  0  0
  -26.3031  -15.6252   20.1295 H   0  0  0  0  0  0
  -26.7092  -32.5575   23.1170 H   0  0  0  0  0  0
  -25.0046  -33.9777   25.0518 H   0  0  0  0  0  0
  -22.6873  -31.3178   21.4213 H   0  0  0  0  0  0
  -23.3749  -35.9654   23.3307 H   0  0  0  0  0  0
  -24.3575  -36.8928   22.2045 H   0  0  0  0  0  0
  -23.7233  -37.6529   23.6642 H   0  0  0  0  0  0
  -26.0271  -31.6076   20.5912 H   0  0  0  0  0  0
  -26.8175  -30.8997   21.9733 H   0  0  0  0  0  0
  -28.0995  -29.1266   21.1266 H   0  0  0  0  0  0
  -25.9929  -25.9797   19.0304 H   0  0  0  0  0  0
  -23.9502  -27.2975   19.0785 H   0  0  0  0  0  0
  -23.7103  -30.6112   19.4110 H   0  0  0  0  0  0
  -22.7253  -29.2568   19.8739 H   0  0  0  0  0  0
  -25.1279  -36.2008   25.0842 H   0  0  0  0  0  0
  -20.9971  -28.3232   24.1446 H   0  0  0  0  0  0
  -20.5699  -26.2280   23.3610 H   0  0  0  0  0  0
  -21.6641  -26.7469   22.1190 H   0  0  0  0  0  0
  -19.6904  -25.6318   21.1226 H   0  0  0  0  0  0
  -19.6666  -27.3238   20.6772 H   0  0  0  0  0  0
  -17.4202  -26.6739   21.4019 H   0  0  0  0  0  0
  -18.0284  -26.0051   22.8997 H   0  0  0  0  0  0
  -19.7908  -30.7281   24.2302 H   0  0  0  0  0  0
  -17.4984  -31.6255   24.5194 H   0  0  0  0  0  0
  -15.5339  -30.2993   23.7618 H   0  0  0  0  0  0
  -15.8684  -28.0827   22.7041 H   0  0  0  0  0  0
  -24.5981  -30.6901   25.7761 H   0  0  0  0  0  0
  -24.8827  -32.2715   26.4910 H   0  0  0  0  0  0
  -25.8101  -30.8793   27.0208 H   0  0  0  0  0  0
  -26.2871  -29.6783   24.1175 H   0  0  0  0  0  0
  -27.4233  -29.7333   25.4476 H   0  0  0  0  0  0
  -27.8644  -30.4429   23.9121 H   0  0  0  0  0  0
  -27.2748  -33.3606   26.2052 H   0  0  0  0  0  0
  -28.3883  -32.6811   25.0286 H   0  0  0  0  0  0
  -28.0754  -31.8396   26.5371 H   0  0  0  0  0  0
  -28.2629  -38.0112   24.7528 H   0  0  0  0  0  0
  -28.1080  -36.2655   24.6300 H   0  0  0  0  0  0
  -27.2300  -37.1484   25.8865 H   0  0  0  0  0  0
  -20.9298  -29.8769   21.6964 H   0  0  0  0  0  0
  -26.0209  -38.2896   24.1381 H   0  0  0  0  0  0
  -28.3419  -23.1537   16.8174 H   0  0  0  0  0  0
  -24.3061  -21.9969   15.9182 H   0  0  0  0  0  0
  -25.7530  -27.3547   16.5838 H   0  0  0  0  0  0
  -24.1429  -26.7237   16.6974 H   0  0  0  0  0  0
  -24.9427  -26.8011   15.1348 H   0  0  0  0  0  0
  -27.6130  -26.8321   17.1771 H   0  0  0  0  0  0
  -28.5484  -26.0080   15.9824 H   0  0  0  0  0  0
  -27.8084  -20.8981   15.8152 H   0  0  0  0  0  0
  -26.1477  -20.4578   15.5715 H   0  0  0  0  0  0
  -29.8467  -26.2830   17.9865 H   0  0  0  0  0  0
  -29.5703  -24.5973   17.7944 H   0  0  0  0  0  0
  -29.0669  -16.9496   20.4701 H   0  0  0  0  0  0
  -28.8398  -17.9470   21.8845 H   0  0  0  0  0  0
  -30.1664  -18.9532   19.3262 H   0  0  0  0  0  0
  -29.6501  -19.9396   20.6712 H   0  0  0  0  0  0
  -31.3363  -18.3346   21.9809 H   0  0  0  0  0  0
  -31.5388  -17.3484   20.5633 H   0  0  0  0  0  0
  -27.2702  -19.4022   20.1929 H   0  0  0  0  0  0
  -27.7581  -18.2440   18.9792 H   0  0  0  0  0  0
  -30.5811  -16.4288   23.3104 H   0  0  0  0  0  0
  -32.0825  -16.0017   22.5297 H   0  0  0  0  0  0
  -28.8615  -20.1399   17.6873 H   0  0  0  0  0  0
  -28.1275  -21.2812   18.7953 H   0  0  0  0  0  0
  -29.2883  -24.9590   20.0703 H   0  0  0  0  0  0
  -27.6505  -24.8488   19.5839 H   0  0  0  0  0  0
  -29.5498  -14.7147   22.2442 H   0  0  0  0  0  0
  -26.5850  -19.2831   17.3266 H   0  0  0  0  0  0
  -25.9844  -20.5823   18.0933 H   0  0  0  0  0  0
  1 25  1  0  0  0
  1 30  2  0  0  0
  1 88  1  0  0  0
  2  3  1  0  0  0
  2 25  1  0  0  0
  2 91  1  0  0  0
  2 92  1  0  0  0
  3  4  1  0  0  0
  3 93  1  0  0  0
  3 94  1  0  0  0
  4  5  1  0  0  0
  4 95  1  0  0  0
  4 96  1  0  0  0
  5  6  1  0  0  0
  5 26  1  0  0  0
  5 97  1  0  0  0
  6 25  1  0  0  0
  6 98  1  0  0  0
  6 99  1  0  0  0
  7  8  2  0  0  0
  7 26  1  0  0  0
  7 29  1  0  0  0
  8  9  1  0  0  0
  8 22  1  0  0  0
  9 10  1  0  0  0
  9 27  2  0  0  0
 10 11  2  0  0  0
 10 15  1  0  0  0
 11 12  1  0  0  0
 11100  1  0  0  0
 12 13  2  0  0  0
 12101  1  0  0  0
 13 14  1  0  0  0
 13 31  1  0  0  0
 14 15  2  0  0  0
 14102  1  0  0  0
 15103  1  0  0  0
 16 17  2  0  0  0
 16 21  1  0  0  0
 16 31  1  0  0  0
 17 18  1  0  0  0
 17104  1  0  0  0
 18 19  2  0  0  0
 18105  1  0  0  0
 19 20  1  0  0  0
 19 24  1  0  0  0
 20 21  2  0  0  0
 20106  1  0  0  0
 21 23  1  0  0  0
 22 28  1  0  0  0
 22 32  2  0  0  0
 26 27  1  0  0  0
 28107  1  0  0  0
 28108  1  0  0  0
 29109  1  0  0  0
 29110  1  0  0  0
 33 34  1  0  0  0
 33 66  1  0  0  0
 33 70  2  0  0  0
 34 36  1  0  0  0
 34 59  1  0  0  0
 34111  1  0  0  0
 35 44  2  0  0  0
 35 45  1  0  0  0
 35 68  1  0  0  0
 36 56  1  0  0  0
 36112  1  0  0  0
 37 39  1  0  0  0
 37 47  1  0  0  0
 37 66  1  0  0  0
 37113  1  0  0  0
 38 43  2  0  0  0
 38 46  1  0  0  0
 38 47  1  0  0  0
 39 64  1  0  0  0
 39 67  2  0  0  0
 40 52  1  0  0  0
 40 53  2  0  0  0
 40 58  1  0  0  0
 41114  1  0  0  0
 41115  1  0  0  0
 41116  1  0  0  0
 41 48  1  0  0  0
 42 43  1  0  0  0
 42 66  1  0  0  0
 42117  1  0  0  0
 42118  1  0  0  0
 43 44  1  0  0  0
 44119  1  0  0  0
 45 46  2  0  0  0
 45120  1  0  0  0
 46121  1  0  0  0
 47122  1  0  0  0
 47123  1  0  0  0
 48 56  1  0  0  0
 48 65  1  0  0  0
 48124  1  0  0  0
 49 50  1  0  0  0
 49 53  1  0  0  0
 49 64  1  0  0  0
 49125  1  0  0  0
 50 51  1  0  0  0
 50126  1  0  0  0
 50127  1  0  0  0
 51 52  1  0  0  0
 51128  1  0  0  0
 51129  1  0  0  0
 52130  1  0  0  0
 52131  1  0  0  0
 53 54  1  0  0  0
 54 55  2  0  0  0
 54132  1  0  0  0
 55 57  1  0  0  0
 55133  1  0  0  0
 56 69  2  0  0  0
 57 58  2  0  0  0
 57134  1  0  0  0
 58135  1  0  0  0
 59 60  1  0  0  0
 59 61  1  0  0  0
 59 62  1  0  0  0
 60136  1  0  0  0
 60137  1  0  0  0
 60138  1  0  0  0
 61139  1  0  0  0
 61140  1  0  0  0
 61141  1  0  0  0
 62142  1  0  0  0
 62143  1  0  0  0
 62144  1  0  0  0
 63 65  1  0  0  0
 63145  1  0  0  0
 63146  1  0  0  0
 63147  1  0  0  0
 64148  1  0  0  0
 65149  1  0  0  0
 68 87  1  0  0  0
 71 73  2  0  0  0
 71 74  1  0  0  0
 71150  1  0  0  0
 72 73  1  0  0  0
 72 76  2  0  0  0
 72151  1  0  0  0
 73 79  1  0  0  0
 74 75  2  0  0  0
 74 78  1  0  0  0
 75 76  1  0  0  0
 75 77  1  0  0  0
 76 90  1  0  0  0
 77152  1  0  0  0
 77153  1  0  0  0
 77154  1  0  0  0
 78 80  1  0  0  0
 78155  1  0  0  0
 78156  1  0  0  0
 79 89  1  0  0  0
 79157  1  0  0  0
 79158  1  0  0  0
 80 87  1  0  0  0
 80159  1  0  0  0
 80160  1  0  0  0
 81 82  1  0  0  0
 81 83  1  0  0  0
 81161  1  0  0  0
 81162  1  0  0  0
 82 84  1  0  0  0
 82163  1  0  0  0
 82164  1  0  0  0
 83 85  1  0  0  0
 83165  1  0  0  0
 83166  1  0  0  0
 84 86  1  0  0  0
 84167  1  0  0  0
 84168  1  0  0  0
 85 88  1  0  0  0
 85169  1  0  0  0
 85170  1  0  0  0
 86 89  1  0  0  0
 86171  1  0  0  0
 86172  1  0  0  0
 87173  1  0  0  0
 87174  1  0  0  0
 88175  1  0  0  0
 89176  1  0  0  0
 89177  1  0  0  0
M  CHG  1  89   1
M  ISO  4   1 100  68 101  87 101  88 100
M  END
> <chiral flag>
0

> <version>
0

> <s_m_source_file>
/data/baiqing/PycharmProjects/Reinvent-master-3.2/result/LINK_invent/BTK/process_docking_weight1_custom_sum_contain_oxygen_bond_distance_aromatic_linkinvent_7_9_3/rearranged_h_0033.sdf

> <i_m_source_file_index>
75

> <r_mmod_Potential_Energy-OPLS-2005>
-288.210357666016

> <r_mmod_Stretch_Energy-OPLS-2005>
35.8087501525879

> <r_mmod_Bend_Energy-OPLS-2005>
111.484924316406

> <r_mmod_Torsional_Energy-OPLS-2005>
191.814117431641

> <r_mmod_Improper_Torsional_Energy-OPLS-2005>
2.21613836288452

> <r_mmod_Van_der_Waal_Energy-OPLS-2005>
151.123825073242

> <r_mmod_Electrostatic_Energy-OPLS-2005>
-312.853363037109

> <r_mmod_Solvation_Energy-OPLS-2005>
-475.707336425781

> <b_mmod_Minimization_Converged-OPLS-2005>
0

> <r_mmod_RMS_Derivative-OPLS-2005>
1.62242007255554

$$$$
76
                    3D
 Structure written by MMmdl.
170179  0  0  1  0            999 V2000
  -30.5174  -15.0076   20.4526 C   0  0  0  0  0  0
  -30.4460  -12.6359   19.4961 C   0  0  0  0  0  0
  -29.5166  -12.5110   18.2597 C   0  0  0  0  0  0
  -28.0702  -12.2179   18.6944 C   0  0  0  0  0  0
  -27.6133  -13.1873   19.8013 C   0  0  2  0  0  0
  -28.6514  -13.2486   20.9457 C   0  0  0  0  0  0
  -25.2281  -13.7931   20.5421 C   0  0  0  0  0  0
  -24.1629  -13.0239   20.9213 C   0  0  0  0  0  0
  -24.6231  -11.6741   20.8720 C   0  0  0  0  0  0
  -23.8888  -10.4181   21.0396 C   0  0  0  0  0  0
  -24.3483   -9.4123   21.9177 C   0  0  0  0  0  0
  -23.6207   -8.2124   22.0698 C   0  0  0  0  0  0
  -22.4209   -8.0148   21.3465 C   0  0  0  0  0  0
  -21.9795   -9.0106   20.4576 C   0  0  0  0  0  0
  -22.7063  -10.2028   20.3024 C   0  0  0  0  0  0
  -21.6814   -6.0645   22.5235 C   0  0  0  0  0  0
  -21.3984   -6.5564   23.8163 C   0  0  0  0  0  0
  -21.3675   -5.6740   24.9132 C   0  0  0  0  0  0
  -21.6078   -4.3002   24.7204 C   0  0  0  0  0  0
  -21.8830   -3.8065   23.4337 C   0  0  0  0  0  0
  -21.9185   -4.6865   22.3379 C   0  0  0  0  0  0
  -22.7702  -13.5080   21.1995 C   0  0  0  0  0  0
  -22.1654   -4.2048   21.0948 F   0  0  0  0  0  0
  -21.5675   -3.4500   25.7738 F   0  0  0  0  0  0
  -29.9324  -13.7258   20.3863 N   0  0  0  0  0  0
  -26.2699  -12.9104   20.2966 N   0  0  0  0  0  0
  -25.9118  -11.6309   20.5628 N   0  0  0  0  0  0
  -22.0400  -12.8017   22.0605 N   0  0  0  0  0  0
  -25.3758  -15.1565   20.3565 N   0  0  0  0  0  0
  -31.7082  -15.0470   20.1213 O   0  0  0  0  0  0
  -21.6573   -6.8746   21.4180 O   0  0  0  0  0  0
  -22.3358  -14.5395   20.6911 O   0  0  0  0  0  0
  -24.6375  -31.8467   23.1871 C   0  0  0  0  0  0
  -25.9141  -32.4738   23.8250 C   0  0  1  0  0  0
  -27.2503  -27.1633   20.1319 C   0  0  0  0  0  0
  -25.5905  -33.8554   24.2173 N   0  0  0  0  0  0
  -23.4429  -30.4536   21.5420 C   0  0  2  0  0  0
  -24.8949  -28.8734   20.1269 C   0  0  0  0  0  0
  -22.7522  -29.4528   22.4998 C   0  0  0  0  0  0
  -18.0259  -28.1397   22.8473 C   0  0  0  0  0  0
  -24.1489  -36.7262   23.2631 C   0  0  0  0  0  0
  -25.9939  -30.7217   21.3818 C   0  0  0  0  0  0
  -26.0736  -29.3319   20.7284 C   0  0  0  0  0  0
  -27.2494  -28.4936   20.7133 C   0  0  0  0  0  0
  -26.0392  -26.7948   19.5025 C   0  0  0  0  0  0
  -24.8863  -27.6128   19.5083 C   0  0  0  0  0  0
  -23.6669  -29.7705   20.1674 C   0  0  0  0  0  0
  -25.4130  -36.3067   24.0299 C   0  0  1  0  0  0
  -20.5864  -28.3696   23.1295 C   0  0  2  0  0  0
  -20.6771  -26.9428   22.5430 C   0  0  0  0  0  0
  -19.5770  -26.6389   21.5220 C   0  0  0  0  0  0
  -18.1934  -26.7929   22.1619 C   0  0  0  0  0  0
  -19.1512  -28.8872   23.2855 C   0  0  0  0  0  0
  -18.9444  -30.1467   23.8883 C   0  0  0  0  0  0
  -17.6454  -30.6619   24.0547 C   0  0  0  0  0  0
  -25.9070  -34.9439   23.5050 C   0  0  0  0  0  0
  -16.5340  -29.9111   23.6347 C   0  0  0  0  0  0
  -16.7241  -28.6517   23.0384 C   0  0  0  0  0  0
  -26.4469  -31.6597   25.0684 C   0  0  0  0  0  0
  -25.3625  -31.3795   26.1359 C   0  0  0  0  0  0
  -27.0310  -30.3004   24.6200 C   0  0  0  0  0  0
  -27.6015  -32.4339   25.7474 C   0  0  0  0  0  0
  -27.5583  -37.1787   24.8461 C   0  0  0  0  0  0
  -21.4230  -29.3018   22.3697 N   0  0  0  0  0  0
  -26.4298  -37.3774   23.9404 N   0  0  0  0  0  0
  -24.7121  -31.0265   22.0938 N   0  0  0  0  0  0
  -23.4148  -28.8130   23.3201 O   0  0  0  0  0  0
  -28.3448  -26.2253   20.1694 O   0  0  0  0  0  0
  -26.5697  -34.8929   22.4657 O   0  0  0  0  0  0
  -23.5498  -32.1361   23.7075 O   0  0  0  0  0  0
  -29.6617  -20.6425   19.5125 C   0  0  0  0  0  0
  -29.7861  -20.9544   18.1153 C   0  0  0  0  0  0
  -30.1006  -19.2423   19.5701 C   0  0  0  0  0  0
  -27.2323  -17.4412   22.2711 C   0  0  0  0  0  0
  -27.4557  -17.6724   20.7738 C   0  0  0  0  0  0
  -28.5664  -17.4000   23.0216 C   0  0  0  0  0  0
  -28.3524  -16.5487   20.2182 C   0  0  0  0  0  0
  -29.5772  -16.4096   22.3917 C   0  0  0  0  0  0
  -29.7684  -16.4870   20.8330 C   0  0  0  0  0  0
  -29.4899  -22.2314   17.3629 C   0  0  0  0  0  0
  -30.9126  -17.6971   17.6705 C   0  0  0  0  0  0
  -29.0760  -21.8317   20.4756 C   0  0  0  0  0  0
  -30.4865  -18.0113   20.5794 C   0  0  0  0  0  0
  -29.3028  -23.4993   20.2758 C   0  0  0  0  0  0
  -28.1378  -24.6898   20.0613 C   0  0  0  0  0  0
  -30.2300  -19.9534   17.3946 N   0  0  0  0  0  0
  -30.4095  -18.9365   18.2452 N   0  0  0  0  0  0
  -31.4636  -12.8327   19.1589 H   0  0  0  0  0  0
  -30.4990  -11.6921   20.0447 H   0  0  0  0  0  0
  -29.8776  -11.7229   17.5968 H   0  0  0  0  0  0
  -29.5393  -13.4345   17.6802 H   0  0  0  0  0  0
  -28.0405  -11.1995   19.0837 H   0  0  0  0  0  0
  -27.3881  -12.2437   17.8451 H   0  0  0  0  0  0
  -27.5542  -14.1267   19.2619 H   0  0  0  0  0  0
  -28.7719  -12.2579   21.3853 H   0  0  0  0  0  0
  -28.2768  -13.8648   21.7567 H   0  0  0  0  0  0
  -25.2588   -9.5616   22.4806 H   0  0  0  0  0  0
  -23.9925   -7.4486   22.7394 H   0  0  0  0  0  0
  -21.0734   -8.8554   19.8884 H   0  0  0  0  0  0
  -22.3414  -10.9563   19.6166 H   0  0  0  0  0  0
  -21.1946   -7.6059   23.9613 H   0  0  0  0  0  0
  -21.1544   -6.0485   25.9038 H   0  0  0  0  0  0
  -22.0642   -2.7545   23.2848 H   0  0  0  0  0  0
  -22.4064  -11.9647   22.4905 H   0  0  0  0  0  0
  -21.1043  -13.0992   22.2913 H   0  0  0  0  0  0
  -24.6203  -15.8174   20.5036 H   0  0  0  0  0  0
  -26.2339  -15.6036   20.0594 H   0  0  0  0  0  0
  -26.7196  -32.5338   23.0969 H   0  0  0  0  0  0
  -24.9970  -33.9714   25.0257 H   0  0  0  0  0  0
  -22.7399  -31.2743   21.3846 H   0  0  0  0  0  0
  -23.3779  -35.9567   23.3308 H   0  0  0  0  0  0
  -24.3526  -36.8891   22.2036 H   0  0  0  0  0  0
  -23.7231  -37.6446   23.6671 H   0  0  0  0  0  0
  -26.1281  -31.4712   20.6015 H   0  0  0  0  0  0
  -26.8707  -30.7847   22.0150 H   0  0  0  0  0  0
  -28.1502  -28.8434   21.1974 H   0  0  0  0  0  0
  -25.9583  -25.8366   19.0110 H   0  0  0  0  0  0
  -23.9824  -27.2429   19.0443 H   0  0  0  0  0  0
  -23.7983  -30.5405   19.4091 H   0  0  0  0  0  0
  -22.7830  -29.2058   19.8658 H   0  0  0  0  0  0
  -25.1327  -36.1890   25.0791 H   0  0  0  0  0  0
  -20.9865  -28.3275   24.1454 H   0  0  0  0  0  0
  -20.5697  -26.2315   23.3629 H   0  0  0  0  0  0
  -21.6645  -26.7518   22.1219 H   0  0  0  0  0  0
  -19.6968  -25.6289   21.1291 H   0  0  0  0  0  0
  -19.6724  -27.3166   20.6725 H   0  0  0  0  0  0
  -17.4204  -26.6620   21.4025 H   0  0  0  0  0  0
  -18.0362  -26.0083   22.9041 H   0  0  0  0  0  0
  -19.7926  -30.7263   24.2270 H   0  0  0  0  0  0
  -17.5027  -31.6305   24.5136 H   0  0  0  0  0  0
  -15.5349  -30.3033   23.7696 H   0  0  0  0  0  0
  -15.8622  -28.0830   22.7175 H   0  0  0  0  0  0
  -24.5796  -30.7181   25.7633 H   0  0  0  0  0  0
  -24.8818  -32.2995   26.4694 H   0  0  0  0  0  0
  -25.7846  -30.8988   27.0192 H   0  0  0  0  0  0
  -26.2917  -29.6794   24.1141 H   0  0  0  0  0  0
  -27.3884  -29.7226   25.4727 H   0  0  0  0  0  0
  -27.8832  -30.4276   23.9525 H   0  0  0  0  0  0
  -27.2611  -33.3640   26.2035 H   0  0  0  0  0  0
  -28.3831  -32.6906   25.0311 H   0  0  0  0  0  0
  -28.0673  -31.8475   26.5397 H   0  0  0  0  0  0
  -28.2605  -38.0083   24.7531 H   0  0  0  0  0  0
  -28.1095  -36.2626   24.6291 H   0  0  0  0  0  0
  -27.2290  -37.1409   25.8857 H   0  0  0  0  0  0
  -20.9471  -29.8638   21.6782 H   0  0  0  0  0  0
  -26.0180  -38.2843   24.1434 H   0  0  0  0  0  0
  -26.7185  -16.4919   22.4280 H   0  0  0  0  0  0
  -26.5773  -18.2131   22.6816 H   0  0  0  0  0  0
  -27.8864  -18.6555   20.6203 H   0  0  0  0  0  0
  -26.4997  -17.6931   20.2459 H   0  0  0  0  0  0
  -28.3734  -17.1073   24.0523 H   0  0  0  0  0  0
  -28.9879  -18.4038   23.0838 H   0  0  0  0  0  0
  -28.3705  -16.5483   19.1281 H   0  0  0  0  0  0
  -27.8531  -15.6545   20.5335 H   0  0  0  0  0  0
  -29.2582  -15.4192   22.7001 H   0  0  0  0  0  0
  -30.5459  -16.5363   22.8752 H   0  0  0  0  0  0
  -28.5675  -22.7092   17.6997 H   0  0  0  0  0  0
  -29.3831  -22.0501   16.2915 H   0  0  0  0  0  0
  -30.3036  -22.9521   17.4626 H   0  0  0  0  0  0
  -31.8991  -17.4620   18.0754 H   0  0  0  0  0  0
  -30.9955  -17.7798   16.5854 H   0  0  0  0  0  0
  -30.2338  -16.8724   17.8790 H   0  0  0  0  0  0
  -29.4356  -21.6175   21.4831 H   0  0  0  0  0  0
  -27.9967  -21.6922   20.5721 H   0  0  0  0  0  0
  -30.5457  -18.5032   21.5456 H   0  0  0  0  0  0
  -31.5405  -17.7852   20.4088 H   0  0  0  0  0  0
  -30.1036  -23.6693   19.5615 H   0  0  0  0  0  0
  -29.7839  -23.7903   21.2085 H   0  0  0  0  0  0
  -27.3379  -24.4628   20.7645 H   0  0  0  0  0  0
  -27.7097  -24.4972   19.0786 H   0  0  0  0  0  0
  1 25  1  0  0  0
  1 30  2  0  0  0
  1 79  1  0  0  0
  2  3  1  0  0  0
  2 25  1  0  0  0
  2 88  1  0  0  0
  2 89  1  0  0  0
  3  4  1  0  0  0
  3 90  1  0  0  0
  3 91  1  0  0  0
  4  5  1  0  0  0
  4 92  1  0  0  0
  4 93  1  0  0  0
  5  6  1  0  0  0
  5 26  1  0  0  0
  5 94  1  0  0  0
  6 25  1  0  0  0
  6 95  1  0  0  0
  6 96  1  0  0  0
  7  8  2  0  0  0
  7 26  1  0  0  0
  7 29  1  0  0  0
  8  9  1  0  0  0
  8 22  1  0  0  0
  9 10  1  0  0  0
  9 27  2  0  0  0
 10 11  2  0  0  0
 10 15  1  0  0  0
 11 12  1  0  0  0
 11 97  1  0  0  0
 12 13  2  0  0  0
 12 98  1  0  0  0
 13 14  1  0  0  0
 13 31  1  0  0  0
 14 15  2  0  0  0
 14 99  1  0  0  0
 15100  1  0  0  0
 16 17  2  0  0  0
 16 21  1  0  0  0
 16 31  1  0  0  0
 17 18  1  0  0  0
 17101  1  0  0  0
 18 19  2  0  0  0
 18102  1  0  0  0
 19 20  1  0  0  0
 19 24  1  0  0  0
 20 21  2  0  0  0
 20103  1  0  0  0
 21 23  1  0  0  0
 22 28  1  0  0  0
 22 32  2  0  0  0
 26 27  1  0  0  0
 28104  1  0  0  0
 28105  1  0  0  0
 29106  1  0  0  0
 29107  1  0  0  0
 33 34  1  0  0  0
 33 66  1  0  0  0
 33 70  2  0  0  0
 34 36  1  0  0  0
 34 59  1  0  0  0
 34108  1  0  0  0
 35 44  2  0  0  0
 35 45  1  0  0  0
 35 68  1  0  0  0
 36 56  1  0  0  0
 36109  1  0  0  0
 37 39  1  0  0  0
 37 47  1  0  0  0
 37 66  1  0  0  0
 37110  1  0  0  0
 38 43  2  0  0  0
 38 46  1  0  0  0
 38 47  1  0  0  0
 39 64  1  0  0  0
 39 67  2  0  0  0
 40 52  1  0  0  0
 40 53  2  0  0  0
 40 58  1  0  0  0
 41111  1  0  0  0
 41112  1  0  0  0
 41113  1  0  0  0
 41 48  1  0  0  0
 42 43  1  0  0  0
 42 66  1  0  0  0
 42114  1  0  0  0
 42115  1  0  0  0
 43 44  1  0  0  0
 44116  1  0  0  0
 45 46  2  0  0  0
 45117  1  0  0  0
 46118  1  0  0  0
 47119  1  0  0  0
 47120  1  0  0  0
 48 56  1  0  0  0
 48 65  1  0  0  0
 48121  1  0  0  0
 49 50  1  0  0  0
 49 53  1  0  0  0
 49 64  1  0  0  0
 49122  1  0  0  0
 50 51  1  0  0  0
 50123  1  0  0  0
 50124  1  0  0  0
 51 52  1  0  0  0
 51125  1  0  0  0
 51126  1  0  0  0
 52127  1  0  0  0
 52128  1  0  0  0
 53 54  1  0  0  0
 54 55  2  0  0  0
 54129  1  0  0  0
 55 57  1  0  0  0
 55130  1  0  0  0
 56 69  2  0  0  0
 57 58  2  0  0  0
 57131  1  0  0  0
 58132  1  0  0  0
 59 60  1  0  0  0
 59 61  1  0  0  0
 59 62  1  0  0  0
 60133  1  0  0  0
 60134  1  0  0  0
 60135  1  0  0  0
 61136  1  0  0  0
 61137  1  0  0  0
 61138  1  0  0  0
 62139  1  0  0  0
 62140  1  0  0  0
 62141  1  0  0  0
 63 65  1  0  0  0
 63142  1  0  0  0
 63143  1  0  0  0
 63144  1  0  0  0
 64145  1  0  0  0
 65146  1  0  0  0
 68 85  1  0  0  0
 71 72  1  0  0  0
 71 73  2  0  0  0
 71 82  1  0  0  0
 72 80  1  0  0  0
 72 86  2  0  0  0
 73 83  1  0  0  0
 73 87  1  0  0  0
 74 75  1  0  0  0
 74 76  1  0  0  0
 74147  1  0  0  0
 74148  1  0  0  0
 75 77  1  0  0  0
 75149  1  0  0  0
 75150  1  0  0  0
 76 78  1  0  0  0
 76151  1  0  0  0
 76152  1  0  0  0
 77 79  1  0  0  0
 77153  1  0  0  0
 77154  1  0  0  0
 78 79  1  0  0  0
 78155  1  0  0  0
 78156  1  0  0  0
 79 83  1  0  0  0
 80157  1  0  0  0
 80158  1  0  0  0
 80159  1  0  0  0
 81 87  1  0  0  0
 81160  1  0  0  0
 81161  1  0  0  0
 81162  1  0  0  0
 82 84  1  0  0  0
 82163  1  0  0  0
 82164  1  0  0  0
 83165  1  0  0  0
 83166  1  0  0  0
 84 85  1  0  0  0
 84167  1  0  0  0
 84168  1  0  0  0
 85169  1  0  0  0
 85170  1  0  0  0
 86 87  1  0  0  0
M  ISO  4   1 100  68 101  79 100  85 101
M  END
> <chiral flag>
0

> <version>
0

> <s_m_source_file>
/data/baiqing/PycharmProjects/Reinvent-master-3.2/result/LINK_invent/BTK/process_docking_weight1_custom_sum_contain_oxygen_bond_distance_aromatic_linkinvent_7_9_3/rearranged_h_0033.sdf

> <i_m_source_file_index>
76

> <r_mmod_Potential_Energy-OPLS-2005>
671.037719726562

> <r_mmod_Stretch_Energy-OPLS-2005>
305.534759521484

> <r_mmod_Bend_Energy-OPLS-2005>
326.425506591797

> <r_mmod_Torsional_Energy-OPLS-2005>
239.504165649414

> <r_mmod_Improper_Torsional_Energy-OPLS-2005>
2.39425373077393

> <r_mmod_Van_der_Waal_Energy-OPLS-2005>
131.515396118164

> <r_mmod_Electrostatic_Energy-OPLS-2005>
-336.485534667969

> <r_mmod_Solvation_Energy-OPLS-2005>
-196.712768554688

> <b_mmod_Minimization_Converged-OPLS-2005>
0

> <r_mmod_RMS_Derivative-OPLS-2005>
5.9800591468811

$$$$
77
                    3D
 Structure written by MMmdl.
159168  0  0  1  0            999 V2000
  -30.8034  -15.2143   20.0670 C   0  0  0  0  0  0
  -31.1952  -12.7702   19.5063 C   0  0  0  0  0  0
  -30.4135  -12.6141   18.2292 C   0  0  0  0  0  0
  -29.0626  -12.4708   18.7195 C   0  0  0  0  0  0
  -28.4068  -13.7358   19.7602 C   0  0  2  0  0  0
  -29.4612  -13.4481   20.9244 C   0  0  0  0  0  0
  -24.6537  -14.4027   20.8996 C   0  0  0  0  0  0
  -23.8385  -13.3712   21.3358 C   0  0  0  0  0  0
  -24.3216  -12.0973   20.9613 C   0  0  0  0  0  0
  -23.7999  -10.6568   21.0265 C   0  0  0  0  0  0
  -24.3069   -9.6374   21.8953 C   0  0  0  0  0  0
  -23.6547   -8.3763   22.0511 C   0  0  0  0  0  0
  -22.4630   -8.0948   21.3377 C   0  0  0  0  0  0
  -22.0022   -9.0660   20.4300 C   0  0  0  0  0  0
  -22.6613  -10.3049   20.2706 C   0  0  0  0  0  0
  -21.7291   -6.1025   22.5213 C   0  0  0  0  0  0
  -21.4349   -6.5861   23.8161 C   0  0  0  0  0  0
  -21.3758   -5.6951   24.9090 C   0  0  0  0  0  0
  -21.6022   -4.3191   24.7134 C   0  0  0  0  0  0
  -21.8787   -3.8309   23.4247 C   0  0  0  0  0  0
  -21.9345   -4.7178   22.3338 C   0  0  0  0  0  0
  -22.4128  -13.6197   21.4545 C   0  0  0  0  0  0
  -22.1725   -4.2301   21.0922 F   0  0  0  0  0  0
  -21.5539   -3.4649   25.7631 F   0  0  0  0  0  0
  -30.5805  -13.8753   20.2738 N   0  0  0  0  0  0
  -25.5764  -13.8797   20.1231 N   0  0  0  0  0  0
  -24.6670  -12.7082   19.8611 N   0  0  0  0  0  0
  -21.7396  -12.7907   22.2243 N   0  0  0  0  0  0
  -24.5851  -15.7642   20.8632 N   0  0  0  0  0  0
  -31.9972  -15.4625   20.0334 O   0  0  0  0  0  0
  -21.7348   -6.9208   21.4132 O   0  0  0  0  0  0
  -21.9151  -14.5511   20.8262 O   0  0  0  0  0  0
  -24.7329  -31.7329   23.1112 C   0  0  0  0  0  0
  -25.9684  -32.4106   23.7811 C   0  0  1  0  0  0
  -26.9446  -26.0464   20.2619 C   0  0  0  0  0  0
  -25.6055  -33.7982   24.1623 N   0  0  0  0  0  0
  -23.5647  -30.3334   21.4804 C   0  0  2  0  0  0
  -24.9664  -28.5593   20.1040 C   0  0  0  0  0  0
  -22.7913  -29.3994   22.4542 C   0  0  0  0  0  0
  -18.0357  -28.1441   22.8427 C   0  0  0  0  0  0
  -24.1505  -36.6996   23.2661 C   0  0  0  0  0  0
  -26.1547  -30.2359   21.4708 C   0  0  0  0  0  0
  -26.1511  -28.7405   20.8192 C   0  0  0  0  0  0
  -27.1126  -27.5213   20.8611 C   0  0  0  0  0  0
  -25.8036  -26.2538   19.4322 C   0  0  0  0  0  0
  -24.8756  -27.3582   19.3774 C   0  0  0  0  0  0
  -23.8284  -29.6144   20.1199 C   0  0  0  0  0  0
  -25.4175  -36.2687   24.0235 C   0  0  1  0  0  0
  -20.6003  -28.3805   23.1061 C   0  0  2  0  0  0
  -20.6791  -26.9418   22.5413 C   0  0  0  0  0  0
  -19.5780  -26.6348   21.5219 C   0  0  0  0  0  0
  -18.1964  -26.7960   22.1606 C   0  0  0  0  0  0
  -19.1630  -28.8959   23.2717 C   0  0  0  0  0  0
  -18.9533  -30.1533   23.8784 C   0  0  0  0  0  0
  -17.6520  -30.6612   24.0541 C   0  0  0  0  0  0
  -25.9201  -34.9095   23.4809 C   0  0  0  0  0  0
  -16.5407  -29.9088   23.6357 C   0  0  0  0  0  0
  -16.7335  -28.6512   23.0370 C   0  0  0  0  0  0
  -26.4691  -31.6412   25.0681 C   0  0  0  0  0  0
  -25.3615  -31.3899   26.1199 C   0  0  0  0  0  0
  -27.0710  -30.2689   24.7020 C   0  0  0  0  0  0
  -27.6036  -32.4421   25.7509 C   0  0  0  0  0  0
  -27.5560  -37.1637   24.8454 C   0  0  0  0  0  0
  -21.4524  -29.2963   22.3316 N   0  0  0  0  0  0
  -26.4238  -37.3523   23.9431 N   0  0  0  0  0  0
  -24.8525  -30.8197   22.0691 N   0  0  0  0  0  0
  -23.4157  -28.7652   23.3076 O   0  0  0  0  0  0
  -27.6070  -24.4752   20.3913 O   0  0  0  0  0  0
  -26.5915  -34.8785   22.4480 O   0  0  0  0  0  0
  -23.6266  -32.0726   23.5738 O   0  0  0  0  0  0
  -27.2376  -14.7504   21.5055 C   0  0  0  0  0  0
  -26.7216  -13.2204   18.3310 C   0  0  0  0  0  0
  -27.1692  -15.9189   20.1253 C   0  0  0  0  0  0
  -26.9165  -15.0690   18.5944 C   0  0  0  0  0  0
  -27.1021  -12.8760   21.4236 C   0  0  0  0  0  0
  -27.8362  -15.8456   17.6069 C   0  0  0  0  0  0
  -29.3461  -16.2553   18.1340 C   0  0  0  0  0  0
  -29.3172  -17.5067   20.2269 C   0  0  0  0  0  0
  -27.7340  -17.9361   20.0729 C   0  0  2  0  0  0
  -27.1712  -12.0094   22.6607 C   0  0  0  0  0  0
  -27.3751  -20.1804   20.4725 C   0  0  0  0  0  0
  -27.4782  -22.4430   20.0167 C   0  0  0  0  0  0
  -26.9192  -12.0801   19.8164 N   0  0  0  0  0  0
  -29.7774  -16.1541   19.6144 N   0  0  0  0  0  0
  -32.2336  -13.0135   19.2717 H   0  0  0  0  0  0
  -31.2452  -11.8380   20.0733 H   0  0  0  0  0  0
  -30.7466  -11.7328   17.6763 H   0  0  0  0  0  0
  -30.5327  -13.4682   17.5635 H   0  0  0  0  0  0
  -29.0846  -11.4966   19.2213 H   0  0  0  0  0  0
  -28.6430  -12.2386   17.7419 H   0  0  0  0  0  0
  -28.8519  -14.1982   18.9246 H   0  0  0  0  0  0
  -29.5391  -12.4035   21.2352 H   0  0  0  0  0  0
  -29.4415  -14.0282   21.8495 H   0  0  0  0  0  0
  -25.1847   -9.8473   22.4883 H   0  0  0  0  0  0
  -24.0666   -7.6476   22.7350 H   0  0  0  0  0  0
  -21.1129   -8.8681   19.8481 H   0  0  0  0  0  0
  -22.2443  -11.0349   19.5912 H   0  0  0  0  0  0
  -21.2474   -7.6387   23.9726 H   0  0  0  0  0  0
  -21.1540   -6.0662   25.8991 H   0  0  0  0  0  0
  -22.0409   -2.7754   23.2707 H   0  0  0  0  0  0
  -22.2039  -12.0407   22.7141 H   0  0  0  0  0  0
  -20.7429  -12.9063   22.3355 H   0  0  0  0  0  0
  -23.6593  -16.1591   20.9770 H   0  0  0  0  0  0
  -25.0955  -16.1801   20.0943 H   0  0  0  0  0  0
  -26.7808  -32.4401   23.0534 H   0  0  0  0  0  0
  -25.0013  -33.8927   24.9653 H   0  0  0  0  0  0
  -22.9225  -31.1918   21.2712 H   0  0  0  0  0  0
  -23.3820  -35.9262   23.3156 H   0  0  0  0  0  0
  -24.3568  -36.8866   22.2111 H   0  0  0  0  0  0
  -23.7199  -37.6075   23.6898 H   0  0  0  0  0  0
  -26.4471  -30.9182   20.6716 H   0  0  0  0  0  0
  -26.9840  -30.2847   22.1614 H   0  0  0  0  0  0
  -27.9783  -27.6561   21.4943 H   0  0  0  0  0  0
  -25.5108  -25.3931   18.8475 H   0  0  0  0  0  0
  -24.0036  -27.2211   18.7536 H   0  0  0  0  0  0
  -24.0750  -30.3655   19.3686 H   0  0  0  0  0  0
  -22.9076  -29.1477   19.7666 H   0  0  0  0  0  0
  -25.1402  -36.1349   25.0714 H   0  0  0  0  0  0
  -21.0079  -28.3474   24.1193 H   0  0  0  0  0  0
  -20.5608  -26.2439   23.3715 H   0  0  0  0  0  0
  -21.6651  -26.7289   22.1265 H   0  0  0  0  0  0
  -19.6922  -25.6231   21.1319 H   0  0  0  0  0  0
  -19.6749  -27.3099   20.6706 H   0  0  0  0  0  0
  -17.4234  -26.6706   21.4006 H   0  0  0  0  0  0
  -18.0331  -26.0136   22.9031 H   0  0  0  0  0  0
  -19.8014  -30.7368   24.2106 H   0  0  0  0  0  0
  -17.5074  -31.6280   24.5165 H   0  0  0  0  0  0
  -15.5403  -30.2956   23.7755 H   0  0  0  0  0  0
  -15.8733  -28.0802   22.7147 H   0  0  0  0  0  0
  -24.5862  -30.7181   25.7493 H   0  0  0  0  0  0
  -24.8746  -32.3171   26.4229 H   0  0  0  0  0  0
  -25.7668  -30.9322   27.0231 H   0  0  0  0  0  0
  -26.3480  -29.6076   24.2239 H   0  0  0  0  0  0
  -27.4104  -29.7435   25.5957 H   0  0  0  0  0  0
  -27.9490  -30.3680   24.0636 H   0  0  0  0  0  0
  -27.2509  -33.3868   26.1656 H   0  0  0  0  0  0
  -28.4045  -32.6743   25.0478 H   0  0  0  0  0  0
  -28.0482  -31.8856   26.5769 H   0  0  0  0  0  0
  -28.2444  -38.0056   24.7597 H   0  0  0  0  0  0
  -28.1189  -36.2577   24.6155 H   0  0  0  0  0  0
  -27.2295  -37.1098   25.8854 H   0  0  0  0  0  0
  -20.9913  -29.8582   21.6292 H   0  0  0  0  0  0
  -26.0003  -38.2526   24.1512 H   0  0  0  0  0  0
  -27.4095  -15.1768   22.4851 H   0  0  0  0  0  0
  -26.6746  -12.7858   17.3425 H   0  0  0  0  0  0
  -27.3019  -16.7354   17.2755 H   0  0  0  0  0  0
  -27.9374  -15.2389   16.7054 H   0  0  0  0  0  0
  -29.5688  -17.2562   17.7610 H   0  0  0  0  0  0
  -30.0511  -15.6496   17.5660 H   0  0  0  0  0  0
  -29.5361  -17.4467   21.2934 H   0  0  0  0  0  0
  -29.9526  -18.3065   19.8478 H   0  0  0  0  0  0
  -27.5517  -18.0576   19.0103 H   0  0  0  0  0  0
  -27.9113  -12.4054   23.3555 H   0  0  0  0  0  0
  -27.4442  -10.9870   22.4009 H   0  0  0  0  0  0
  -26.2058  -11.9985   23.1625 H   0  0  0  0  0  0
  -27.7355  -20.2083   21.5002 H   0  0  0  0  0  0
  -26.2931  -20.1218   20.5930 H   0  0  0  0  0  0
  -26.7908  -22.4893   19.1721 H   0  0  0  0  0  0
  -28.4602  -22.4052   19.5443 H   0  0  0  0  0  0
  1 25  1  0  0  0
  1 30  2  0  0  0
  1 84  1  0  0  0
  2  3  1  0  0  0
  2 25  1  0  0  0
  2 85  1  0  0  0
  2 86  1  0  0  0
  3  4  1  0  0  0
  3 87  1  0  0  0
  3 88  1  0  0  0
  4  5  1  0  0  0
  4 89  1  0  0  0
  4 90  1  0  0  0
  5  6  1  0  0  0
  5 26  1  0  0  0
  5 91  1  0  0  0
  6 25  1  0  0  0
  6 92  1  0  0  0
  6 93  1  0  0  0
  7  8  2  0  0  0
  7 26  1  0  0  0
  7 29  1  0  0  0
  8  9  1  0  0  0
  8 22  1  0  0  0
  9 10  1  0  0  0
  9 27  2  0  0  0
 10 11  2  0  0  0
 10 15  1  0  0  0
 11 12  1  0  0  0
 11 94  1  0  0  0
 12 13  2  0  0  0
 12 95  1  0  0  0
 13 14  1  0  0  0
 13 31  1  0  0  0
 14 15  2  0  0  0
 14 96  1  0  0  0
 15 97  1  0  0  0
 16 17  2  0  0  0
 16 21  1  0  0  0
 16 31  1  0  0  0
 17 18  1  0  0  0
 17 98  1  0  0  0
 18 19  2  0  0  0
 18 99  1  0  0  0
 19 20  1  0  0  0
 19 24  1  0  0  0
 20 21  2  0  0  0
 20100  1  0  0  0
 21 23  1  0  0  0
 22 28  1  0  0  0
 22 32  2  0  0  0
 26 27  1  0  0  0
 28101  1  0  0  0
 28102  1  0  0  0
 29103  1  0  0  0
 29104  1  0  0  0
 33 34  1  0  0  0
 33 66  1  0  0  0
 33 70  2  0  0  0
 34 36  1  0  0  0
 34 59  1  0  0  0
 34105  1  0  0  0
 35 44  2  0  0  0
 35 45  1  0  0  0
 35 68  1  0  0  0
 36 56  1  0  0  0
 36106  1  0  0  0
 37 39  1  0  0  0
 37 47  1  0  0  0
 37 66  1  0  0  0
 37107  1  0  0  0
 38 43  2  0  0  0
 38 46  1  0  0  0
 38 47  1  0  0  0
 39 64  1  0  0  0
 39 67  2  0  0  0
 40 52  1  0  0  0
 40 53  2  0  0  0
 40 58  1  0  0  0
 41108  1  0  0  0
 41109  1  0  0  0
 41110  1  0  0  0
 41 48  1  0  0  0
 42 43  1  0  0  0
 42 66  1  0  0  0
 42111  1  0  0  0
 42112  1  0  0  0
 43 44  1  0  0  0
 44113  1  0  0  0
 45 46  2  0  0  0
 45114  1  0  0  0
 46115  1  0  0  0
 47116  1  0  0  0
 47117  1  0  0  0
 48 56  1  0  0  0
 48 65  1  0  0  0
 48118  1  0  0  0
 49 50  1  0  0  0
 49 53  1  0  0  0
 49 64  1  0  0  0
 49119  1  0  0  0
 50 51  1  0  0  0
 50120  1  0  0  0
 50121  1  0  0  0
 51 52  1  0  0  0
 51122  1  0  0  0
 51123  1  0  0  0
 52124  1  0  0  0
 52125  1  0  0  0
 53 54  1  0  0  0
 54 55  2  0  0  0
 54126  1  0  0  0
 55 57  1  0  0  0
 55127  1  0  0  0
 56 69  2  0  0  0
 57 58  2  0  0  0
 57128  1  0  0  0
 58129  1  0  0  0
 59 60  1  0  0  0
 59 61  1  0  0  0
 59 62  1  0  0  0
 60130  1  0  0  0
 60131  1  0  0  0
 60132  1  0  0  0
 61133  1  0  0  0
 61134  1  0  0  0
 61135  1  0  0  0
 62136  1  0  0  0
 62137  1  0  0  0
 62138  1  0  0  0
 63 65  1  0  0  0
 63139  1  0  0  0
 63140  1  0  0  0
 63141  1  0  0  0
 64142  1  0  0  0
 65143  1  0  0  0
 68 82  1  0  0  0
 71 73  2  0  0  0
 71 75  1  0  0  0
 71144  1  0  0  0
 72 74  2  0  0  0
 72 83  1  0  0  0
 72145  1  0  0  0
 73 74  1  0  0  0
 73 79  1  0  0  0
 74 76  1  0  0  0
 75 80  1  0  0  0
 75 83  2  0  0  0
 76 77  1  0  0  0
 76146  1  0  0  0
 76147  1  0  0  0
 77 84  1  0  0  0
 77148  1  0  0  0
 77149  1  0  0  0
 78 79  1  0  0  0
 78 84  1  0  0  0
 78150  1  0  0  0
 78151  1  0  0  0
 79 81  1  0  0  0
 79152  1  0  0  0
 80153  1  0  0  0
 80154  1  0  0  0
 80155  1  0  0  0
 81 82  1  0  0  0
 81156  1  0  0  0
 81157  1  0  0  0
 82158  1  0  0  0
 82159  1  0  0  0
M  ISO  4   1 100  68 101  82 101  84 100
M  END
> <chiral flag>
0

> <version>
0

> <s_m_source_file>
/data/baiqing/PycharmProjects/Reinvent-master-3.2/result/LINK_invent/BTK/process_docking_weight1_custom_sum_contain_oxygen_bond_distance_aromatic_linkinvent_7_9_3/rearranged_h_0033.sdf

> <i_m_source_file_index>
77

> <r_mmod_Potential_Energy-OPLS-2005>
15305.783203125

> <r_mmod_Stretch_Energy-OPLS-2005>
8290.9580078125

> <r_mmod_Bend_Energy-OPLS-2005>
1398.4130859375

> <r_mmod_Torsional_Energy-OPLS-2005>
626.067016601562

> <r_mmod_Improper_Torsional_Energy-OPLS-2005>
57.7244682312012

> <r_mmod_Van_der_Waal_Energy-OPLS-2005>
2825.23120117188

> <r_mmod_Electrostatic_Energy-OPLS-2005>
-411.077117919922

> <r_mmod_Solvation_Energy-OPLS-2005>
-231.629730224609

> <b_mmod_Minimization_Converged-OPLS-2005>
0

> <r_mmod_RMS_Derivative-OPLS-2005>
1.89776933193207

$$$$
78
                    3D
 Structure written by MMmdl.
159168  0  0  1  0            999 V2000
  -30.4843  -15.0263   20.5444 C   0  0  0  0  0  0
  -30.4531  -12.6737   19.5014 C   0  0  0  0  0  0
  -29.5281  -12.5582   18.2597 C   0  0  0  0  0  0
  -28.0560  -12.3203   18.6533 C   0  0  0  0  0  0
  -27.6230  -13.2319   19.8234 C   0  0  2  0  0  0
  -28.6516  -13.1820   20.9571 C   0  0  0  0  0  0
  -25.2439  -13.8173   20.5628 C   0  0  0  0  0  0
  -24.1753  -13.0420   20.9180 C   0  0  0  0  0  0
  -24.6349  -11.6895   20.8706 C   0  0  0  0  0  0
  -23.9037  -10.4280   21.0391 C   0  0  0  0  0  0
  -24.3602   -9.4205   21.9171 C   0  0  0  0  0  0
  -23.6282   -8.2241   22.0747 C   0  0  0  0  0  0
  -22.4262   -8.0275   21.3542 C   0  0  0  0  0  0
  -21.9890   -9.0242   20.4640 C   0  0  0  0  0  0
  -22.7210  -10.2120   20.3046 C   0  0  0  0  0  0
  -21.6847   -6.0727   22.5284 C   0  0  0  0  0  0
  -21.4018   -6.5629   23.8219 C   0  0  0  0  0  0
  -21.3657   -5.6783   24.9179 C   0  0  0  0  0  0
  -21.6040   -4.3049   24.7227 C   0  0  0  0  0  0
  -21.8815   -3.8142   23.4349 C   0  0  0  0  0  0
  -21.9189   -4.6957   22.3404 C   0  0  0  0  0  0
  -22.7789  -13.5210   21.1883 C   0  0  0  0  0  0
  -22.1656   -4.2146   21.0976 F   0  0  0  0  0  0
  -21.5629   -3.4530   25.7739 F   0  0  0  0  0  0
  -29.9179  -13.7328   20.4220 N   0  0  0  0  0  0
  -26.2802  -12.9351   20.3061 N   0  0  0  0  0  0
  -25.9250  -11.6504   20.5615 N   0  0  0  0  0  0
  -22.0450  -12.8207   22.0452 N   0  0  0  0  0  0
  -25.4162  -15.1906   20.4124 N   0  0  0  0  0  0
  -31.6462  -15.1289   20.1222 O   0  0  0  0  0  0
  -21.6630   -6.8869   21.4243 O   0  0  0  0  0  0
  -22.3465  -14.5510   20.6729 O   0  0  0  0  0  0
  -24.6420  -31.8380   23.1844 C   0  0  0  0  0  0
  -25.9182  -32.4641   23.8224 C   0  0  1  0  0  0
  -27.2167  -27.0949   20.1706 C   0  0  0  0  0  0
  -25.5945  -33.8470   24.2123 N   0  0  0  0  0  0
  -23.4475  -30.4549   21.5311 C   0  0  2  0  0  0
  -24.8954  -28.8588   20.1251 C   0  0  0  0  0  0
  -22.7571  -29.4518   22.4860 C   0  0  0  0  0  0
  -18.0313  -28.1373   22.8469 C   0  0  0  0  0  0
  -24.1505  -36.7264   23.2643 C   0  0  0  0  0  0
  -26.0049  -30.6948   21.3906 C   0  0  0  0  0  0
  -26.0750  -29.2997   20.7409 C   0  0  0  0  0  0
  -27.2367  -28.4366   20.7384 C   0  0  0  0  0  0
  -26.0084  -26.7473   19.5365 C   0  0  0  0  0  0
  -24.8754  -27.5951   19.5122 C   0  0  0  0  0  0
  -23.6781  -29.7737   20.1551 C   0  0  0  0  0  0
  -25.4134  -36.3007   24.0287 C   0  0  1  0  0  0
  -20.5925  -28.3712   23.1240 C   0  0  2  0  0  0
  -20.6819  -26.9413   22.5404 C   0  0  0  0  0  0
  -19.5799  -26.6360   21.5212 C   0  0  0  0  0  0
  -18.1971  -26.7913   22.1613 C   0  0  0  0  0  0
  -19.1570  -28.8863   23.2840 C   0  0  0  0  0  0
  -18.9489  -30.1459   23.8863 C   0  0  0  0  0  0
  -17.6490  -30.6580   24.0548 C   0  0  0  0  0  0
  -25.9093  -34.9381   23.5020 C   0  0  0  0  0  0
  -16.5378  -29.9059   23.6343 C   0  0  0  0  0  0
  -16.7299  -28.6484   23.0345 C   0  0  0  0  0  0
  -26.4519  -31.6528   25.0686 C   0  0  0  0  0  0
  -25.3689  -31.3710   26.1368 C   0  0  0  0  0  0
  -27.0369  -30.2915   24.6289 C   0  0  0  0  0  0
  -27.6052  -32.4329   25.7437 C   0  0  0  0  0  0
  -27.5582  -37.1763   24.8449 C   0  0  0  0  0  0
  -21.4263  -29.3023   22.3600 N   0  0  0  0  0  0
  -26.4301  -37.3718   23.9397 N   0  0  0  0  0  0
  -24.7183  -31.0198   22.0902 N   0  0  0  0  0  0
  -23.4198  -28.8052   23.3010 O   0  0  0  0  0  0
  -28.3226  -26.1734   20.0749 O   0  0  0  0  0  0
  -26.5707  -34.8879   22.4619 O   0  0  0  0  0  0
  -23.5544  -32.1305   23.7045 O   0  0  0  0  0  0
  -30.0940  -19.2721   18.9170 C   0  0  0  0  0  0
  -28.9416  -20.4423   20.6653 C   0  0  0  0  0  0
  -29.5711  -19.1513   20.2179 C   0  0  0  0  0  0
  -30.0533  -20.5010   18.2143 C   0  0  0  0  0  0
  -28.9073  -21.7177   19.8892 C   0  0  0  0  0  0
  -29.6647  -16.9205   23.3456 C   0  0  0  0  0  0
  -29.6649  -18.1879   22.5572 C   0  0  0  0  0  0
  -29.1558  -15.9043   22.3425 C   0  0  0  0  0  0
  -29.9970  -17.7965   21.1078 C   0  0  1  0  0  0
  -30.6710  -20.5847   16.8318 C   0  0  0  0  0  0
  -28.0315  -23.1356   20.0880 C   0  0  0  0  0  0
  -28.4891  -24.6952   20.6028 C   0  0  0  0  0  0
  -29.5044  -21.6559   18.6765 N   0  0  0  0  0  0
  -29.7382  -16.1873   21.0075 N   0  0  0  0  0  0
  -31.4664  -12.9005   19.1675 H   0  0  0  0  0  0
  -30.5366  -11.7168   20.0188 H   0  0  0  0  0  0
  -29.8733  -11.7578   17.6036 H   0  0  0  0  0  0
  -29.5963  -13.4799   17.6787 H   0  0  0  0  0  0
  -27.9505  -11.2743   18.9452 H   0  0  0  0  0  0
  -27.4022  -12.4634   17.7912 H   0  0  0  0  0  0
  -27.6043  -14.2499   19.4311 H   0  0  0  0  0  0
  -28.7855  -12.1535   21.2993 H   0  0  0  0  0  0
  -28.2262  -13.6836   21.8142 H   0  0  0  0  0  0
  -25.2758   -9.5686   22.4729 H   0  0  0  0  0  0
  -23.9992   -7.4635   22.7471 H   0  0  0  0  0  0
  -21.0820   -8.8758   19.8951 H   0  0  0  0  0  0
  -22.3673  -10.9652   19.6150 H   0  0  0  0  0  0
  -21.2016   -7.6137   23.9726 H   0  0  0  0  0  0
  -21.1478   -6.0509   25.9083 H   0  0  0  0  0  0
  -22.0595   -2.7605   23.2849 H   0  0  0  0  0  0
  -22.4085  -11.9887   22.4869 H   0  0  0  0  0  0
  -21.1069  -13.1234   22.2667 H   0  0  0  0  0  0
  -24.6545  -15.8479   20.5381 H   0  0  0  0  0  0
  -26.2715  -15.6319   20.1007 H   0  0  0  0  0  0
  -26.7236  -32.5216   23.0932 H   0  0  0  0  0  0
  -25.0006  -33.9596   25.0215 H   0  0  0  0  0  0
  -22.7514  -31.2810   21.3693 H   0  0  0  0  0  0
  -23.3760  -35.9595   23.3270 H   0  0  0  0  0  0
  -24.3603  -36.8962   22.2069 H   0  0  0  0  0  0
  -23.7278  -37.6449   23.6740 H   0  0  0  0  0  0
  -26.1645  -31.4387   20.6112 H   0  0  0  0  0  0
  -26.8733  -30.7502   22.0341 H   0  0  0  0  0  0
  -28.1473  -28.7799   21.2109 H   0  0  0  0  0  0
  -25.9347  -25.7860   19.0486 H   0  0  0  0  0  0
  -23.9728  -27.2532   19.0224 H   0  0  0  0  0  0
  -23.8236  -30.5442   19.3976 H   0  0  0  0  0  0
  -22.7913  -29.2200   19.8431 H   0  0  0  0  0  0
  -25.1318  -36.1824   25.0775 H   0  0  0  0  0  0
  -21.0018  -28.3306   24.1361 H   0  0  0  0  0  0
  -20.5755  -26.2300   23.3609 H   0  0  0  0  0  0
  -21.6678  -26.7438   22.1173 H   0  0  0  0  0  0
  -19.6973  -25.6266   21.1260 H   0  0  0  0  0  0
  -19.6754  -27.3157   20.6739 H   0  0  0  0  0  0
  -17.4247  -26.6672   21.4002 H   0  0  0  0  0  0
  -18.0370  -26.0020   22.8985 H   0  0  0  0  0  0
  -19.7958  -30.7284   24.2213 H   0  0  0  0  0  0
  -17.5032  -31.6261   24.5140 H   0  0  0  0  0  0
  -15.5381  -30.2938   23.7688 H   0  0  0  0  0  0
  -15.8702  -28.0801   22.7054 H   0  0  0  0  0  0
  -24.5893  -30.7037   25.7683 H   0  0  0  0  0  0
  -24.8836  -32.2876   26.4746 H   0  0  0  0  0  0
  -25.7953  -30.8920   27.0191 H   0  0  0  0  0  0
  -26.2964  -29.6613   24.1350 H   0  0  0  0  0  0
  -27.4030  -29.7247   25.4862 H   0  0  0  0  0  0
  -27.8861  -30.4120   23.9546 H   0  0  0  0  0  0
  -27.2672  -33.3700   26.1876 H   0  0  0  0  0  0
  -28.3902  -32.6784   25.0261 H   0  0  0  0  0  0
  -28.0658  -31.8533   26.5445 H   0  0  0  0  0  0
  -28.2535  -38.0112   24.7547 H   0  0  0  0  0  0
  -28.1140  -36.2649   24.6222 H   0  0  0  0  0  0
  -27.2316  -37.1361   25.8850 H   0  0  0  0  0  0
  -20.9479  -29.8715   21.6756 H   0  0  0  0  0  0
  -26.0153  -38.2771   24.1438 H   0  0  0  0  0  0
  -30.6041  -18.4258   18.4753 H   0  0  0  0  0  0
  -28.4744  -20.4830   21.6382 H   0  0  0  0  0  0
  -29.0367  -16.9801   24.2373 H   0  0  0  0  0  0
  -30.6780  -16.6728   23.6634 H   0  0  0  0  0  0
  -30.3459  -18.9402   22.9616 H   0  0  0  0  0  0
  -28.6524  -18.5868   22.6176 H   0  0  0  0  0  0
  -28.0655  -15.9335   22.2794 H   0  0  0  0  0  0
  -29.4552  -14.9552   22.7878 H   0  0  0  0  0  0
  -31.0852  -17.8225   21.0349 H   0  0  0  0  0  0
  -31.7335  -20.3436   16.8736 H   0  0  0  0  0  0
  -30.5682  -21.5812   16.3986 H   0  0  0  0  0  0
  -30.1891  -19.8738   16.1612 H   0  0  0  0  0  0
  -27.2018  -22.8478   20.7326 H   0  0  0  0  0  0
  -27.5471  -23.2904   19.1231 H   0  0  0  0  0  0
  -29.5741  -24.6177   20.6480 H   0  0  0  0  0  0
  -28.1992  -24.7511   21.6523 H   0  0  0  0  0  0
  1 25  1  0  0  0
  1 30  2  0  0  0
  1 84  1  0  0  0
  2  3  1  0  0  0
  2 25  1  0  0  0
  2 85  1  0  0  0
  2 86  1  0  0  0
  3  4  1  0  0  0
  3 87  1  0  0  0
  3 88  1  0  0  0
  4  5  1  0  0  0
  4 89  1  0  0  0
  4 90  1  0  0  0
  5  6  1  0  0  0
  5 26  1  0  0  0
  5 91  1  0  0  0
  6 25  1  0  0  0
  6 92  1  0  0  0
  6 93  1  0  0  0
  7  8  2  0  0  0
  7 26  1  0  0  0
  7 29  1  0  0  0
  8  9  1  0  0  0
  8 22  1  0  0  0
  9 10  1  0  0  0
  9 27  2  0  0  0
 10 11  2  0  0  0
 10 15  1  0  0  0
 11 12  1  0  0  0
 11 94  1  0  0  0
 12 13  2  0  0  0
 12 95  1  0  0  0
 13 14  1  0  0  0
 13 31  1  0  0  0
 14 15  2  0  0  0
 14 96  1  0  0  0
 15 97  1  0  0  0
 16 17  2  0  0  0
 16 21  1  0  0  0
 16 31  1  0  0  0
 17 18  1  0  0  0
 17 98  1  0  0  0
 18 19  2  0  0  0
 18 99  1  0  0  0
 19 20  1  0  0  0
 19 24  1  0  0  0
 20 21  2  0  0  0
 20100  1  0  0  0
 21 23  1  0  0  0
 22 28  1  0  0  0
 22 32  2  0  0  0
 26 27  1  0  0  0
 28101  1  0  0  0
 28102  1  0  0  0
 29103  1  0  0  0
 29104  1  0  0  0
 33 34  1  0  0  0
 33 66  1  0  0  0
 33 70  2  0  0  0
 34 36  1  0  0  0
 34 59  1  0  0  0
 34105  1  0  0  0
 35 44  2  0  0  0
 35 45  1  0  0  0
 35 68  1  0  0  0
 36 56  1  0  0  0
 36106  1  0  0  0
 37 39  1  0  0  0
 37 47  1  0  0  0
 37 66  1  0  0  0
 37107  1  0  0  0
 38 43  2  0  0  0
 38 46  1  0  0  0
 38 47  1  0  0  0
 39 64  1  0  0  0
 39 67  2  0  0  0
 40 52  1  0  0  0
 40 53  2  0  0  0
 40 58  1  0  0  0
 41108  1  0  0  0
 41109  1  0  0  0
 41110  1  0  0  0
 41 48  1  0  0  0
 42 43  1  0  0  0
 42 66  1  0  0  0
 42111  1  0  0  0
 42112  1  0  0  0
 43 44  1  0  0  0
 44113  1  0  0  0
 45 46  2  0  0  0
 45114  1  0  0  0
 46115  1  0  0  0
 47116  1  0  0  0
 47117  1  0  0  0
 48 56  1  0  0  0
 48 65  1  0  0  0
 48118  1  0  0  0
 49 50  1  0  0  0
 49 53  1  0  0  0
 49 64  1  0  0  0
 49119  1  0  0  0
 50 51  1  0  0  0
 50120  1  0  0  0
 50121  1  0  0  0
 51 52  1  0  0  0
 51122  1  0  0  0
 51123  1  0  0  0
 52124  1  0  0  0
 52125  1  0  0  0
 53 54  1  0  0  0
 54 55  2  0  0  0
 54126  1  0  0  0
 55 57  1  0  0  0
 55127  1  0  0  0
 56 69  2  0  0  0
 57 58  2  0  0  0
 57128  1  0  0  0
 58129  1  0  0  0
 59 60  1  0  0  0
 59 61  1  0  0  0
 59 62  1  0  0  0
 60130  1  0  0  0
 60131  1  0  0  0
 60132  1  0  0  0
 61133  1  0  0  0
 61134  1  0  0  0
 61135  1  0  0  0
 62136  1  0  0  0
 62137  1  0  0  0
 62138  1  0  0  0
 63 65  1  0  0  0
 63139  1  0  0  0
 63140  1  0  0  0
 63141  1  0  0  0
 64142  1  0  0  0
 65143  1  0  0  0
 68 82  1  0  0  0
 71 73  2  0  0  0
 71 74  1  0  0  0
 71144  1  0  0  0
 72 73  1  0  0  0
 72 75  2  0  0  0
 72145  1  0  0  0
 73 79  1  0  0  0
 74 80  1  0  0  0
 74 83  2  0  0  0
 75 81  1  0  0  0
 75 83  1  0  0  0
 76 77  1  0  0  0
 76 78  1  0  0  0
 76146  1  0  0  0
 76147  1  0  0  0
 77 79  1  0  0  0
 77148  1  0  0  0
 77149  1  0  0  0
 78 84  1  0  0  0
 78150  1  0  0  0
 78151  1  0  0  0
 79 84  1  0  0  0
 79152  1  0  0  0
 80153  1  0  0  0
 80154  1  0  0  0
 80155  1  0  0  0
 81 82  1  0  0  0
 81156  1  0  0  0
 81157  1  0  0  0
 82158  1  0  0  0
 82159  1  0  0  0
M  ISO  4   1 100  68 101  82 101  84 100
M  END
> <chiral flag>
0

> <version>
0

> <s_m_source_file>
/data/baiqing/PycharmProjects/Reinvent-master-3.2/result/LINK_invent/BTK/process_docking_weight1_custom_sum_contain_oxygen_bond_distance_aromatic_linkinvent_7_9_3/rearranged_h_0033.sdf

> <i_m_source_file_index>
78

> <r_mmod_Potential_Energy-OPLS-2005>
810.54931640625

> <r_mmod_Stretch_Energy-OPLS-2005>
340.553863525391

> <r_mmod_Bend_Energy-OPLS-2005>
435.039520263672

> <r_mmod_Torsional_Energy-OPLS-2005>
334.213714599609

> <r_mmod_Improper_Torsional_Energy-OPLS-2005>
10.8246784210205

> <r_mmod_Van_der_Waal_Energy-OPLS-2005>
143.90251159668

> <r_mmod_Electrostatic_Energy-OPLS-2005>
-464.782592773438

> <r_mmod_Solvation_Energy-OPLS-2005>
-210.815673828125

> <b_mmod_Minimization_Converged-OPLS-2005>
0

> <r_mmod_RMS_Derivative-OPLS-2005>
3.03216314315796

$$$$
79
                    3D
 Structure written by MMmdl.
174182  0  0  1  0            999 V2000
  -29.8752  -16.8895   20.1798 C   0  0  0  0  0  0
  -30.3574  -13.8912   19.6889 C   0  0  0  0  0  0
  -29.6371  -13.0817   18.5032 C   0  0  0  0  0  0
  -28.3103  -12.4668   18.9362 C   0  0  0  0  0  0
  -27.6235  -13.5031   19.8393 C   0  0  2  0  0  0
  -28.5349  -14.2803   20.9135 C   0  0  0  0  0  0
  -25.2317  -13.8615   20.5866 C   0  0  0  0  0  0
  -24.1853  -13.0508   20.9211 C   0  0  0  0  0  0
  -24.6793  -11.7102   20.8564 C   0  0  0  0  0  0
  -23.9477  -10.4356   21.0219 C   0  0  0  0  0  0
  -24.3839   -9.4257   21.9110 C   0  0  0  0  0  0
  -23.6406   -8.2339   22.0754 C   0  0  0  0  0  0
  -22.4405   -8.0357   21.3536 C   0  0  0  0  0  0
  -22.0101   -9.0372   20.4648 C   0  0  0  0  0  0
  -22.7544  -10.2204   20.2977 C   0  0  0  0  0  0
  -21.6894   -6.0776   22.5287 C   0  0  0  0  0  0
  -21.4015   -6.5665   23.8216 C   0  0  0  0  0  0
  -21.3655   -5.6818   24.9175 C   0  0  0  0  0  0
  -21.6037   -4.3083   24.7231 C   0  0  0  0  0  0
  -21.8813   -3.8181   23.4355 C   0  0  0  0  0  0
  -21.9196   -4.6991   22.3402 C   0  0  0  0  0  0
  -22.7799  -13.5089   21.1815 C   0  0  0  0  0  0
  -22.1669   -4.2164   21.0979 F   0  0  0  0  0  0
  -21.5626   -3.4556   25.7741 F   0  0  0  0  0  0
  -29.6531  -15.2346   20.3675 N   0  0  0  0  0  0
  -26.3123  -13.0411   20.3445 N   0  0  0  0  0  0
  -25.9840  -11.7249   20.5488 N   0  0  0  0  0  0
  -22.0476  -12.8074   22.0377 N   0  0  0  0  0  0
  -25.3576  -15.2384   20.4300 N   0  0  0  0  0  0
  -30.6476  -16.3414   19.3002 O   0  0  0  0  0  0
  -21.6698   -6.8967   21.4271 O   0  0  0  0  0  0
  -22.3409  -14.5344   20.6615 O   0  0  0  0  0  0
  -24.7660  -31.6916   23.0772 C   0  0  0  0  0  0
  -25.9796  -32.3948   23.7650 C   0  0  1  0  0  0
  -27.2740  -25.8502   20.2865 C   0  0  0  0  0  0
  -25.6015  -33.7834   24.1459 N   0  0  0  0  0  0
  -23.6317  -30.2513   21.4584 C   0  0  2  0  0  0
  -25.0887  -28.4082   20.1497 C   0  0  0  0  0  0
  -22.8139  -29.3744   22.4529 C   0  0  0  0  0  0
  -18.0399  -28.1456   22.8419 C   0  0  0  0  0  0
  -24.1498  -36.6919   23.2681 C   0  0  0  0  0  0
  -26.2349  -30.1415   21.4741 C   0  0  0  0  0  0
  -26.2911  -28.6125   20.8379 C   0  0  0  0  0  0
  -27.3210  -27.3942   20.8474 C   0  0  0  0  0  0
  -26.0401  -26.0741   19.5338 C   0  0  0  0  0  0
  -25.0523  -27.1677   19.4689 C   0  0  0  0  0  0
  -23.9201  -29.4565   20.1369 C   0  0  0  0  0  0
  -25.4188  -36.2613   24.0229 C   0  0  1  0  0  0
  -20.6048  -28.3830   23.1011 C   0  0  2  0  0  0
  -20.6810  -26.9421   22.5437 C   0  0  0  0  0  0
  -19.5802  -26.6333   21.5241 C   0  0  0  0  0  0
  -18.1978  -26.7975   22.1611 C   0  0  0  0  0  0
  -19.1673  -28.9011   23.2644 C   0  0  0  0  0  0
  -18.9574  -30.1571   23.8728 C   0  0  0  0  0  0
  -17.6544  -30.6619   24.0530 C   0  0  0  0  0  0
  -25.9206  -34.9022   23.4753 C   0  0  0  0  0  0
  -16.5432  -29.9077   23.6367 C   0  0  0  0  0  0
  -16.7371  -28.6500   23.0400 C   0  0  0  0  0  0
  -26.4725  -31.6381   25.0651 C   0  0  0  0  0  0
  -25.3542  -31.3900   26.1081 C   0  0  0  0  0  0
  -27.0790  -30.2650   24.7149 C   0  0  0  0  0  0
  -27.6040  -32.4453   25.7474 C   0  0  0  0  0  0
  -27.5549  -37.1598   24.8472 C   0  0  0  0  0  0
  -21.4705  -29.2880   22.3247 N   0  0  0  0  0  0
  -26.4244  -37.3471   23.9415 N   0  0  0  0  0  0
  -24.9132  -30.7507   22.0550 N   0  0  0  0  0  0
  -23.4182  -28.7513   23.3274 O   0  0  0  0  0  0
  -28.1541  -24.2613   20.3383 O   0  0  0  0  0  0
  -26.6002  -34.8770   22.4475 O   0  0  0  0  0  0
  -23.6513  -32.0409   23.5203 O   0  0  0  0  0  0
  -28.3248  -18.4117   21.5617 C   0  0  0  0  0  0
  -30.6638  -19.2886   19.5104 C   0  0  0  0  0  0
  -28.9877  -19.8825   20.3308 C   0  0  0  0  0  0
  -29.5212  -17.0037   22.5197 C   0  0  0  0  0  0
  -32.0325  -18.0097   20.2763 C   0  0  0  0  0  0
  -31.4964  -16.8127   21.8778 C   0  0  0  0  0  0
  -29.0973  -16.2225   23.7523 C   0  0  0  0  0  0
  -33.3737  -17.9725   19.5521 C   0  0  0  0  0  0
  -28.1511  -22.0569   20.2231 C   0  0  0  0  0  0
  -32.2522  -22.8276   20.5850 C   0  0  0  0  0  0
  -31.6244  -21.9503   21.6867 C   0  0  0  0  0  0
  -32.0373  -22.2935   19.1492 C   0  0  0  0  0  0
  -32.3314  -20.6089   21.8809 C   0  0  0  0  0  0
  -33.1842  -21.5910   18.3276 C   0  0  0  0  0  0
  -31.4863  -19.4883   22.5227 C   0  0  0  0  0  0
  -34.0043  -20.3380   18.8009 C   0  0  0  0  0  0
  -30.4783  -18.7449   21.6373 N   0  0  0  0  0  0
  -33.4441  -18.9961   18.4625 N   0  3  0  0  0  0
  -32.6116  -15.7405   22.6393 Cl  0  0  0  0  0  0
  -31.3385  -14.1587   19.2853 H   0  0  0  0  0  0
  -30.6531  -13.1778   20.4681 H   0  0  0  0  0  0
  -30.2927  -12.2897   18.1364 H   0  0  0  0  0  0
  -29.4792  -13.7477   17.6491 H   0  0  0  0  0  0
  -28.5072  -11.5609   19.5096 H   0  0  0  0  0  0
  -27.7078  -12.1677   18.0765 H   0  0  0  0  0  0
  -27.3697  -14.2734   19.1063 H   0  0  0  0  0  0
  -28.9060  -13.5976   21.6785 H   0  0  0  0  0  0
  -27.8656  -14.9511   21.4542 H   0  0  0  0  0  0
  -25.2906   -9.5705   22.4795 H   0  0  0  0  0  0
  -24.0014   -7.4760   22.7548 H   0  0  0  0  0  0
  -21.0978   -8.8978   19.8993 H   0  0  0  0  0  0
  -22.3971  -10.9751   19.6131 H   0  0  0  0  0  0
  -21.2008   -7.6165   23.9718 H   0  0  0  0  0  0
  -21.1479   -6.0548   25.9076 H   0  0  0  0  0  0
  -22.0586   -2.7633   23.2865 H   0  0  0  0  0  0
  -22.4065  -11.9818   22.4911 H   0  0  0  0  0  0
  -21.1075  -13.1113   22.2389 H   0  0  0  0  0  0
  -24.5735  -15.8693   20.5447 H   0  0  0  0  0  0
  -26.2048  -15.7076   20.1347 H   0  0  0  0  0  0
  -26.8032  -32.4310   23.0480 H   0  0  0  0  0  0
  -24.9865  -33.8724   24.9427 H   0  0  0  0  0  0
  -23.0075  -31.1053   21.1917 H   0  0  0  0  0  0
  -23.3816  -35.9178   23.3196 H   0  0  0  0  0  0
  -24.3524  -36.8779   22.2121 H   0  0  0  0  0  0
  -23.7186  -37.5994   23.6915 H   0  0  0  0  0  0
  -26.5344  -30.8079   20.6621 H   0  0  0  0  0  0
  -27.0553  -30.2186   22.1764 H   0  0  0  0  0  0
  -28.2140  -27.6081   21.4189 H   0  0  0  0  0  0
  -25.7462  -25.2098   18.9611 H   0  0  0  0  0  0
  -24.1800  -26.9749   18.8591 H   0  0  0  0  0  0
  -24.1553  -30.1707   19.3463 H   0  0  0  0  0  0
  -23.0101  -28.9453   19.8053 H   0  0  0  0  0  0
  -25.1426  -36.1245   25.0710 H   0  0  0  0  0  0
  -21.0108  -28.3516   24.1136 H   0  0  0  0  0  0
  -20.5596  -26.2479   23.3757 H   0  0  0  0  0  0
  -21.6660  -26.7223   22.1289 H   0  0  0  0  0  0
  -19.6930  -25.6201   21.1354 H   0  0  0  0  0  0
  -19.6774  -27.3064   20.6702 H   0  0  0  0  0  0
  -17.4255  -26.6740   21.3991 H   0  0  0  0  0  0
  -18.0319  -26.0153   22.9031 H   0  0  0  0  0  0
  -19.8051  -30.7437   24.2022 H   0  0  0  0  0  0
  -17.5090  -31.6291   24.5143 H   0  0  0  0  0  0
  -15.5417  -30.2930   23.7807 H   0  0  0  0  0  0
  -15.8769  -28.0768   22.7216 H   0  0  0  0  0  0
  -24.5809  -30.7223   25.7253 H   0  0  0  0  0  0
  -24.8674  -32.3188   26.4055 H   0  0  0  0  0  0
  -25.7489  -30.9283   27.0137 H   0  0  0  0  0  0
  -26.3631  -29.5969   24.2377 H   0  0  0  0  0  0
  -27.4104  -29.7472   25.6146 H   0  0  0  0  0  0
  -27.9635  -30.3589   24.0862 H   0  0  0  0  0  0
  -27.2496  -33.3917   26.1531 H   0  0  0  0  0  0
  -28.4051  -32.6735   25.0445 H   0  0  0  0  0  0
  -28.0474  -31.8952   26.5770 H   0  0  0  0  0  0
  -28.2477  -37.9981   24.7567 H   0  0  0  0  0  0
  -28.1133  -36.2485   24.6241 H   0  0  0  0  0  0
  -27.2254  -37.1142   25.8875 H   0  0  0  0  0  0
  -21.0279  -29.8342   21.6002 H   0  0  0  0  0  0
  -25.9989  -38.2469   24.1478 H   0  0  0  0  0  0
  -27.3528  -18.5690   22.0123 H   0  0  0  0  0  0
  -31.0051  -19.8549   18.6612 H   0  0  0  0  0  0
  -28.5965  -15.2819   23.5272 H   0  0  0  0  0  0
  -28.4323  -16.8140   24.3728 H   0  0  0  0  0  0
  -29.9896  -15.9857   24.3394 H   0  0  0  0  0  0
  -33.4534  -16.9825   19.1028 H   0  0  0  0  0  0
  -34.2131  -18.0639   20.2401 H   0  0  0  0  0  0
  -27.4034  -21.9154   21.0028 H   0  0  0  0  0  0
  -27.5749  -21.9553   19.3073 H   0  0  0  0  0  0
  -33.3011  -23.0446   20.7983 H   0  0  0  0  0  0
  -31.7276  -23.7859   20.6542 H   0  0  0  0  0  0
  -30.5725  -21.7709   21.4778 H   0  0  0  0  0  0
  -31.6290  -22.4844   22.6390 H   0  0  0  0  0  0
  -31.8187  -23.1908   18.5641 H   0  0  0  0  0  0
  -31.0756  -21.7982   19.1140 H   0  0  0  0  0  0
  -33.2313  -20.7856   22.4631 H   0  0  0  0  0  0
  -32.6965  -20.2688   20.9373 H   0  0  0  0  0  0
  -33.9346  -22.3642   18.1780 H   0  0  0  0  0  0
  -32.8072  -21.3992   17.3182 H   0  0  0  0  0  0
  -30.9172  -19.9381   23.3393 H   0  0  0  0  0  0
  -32.1778  -18.8283   23.0394 H   0  0  0  0  0  0
  -34.3696  -20.4210   19.8176 H   0  0  0  0  0  0
  -34.9332  -20.3642   18.2266 H   0  0  0  0  0  0
  -29.5912  -19.2038   21.7635 H   0  0  0  0  0  0
  -32.5458  -19.0963   18.0089 H   0  0  0  0  0  0
  -34.0516  -18.6180   17.7526 H   0  0  0  0  0  0
  1 25  1  0  0  0
  1 30  2  0  0  0
  1 87  1  0  0  0
  2  3  1  0  0  0
  2 25  1  0  0  0
  2 90  1  0  0  0
  2 91  1  0  0  0
  3  4  1  0  0  0
  3 92  1  0  0  0
  3 93  1  0  0  0
  4  5  1  0  0  0
  4 94  1  0  0  0
  4 95  1  0  0  0
  5  6  1  0  0  0
  5 26  1  0  0  0
  5 96  1  0  0  0
  6 25  1  0  0  0
  6 97  1  0  0  0
  6 98  1  0  0  0
  7  8  2  0  0  0
  7 26  1  0  0  0
  7 29  1  0  0  0
  8  9  1  0  0  0
  8 22  1  0  0  0
  9 10  1  0  0  0
  9 27  2  0  0  0
 10 11  2  0  0  0
 10 15  1  0  0  0
 11 12  1  0  0  0
 11 99  1  0  0  0
 12 13  2  0  0  0
 12100  1  0  0  0
 13 14  1  0  0  0
 13 31  1  0  0  0
 14 15  2  0  0  0
 14101  1  0  0  0
 15102  1  0  0  0
 16 17  2  0  0  0
 16 21  1  0  0  0
 16 31  1  0  0  0
 17 18  1  0  0  0
 17103  1  0  0  0
 18 19  2  0  0  0
 18104  1  0  0  0
 19 20  1  0  0  0
 19 24  1  0  0  0
 20 21  2  0  0  0
 20105  1  0  0  0
 21 23  1  0  0  0
 22 28  1  0  0  0
 22 32  2  0  0  0
 26 27  1  0  0  0
 28106  1  0  0  0
 28107  1  0  0  0
 29108  1  0  0  0
 29109  1  0  0  0
 33 34  1  0  0  0
 33 66  1  0  0  0
 33 70  2  0  0  0
 34 36  1  0  0  0
 34 59  1  0  0  0
 34110  1  0  0  0
 35 44  2  0  0  0
 35 45  1  0  0  0
 35 68  1  0  0  0
 36 56  1  0  0  0
 36111  1  0  0  0
 37 39  1  0  0  0
 37 47  1  0  0  0
 37 66  1  0  0  0
 37112  1  0  0  0
 38 43  2  0  0  0
 38 46  1  0  0  0
 38 47  1  0  0  0
 39 64  1  0  0  0
 39 67  2  0  0  0
 40 52  1  0  0  0
 40 53  2  0  0  0
 40 58  1  0  0  0
 41113  1  0  0  0
 41114  1  0  0  0
 41115  1  0  0  0
 41 48  1  0  0  0
 42 43  1  0  0  0
 42 66  1  0  0  0
 42116  1  0  0  0
 42117  1  0  0  0
 43 44  1  0  0  0
 44118  1  0  0  0
 45 46  2  0  0  0
 45119  1  0  0  0
 46120  1  0  0  0
 47121  1  0  0  0
 47122  1  0  0  0
 48 56  1  0  0  0
 48 65  1  0  0  0
 48123  1  0  0  0
 49 50  1  0  0  0
 49 53  1  0  0  0
 49 64  1  0  0  0
 49124  1  0  0  0
 50 51  1  0  0  0
 50125  1  0  0  0
 50126  1  0  0  0
 51 52  1  0  0  0
 51127  1  0  0  0
 51128  1  0  0  0
 52129  1  0  0  0
 52130  1  0  0  0
 53 54  1  0  0  0
 54 55  2  0  0  0
 54131  1  0  0  0
 55 57  1  0  0  0
 55132  1  0  0  0
 56 69  2  0  0  0
 57 58  2  0  0  0
 57133  1  0  0  0
 58134  1  0  0  0
 59 60  1  0  0  0
 59 61  1  0  0  0
 59 62  1  0  0  0
 60135  1  0  0  0
 60136  1  0  0  0
 60137  1  0  0  0
 61138  1  0  0  0
 61139  1  0  0  0
 61140  1  0  0  0
 62141  1  0  0  0
 62142  1  0  0  0
 62143  1  0  0  0
 63 65  1  0  0  0
 63144  1  0  0  0
 63145  1  0  0  0
 63146  1  0  0  0
 64147  1  0  0  0
 65148  1  0  0  0
 68 79  1  0  0  0
 71 73  2  0  0  0
 71 74  1  0  0  0
 71149  1  0  0  0
 72 73  1  0  0  0
 72 75  2  0  0  0
 72150  1  0  0  0
 73 79  1  0  0  0
 74 76  2  0  0  0
 74 77  1  0  0  0
 75 76  1  0  0  0
 75 78  1  0  0  0
 76 89  1  0  0  0
 77151  1  0  0  0
 77152  1  0  0  0
 77153  1  0  0  0
 78 88  1  0  0  0
 78154  1  0  0  0
 78155  1  0  0  0
 79156  1  0  0  0
 79157  1  0  0  0
 80 81  1  0  0  0
 80 82  1  0  0  0
 80158  1  0  0  0
 80159  1  0  0  0
 81 83  1  0  0  0
 81160  1  0  0  0
 81161  1  0  0  0
 82 84  1  0  0  0
 82162  1  0  0  0
 82163  1  0  0  0
 83 85  1  0  0  0
 83164  1  0  0  0
 83165  1  0  0  0
 84 86  1  0  0  0
 84166  1  0  0  0
 84167  1  0  0  0
 85 87  1  0  0  0
 85168  1  0  0  0
 85169  1  0  0  0
 86 88  1  0  0  0
 86170  1  0  0  0
 86171  1  0  0  0
 87172  1  0  0  0
 88173  1  0  0  0
 88174  1  0  0  0
M  CHG  1  88   1
M  ISO  4   1 100  68 101  79 101  87 100
M  END
> <chiral flag>
0

> <version>
0

> <s_m_source_file>
/data/baiqing/PycharmProjects/Reinvent-master-3.2/result/LINK_invent/BTK/process_docking_weight1_custom_sum_contain_oxygen_bond_distance_aromatic_linkinvent_7_9_3/rearranged_h_0033.sdf

> <i_m_source_file_index>
79

> <r_mmod_Potential_Energy-OPLS-2005>
17768.583984375

> <r_mmod_Stretch_Energy-OPLS-2005>
10155.9892578125

> <r_mmod_Bend_Energy-OPLS-2005>
1300.93969726562

> <r_mmod_Torsional_Energy-OPLS-2005>
385.782653808594

> <r_mmod_Improper_Torsional_Energy-OPLS-2005>
87.7014617919922

> <r_mmod_Van_der_Waal_Energy-OPLS-2005>
2939.95385742188

> <r_mmod_Electrostatic_Energy-OPLS-2005>
-330.670989990234

> <r_mmod_Solvation_Energy-OPLS-2005>
-428.206817626953

> <b_mmod_Minimization_Converged-OPLS-2005>
0

> <r_mmod_RMS_Derivative-OPLS-2005>
17.8276481628418

$$$$
80
                    3D
 Structure written by MMmdl.
162170  0  0  1  0            999 V2000
  -31.2453  -13.8308   20.9633 C   0  0  0  0  0  0
  -30.2670  -11.7031   19.5653 C   0  0  0  0  0  0
  -29.1408  -11.6975   18.0210 C   0  0  0  0  0  0
  -27.6282  -12.9470   18.0623 C   0  0  0  0  0  0
  -27.6986  -14.1360   19.9354 C   0  0  2  0  0  0
  -28.8879  -13.7063   21.1624 C   0  0  0  0  0  0
  -25.9332  -15.0775   21.4748 C   0  0  0  0  0  0
  -24.8689  -14.4110   21.7760 C   0  0  0  0  0  0
  -25.1772  -13.7506   20.4598 C   0  0  0  0  0  0
  -23.6054  -11.1821   19.6085 C   0  0  0  0  0  0
  -24.1511   -9.8094   20.3415 C   0  0  0  0  0  0
  -23.6433   -8.6799   21.1427 C   0  0  0  0  0  0
  -22.2948   -8.3661   21.0689 C   0  0  0  0  0  0
  -21.6514   -9.4147   20.3336 C   0  0  0  0  0  0
  -22.2333  -10.6765   19.7980 C   0  0  0  0  0  0
  -21.7665   -6.2520   22.4658 C   0  0  0  0  0  0
  -21.4715   -6.6829   23.7830 C   0  0  0  0  0  0
  -21.3983   -5.7690   24.8674 C   0  0  0  0  0  0
  -21.6142   -4.3906   24.6630 C   0  0  0  0  0  0
  -21.8893   -3.9339   23.3646 C   0  0  0  0  0  0
  -21.9543   -4.8437   22.2831 C   0  0  0  0  0  0
  -23.4377  -14.6770   22.4474 C   0  0  0  0  0  0
  -22.1715   -4.3332   21.0483 F   0  0  0  0  0  0
  -21.5533   -3.5165   25.7015 F   0  0  0  0  0  0
  -30.2064  -12.9031   20.7912 N   0  0  0  0  0  0
  -26.7293  -14.1445   20.8735 N   0  0  0  0  0  0
  -26.1555  -14.1640   19.9123 N   0  0  0  0  0  0
  -22.7543  -13.6403   23.0150 N   0  0  0  0  0  0
  -26.0227  -16.3845   21.1643 N   0  0  0  0  0  0
  -32.4217  -13.6061   20.7803 O   0  0  0  0  0  0
  -21.6728   -7.1104   21.3471 O   0  0  0  0  0  0
  -22.6772  -15.4945   21.9127 O   0  0  0  0  0  0
  -24.7850  -31.6115   23.0574 C   0  0  0  0  0  0
  -25.9895  -32.3505   23.7403 C   0  0  1  0  0  0
  -25.9491  -25.0724   20.1436 C   0  0  0  0  0  0
  -25.5983  -33.7473   24.1083 N   0  0  0  0  0  0
  -23.5829  -30.2422   21.4578 C   0  0  2  0  0  0
  -24.7773  -28.2946   20.0331 C   0  0  0  0  0  0
  -22.7778  -29.3503   22.4400 C   0  0  0  0  0  0
  -18.0302  -28.1423   22.8429 C   0  0  0  0  0  0
  -24.1500  -36.6739   23.2691 C   0  0  0  0  0  0
  -26.0944  -29.6817   21.5662 C   0  0  0  0  0  0
  -25.8740  -28.1335   20.8554 C   0  0  0  0  0  0
  -26.4444  -26.5846   20.8566 C   0  0  0  0  0  0
  -25.1954  -25.8659   19.1868 C   0  0  0  0  0  0
  -24.6099  -27.2089   19.1514 C   0  0  0  0  0  0
  -23.8196  -29.5298   20.0790 C   0  0  0  0  0  0
  -25.4203  -36.2356   24.0178 C   0  0  1  0  0  0
  -20.5906  -28.3728   23.1036 C   0  0  2  0  0  0
  -20.6674  -26.9318   22.5467 C   0  0  0  0  0  0
  -19.5702  -26.6296   21.5227 C   0  0  0  0  0  0
  -18.1884  -26.7950   22.1592 C   0  0  0  0  0  0
  -19.1575  -28.8930   23.2709 C   0  0  0  0  0  0
  -18.9522  -30.1514   23.8771 C   0  0  0  0  0  0
  -17.6514  -30.6605   24.0546 C   0  0  0  0  0  0
  -25.9260  -34.8786   23.4599 C   0  0  0  0  0  0
  -16.5391  -29.9091   23.6365 C   0  0  0  0  0  0
  -16.7298  -28.6512   23.0382 C   0  0  0  0  0  0
  -26.4804  -31.6301   25.0583 C   0  0  0  0  0  0
  -25.3629  -31.3949   26.1037 C   0  0  0  0  0  0
  -27.0924  -30.2593   24.7337 C   0  0  0  0  0  0
  -27.6004  -32.4539   25.7380 C   0  0  0  0  0  0
  -27.5518  -37.1489   24.8457 C   0  0  0  0  0  0
  -21.4394  -29.2753   22.3166 N   0  0  0  0  0  0
  -26.4189  -37.3300   23.9430 N   0  0  0  0  0  0
  -24.8935  -30.6008   22.0671 N   0  0  0  0  0  0
  -23.3807  -28.7269   23.3173 O   0  0  0  0  0  0
  -25.9581  -23.0931   20.0485 O   0  0  0  0  0  0
  -26.6144  -34.8665   22.4388 O   0  0  0  0  0  0
  -23.6756  -32.0104   23.4781 O   0  0  0  0  0  0
  -25.0936  -12.5575   18.4455 C   0  0  0  0  0  0
  -24.2538  -12.0972   21.4335 C   0  0  0  0  0  0
  -25.8122  -11.7028   19.9884 C   0  0  0  0  0  0
  -24.1969  -14.0612   18.2697 C   0  0  0  0  0  0
  -23.6454  -15.2527   19.3781 C   0  0  0  0  0  0
  -22.9975  -13.5208   20.2743 C   0  0  0  0  0  0
  -24.1317  -14.5075   16.8241 C   0  0  0  0  0  0
  -27.8148  -11.8313   20.0221 C   0  0  0  0  0  0
  -24.4510  -17.8481   19.4537 C   0  0  0  0  0  0
  -29.5879  -13.8458   18.7060 C   0  0  0  0  0  0
  -31.1015  -14.1902   18.3341 C   0  0  0  0  0  0
  -31.5158  -15.3941   19.2318 C   0  0  0  0  0  0
  -24.9509  -20.7136   19.8644 C   0  0  0  0  0  0
  -31.0361  -15.1021   20.5901 N   0  0  0  0  0  0
  -21.2500  -13.4893   20.4140 Cl  0  0  0  0  0  0
  -31.2962  -11.5610   19.2478 H   0  0  0  0  0  0
  -30.1176  -10.7603   20.0953 H   0  0  0  0  0  0
  -28.8123  -10.6798   17.7988 H   0  0  0  0  0  0
  -29.7514  -11.8783   17.1299 H   0  0  0  0  0  0
  -27.1246  -12.0331   17.8085 H   0  0  0  0  0  0
  -27.4764  -13.5634   17.1725 H   0  0  0  0  0  0
  -27.9273  -15.2311   19.8025 H   0  0  0  0  0  0
  -28.4831  -13.1930   22.0409 H   0  0  0  0  0  0
  -29.0509  -14.6321   21.7188 H   0  0  0  0  0  0
  -25.2082   -9.6189   20.4116 H   0  0  0  0  0  0
  -24.3359   -7.9658   21.5652 H   0  0  0  0  0  0
  -20.5912   -9.2805   20.1674 H   0  0  0  0  0  0
  -21.4720  -11.2860   19.3395 H   0  0  0  0  0  0
  -21.2727   -7.7302   23.9653 H   0  0  0  0  0  0
  -21.1732   -6.1308   25.8611 H   0  0  0  0  0  0
  -22.0408   -2.8798   23.1876 H   0  0  0  0  0  0
  -23.2381  -12.7863   23.2477 H   0  0  0  0  0  0
  -21.7695  -13.7322   23.2152 H   0  0  0  0  0  0
  -25.1608  -16.9146   21.1755 H   0  0  0  0  0  0
  -26.5206  -16.5056   20.2912 H   0  0  0  0  0  0
  -26.8075  -32.3765   23.0172 H   0  0  0  0  0  0
  -24.9753  -33.8313   24.8978 H   0  0  0  0  0  0
  -22.9950  -31.1398   21.2501 H   0  0  0  0  0  0
  -23.3842  -35.8976   23.3126 H   0  0  0  0  0  0
  -24.3532  -36.8723   22.2155 H   0  0  0  0  0  0
  -23.7185  -37.5755   23.7047 H   0  0  0  0  0  0
  -26.6123  -30.2798   20.8158 H   0  0  0  0  0  0
  -26.8388  -29.5375   22.3319 H   0  0  0  0  0  0
  -27.2302  -26.4450   21.5845 H   0  0  0  0  0  0
  -24.7915  -25.2489   18.3961 H   0  0  0  0  0  0
  -23.8882  -27.3621   18.3611 H   0  0  0  0  0  0
  -24.2016  -30.2631   19.3676 H   0  0  0  0  0  0
  -22.8537  -29.2220   19.6765 H   0  0  0  0  0  0
  -25.1484  -36.0891   25.0657 H   0  0  0  0  0  0
  -20.9996  -28.3466   24.1161 H   0  0  0  0  0  0
  -20.5397  -26.2389   23.3798 H   0  0  0  0  0  0
  -21.6542  -26.7099   22.1377 H   0  0  0  0  0  0
  -19.6813  -25.6177   21.1323 H   0  0  0  0  0  0
  -19.6711  -27.3059   20.6726 H   0  0  0  0  0  0
  -17.4170  -26.6762   21.3974 H   0  0  0  0  0  0
  -18.0193  -26.0116   22.8990 H   0  0  0  0  0  0
  -19.8025  -30.7340   24.2074 H   0  0  0  0  0  0
  -17.5089  -31.6278   24.5162 H   0  0  0  0  0  0
  -15.5394  -30.2970   23.7754 H   0  0  0  0  0  0
  -15.8701  -28.0805   22.7151 H   0  0  0  0  0  0
  -24.5917  -30.7165   25.7370 H   0  0  0  0  0  0
  -24.8721  -32.3262   26.3866 H   0  0  0  0  0  0
  -25.7619  -30.9525   27.0173 H   0  0  0  0  0  0
  -26.3415  -29.5500   24.3862 H   0  0  0  0  0  0
  -27.5239  -29.8053   25.6266 H   0  0  0  0  0  0
  -27.9034  -30.3396   24.0093 H   0  0  0  0  0  0
  -27.2375  -33.4086   26.1202 H   0  0  0  0  0  0
  -28.4140  -32.6682   25.0441 H   0  0  0  0  0  0
  -28.0303  -31.9231   26.5883 H   0  0  0  0  0  0
  -28.2353  -37.9948   24.7598 H   0  0  0  0  0  0
  -28.1184  -36.2448   24.6164 H   0  0  0  0  0  0
  -27.2241  -37.0941   25.8854 H   0  0  0  0  0  0
  -20.9845  -29.8304   21.6060 H   0  0  0  0  0  0
  -25.9865  -38.2254   24.1545 H   0  0  0  0  0  0
  -25.2540  -12.0977   17.4815 H   0  0  0  0  0  0
  -23.9920  -11.4370   22.2509 H   0  0  0  0  0  0
  -25.0999  -14.8920   16.5047 H   0  0  0  0  0  0
  -23.3823  -15.2862   16.6769 H   0  0  0  0  0  0
  -23.8655  -13.6680   16.1801 H   0  0  0  0  0  0
  -27.9384  -10.7912   19.7093 H   0  0  0  0  0  0
  -28.0409  -11.5442   21.0492 H   0  0  0  0  0  0
  -23.7461  -18.0587   18.6502 H   0  0  0  0  0  0
  -25.3867  -17.6500   18.9333 H   0  0  0  0  0  0
  -29.3380  -14.9028   18.6725 H   0  0  0  0  0  0
  -29.4930  -13.9189   17.6116 H   0  0  0  0  0  0
  -31.2360  -14.5579   17.3082 H   0  0  0  0  0  0
  -31.8057  -13.3640   18.3666 H   0  0  0  0  0  0
  -31.0679  -16.3295   18.8925 H   0  0  0  0  0  0
  -32.5987  -15.5491   19.2089 H   0  0  0  0  0  0
  -24.5472  -20.7442   20.8770 H   0  0  0  0  0  0
  -24.1279  -21.0488   19.2335 H   0  0  0  0  0  0
  -31.3398  -15.7843   21.2711 H   0  0  0  0  0  0
  1 25  1  0  0  0
  1 30  2  0  0  0
  1 84  1  0  0  0
  2  3  1  0  0  0
  2 25  1  0  0  0
  2 86  1  0  0  0
  2 87  1  0  0  0
  3  4  1  0  0  0
  3 88  1  0  0  0
  3 89  1  0  0  0
  4  5  1  0  0  0
  4 90  1  0  0  0
  4 91  1  0  0  0
  5  6  1  0  0  0
  5 26  1  0  0  0
  5 92  1  0  0  0
  6 25  1  0  0  0
  6 93  1  0  0  0
  6 94  1  0  0  0
  7  8  2  0  0  0
  7 26  1  0  0  0
  7 29  1  0  0  0
  8  9  1  0  0  0
  8 22  1  0  0  0
  9 10  1  0  0  0
  9 27  2  0  0  0
 10 11  2  0  0  0
 10 15  1  0  0  0
 11 12  1  0  0  0
 11 95  1  0  0  0
 12 13  2  0  0  0
 12 96  1  0  0  0
 13 14  1  0  0  0
 13 31  1  0  0  0
 14 15  2  0  0  0
 14 97  1  0  0  0
 15 98  1  0  0  0
 16 17  2  0  0  0
 16 21  1  0  0  0
 16 31  1  0  0  0
 17 18  1  0  0  0
 17 99  1  0  0  0
 18 19  2  0  0  0
 18100  1  0  0  0
 19 20  1  0  0  0
 19 24  1  0  0  0
 20 21  2  0  0  0
 20101  1  0  0  0
 21 23  1  0  0  0
 22 28  1  0  0  0
 22 32  2  0  0  0
 26 27  1  0  0  0
 28102  1  0  0  0
 28103  1  0  0  0
 29104  1  0  0  0
 29105  1  0  0  0
 33 34  1  0  0  0
 33 66  1  0  0  0
 33 70  2  0  0  0
 34 36  1  0  0  0
 34 59  1  0  0  0
 34106  1  0  0  0
 35 44  2  0  0  0
 35 45  1  0  0  0
 35 68  1  0  0  0
 36 56  1  0  0  0
 36107  1  0  0  0
 37 39  1  0  0  0
 37 47  1  0  0  0
 37 66  1  0  0  0
 37108  1  0  0  0
 38 43  2  0  0  0
 38 46  1  0  0  0
 38 47  1  0  0  0
 39 64  1  0  0  0
 39 67  2  0  0  0
 40 52  1  0  0  0
 40 53  2  0  0  0
 40 58  1  0  0  0
 41109  1  0  0  0
 41110  1  0  0  0
 41111  1  0  0  0
 41 48  1  0  0  0
 42 43  1  0  0  0
 42 66  1  0  0  0
 42112  1  0  0  0
 42113  1  0  0  0
 43 44  1  0  0  0
 44114  1  0  0  0
 45 46  2  0  0  0
 45115  1  0  0  0
 46116  1  0  0  0
 47117  1  0  0  0
 47118  1  0  0  0
 48 56  1  0  0  0
 48 65  1  0  0  0
 48119  1  0  0  0
 49 50  1  0  0  0
 49 53  1  0  0  0
 49 64  1  0  0  0
 49120  1  0  0  0
 50 51  1  0  0  0
 50121  1  0  0  0
 50122  1  0  0  0
 51 52  1  0  0  0
 51123  1  0  0  0
 51124  1  0  0  0
 52125  1  0  0  0
 52126  1  0  0  0
 53 54  1  0  0  0
 54 55  2  0  0  0
 54127  1  0  0  0
 55 57  1  0  0  0
 55128  1  0  0  0
 56 69  2  0  0  0
 57 58  2  0  0  0
 57129  1  0  0  0
 58130  1  0  0  0
 59 60  1  0  0  0
 59 61  1  0  0  0
 59 62  1  0  0  0
 60131  1  0  0  0
 60132  1  0  0  0
 60133  1  0  0  0
 61134  1  0  0  0
 61135  1  0  0  0
 61136  1  0  0  0
 62137  1  0  0  0
 62138  1  0  0  0
 62139  1  0  0  0
 63 65  1  0  0  0
 63140  1  0  0  0
 63141  1  0  0  0
 63142  1  0  0  0
 64143  1  0  0  0
 65144  1  0  0  0
 68 83  1  0  0  0
 71 73  2  0  0  0
 71 74  1  0  0  0
 71145  1  0  0  0
 72 73  1  0  0  0
 72 76  2  0  0  0
 72146  1  0  0  0
 73 78  1  0  0  0
 74 75  2  0  0  0
 74 77  1  0  0  0
 75 76  1  0  0  0
 75 79  1  0  0  0
 76 85  1  0  0  0
 77147  1  0  0  0
 77148  1  0  0  0
 77149  1  0  0  0
 78 80  1  0  0  0
 78150  1  0  0  0
 78151  1  0  0  0
 79 83  1  0  0  0
 79152  1  0  0  0
 79153  1  0  0  0
 80 81  1  0  0  0
 80154  1  0  0  0
 80155  1  0  0  0
 81 82  1  0  0  0
 81156  1  0  0  0
 81157  1  0  0  0
 82 84  1  0  0  0
 82158  1  0  0  0
 82159  1  0  0  0
 83160  1  0  0  0
 83161  1  0  0  0
 84162  1  0  0  0
M  ISO  4   1 100  68 101  83 101  84 100
M  END
> <chiral flag>
0

> <version>
0

> <s_m_source_file>
/data/baiqing/PycharmProjects/Reinvent-master-3.2/result/LINK_invent/BTK/process_docking_weight1_custom_sum_contain_oxygen_bond_distance_aromatic_linkinvent_7_9_3/rearranged_h_0033.sdf

> <i_m_source_file_index>
80

> <r_mmod_Potential_Energy-OPLS-2005>
36508.72265625

> <r_mmod_Stretch_Energy-OPLS-2005>
19580.720703125

> <r_mmod_Bend_Energy-OPLS-2005>
2659.13305664062

> <r_mmod_Torsional_Energy-OPLS-2005>
1079.60131835938

> <r_mmod_Improper_Torsional_Energy-OPLS-2005>
178.964263916016

> <r_mmod_Van_der_Waal_Energy-OPLS-2005>
5242.56591796875

> <r_mmod_Electrostatic_Energy-OPLS-2005>
-387.033905029297

> <r_mmod_Solvation_Energy-OPLS-2005>
-202.388381958008

> <b_mmod_Minimization_Converged-OPLS-2005>
0

> <r_mmod_RMS_Derivative-OPLS-2005>
7.85786199569702

$$$$
81
                    3D
 Structure written by MMmdl.
173181  0  0  1  0            999 V2000
  -30.8034  -14.2821   20.7656 C   0  0  0  0  0  0
  -30.4314  -12.2870   19.3577 C   0  0  0  0  0  0
  -29.4785  -12.5329   18.1741 C   0  0  0  0  0  0
  -28.0067  -12.3764   18.6008 C   0  0  0  0  0  0
  -27.6764  -13.1933   19.8749 C   0  0  2  0  0  0
  -28.7150  -12.9054   20.9788 C   0  0  0  0  0  0
  -25.2690  -13.8148   20.5695 C   0  0  0  0  0  0
  -24.1907  -13.0434   20.9195 C   0  0  0  0  0  0
  -24.6424  -11.6898   20.8724 C   0  0  0  0  0  0
  -23.9074  -10.4287   21.0432 C   0  0  0  0  0  0
  -24.3642   -9.4193   21.9189 C   0  0  0  0  0  0
  -23.6321   -8.2218   22.0729 C   0  0  0  0  0  0
  -22.4258   -8.0292   21.3580 C   0  0  0  0  0  0
  -21.9858   -9.0305   20.4742 C   0  0  0  0  0  0
  -22.7212  -10.2164   20.3132 C   0  0  0  0  0  0
  -21.6865   -6.0737   22.5301 C   0  0  0  0  0  0
  -21.4038   -6.5629   23.8238 C   0  0  0  0  0  0
  -21.3681   -5.6779   24.9195 C   0  0  0  0  0  0
  -21.6040   -4.3040   24.7233 C   0  0  0  0  0  0
  -21.8817   -3.8136   23.4358 C   0  0  0  0  0  0
  -21.9196   -4.6963   22.3419 C   0  0  0  0  0  0
  -22.7923  -13.5247   21.1866 C   0  0  0  0  0  0
  -22.1645   -4.2154   21.0978 F   0  0  0  0  0  0
  -21.5624   -3.4498   25.7734 F   0  0  0  0  0  0
  -30.0731  -13.1832   20.4595 N   0  0  0  0  0  0
  -26.3122  -12.9290   20.3379 N   0  0  0  0  0  0
  -25.9352  -11.6463   20.5759 N   0  0  0  0  0  0
  -22.0519  -12.8212   22.0391 N   0  0  0  0  0  0
  -25.4460  -15.1854   20.4106 N   0  0  0  0  0  0
  -31.6853  -14.7681   20.0513 O   0  0  0  0  0  0
  -21.6628   -6.8880   21.4268 O   0  0  0  0  0  0
  -22.3606  -14.5553   20.6745 O   0  0  0  0  0  0
  -24.6079  -31.8687   23.2169 C   0  0  0  0  0  0
  -25.8999  -32.4834   23.8434 C   0  0  1  0  0  0
  -27.2532  -27.4773   20.0920 C   0  0  0  0  0  0
  -25.5898  -33.8635   24.2345 N   0  0  0  0  0  0
  -23.3915  -30.4879   21.5598 C   0  0  2  0  0  0
  -24.8382  -28.9482   20.1296 C   0  0  0  0  0  0
  -22.7328  -29.4643   22.5104 C   0  0  0  0  0  0
  -18.0259  -28.1337   22.8523 C   0  0  0  0  0  0
  -24.1471  -36.7305   23.2639 C   0  0  0  0  0  0
  -25.9162  -30.8423   21.3669 C   0  0  0  0  0  0
  -25.9942  -29.4800   20.7141 C   0  0  0  0  0  0
  -27.1989  -28.7501   20.6930 C   0  0  0  0  0  0
  -26.0792  -26.9368   19.5226 C   0  0  0  0  0  0
  -24.8739  -27.6699   19.5388 C   0  0  0  0  0  0
  -23.5915  -29.8044   20.1810 C   0  0  0  0  0  0
  -25.4087  -36.3108   24.0347 C   0  0  1  0  0  0
  -20.5838  -28.3580   23.1399 C   0  0  2  0  0  0
  -20.6758  -26.9327   22.5463 C   0  0  0  0  0  0
  -19.5728  -26.6335   21.5258 C   0  0  0  0  0  0
  -18.1895  -26.7902   22.1637 C   0  0  0  0  0  0
  -19.1502  -28.8782   23.2957 C   0  0  0  0  0  0
  -18.9438  -30.1424   23.8905 C   0  0  0  0  0  0
  -17.6439  -30.6571   24.0541 C   0  0  0  0  0  0
  -25.9011  -34.9480   23.5122 C   0  0  0  0  0  0
  -16.5326  -29.9046   23.6362 C   0  0  0  0  0  0
  -16.7248  -28.6461   23.0380 C   0  0  0  0  0  0
  -26.4434  -31.6647   25.0778 C   0  0  0  0  0  0
  -25.3738  -31.3778   26.1574 C   0  0  0  0  0  0
  -27.0282  -30.3094   24.6184 C   0  0  0  0  0  0
  -27.5983  -32.4402   25.7548 C   0  0  0  0  0  0
  -27.5555  -37.1801   24.8454 C   0  0  0  0  0  0
  -21.4070  -29.2962   22.3807 N   0  0  0  0  0  0
  -26.4257  -37.3803   23.9417 N   0  0  0  0  0  0
  -24.6562  -31.0818   22.1045 N   0  0  0  0  0  0
  -23.4119  -28.8184   23.3130 O   0  0  0  0  0  0
  -28.4833  -26.8639   20.0263 O   0  0  0  0  0  0
  -26.5539  -34.8922   22.4663 O   0  0  0  0  0  0
  -23.5294  -32.1409   23.7595 O   0  0  0  0  0  0
  -25.2224  -24.5139   23.0677 C   0  0  0  0  0  0
  -25.9894  -22.3292   22.3522 C   0  0  0  0  0  0
  -27.1979  -22.9458   21.9376 C   0  0  0  0  0  0
  -24.9826  -23.1364   22.9324 C   0  0  0  0  0  0
  -27.3365  -24.3442   22.1366 C   0  0  0  0  0  0
  -28.3072  -22.1061   21.2973 C   0  0  0  0  0  0
  -25.7933  -20.8203   22.2396 C   0  0  0  0  0  0
  -28.5801  -25.1128   21.7220 C   0  0  0  0  0  0
  -26.3802  -20.1044   23.4637 C   0  0  0  0  0  0
  -25.7597  -18.7401   23.7652 C   0  0  0  0  0  0
  -26.4233  -18.1078   25.0004 C   0  0  0  0  0  0
  -27.3693  -16.9511   24.6634 C   0  0  0  0  0  0
  -28.6254  -17.3128   23.8456 C   0  0  0  0  0  0
  -29.4351  -16.0305   23.6139 C   0  0  0  0  0  0
  -30.5222  -16.0584   22.5216 C   0  0  0  0  0  0
  -28.5954  -25.4596   20.2227 C   0  0  0  0  0  0
  -26.3698  -25.1055   22.6868 N   0  0  0  0  0  0
  -30.5707  -14.6994   22.0103 N   0  0  0  0  0  0
  -23.4861  -22.4766   23.4986 Cl  0  0  0  0  0  0
  -31.4681  -12.4179   19.0440 H   0  0  0  0  0  0
  -30.3548  -11.2543   19.7003 H   0  0  0  0  0  0
  -29.7113  -11.8401   17.3634 H   0  0  0  0  0  0
  -29.6413  -13.5353   17.7752 H   0  0  0  0  0  0
  -27.8155  -11.3188   18.7863 H   0  0  0  0  0  0
  -27.3430  -12.6628   17.7829 H   0  0  0  0  0  0
  -27.7443  -14.2494   19.6122 H   0  0  0  0  0  0
  -28.6609  -11.8584   21.2814 H   0  0  0  0  0  0
  -28.4499  -13.4810   21.8647 H   0  0  0  0  0  0
  -25.2803   -9.5632   22.4736 H   0  0  0  0  0  0
  -24.0070   -7.4587   22.7407 H   0  0  0  0  0  0
  -21.0733   -8.8882   19.9124 H   0  0  0  0  0  0
  -22.3654  -10.9735   19.6290 H   0  0  0  0  0  0
  -21.2025   -7.6126   23.9765 H   0  0  0  0  0  0
  -21.1499   -6.0481   25.9108 H   0  0  0  0  0  0
  -22.0554   -2.7595   23.2833 H   0  0  0  0  0  0
  -22.4080  -11.9805   22.4680 H   0  0  0  0  0  0
  -21.1114  -13.1210   22.2557 H   0  0  0  0  0  0
  -24.6970  -15.8580   20.5368 H   0  0  0  0  0  0
  -26.3079  -15.6124   20.0945 H   0  0  0  0  0  0
  -26.7058  -32.5547   23.1191 H   0  0  0  0  0  0
  -25.0195  -33.9835   25.0584 H   0  0  0  0  0  0
  -22.6802  -31.3046   21.4206 H   0  0  0  0  0  0
  -23.3737  -35.9636   23.3301 H   0  0  0  0  0  0
  -24.3551  -36.8912   22.2050 H   0  0  0  0  0  0
  -23.7229  -37.6513   23.6645 H   0  0  0  0  0  0
  -26.0417  -31.6150   20.6074 H   0  0  0  0  0  0
  -26.7965  -30.8810   21.9975 H   0  0  0  0  0  0
  -28.0942  -29.1616   21.1352 H   0  0  0  0  0  0
  -26.0877  -25.9673   19.0480 H   0  0  0  0  0  0
  -23.9836  -27.2412   19.1005 H   0  0  0  0  0  0
  -23.6702  -30.5690   19.4091 H   0  0  0  0  0  0
  -22.7188  -29.2083   19.9084 H   0  0  0  0  0  0
  -25.1266  -36.1958   25.0845 H   0  0  0  0  0  0
  -20.9937  -28.3126   24.1516 H   0  0  0  0  0  0
  -20.5726  -26.2128   23.3605 H   0  0  0  0  0  0
  -21.6614  -26.7424   22.1192 H   0  0  0  0  0  0
  -19.6876  -25.6257   21.1253 H   0  0  0  0  0  0
  -19.6710  -27.3165   20.6811 H   0  0  0  0  0  0
  -17.4186  -26.6705   21.4014 H   0  0  0  0  0  0
  -18.0247  -26.0041   22.9017 H   0  0  0  0  0  0
  -19.7921  -30.7264   24.2219 H   0  0  0  0  0  0
  -17.4998  -31.6277   24.5090 H   0  0  0  0  0  0
  -15.5321  -30.2917   23.7746 H   0  0  0  0  0  0
  -15.8641  -28.0785   22.7094 H   0  0  0  0  0  0
  -24.5869  -30.7136   25.7970 H   0  0  0  0  0  0
  -24.8995  -32.2964   26.5058 H   0  0  0  0  0  0
  -25.8155  -30.8956   27.0312 H   0  0  0  0  0  0
  -26.2868  -29.6890   24.1137 H   0  0  0  0  0  0
  -27.3915  -29.7304   25.4685 H   0  0  0  0  0  0
  -27.8755  -30.4401   23.9445 H   0  0  0  0  0  0
  -27.2536  -33.3670   26.2155 H   0  0  0  0  0  0
  -28.3796  -32.7031   25.0400 H   0  0  0  0  0  0
  -28.0655  -31.8543   26.5477 H   0  0  0  0  0  0
  -28.2563  -38.0104   24.7512 H   0  0  0  0  0  0
  -28.1058  -36.2636   24.6257 H   0  0  0  0  0  0
  -27.2278  -37.1441   25.8858 H   0  0  0  0  0  0
  -20.9173  -29.8605   21.7003 H   0  0  0  0  0  0
  -26.0138  -38.2872   24.1449 H   0  0  0  0  0  0
  -24.4793  -25.1621   23.5086 H   0  0  0  0  0  0
  -28.5619  -21.2481   21.9170 H   0  0  0  0  0  0
  -29.2391  -22.6427   21.1453 H   0  0  0  0  0  0
  -27.9955  -21.7326   20.3206 H   0  0  0  0  0  0
  -26.2408  -20.4329   21.3243 H   0  0  0  0  0  0
  -24.7307  -20.6002   22.1414 H   0  0  0  0  0  0
  -29.4769  -24.5649   22.0029 H   0  0  0  0  0  0
  -28.6490  -26.0285   22.3108 H   0  0  0  0  0  0
  -26.2203  -20.7285   24.3434 H   0  0  0  0  0  0
  -27.4596  -20.0040   23.3587 H   0  0  0  0  0  0
  -25.8241  -18.0788   22.8985 H   0  0  0  0  0  0
  -24.6936  -18.8761   23.9565 H   0  0  0  0  0  0
  -25.6404  -17.7199   25.6537 H   0  0  0  0  0  0
  -26.9456  -18.8591   25.5957 H   0  0  0  0  0  0
  -26.7939  -16.1978   24.1227 H   0  0  0  0  0  0
  -27.6785  -16.4712   25.5936 H   0  0  0  0  0  0
  -29.2284  -18.0671   24.3549 H   0  0  0  0  0  0
  -28.3262  -17.7417   22.8881 H   0  0  0  0  0  0
  -28.7052  -15.2635   23.3478 H   0  0  0  0  0  0
  -29.8694  -15.6938   24.5566 H   0  0  0  0  0  0
  -31.4919  -16.3601   22.9232 H   0  0  0  0  0  0
  -30.2586  -16.7499   21.7197 H   0  0  0  0  0  0
  -27.8817  -24.8699   19.6503 H   0  0  0  0  0  0
  -29.5733  -25.1849   19.8281 H   0  0  0  0  0  0
  -30.0041  -14.0485   22.5310 H   0  0  0  0  0  0
  1 25  1  0  0  0
  1 30  2  0  0  0
  1 88  1  0  0  0
  2  3  1  0  0  0
  2 25  1  0  0  0
  2 90  1  0  0  0
  2 91  1  0  0  0
  3  4  1  0  0  0
  3 92  1  0  0  0
  3 93  1  0  0  0
  4  5  1  0  0  0
  4 94  1  0  0  0
  4 95  1  0  0  0
  5  6  1  0  0  0
  5 26  1  0  0  0
  5 96  1  0  0  0
  6 25  1  0  0  0
  6 97  1  0  0  0
  6 98  1  0  0  0
  7  8  2  0  0  0
  7 26  1  0  0  0
  7 29  1  0  0  0
  8  9  1  0  0  0
  8 22  1  0  0  0
  9 10  1  0  0  0
  9 27  2  0  0  0
 10 11  2  0  0  0
 10 15  1  0  0  0
 11 12  1  0  0  0
 11 99  1  0  0  0
 12 13  2  0  0  0
 12100  1  0  0  0
 13 14  1  0  0  0
 13 31  1  0  0  0
 14 15  2  0  0  0
 14101  1  0  0  0
 15102  1  0  0  0
 16 17  2  0  0  0
 16 21  1  0  0  0
 16 31  1  0  0  0
 17 18  1  0  0  0
 17103  1  0  0  0
 18 19  2  0  0  0
 18104  1  0  0  0
 19 20  1  0  0  0
 19 24  1  0  0  0
 20 21  2  0  0  0
 20105  1  0  0  0
 21 23  1  0  0  0
 22 28  1  0  0  0
 22 32  2  0  0  0
 26 27  1  0  0  0
 28106  1  0  0  0
 28107  1  0  0  0
 29108  1  0  0  0
 29109  1  0  0  0
 33 34  1  0  0  0
 33 66  1  0  0  0
 33 70  2  0  0  0
 34 36  1  0  0  0
 34 59  1  0  0  0
 34110  1  0  0  0
 35 44  2  0  0  0
 35 45  1  0  0  0
 35 68  1  0  0  0
 36 56  1  0  0  0
 36111  1  0  0  0
 37 39  1  0  0  0
 37 47  1  0  0  0
 37 66  1  0  0  0
 37112  1  0  0  0
 38 43  2  0  0  0
 38 46  1  0  0  0
 38 47  1  0  0  0
 39 64  1  0  0  0
 39 67  2  0  0  0
 40 52  1  0  0  0
 40 53  2  0  0  0
 40 58  1  0  0  0
 41113  1  0  0  0
 41114  1  0  0  0
 41115  1  0  0  0
 41 48  1  0  0  0
 42 43  1  0  0  0
 42 66  1  0  0  0
 42116  1  0  0  0
 42117  1  0  0  0
 43 44  1  0  0  0
 44118  1  0  0  0
 45 46  2  0  0  0
 45119  1  0  0  0
 46120  1  0  0  0
 47121  1  0  0  0
 47122  1  0  0  0
 48 56  1  0  0  0
 48 65  1  0  0  0
 48123  1  0  0  0
 49 50  1  0  0  0
 49 53  1  0  0  0
 49 64  1  0  0  0
 49124  1  0  0  0
 50 51  1  0  0  0
 50125  1  0  0  0
 50126  1  0  0  0
 51 52  1  0  0  0
 51127  1  0  0  0
 51128  1  0  0  0
 52129  1  0  0  0
 52130  1  0  0  0
 53 54  1  0  0  0
 54 55  2  0  0  0
 54131  1  0  0  0
 55 57  1  0  0  0
 55132  1  0  0  0
 56 69  2  0  0  0
 57 58  2  0  0  0
 57133  1  0  0  0
 58134  1  0  0  0
 59 60  1  0  0  0
 59 61  1  0  0  0
 59 62  1  0  0  0
 60135  1  0  0  0
 60136  1  0  0  0
 60137  1  0  0  0
 61138  1  0  0  0
 61139  1  0  0  0
 61140  1  0  0  0
 62141  1  0  0  0
 62142  1  0  0  0
 62143  1  0  0  0
 63 65  1  0  0  0
 63144  1  0  0  0
 63145  1  0  0  0
 63146  1  0  0  0
 64147  1  0  0  0
 65148  1  0  0  0
 68 86  1  0  0  0
 71 74  2  0  0  0
 71 87  1  0  0  0
 71149  1  0  0  0
 72 73  2  0  0  0
 72 74  1  0  0  0
 72 77  1  0  0  0
 73 75  1  0  0  0
 73 76  1  0  0  0
 74 89  1  0  0  0
 75 78  1  0  0  0
 75 87  2  0  0  0
 76150  1  0  0  0
 76151  1  0  0  0
 76152  1  0  0  0
 77 79  1  0  0  0
 77153  1  0  0  0
 77154  1  0  0  0
 78 86  1  0  0  0
 78155  1  0  0  0
 78156  1  0  0  0
 79 80  1  0  0  0
 79157  1  0  0  0
 79158  1  0  0  0
 80 81  1  0  0  0
 80159  1  0  0  0
 80160  1  0  0  0
 81 82  1  0  0  0
 81161  1  0  0  0
 81162  1  0  0  0
 82 83  1  0  0  0
 82163  1  0  0  0
 82164  1  0  0  0
 83 84  1  0  0  0
 83165  1  0  0  0
 83166  1  0  0  0
 84 85  1  0  0  0
 84167  1  0  0  0
 84168  1  0  0  0
 85 88  1  0  0  0
 85169  1  0  0  0
 85170  1  0  0  0
 86171  1  0  0  0
 86172  1  0  0  0
 88173  1  0  0  0
M  ISO  4   1 100  68 101  86 101  88 100
M  END
> <chiral flag>
0

> <version>
0

> <s_m_source_file>
/data/baiqing/PycharmProjects/Reinvent-master-3.2/result/LINK_invent/BTK/process_docking_weight1_custom_sum_contain_oxygen_bond_distance_aromatic_linkinvent_7_9_3/rearranged_h_0033.sdf

> <i_m_source_file_index>
81

> <r_mmod_Potential_Energy-OPLS-2005>
-76.7351379394531

> <r_mmod_Stretch_Energy-OPLS-2005>
32.4315223693848

> <r_mmod_Bend_Energy-OPLS-2005>
112.129638671875

> <r_mmod_Torsional_Energy-OPLS-2005>
251.214965820312

> <r_mmod_Improper_Torsional_Energy-OPLS-2005>
4.98011684417725

> <r_mmod_Van_der_Waal_Energy-OPLS-2005>
148.843399047852

> <r_mmod_Electrostatic_Energy-OPLS-2005>
-425.381469726562

> <r_mmod_Solvation_Energy-OPLS-2005>
-214.112945556641

> <b_mmod_Minimization_Converged-OPLS-2005>
0

> <r_mmod_RMS_Derivative-OPLS-2005>
3.55241179466248

$$$$
82
                    3D
 Structure written by MMmdl.
186194  0  0  1  0            999 V2000
  -30.7514  -14.3662   20.6746 C   0  0  0  0  0  0
  -30.4182  -12.2891   19.3832 C   0  0  0  0  0  0
  -29.4770  -12.5241   18.1863 C   0  0  0  0  0  0
  -28.0023  -12.3855   18.6065 C   0  0  0  0  0  0
  -27.6670  -13.1986   19.8834 C   0  0  2  0  0  0
  -28.7068  -12.9220   20.9907 C   0  0  0  0  0  0
  -25.2625  -13.8156   20.5689 C   0  0  0  0  0  0
  -24.1858  -13.0441   20.9161 C   0  0  0  0  0  0
  -24.6393  -11.6905   20.8730 C   0  0  0  0  0  0
  -23.9056  -10.4292   21.0405 C   0  0  0  0  0  0
  -24.3610   -9.4209   21.9189 C   0  0  0  0  0  0
  -23.6283   -8.2250   22.0764 C   0  0  0  0  0  0
  -22.4272   -8.0283   21.3538 C   0  0  0  0  0  0
  -21.9907   -9.0258   20.4645 C   0  0  0  0  0  0
  -22.7230  -10.2137   20.3058 C   0  0  0  0  0  0
  -21.6858   -6.0738   22.5271 C   0  0  0  0  0  0
  -21.4013   -6.5637   23.8209 C   0  0  0  0  0  0
  -21.3653   -5.6793   24.9165 C   0  0  0  0  0  0
  -21.6051   -4.3056   24.7224 C   0  0  0  0  0  0
  -21.8817   -3.8144   23.4346 C   0  0  0  0  0  0
  -21.9193   -4.6965   22.3393 C   0  0  0  0  0  0
  -22.7885  -13.5251   21.1818 C   0  0  0  0  0  0
  -22.1662   -4.2156   21.0979 F   0  0  0  0  0  0
  -21.5628   -3.4541   25.7735 F   0  0  0  0  0  0
  -30.0461  -13.2264   20.4525 N   0  0  0  0  0  0
  -26.3063  -12.9308   20.3408 N   0  0  0  0  0  0
  -25.9317  -11.6466   20.5778 N   0  0  0  0  0  0
  -22.0512  -12.8244   22.0365 N   0  0  0  0  0  0
  -25.4385  -15.1865   20.4101 N   0  0  0  0  0  0
  -31.7931  -14.6487   20.0749 O   0  0  0  0  0  0
  -21.6639   -6.8878   21.4236 O   0  0  0  0  0  0
  -22.3571  -14.5559   20.6675 O   0  0  0  0  0  0
  -24.6121  -31.8715   23.2118 C   0  0  0  0  0  0
  -25.9019  -32.4856   23.8410 C   0  0  1  0  0  0
  -27.2497  -27.4835   20.0912 C   0  0  0  0  0  0
  -25.5918  -33.8653   24.2367 N   0  0  0  0  0  0
  -23.4017  -30.4965   21.5467 C   0  0  2  0  0  0
  -24.8519  -28.9623   20.1228 C   0  0  0  0  0  0
  -22.7398  -29.4675   22.4916 C   0  0  0  0  0  0
  -18.0297  -28.1377   22.8518 C   0  0  0  0  0  0
  -24.1502  -36.7308   23.2627 C   0  0  0  0  0  0
  -25.9249  -30.8540   21.3568 C   0  0  0  0  0  0
  -26.0081  -29.4882   20.7149 C   0  0  0  0  0  0
  -27.2143  -28.7545   20.6988 C   0  0  0  0  0  0
  -26.0743  -26.9472   19.5285 C   0  0  0  0  0  0
  -24.8763  -27.6858   19.5323 C   0  0  0  0  0  0
  -23.6150  -29.8303   20.1626 C   0  0  0  0  0  0
  -25.4113  -36.3126   24.0340 C   0  0  1  0  0  0
  -20.5891  -28.3667   23.1303 C   0  0  2  0  0  0
  -20.6800  -26.9389   22.5440 C   0  0  0  0  0  0
  -19.5779  -26.6378   21.5228 C   0  0  0  0  0  0
  -18.1952  -26.7925   22.1626 C   0  0  0  0  0  0
  -19.1536  -28.8826   23.2931 C   0  0  0  0  0  0
  -18.9452  -30.1441   23.8916 C   0  0  0  0  0  0
  -17.6459  -30.6588   24.0569 C   0  0  0  0  0  0
  -25.9043  -34.9498   23.5141 C   0  0  0  0  0  0
  -16.5357  -29.9102   23.6325 C   0  0  0  0  0  0
  -16.7286  -28.6527   23.0334 C   0  0  0  0  0  0
  -26.4496  -31.6574   25.0678 C   0  0  0  0  0  0
  -25.3785  -31.3585   26.1421 C   0  0  0  0  0  0
  -27.0339  -30.3047   24.5945 C   0  0  0  0  0  0
  -27.6091  -32.4245   25.7460 C   0  0  0  0  0  0
  -27.5585  -37.1812   24.8479 C   0  0  0  0  0  0
  -21.4117  -29.3055   22.3676 N   0  0  0  0  0  0
  -26.4312  -37.3802   23.9415 N   0  0  0  0  0  0
  -24.6636  -31.0877   22.0986 N   0  0  0  0  0  0
  -23.4186  -28.8188   23.2914 O   0  0  0  0  0  0
  -28.4236  -26.7739   20.0293 O   0  0  0  0  0  0
  -26.5579  -34.8950   22.4691 O   0  0  0  0  0  0
  -23.5300  -32.1421   23.7529 O   0  0  0  0  0  0
  -27.9687  -24.5321   16.2757 C   0  0  0  0  0  0
  -28.6598  -25.0903   17.3613 C   0  0  0  0  0  0
  -27.1438  -25.3211   15.4591 C   0  0  0  0  0  0
  -28.5943  -26.4863   17.5952 C   0  0  0  0  0  0
  -27.8745  -27.3155   16.6867 C   0  0  0  0  0  0
  -27.1157  -26.7229   15.6420 C   0  0  0  0  0  0
  -29.4060  -24.1441   18.2886 C   0  0  0  0  0  0
  -27.8919  -28.8302   16.8683 C   0  0  0  0  0  0
  -26.2502  -24.6062   14.4547 C   0  0  0  0  0  0
  -29.2148  -27.0581   18.8742 C   0  0  0  0  0  0
  -24.8731  -24.2468   15.0664 C   0  0  0  0  0  0
  -28.9450  -19.0954   19.7629 C   0  0  0  0  0  0
  -27.5050  -19.2899   19.2512 C   0  0  0  0  0  0
  -29.1045  -17.8984   20.7213 C   0  0  0  0  0  0
  -27.3728  -20.4822   18.2851 C   0  0  0  0  0  0
  -30.5817  -17.5967   21.0434 C   0  0  0  0  0  0
  -25.9428  -20.6737   17.7402 C   0  0  0  0  0  0
  -30.8019  -16.4493   22.0526 C   0  0  0  0  0  0
  -24.4388  -22.7729   14.8694 C   0  0  0  0  0  0
  -25.8472  -21.8176   16.7114 C   0  0  0  0  0  0
  -30.2383  -15.1754   21.6083 N   0  0  0  0  0  0
  -24.5081  -21.9384   16.0961 N   0  3  0  0  0  0
  -26.1101  -27.6925   14.6148 Cl  0  0  0  0  0  0
  -31.4584  -12.4021   19.0718 H   0  0  0  0  0  0
  -30.3297  -11.2631   19.7432 H   0  0  0  0  0  0
  -29.7023  -11.8174   17.3870 H   0  0  0  0  0  0
  -29.6452  -13.5201   17.7729 H   0  0  0  0  0  0
  -27.8016  -11.3269   18.7752 H   0  0  0  0  0  0
  -27.3473  -12.6897   17.7888 H   0  0  0  0  0  0
  -27.7313  -14.2556   19.6228 H   0  0  0  0  0  0
  -28.6733  -11.8703   21.2802 H   0  0  0  0  0  0
  -28.4575  -13.4733   21.8976 H   0  0  0  0  0  0
  -25.2757   -9.5690   22.4758 H   0  0  0  0  0  0
  -23.9992   -7.4645   22.7488 H   0  0  0  0  0  0
  -21.0846   -8.8770   19.8942 H   0  0  0  0  0  0
  -22.3693  -10.9679   19.6172 H   0  0  0  0  0  0
  -21.2004   -7.6145   23.9710 H   0  0  0  0  0  0
  -21.1475   -6.0524   25.9067 H   0  0  0  0  0  0
  -22.0604   -2.7618   23.2842 H   0  0  0  0  0  0
  -22.4109  -11.9887   22.4729 H   0  0  0  0  0  0
  -21.1138  -13.1277   22.2567 H   0  0  0  0  0  0
  -24.6805  -15.8498   20.5265 H   0  0  0  0  0  0
  -26.3043  -15.6212   20.1171 H   0  0  0  0  0  0
  -26.7060  -32.5613   23.1154 H   0  0  0  0  0  0
  -25.0200  -33.9851   25.0598 H   0  0  0  0  0  0
  -22.6905  -31.3108   21.4050 H   0  0  0  0  0  0
  -23.3808  -35.9595   23.3284 H   0  0  0  0  0  0
  -24.3581  -36.8930   22.2039 H   0  0  0  0  0  0
  -23.7215  -37.6488   23.6646 H   0  0  0  0  0  0
  -26.0274  -31.6122   20.5790 H   0  0  0  0  0  0
  -26.8171  -30.9166   21.9681 H   0  0  0  0  0  0
  -28.1154  -29.1669   21.1315 H   0  0  0  0  0  0
  -26.0963  -25.9691   19.0724 H   0  0  0  0  0  0
  -23.9849  -27.2670   19.0867 H   0  0  0  0  0  0
  -23.7308  -30.6081   19.4057 H   0  0  0  0  0  0
  -22.7400  -29.2569   19.8536 H   0  0  0  0  0  0
  -25.1292  -36.1947   25.0829 H   0  0  0  0  0  0
  -21.0042  -28.3248   24.1395 H   0  0  0  0  0  0
  -20.5727  -26.2260   23.3639 H   0  0  0  0  0  0
  -21.6660  -26.7465   22.1190 H   0  0  0  0  0  0
  -19.6956  -25.6287   21.1268 H   0  0  0  0  0  0
  -19.6709  -27.3175   20.6748 H   0  0  0  0  0  0
  -17.4236  -26.6677   21.4040 H   0  0  0  0  0  0
  -18.0356  -26.0033   22.8989 H   0  0  0  0  0  0
  -19.7901  -30.7290   24.2279 H   0  0  0  0  0  0
  -17.4991  -31.6279   24.5152 H   0  0  0  0  0  0
  -15.5357  -30.3024   23.7624 H   0  0  0  0  0  0
  -15.8687  -28.0893   22.6993 H   0  0  0  0  0  0
  -24.6106  -30.6760   25.7777 H   0  0  0  0  0  0
  -24.8822  -32.2684   26.4797 H   0  0  0  0  0  0
  -25.8199  -30.8881   27.0217 H   0  0  0  0  0  0
  -26.2846  -29.6738   24.1155 H   0  0  0  0  0  0
  -27.4363  -29.7291   25.4286 H   0  0  0  0  0  0
  -27.8569  -30.4448   23.8928 H   0  0  0  0  0  0
  -27.2795  -33.3625   26.1944 H   0  0  0  0  0  0
  -28.4002  -32.6632   25.0342 H   0  0  0  0  0  0
  -28.0649  -31.8380   26.5445 H   0  0  0  0  0  0
  -28.2629  -38.0099   24.7531 H   0  0  0  0  0  0
  -28.1080  -36.2632   24.6326 H   0  0  0  0  0  0
  -27.2298  -37.1461   25.8886 H   0  0  0  0  0  0
  -20.9219  -29.8781   21.6951 H   0  0  0  0  0  0
  -26.0207  -38.2897   24.1372 H   0  0  0  0  0  0
  -28.0146  -23.4662   16.1086 H   0  0  0  0  0  0
  -29.5181  -23.1601   17.8318 H   0  0  0  0  0  0
  -28.8536  -24.0146   19.2195 H   0  0  0  0  0  0
  -30.4112  -24.4955   18.5160 H   0  0  0  0  0  0
  -28.9205  -29.1862   16.9059 H   0  0  0  0  0  0
  -27.3906  -29.1170   17.7925 H   0  0  0  0  0  0
  -27.4206  -29.3786   16.0561 H   0  0  0  0  0  0
  -26.7732  -23.7087   14.1216 H   0  0  0  0  0  0
  -26.1239  -25.2014   13.5497 H   0  0  0  0  0  0
  -29.4075  -28.1272   18.8080 H   0  0  0  0  0  0
  -30.2035  -26.6267   19.0249 H   0  0  0  0  0  0
  -24.1275  -24.8939   14.6019 H   0  0  0  0  0  0
  -24.8331  -24.5156   16.1234 H   0  0  0  0  0  0
  -29.2814  -20.0042   20.2640 H   0  0  0  0  0  0
  -29.6092  -18.9592   18.9086 H   0  0  0  0  0  0
  -26.8289  -19.4282   20.0960 H   0  0  0  0  0  0
  -27.1811  -18.3805   18.7421 H   0  0  0  0  0  0
  -28.6446  -17.0144   20.2789 H   0  0  0  0  0  0
  -28.5641  -18.0971   21.6485 H   0  0  0  0  0  0
  -28.0604  -20.3356   17.4504 H   0  0  0  0  0  0
  -27.6940  -21.3955   18.7891 H   0  0  0  0  0  0
  -31.0549  -18.4947   21.4439 H   0  0  0  0  0  0
  -31.1150  -17.3685   20.1188 H   0  0  0  0  0  0
  -25.2628  -20.8670   18.5706 H   0  0  0  0  0  0
  -25.6122  -19.7423   17.2787 H   0  0  0  0  0  0
  -30.3509  -16.7093   23.0112 H   0  0  0  0  0  0
  -31.8689  -16.3214   22.2473 H   0  0  0  0  0  0
  -25.0120  -22.2973   14.0730 H   0  0  0  0  0  0
  -23.4016  -22.7595   14.5301 H   0  0  0  0  0  0
  -26.5805  -21.6507   15.9215 H   0  0  0  0  0  0
  -26.0943  -22.7614   17.1993 H   0  0  0  0  0  0
  -29.4035  -14.8513   22.0749 H   0  0  0  0  0  0
  -24.2080  -21.0124   15.8333 H   0  0  0  0  0  0
  -23.8449  -22.2789   16.7757 H   0  0  0  0  0  0
  1 25  1  0  0  0
  1 30  2  0  0  0
  1 91  1  0  0  0
  2  3  1  0  0  0
  2 25  1  0  0  0
  2 94  1  0  0  0
  2 95  1  0  0  0
  3  4  1  0  0  0
  3 96  1  0  0  0
  3 97  1  0  0  0
  4  5  1  0  0  0
  4 98  1  0  0  0
  4 99  1  0  0  0
  5  6  1  0  0  0
  5 26  1  0  0  0
  5100  1  0  0  0
  6 25  1  0  0  0
  6101  1  0  0  0
  6102  1  0  0  0
  7  8  2  0  0  0
  7 26  1  0  0  0
  7 29  1  0  0  0
  8  9  1  0  0  0
  8 22  1  0  0  0
  9 10  1  0  0  0
  9 27  2  0  0  0
 10 11  2  0  0  0
 10 15  1  0  0  0
 11 12  1  0  0  0
 11103  1  0  0  0
 12 13  2  0  0  0
 12104  1  0  0  0
 13 14  1  0  0  0
 13 31  1  0  0  0
 14 15  2  0  0  0
 14105  1  0  0  0
 15106  1  0  0  0
 16 17  2  0  0  0
 16 21  1  0  0  0
 16 31  1  0  0  0
 17 18  1  0  0  0
 17107  1  0  0  0
 18 19  2  0  0  0
 18108  1  0  0  0
 19 20  1  0  0  0
 19 24  1  0  0  0
 20 21  2  0  0  0
 20109  1  0  0  0
 21 23  1  0  0  0
 22 28  1  0  0  0
 22 32  2  0  0  0
 26 27  1  0  0  0
 28110  1  0  0  0
 28111  1  0  0  0
 29112  1  0  0  0
 29113  1  0  0  0
 33 34  1  0  0  0
 33 66  1  0  0  0
 33 70  2  0  0  0
 34 36  1  0  0  0
 34 59  1  0  0  0
 34114  1  0  0  0
 35 44  2  0  0  0
 35 45  1  0  0  0
 35 68  1  0  0  0
 36 56  1  0  0  0
 36115  1  0  0  0
 37 39  1  0  0  0
 37 47  1  0  0  0
 37 66  1  0  0  0
 37116  1  0  0  0
 38 43  2  0  0  0
 38 46  1  0  0  0
 38 47  1  0  0  0
 39 64  1  0  0  0
 39 67  2  0  0  0
 40 52  1  0  0  0
 40 53  2  0  0  0
 40 58  1  0  0  0
 41117  1  0  0  0
 41118  1  0  0  0
 41119  1  0  0  0
 41 48  1  0  0  0
 42 43  1  0  0  0
 42 66  1  0  0  0
 42120  1  0  0  0
 42121  1  0  0  0
 43 44  1  0  0  0
 44122  1  0  0  0
 45 46  2  0  0  0
 45123  1  0  0  0
 46124  1  0  0  0
 47125  1  0  0  0
 47126  1  0  0  0
 48 56  1  0  0  0
 48 65  1  0  0  0
 48127  1  0  0  0
 49 50  1  0  0  0
 49 53  1  0  0  0
 49 64  1  0  0  0
 49128  1  0  0  0
 50 51  1  0  0  0
 50129  1  0  0  0
 50130  1  0  0  0
 51 52  1  0  0  0
 51131  1  0  0  0
 51132  1  0  0  0
 52133  1  0  0  0
 52134  1  0  0  0
 53 54  1  0  0  0
 54 55  2  0  0  0
 54135  1  0  0  0
 55 57  1  0  0  0
 55136  1  0  0  0
 56 69  2  0  0  0
 57 58  2  0  0  0
 57137  1  0  0  0
 58138  1  0  0  0
 59 60  1  0  0  0
 59 61  1  0  0  0
 59 62  1  0  0  0
 60139  1  0  0  0
 60140  1  0  0  0
 60141  1  0  0  0
 61142  1  0  0  0
 61143  1  0  0  0
 61144  1  0  0  0
 62145  1  0  0  0
 62146  1  0  0  0
 62147  1  0  0  0
 63 65  1  0  0  0
 63148  1  0  0  0
 63149  1  0  0  0
 63150  1  0  0  0
 64151  1  0  0  0
 65152  1  0  0  0
 68 80  1  0  0  0
 71 72  2  0  0  0
 71 73  1  0  0  0
 71153  1  0  0  0
 72 74  1  0  0  0
 72 77  1  0  0  0
 73 76  2  0  0  0
 73 79  1  0  0  0
 74 75  2  0  0  0
 74 80  1  0  0  0
 75 76  1  0  0  0
 75 78  1  0  0  0
 76 93  1  0  0  0
 77154  1  0  0  0
 77155  1  0  0  0
 77156  1  0  0  0
 78157  1  0  0  0
 78158  1  0  0  0
 78159  1  0  0  0
 79 81  1  0  0  0
 79160  1  0  0  0
 79161  1  0  0  0
 80162  1  0  0  0
 80163  1  0  0  0
 81 89  1  0  0  0
 81164  1  0  0  0
 81165  1  0  0  0
 82 83  1  0  0  0
 82 84  1  0  0  0
 82166  1  0  0  0
 82167  1  0  0  0
 83 85  1  0  0  0
 83168  1  0  0  0
 83169  1  0  0  0
 84 86  1  0  0  0
 84170  1  0  0  0
 84171  1  0  0  0
 85 87  1  0  0  0
 85172  1  0  0  0
 85173  1  0  0  0
 86 88  1  0  0  0
 86174  1  0  0  0
 86175  1  0  0  0
 87 90  1  0  0  0
 87176  1  0  0  0
 87177  1  0  0  0
 88 91  1  0  0  0
 88178  1  0  0  0
 88179  1  0  0  0
 89 92  1  0  0  0
 89180  1  0  0  0
 89181  1  0  0  0
 90 92  1  0  0  0
 90182  1  0  0  0
 90183  1  0  0  0
 91184  1  0  0  0
 92185  1  0  0  0
 92186  1  0  0  0
M  CHG  1  92   1
M  ISO  4   1 100  68 101  80 101  91 100
M  END
> <chiral flag>
0

> <version>
0

> <s_m_source_file>
/data/baiqing/PycharmProjects/Reinvent-master-3.2/result/LINK_invent/BTK/process_docking_weight1_custom_sum_contain_oxygen_bond_distance_aromatic_linkinvent_7_9_3/rearranged_h_0033.sdf

> <i_m_source_file_index>
82

> <r_mmod_Potential_Energy-OPLS-2005>
-181.787292480469

> <r_mmod_Stretch_Energy-OPLS-2005>
36.0566139221191

> <r_mmod_Bend_Energy-OPLS-2005>
94.4092864990234

> <r_mmod_Torsional_Energy-OPLS-2005>
260.901458740234

> <r_mmod_Improper_Torsional_Energy-OPLS-2005>
2.18774151802063

> <r_mmod_Van_der_Waal_Energy-OPLS-2005>
144.005111694336

> <r_mmod_Electrostatic_Energy-OPLS-2005>
-266.345062255859

> <r_mmod_Solvation_Energy-OPLS-2005>
-459.125030517578

> <b_mmod_Minimization_Converged-OPLS-2005>
0

> <r_mmod_RMS_Derivative-OPLS-2005>
3.43154525756836

$$$$
83
                    3D
 Structure written by MMmdl.
167175  0  0  1  0            999 V2000
  -30.6106  -14.7241   20.4475 C   0  0  0  0  0  0
  -30.4228  -12.4331   19.4721 C   0  0  0  0  0  0
  -29.5050  -12.4995   18.2309 C   0  0  0  0  0  0
  -28.0281  -12.3375   18.6396 C   0  0  0  0  0  0
  -27.6390  -13.2330   19.8464 C   0  0  2  0  0  0
  -28.6826  -13.1537   20.9833 C   0  0  0  0  0  0
  -25.2506  -13.8203   20.5698 C   0  0  0  0  0  0
  -24.1798  -13.0438   20.9214 C   0  0  0  0  0  0
  -24.6398  -11.6908   20.8743 C   0  0  0  0  0  0
  -23.9078  -10.4285   21.0411 C   0  0  0  0  0  0
  -24.3628   -9.4202   21.9193 C   0  0  0  0  0  0
  -23.6302   -8.2241   22.0762 C   0  0  0  0  0  0
  -22.4289   -8.0287   21.3546 C   0  0  0  0  0  0
  -21.9920   -9.0260   20.4646 C   0  0  0  0  0  0
  -22.7253  -10.2131   20.3058 C   0  0  0  0  0  0
  -21.6854   -6.0747   22.5295 C   0  0  0  0  0  0
  -21.4009   -6.5648   23.8225 C   0  0  0  0  0  0
  -21.3650   -5.6798   24.9189 C   0  0  0  0  0  0
  -21.6044   -4.3065   24.7237 C   0  0  0  0  0  0
  -21.8819   -3.8155   23.4357 C   0  0  0  0  0  0
  -21.9186   -4.6971   22.3411 C   0  0  0  0  0  0
  -22.7823  -13.5202   21.1881 C   0  0  0  0  0  0
  -22.1662   -4.2154   21.0989 F   0  0  0  0  0  0
  -21.5615   -3.4550   25.7747 F   0  0  0  0  0  0
  -29.9877  -13.4972   20.4084 N   0  0  0  0  0  0
  -26.2915  -12.9415   20.3249 N   0  0  0  0  0  0
  -25.9318  -11.6552   20.5742 N   0  0  0  0  0  0
  -22.0468  -12.8183   22.0422 N   0  0  0  0  0  0
  -25.4179  -15.1941   20.4113 N   0  0  0  0  0  0
  -31.7943  -14.8193   20.1159 O   0  0  0  0  0  0
  -21.6647   -6.8896   21.4254 O   0  0  0  0  0  0
  -22.3493  -14.5510   20.6735 O   0  0  0  0  0  0
  -24.6299  -31.8544   23.1984 C   0  0  0  0  0  0
  -25.9129  -32.4758   23.8322 C   0  0  1  0  0  0
  -27.2234  -27.2770   20.1366 C   0  0  0  0  0  0
  -25.5943  -33.8557   24.2226 N   0  0  0  0  0  0
  -23.4280  -30.4742   21.5415 C   0  0  2  0  0  0
  -24.8730  -28.9101   20.1217 C   0  0  0  0  0  0
  -22.7499  -29.4590   22.4934 C   0  0  0  0  0  0
  -18.0296  -28.1387   22.8474 C   0  0  0  0  0  0
  -24.1485  -36.7273   23.2639 C   0  0  0  0  0  0
  -25.9702  -30.7691   21.3793 C   0  0  0  0  0  0
  -26.0429  -29.3903   20.7264 C   0  0  0  0  0  0
  -27.2243  -28.5852   20.7185 C   0  0  0  0  0  0
  -26.0322  -26.8441   19.5212 C   0  0  0  0  0  0
  -24.8681  -27.6440   19.5103 C   0  0  0  0  0  0
  -23.6457  -29.8021   20.1611 C   0  0  0  0  0  0
  -25.4126  -36.3055   24.0301 C   0  0  1  0  0  0
  -20.5884  -28.3698   23.1267 C   0  0  2  0  0  0
  -20.6780  -26.9418   22.5414 C   0  0  0  0  0  0
  -19.5760  -26.6387   21.5210 C   0  0  0  0  0  0
  -18.1935  -26.7943   22.1603 C   0  0  0  0  0  0
  -19.1541  -28.8864   23.2862 C   0  0  0  0  0  0
  -18.9477  -30.1463   23.8887 C   0  0  0  0  0  0
  -17.6479  -30.6590   24.0573 C   0  0  0  0  0  0
  -25.9073  -34.9430   23.5067 C   0  0  0  0  0  0
  -16.5365  -29.9085   23.6351 C   0  0  0  0  0  0
  -16.7279  -28.6509   23.0346 C   0  0  0  0  0  0
  -26.4515  -31.6613   25.0726 C   0  0  0  0  0  0
  -25.3727  -31.3748   26.1443 C   0  0  0  0  0  0
  -27.0390  -30.3036   24.6220 C   0  0  0  0  0  0
  -27.6077  -32.4389   25.7464 C   0  0  0  0  0  0
  -27.5593  -37.1757   24.8439 C   0  0  0  0  0  0
  -21.4204  -29.3027   22.3659 N   0  0  0  0  0  0
  -26.4295  -37.3763   23.9408 N   0  0  0  0  0  0
  -24.6941  -31.0508   22.0964 N   0  0  0  0  0  0
  -23.4185  -28.8165   23.3066 O   0  0  0  0  0  0
  -28.3527  -26.4415   20.0823 O   0  0  0  0  0  0
  -26.5660  -34.8921   22.4637 O   0  0  0  0  0  0
  -23.5447  -32.1366   23.7275 O   0  0  0  0  0  0
  -29.4534  -19.8424   20.0725 C   0  0  0  0  0  0
  -29.6415  -18.6227   20.8325 C   0  0  0  0  0  0
  -29.4860  -18.7712   22.2406 C   0  0  0  0  0  0
  -29.1152  -21.1085   20.6805 C   0  0  0  0  0  0
  -29.0643  -20.0344   22.7626 C   0  0  0  0  0  0
  -28.6907  -16.8213   23.7008 C   0  0  0  0  0  0
  -27.0477  -20.9533   26.0100 C   0  0  0  0  0  0
  -29.8826  -17.6394   23.1884 C   0  0  0  0  0  0
  -30.1579  -17.2763   20.1408 C   0  0  0  0  0  0
  -29.2410  -22.5333   19.9845 C   0  0  0  0  0  0
  -28.7986  -20.2983   24.2465 C   0  0  0  0  0  0
  -27.3024  -20.4804   24.5697 C   0  0  0  0  0  0
  -28.1077  -23.6868   20.0431 C   0  0  0  0  0  0
  -28.3705  -25.1100   20.7600 C   0  0  0  0  0  0
  -28.9082  -21.1492   22.0069 N   0  0  0  0  0  0
  -29.8358  -15.8591   20.6123 N   0  0  0  0  0  0
  -31.4672  -12.5387   19.1751 H   0  0  0  0  0  0
  -30.3479  -11.4531   19.9472 H   0  0  0  0  0  0
  -29.7779  -11.7245   17.5126 H   0  0  0  0  0  0
  -29.6450  -13.4521   17.7195 H   0  0  0  0  0  0
  -27.8703  -11.2876   18.8930 H   0  0  0  0  0  0
  -27.3770  -12.5422   17.7891 H   0  0  0  0  0  0
  -27.6369  -14.2565   19.4695 H   0  0  0  0  0  0
  -28.7078  -12.1515   21.4138 H   0  0  0  0  0  0
  -28.4235  -13.8335   21.7965 H   0  0  0  0  0  0
  -25.2775   -9.5677   22.4763 H   0  0  0  0  0  0
  -24.0010   -7.4634   22.7482 H   0  0  0  0  0  0
  -21.0856   -8.8773   19.8957 H   0  0  0  0  0  0
  -22.3726  -10.9662   19.6156 H   0  0  0  0  0  0
  -21.2014   -7.6160   23.9727 H   0  0  0  0  0  0
  -21.1465   -6.0538   25.9087 H   0  0  0  0  0  0
  -22.0602   -2.7617   23.2866 H   0  0  0  0  0  0
  -22.4084  -11.9821   22.4774 H   0  0  0  0  0  0
  -21.1081  -13.1177   22.2619 H   0  0  0  0  0  0
  -24.6465  -15.8443   20.5254 H   0  0  0  0  0  0
  -26.2585  -15.6356   20.0620 H   0  0  0  0  0  0
  -26.7195  -32.5414   23.1062 H   0  0  0  0  0  0
  -25.0040  -33.9695   25.0330 H   0  0  0  0  0  0
  -22.7244  -31.2967   21.3929 H   0  0  0  0  0  0
  -23.3754  -35.9600   23.3285 H   0  0  0  0  0  0
  -24.3554  -36.8951   22.2064 H   0  0  0  0  0  0
  -23.7258  -37.6454   23.6718 H   0  0  0  0  0  0
  -26.1036  -31.5282   20.6087 H   0  0  0  0  0  0
  -26.8479  -30.8170   22.0124 H   0  0  0  0  0  0
  -28.1312  -28.9438   21.1865 H   0  0  0  0  0  0
  -26.0031  -25.8735   19.0449 H   0  0  0  0  0  0
  -23.9710  -27.2728   19.0319 H   0  0  0  0  0  0
  -23.7732  -30.5759   19.4025 H   0  0  0  0  0  0
  -22.7645  -29.2345   19.8569 H   0  0  0  0  0  0
  -25.1306  -36.1896   25.0796 H   0  0  0  0  0  0
  -20.9961  -28.3317   24.1381 H   0  0  0  0  0  0
  -20.5702  -26.2317   23.3618 H   0  0  0  0  0  0
  -21.6661  -26.7466   22.1212 H   0  0  0  0  0  0
  -19.6939  -25.6291   21.1254 H   0  0  0  0  0  0
  -19.6730  -27.3208   20.6748 H   0  0  0  0  0  0
  -17.4225  -26.6720   21.3981 H   0  0  0  0  0  0
  -18.0288  -26.0081   22.8983 H   0  0  0  0  0  0
  -19.7962  -30.7251   24.2274 H   0  0  0  0  0  0
  -17.5045  -31.6272   24.5156 H   0  0  0  0  0  0
  -15.5357  -30.2970   23.7681 H   0  0  0  0  0  0
  -15.8681  -28.0822   22.7037 H   0  0  0  0  0  0
  -24.5961  -30.7033   25.7758 H   0  0  0  0  0  0
  -24.8829  -32.2892   26.4801 H   0  0  0  0  0  0
  -25.8034  -30.9004   27.0263 H   0  0  0  0  0  0
  -26.2972  -29.6703   24.1348 H   0  0  0  0  0  0
  -27.4174  -29.7412   25.4755 H   0  0  0  0  0  0
  -27.8791  -30.4292   23.9389 H   0  0  0  0  0  0
  -27.2710  -33.3730   26.1964 H   0  0  0  0  0  0
  -28.3884  -32.6897   25.0269 H   0  0  0  0  0  0
  -28.0736  -31.8576   26.5418 H   0  0  0  0  0  0
  -28.2548  -38.0111   24.7551 H   0  0  0  0  0  0
  -28.1144  -36.2637   24.6178 H   0  0  0  0  0  0
  -27.2297  -37.1304   25.8833 H   0  0  0  0  0  0
  -20.9418  -29.8737   21.6832 H   0  0  0  0  0  0
  -26.0156  -38.2806   24.1503 H   0  0  0  0  0  0
  -29.6567  -19.8229   19.0091 H   0  0  0  0  0  0
  -29.0401  -15.9691   24.2863 H   0  0  0  0  0  0
  -28.0855  -16.4351   22.8811 H   0  0  0  0  0  0
  -28.0444  -17.4169   24.3449 H   0  0  0  0  0  0
  -25.9796  -21.0766   26.2010 H   0  0  0  0  0  0
  -27.5260  -21.9155   26.1965 H   0  0  0  0  0  0
  -27.4368  -20.2454   26.7419 H   0  0  0  0  0  0
  -30.4503  -18.0461   24.0255 H   0  0  0  0  0  0
  -30.6128  -16.9852   22.7180 H   0  0  0  0  0  0
  -31.2437  -17.3731   20.0841 H   0  0  0  0  0  0
  -29.8163  -17.3165   19.1044 H   0  0  0  0  0  0
  -29.4253  -22.3271   18.9277 H   0  0  0  0  0  0
  -30.1772  -22.9685   20.3328 H   0  0  0  0  0  0
  -29.3360  -21.2081   24.5179 H   0  0  0  0  0  0
  -29.2068  -19.5239   24.8893 H   0  0  0  0  0  0
  -26.8735  -21.2137   23.8861 H   0  0  0  0  0  0
  -26.7735  -19.5464   24.3854 H   0  0  0  0  0  0
  -27.2118  -23.2429   20.4759 H   0  0  0  0  0  0
  -27.8169  -23.9090   19.0171 H   0  0  0  0  0  0
  -29.3671  -25.0510   21.1996 H   0  0  0  0  0  0
  -27.7079  -25.1748   21.6243 H   0  0  0  0  0  0
  -28.8760  -15.7034   20.8746 H   0  0  0  0  0  0
  1 25  1  0  0  0
  1 30  2  0  0  0
  1 86  1  0  0  0
  2  3  1  0  0  0
  2 25  1  0  0  0
  2 87  1  0  0  0
  2 88  1  0  0  0
  3  4  1  0  0  0
  3 89  1  0  0  0
  3 90  1  0  0  0
  4  5  1  0  0  0
  4 91  1  0  0  0
  4 92  1  0  0  0
  5  6  1  0  0  0
  5 26  1  0  0  0
  5 93  1  0  0  0
  6 25  1  0  0  0
  6 94  1  0  0  0
  6 95  1  0  0  0
  7  8  2  0  0  0
  7 26  1  0  0  0
  7 29  1  0  0  0
  8  9  1  0  0  0
  8 22  1  0  0  0
  9 10  1  0  0  0
  9 27  2  0  0  0
 10 11  2  0  0  0
 10 15  1  0  0  0
 11 12  1  0  0  0
 11 96  1  0  0  0
 12 13  2  0  0  0
 12 97  1  0  0  0
 13 14  1  0  0  0
 13 31  1  0  0  0
 14 15  2  0  0  0
 14 98  1  0  0  0
 15 99  1  0  0  0
 16 17  2  0  0  0
 16 21  1  0  0  0
 16 31  1  0  0  0
 17 18  1  0  0  0
 17100  1  0  0  0
 18 19  2  0  0  0
 18101  1  0  0  0
 19 20  1  0  0  0
 19 24  1  0  0  0
 20 21  2  0  0  0
 20102  1  0  0  0
 21 23  1  0  0  0
 22 28  1  0  0  0
 22 32  2  0  0  0
 26 27  1  0  0  0
 28103  1  0  0  0
 28104  1  0  0  0
 29105  1  0  0  0
 29106  1  0  0  0
 33 34  1  0  0  0
 33 66  1  0  0  0
 33 70  2  0  0  0
 34 36  1  0  0  0
 34 59  1  0  0  0
 34107  1  0  0  0
 35 44  2  0  0  0
 35 45  1  0  0  0
 35 68  1  0  0  0
 36 56  1  0  0  0
 36108  1  0  0  0
 37 39  1  0  0  0
 37 47  1  0  0  0
 37 66  1  0  0  0
 37109  1  0  0  0
 38 43  2  0  0  0
 38 46  1  0  0  0
 38 47  1  0  0  0
 39 64  1  0  0  0
 39 67  2  0  0  0
 40 52  1  0  0  0
 40 53  2  0  0  0
 40 58  1  0  0  0
 41110  1  0  0  0
 41111  1  0  0  0
 41112  1  0  0  0
 41 48  1  0  0  0
 42 43  1  0  0  0
 42 66  1  0  0  0
 42113  1  0  0  0
 42114  1  0  0  0
 43 44  1  0  0  0
 44115  1  0  0  0
 45 46  2  0  0  0
 45116  1  0  0  0
 46117  1  0  0  0
 47118  1  0  0  0
 47119  1  0  0  0
 48 56  1  0  0  0
 48 65  1  0  0  0
 48120  1  0  0  0
 49 50  1  0  0  0
 49 53  1  0  0  0
 49 64  1  0  0  0
 49121  1  0  0  0
 50 51  1  0  0  0
 50122  1  0  0  0
 50123  1  0  0  0
 51 52  1  0  0  0
 51124  1  0  0  0
 51125  1  0  0  0
 52126  1  0  0  0
 52127  1  0  0  0
 53 54  1  0  0  0
 54 55  2  0  0  0
 54128  1  0  0  0
 55 57  1  0  0  0
 55129  1  0  0  0
 56 69  2  0  0  0
 57 58  2  0  0  0
 57130  1  0  0  0
 58131  1  0  0  0
 59 60  1  0  0  0
 59 61  1  0  0  0
 59 62  1  0  0  0
 60132  1  0  0  0
 60133  1  0  0  0
 60134  1  0  0  0
 61135  1  0  0  0
 61136  1  0  0  0
 61137  1  0  0  0
 62138  1  0  0  0
 62139  1  0  0  0
 62140  1  0  0  0
 63 65  1  0  0  0
 63141  1  0  0  0
 63142  1  0  0  0
 63143  1  0  0  0
 64144  1  0  0  0
 65145  1  0  0  0
 68 84  1  0  0  0
 71 72  2  0  0  0
 71 74  1  0  0  0
 71146  1  0  0  0
 72 73  1  0  0  0
 72 79  1  0  0  0
 73 75  2  0  0  0
 73 78  1  0  0  0
 74 80  1  0  0  0
 74 85  2  0  0  0
 75 81  1  0  0  0
 75 85  1  0  0  0
 76 78  1  0  0  0
 76147  1  0  0  0
 76148  1  0  0  0
 76149  1  0  0  0
 77 82  1  0  0  0
 77150  1  0  0  0
 77151  1  0  0  0
 77152  1  0  0  0
 78153  1  0  0  0
 78154  1  0  0  0
 79 86  1  0  0  0
 79155  1  0  0  0
 79156  1  0  0  0
 80 83  1  0  0  0
 80157  1  0  0  0
 80158  1  0  0  0
 81 82  1  0  0  0
 81159  1  0  0  0
 81160  1  0  0  0
 82161  1  0  0  0
 82162  1  0  0  0
 83 84  1  0  0  0
 83163  1  0  0  0
 83164  1  0  0  0
 84165  1  0  0  0
 84166  1  0  0  0
 86167  1  0  0  0
M  ISO  4   1 100  68 101  84 101  86 100
M  END
> <chiral flag>
0

> <version>
0

> <s_m_source_file>
/data/baiqing/PycharmProjects/Reinvent-master-3.2/result/LINK_invent/BTK/process_docking_weight1_custom_sum_contain_oxygen_bond_distance_aromatic_linkinvent_7_9_3/rearranged_h_0033.sdf

> <i_m_source_file_index>
83

> <r_mmod_Potential_Energy-OPLS-2005>
-82.3604202270508

> <r_mmod_Stretch_Energy-OPLS-2005>
113.060844421387

> <r_mmod_Bend_Energy-OPLS-2005>
182.755172729492

> <r_mmod_Torsional_Energy-OPLS-2005>
245.804244995117

> <r_mmod_Improper_Torsional_Energy-OPLS-2005>
8.92862319946289

> <r_mmod_Van_der_Waal_Energy-OPLS-2005>
132.780548095703

> <r_mmod_Electrostatic_Energy-OPLS-2005>
-623.701293945312

> <r_mmod_Solvation_Energy-OPLS-2005>
-213.718765258789

> <b_mmod_Minimization_Converged-OPLS-2005>
0

> <r_mmod_RMS_Derivative-OPLS-2005>
3.25534582138062

$$$$
84
                    3D
 Structure written by MMmdl.
160168  0  0  1  0            999 V2000
  -30.5134  -15.0462   20.3987 C   0  0  0  0  0  0
  -30.4352  -12.6578   19.5018 C   0  0  0  0  0  0
  -29.5202  -12.5331   18.2619 C   0  0  0  0  0  0
  -28.0543  -12.3101   18.6827 C   0  0  0  0  0  0
  -27.6190  -13.2551   19.8304 C   0  0  2  0  0  0
  -28.6628  -13.3347   20.9637 C   0  0  0  0  0  0
  -25.2415  -13.8185   20.5757 C   0  0  0  0  0  0
  -24.1749  -13.0413   20.9279 C   0  0  0  0  0  0
  -24.6388  -11.6905   20.8771 C   0  0  0  0  0  0
  -23.9074  -10.4281   21.0396 C   0  0  0  0  0  0
  -24.3612   -9.4197   21.9169 C   0  0  0  0  0  0
  -23.6286   -8.2233   22.0749 C   0  0  0  0  0  0
  -22.4260   -8.0272   21.3554 C   0  0  0  0  0  0
  -21.9909   -9.0244   20.4663 C   0  0  0  0  0  0
  -22.7246  -10.2124   20.3055 C   0  0  0  0  0  0
  -21.6843   -6.0732   22.5289 C   0  0  0  0  0  0
  -21.4001   -6.5636   23.8218 C   0  0  0  0  0  0
  -21.3674   -5.6799   24.9187 C   0  0  0  0  0  0
  -21.6047   -4.3066   24.7250 C   0  0  0  0  0  0
  -21.8814   -3.8151   23.4370 C   0  0  0  0  0  0
  -21.9182   -4.6961   22.3424 C   0  0  0  0  0  0
  -22.7777  -13.5185   21.1929 C   0  0  0  0  0  0
  -22.1644   -4.2137   21.1003 F   0  0  0  0  0  0
  -21.5625   -3.4547   25.7764 F   0  0  0  0  0  0
  -29.9201  -13.7768   20.3472 N   0  0  0  0  0  0
  -26.2835  -12.9446   20.3249 N   0  0  0  0  0  0
  -25.9321  -11.6571   20.5743 N   0  0  0  0  0  0
  -22.0419  -12.8187   22.0484 N   0  0  0  0  0  0
  -25.4053  -15.1912   20.4215 N   0  0  0  0  0  0
  -31.7288  -15.0800   20.1784 O   0  0  0  0  0  0
  -21.6633   -6.8871   21.4253 O   0  0  0  0  0  0
  -22.3444  -14.5494   20.6775 O   0  0  0  0  0  0
  -24.6491  -31.8399   23.1833 C   0  0  0  0  0  0
  -25.9242  -32.4689   23.8260 C   0  0  1  0  0  0
  -27.2020  -27.0624   20.1813 C   0  0  0  0  0  0
  -25.5993  -33.8503   24.2185 N   0  0  0  0  0  0
  -23.4567  -30.4563   21.5293 C   0  0  2  0  0  0
  -24.9055  -28.8675   20.1155 C   0  0  0  0  0  0
  -22.7607  -29.4528   22.4834 C   0  0  0  0  0  0
  -18.0316  -28.1389   22.8489 C   0  0  0  0  0  0
  -24.1483  -36.7224   23.2640 C   0  0  0  0  0  0
  -26.0146  -30.6898   21.3933 C   0  0  0  0  0  0
  -26.0822  -29.2900   20.7478 C   0  0  0  0  0  0
  -27.2311  -28.4024   20.7616 C   0  0  0  0  0  0
  -26.0160  -26.7733   19.4797 C   0  0  0  0  0  0
  -24.8902  -27.6261   19.4612 C   0  0  0  0  0  0
  -23.6877  -29.7801   20.1513 C   0  0  0  0  0  0
  -25.4117  -36.3017   24.0320 C   0  0  1  0  0  0
  -20.5938  -28.3722   23.1217 C   0  0  2  0  0  0
  -20.6793  -26.9420   22.5404 C   0  0  0  0  0  0
  -19.5757  -26.6374   21.5219 C   0  0  0  0  0  0
  -18.1942  -26.7931   22.1633 C   0  0  0  0  0  0
  -19.1573  -28.8880   23.2850 C   0  0  0  0  0  0
  -18.9483  -30.1478   23.8873 C   0  0  0  0  0  0
  -17.6475  -30.6590   24.0551 C   0  0  0  0  0  0
  -25.9086  -34.9410   23.5054 C   0  0  0  0  0  0
  -16.5369  -29.9075   23.6329 C   0  0  0  0  0  0
  -16.7300  -28.6485   23.0362 C   0  0  0  0  0  0
  -26.4558  -31.6576   25.0719 C   0  0  0  0  0  0
  -25.3719  -31.3771   26.1391 C   0  0  0  0  0  0
  -27.0409  -30.2956   24.6337 C   0  0  0  0  0  0
  -27.6081  -32.4335   25.7516 C   0  0  0  0  0  0
  -27.5558  -37.1770   24.8471 C   0  0  0  0  0  0
  -21.4289  -29.3049   22.3582 N   0  0  0  0  0  0
  -26.4266  -37.3751   23.9423 N   0  0  0  0  0  0
  -24.7269  -31.0198   22.0895 N   0  0  0  0  0  0
  -23.4236  -28.8074   23.2994 O   0  0  0  0  0  0
  -28.2651  -26.0729   20.1661 O   0  0  0  0  0  0
  -26.5655  -34.8922   22.4630 O   0  0  0  0  0  0
  -23.5589  -32.1307   23.7007 O   0  0  0  0  0  0
  -27.5770  -20.5386   19.3053 C   0  0  0  0  0  0
  -29.3711  -20.6327   20.5004 C   0  0  0  0  0  0
  -28.0304  -19.2413   19.4507 C   0  0  0  0  0  0
  -29.2217  -19.2142   20.2325 C   0  0  0  0  0  0
  -27.3798  -18.0395   18.8223 C   0  0  0  0  0  0
  -29.5624  -24.3749   21.3877 C   0  0  0  0  0  0
  -28.4165  -23.4890   18.3280 C   0  0  0  0  0  0
  -26.3754  -23.1059   19.7430 C   0  0  0  0  0  0
  -30.1338  -17.8210   20.5588 C   0  0  0  0  0  0
  -28.2382  -24.5502   20.6441 C   0  0  2  0  0  0
  -27.9320  -23.1192   19.7426 C   0  0  0  0  0  0
  -28.3354  -21.5264   19.9542 N   0  0  0  0  0  0
  -29.7466  -16.2625   20.4951 N   0  0  0  0  0  0
  -31.4618  -12.8284   19.1789 H   0  0  0  0  0  0
  -30.4591  -11.7243   20.0663 H   0  0  0  0  0  0
  -29.8560  -11.7125   17.6268 H   0  0  0  0  0  0
  -29.5922  -13.4382   17.6575 H   0  0  0  0  0  0
  -27.9635  -11.2724   19.0086 H   0  0  0  0  0  0
  -27.3882  -12.4229   17.8272 H   0  0  0  0  0  0
  -27.5634  -14.2478   19.3807 H   0  0  0  0  0  0
  -28.7816  -12.3724   21.4630 H   0  0  0  0  0  0
  -28.3482  -14.0472   21.7269 H   0  0  0  0  0  0
  -25.2742   -9.5688   22.4759 H   0  0  0  0  0  0
  -24.0002   -7.4621   22.7451 H   0  0  0  0  0  0
  -21.0845   -8.8777   19.8944 H   0  0  0  0  0  0
  -22.3696  -10.9660   19.6165 H   0  0  0  0  0  0
  -21.1975   -7.6136   23.9714 H   0  0  0  0  0  0
  -21.1497   -6.0530   25.9089 H   0  0  0  0  0  0
  -22.0587   -2.7615   23.2874 H   0  0  0  0  0  0
  -22.4048  -11.9852   22.4888 H   0  0  0  0  0  0
  -21.1001  -13.1158   22.2670 H   0  0  0  0  0  0
  -24.6357  -15.8378   20.5476 H   0  0  0  0  0  0
  -26.2473  -15.6338   20.0889 H   0  0  0  0  0  0
  -26.7319  -32.5289   23.0991 H   0  0  0  0  0  0
  -25.0197  -33.9641   25.0370 H   0  0  0  0  0  0
  -22.7620  -31.2827   21.3670 H   0  0  0  0  0  0
  -23.3766  -35.9527   23.3285 H   0  0  0  0  0  0
  -24.3548  -36.8863   22.2053 H   0  0  0  0  0  0
  -23.7213  -37.6410   23.6679 H   0  0  0  0  0  0
  -26.1765  -31.4318   20.6104 H   0  0  0  0  0  0
  -26.8838  -30.7515   22.0366 H   0  0  0  0  0  0
  -28.1330  -28.7228   21.2647 H   0  0  0  0  0  0
  -25.9485  -25.8576   18.9152 H   0  0  0  0  0  0
  -24.0033  -27.3080   18.9299 H   0  0  0  0  0  0
  -23.8312  -30.5493   19.3917 H   0  0  0  0  0  0
  -22.8025  -29.2259   19.8384 H   0  0  0  0  0  0
  -25.1308  -36.1829   25.0807 H   0  0  0  0  0  0
  -21.0054  -28.3279   24.1324 H   0  0  0  0  0  0
  -20.5670  -26.2333   23.3628 H   0  0  0  0  0  0
  -21.6648  -26.7393   22.1202 H   0  0  0  0  0  0
  -19.6910  -25.6277   21.1257 H   0  0  0  0  0  0
  -19.6675  -27.3167   20.6729 H   0  0  0  0  0  0
  -17.4216  -26.6692   21.4036 H   0  0  0  0  0  0
  -18.0321  -26.0068   22.9015 H   0  0  0  0  0  0
  -19.7956  -30.7305   24.2228 H   0  0  0  0  0  0
  -17.5018  -31.6265   24.5156 H   0  0  0  0  0  0
  -15.5368  -30.2965   23.7670 H   0  0  0  0  0  0
  -15.8696  -28.0801   22.7097 H   0  0  0  0  0  0
  -24.5944  -30.7093   25.7676 H   0  0  0  0  0  0
  -24.8873  -32.2945   26.4728 H   0  0  0  0  0  0
  -25.7974  -30.9003   27.0224 H   0  0  0  0  0  0
  -26.3024  -29.6689   24.1326 H   0  0  0  0  0  0
  -27.3963  -29.7279   25.4946 H   0  0  0  0  0  0
  -27.8971  -30.4167   23.9696 H   0  0  0  0  0  0
  -27.2698  -33.3672   26.2020 H   0  0  0  0  0  0
  -28.3936  -32.6827   25.0368 H   0  0  0  0  0  0
  -28.0708  -31.8512   26.5499 H   0  0  0  0  0  0
  -28.2582  -38.0060   24.7513 H   0  0  0  0  0  0
  -28.1050  -36.2601   24.6293 H   0  0  0  0  0  0
  -27.2289  -37.1398   25.8877 H   0  0  0  0  0  0
  -20.9504  -29.8773   21.6768 H   0  0  0  0  0  0
  -26.0125  -38.2810   24.1429 H   0  0  0  0  0  0
  -26.7212  -20.8284   18.7160 H   0  0  0  0  0  0
  -30.1800  -21.1058   21.0414 H   0  0  0  0  0  0
  -26.5970  -18.3300   18.1206 H   0  0  0  0  0  0
  -26.9317  -17.4139   19.5925 H   0  0  0  0  0  0
  -28.1172  -17.4471   18.2790 H   0  0  0  0  0  0
  -29.5796  -23.4278   21.9298 H   0  0  0  0  0  0
  -29.7122  -25.1739   22.1135 H   0  0  0  0  0  0
  -30.4054  -24.3794   20.6975 H   0  0  0  0  0  0
  -27.9067  -24.3818   17.9580 H   0  0  0  0  0  0
  -28.2305  -22.6950   17.6052 H   0  0  0  0  0  0
  -29.4856  -23.6986   18.3233 H   0  0  0  0  0  0
  -25.9275  -24.0716   19.9550 H   0  0  0  0  0  0
  -25.9935  -22.4487   20.5259 H   0  0  0  0  0  0
  -25.9458  -22.7861   18.7938 H   0  0  0  0  0  0
  -30.5275  -17.9703   21.5645 H   0  0  0  0  0  0
  -31.0113  -17.9165   19.9164 H   0  0  0  0  0  0
  -27.4991  -24.5599   21.4476 H   0  0  0  0  0  0
  -28.7596  -16.0953   20.6029 H   0  0  0  0  0  0
  1 25  1  0  0  0
  1 30  2  0  0  0
  1 83  1  0  0  0
  2  3  1  0  0  0
  2 25  1  0  0  0
  2 84  1  0  0  0
  2 85  1  0  0  0
  3  4  1  0  0  0
  3 86  1  0  0  0
  3 87  1  0  0  0
  4  5  1  0  0  0
  4 88  1  0  0  0
  4 89  1  0  0  0
  5  6  1  0  0  0
  5 26  1  0  0  0
  5 90  1  0  0  0
  6 25  1  0  0  0
  6 91  1  0  0  0
  6 92  1  0  0  0
  7  8  2  0  0  0
  7 26  1  0  0  0
  7 29  1  0  0  0
  8  9  1  0  0  0
  8 22  1  0  0  0
  9 10  1  0  0  0
  9 27  2  0  0  0
 10 11  2  0  0  0
 10 15  1  0  0  0
 11 12  1  0  0  0
 11 93  1  0  0  0
 12 13  2  0  0  0
 12 94  1  0  0  0
 13 14  1  0  0  0
 13 31  1  0  0  0
 14 15  2  0  0  0
 14 95  1  0  0  0
 15 96  1  0  0  0
 16 17  2  0  0  0
 16 21  1  0  0  0
 16 31  1  0  0  0
 17 18  1  0  0  0
 17 97  1  0  0  0
 18 19  2  0  0  0
 18 98  1  0  0  0
 19 20  1  0  0  0
 19 24  1  0  0  0
 20 21  2  0  0  0
 20 99  1  0  0  0
 21 23  1  0  0  0
 22 28  1  0  0  0
 22 32  2  0  0  0
 26 27  1  0  0  0
 28100  1  0  0  0
 28101  1  0  0  0
 29102  1  0  0  0
 29103  1  0  0  0
 33 34  1  0  0  0
 33 66  1  0  0  0
 33 70  2  0  0  0
 34 36  1  0  0  0
 34 59  1  0  0  0
 34104  1  0  0  0
 35 44  2  0  0  0
 35 45  1  0  0  0
 35 68  1  0  0  0
 36 56  1  0  0  0
 36105  1  0  0  0
 37 39  1  0  0  0
 37 47  1  0  0  0
 37 66  1  0  0  0
 37106  1  0  0  0
 38 43  2  0  0  0
 38 46  1  0  0  0
 38 47  1  0  0  0
 39 64  1  0  0  0
 39 67  2  0  0  0
 40 52  1  0  0  0
 40 53  2  0  0  0
 40 58  1  0  0  0
 41107  1  0  0  0
 41108  1  0  0  0
 41109  1  0  0  0
 41 48  1  0  0  0
 42 43  1  0  0  0
 42 66  1  0  0  0
 42110  1  0  0  0
 42111  1  0  0  0
 43 44  1  0  0  0
 44112  1  0  0  0
 45 46  2  0  0  0
 45113  1  0  0  0
 46114  1  0  0  0
 47115  1  0  0  0
 47116  1  0  0  0
 48 56  1  0  0  0
 48 65  1  0  0  0
 48117  1  0  0  0
 49 50  1  0  0  0
 49 53  1  0  0  0
 49 64  1  0  0  0
 49118  1  0  0  0
 50 51  1  0  0  0
 50119  1  0  0  0
 50120  1  0  0  0
 51 52  1  0  0  0
 51121  1  0  0  0
 51122  1  0  0  0
 52123  1  0  0  0
 52124  1  0  0  0
 53 54  1  0  0  0
 54 55  2  0  0  0
 54125  1  0  0  0
 55 57  1  0  0  0
 55126  1  0  0  0
 56 69  2  0  0  0
 57 58  2  0  0  0
 57127  1  0  0  0
 58128  1  0  0  0
 59 60  1  0  0  0
 59 61  1  0  0  0
 59 62  1  0  0  0
 60129  1  0  0  0
 60130  1  0  0  0
 60131  1  0  0  0
 61132  1  0  0  0
 61133  1  0  0  0
 61134  1  0  0  0
 62135  1  0  0  0
 62136  1  0  0  0
 62137  1  0  0  0
 63 65  1  0  0  0
 63138  1  0  0  0
 63139  1  0  0  0
 63140  1  0  0  0
 64141  1  0  0  0
 65142  1  0  0  0
 68 80  1  0  0  0
 71 73  2  0  0  0
 71 82  1  0  0  0
 71143  1  0  0  0
 72 74  2  0  0  0
 72 82  1  0  0  0
 72144  1  0  0  0
 73 74  1  0  0  0
 73 75  1  0  0  0
 74 79  1  0  0  0
 75145  1  0  0  0
 75146  1  0  0  0
 75147  1  0  0  0
 76148  1  0  0  0
 76149  1  0  0  0
 76150  1  0  0  0
 76 80  1  0  0  0
 77151  1  0  0  0
 77152  1  0  0  0
 77153  1  0  0  0
 77 81  1  0  0  0
 78 81  1  0  0  0
 78154  1  0  0  0
 78155  1  0  0  0
 78156  1  0  0  0
 79 83  1  0  0  0
 79157  1  0  0  0
 79158  1  0  0  0
 80 81  1  0  0  0
 80159  1  0  0  0
 81 82  1  0  0  0
 83160  1  0  0  0
M  ISO  4   1 100  68 101  80 101  83 100
M  END
> <chiral flag>
0

> <version>
0

> <s_m_source_file>
/data/baiqing/PycharmProjects/Reinvent-master-3.2/result/LINK_invent/BTK/process_docking_weight1_custom_sum_contain_oxygen_bond_distance_aromatic_linkinvent_7_9_3/rearranged_h_0033.sdf

> <i_m_source_file_index>
84

> <r_mmod_Potential_Energy-OPLS-2005>
746.332580566406

> <r_mmod_Stretch_Energy-OPLS-2005>
355.824859619141

> <r_mmod_Bend_Energy-OPLS-2005>
386.535308837891

> <r_mmod_Torsional_Energy-OPLS-2005>
267.278564453125

> <r_mmod_Improper_Torsional_Energy-OPLS-2005>
5.59723234176636

> <r_mmod_Van_der_Waal_Energy-OPLS-2005>
111.387512207031

> <r_mmod_Electrostatic_Energy-OPLS-2005>
-433.197357177734

> <r_mmod_Solvation_Energy-OPLS-2005>
-205.818786621094

> <b_mmod_Minimization_Converged-OPLS-2005>
0

> <r_mmod_RMS_Derivative-OPLS-2005>
3.60386514663696

$$$$
85
                    3D
 Structure written by MMmdl.
157165  0  0  1  0            999 V2000
  -29.3450  -16.2340   21.0229 C   0  0  0  0  0  0
  -30.2009  -13.7092   19.8464 C   0  0  0  0  0  0
  -29.5644  -12.9687   18.5852 C   0  0  0  0  0  0
  -28.1977  -12.3592   18.9098 C   0  0  0  0  0  0
  -27.5057  -13.3213   19.8840 C   0  0  2  0  0  0
  -28.3226  -13.7099   21.1313 C   0  0  0  0  0  0
  -25.1709  -13.8198   20.5668 C   0  0  0  0  0  0
  -24.1247  -13.0318   20.9290 C   0  0  0  0  0  0
  -24.6032  -11.6849   20.8770 C   0  0  0  0  0  0
  -23.8886  -10.4204   21.0429 C   0  0  0  0  0  0
  -24.3522   -9.4153   21.9198 C   0  0  0  0  0  0
  -23.6239   -8.2165   22.0757 C   0  0  0  0  0  0
  -22.4220   -8.0200   21.3538 C   0  0  0  0  0  0
  -21.9807   -9.0146   20.4635 C   0  0  0  0  0  0
  -22.7092  -10.2036   20.3054 C   0  0  0  0  0  0
  -21.6830   -6.0689   22.5286 C   0  0  0  0  0  0
  -21.3999   -6.5609   23.8216 C   0  0  0  0  0  0
  -21.3656   -5.6772   24.9187 C   0  0  0  0  0  0
  -21.6044   -4.3034   24.7242 C   0  0  0  0  0  0
  -21.8818   -3.8112   23.4367 C   0  0  0  0  0  0
  -21.9185   -4.6922   22.3417 C   0  0  0  0  0  0
  -22.7333  -13.5077   21.2001 C   0  0  0  0  0  0
  -22.1652   -4.2108   21.0994 F   0  0  0  0  0  0
  -21.5642   -3.4525   25.7762 F   0  0  0  0  0  0
  -29.2626  -14.7281   20.6703 N   0  0  0  0  0  0
  -26.1980  -12.9439   20.2992 N   0  0  0  0  0  0
  -25.8906  -11.6537   20.5582 N   0  0  0  0  0  0
  -22.0062  -12.8074   22.0608 N   0  0  0  0  0  0
  -25.3332  -15.1985   20.4201 N   0  0  0  0  0  0
  -30.5965  -16.3185   20.7465 O   0  0  0  0  0  0
  -21.6599   -6.8802   21.4238 O   0  0  0  0  0  0
  -22.3050  -14.5409   20.6859 O   0  0  0  0  0  0
  -24.8620  -31.8568   23.2512 C   0  0  0  0  0  0
  -26.0548  -32.5423   23.9072 C   0  0  1  0  0  0
  -25.3731  -27.4919   20.3659 C   0  0  0  0  0  0
  -25.6605  -33.9011   24.2720 N   0  0  0  0  0  0
  -24.2475  -29.8026   22.0667 C   0  0  2  0  0  0
  -25.1766  -29.7904   19.5981 C   0  0  0  0  0  0
  -24.2965  -28.0585   22.6922 C   0  0  0  0  0  0
  -18.3532  -27.7307   22.7738 C   0  0  0  0  0  0
  -24.1495  -36.7434   23.2519 C   0  0  0  0  0  0
  -26.3739  -30.7690   21.5685 C   0  0  0  0  0  0
  -26.2371  -29.6851   20.5041 C   0  0  0  0  0  0
  -26.4853  -28.3403   20.8195 C   0  0  0  0  0  0
  -25.5891  -27.4052   19.0256 C   0  0  0  0  0  0
  -25.0716  -28.6752   18.6548 C   0  0  0  0  0  0
  -23.9791  -30.2890   20.4535 C   0  0  0  0  0  0
  -25.4102  -36.3311   24.0274 C   0  0  1  0  0  0
  -21.1089  -26.7658   22.5316 C   0  0  2  0  0  0
  -20.5849  -26.0133   21.4508 C   0  0  0  0  0  0
  -19.2137  -26.3882   20.9723 C   0  0  0  0  0  0
  -18.1565  -26.4555   22.0570 C   0  0  0  0  0  0
  -19.7563  -28.0524   23.0258 C   0  0  0  0  0  0
  -19.6539  -29.4246   23.6291 C   0  0  0  0  0  0
  -18.4387  -30.2168   23.8930 C   0  0  0  0  0  0
  -25.9129  -34.9712   23.5150 C   0  0  0  0  0  0
  -17.1481  -29.7390   23.6010 C   0  0  0  0  0  0
  -17.1352  -28.4664   23.0323 C   0  0  0  0  0  0
  -26.5257  -31.7151   25.1599 C   0  0  0  0  0  0
  -25.3952  -31.3988   26.1712 C   0  0  0  0  0  0
  -27.1875  -30.3734   24.7672 C   0  0  0  0  0  0
  -27.6297  -32.5147   25.8754 C   0  0  0  0  0  0
  -27.5592  -37.1929   24.8435 C   0  0  0  0  0  0
  -23.1633  -26.7511   22.2490 N   0  0  0  0  0  0
  -26.4284  -37.3997   23.9416 N   0  0  0  0  0  0
  -25.1837  -30.8147   22.4352 N   0  0  0  0  0  0
  -24.9257  -28.0720   23.7023 O   0  0  0  0  0  0
  -23.8028  -27.9036   20.4320 O   0  0  0  0  0  0
  -26.5425  -34.9076   22.4567 O   0  0  0  0  0  0
  -23.7093  -32.1630   23.6247 O   0  0  0  0  0  0
  -24.7220  -21.1970   22.6911 C   0  0  0  0  0  0
  -25.9678  -22.6475   23.1270 C   0  0  0  0  0  0
  -26.2060  -21.0951   22.6335 C   0  0  0  0  0  0
  -23.9566  -22.3857   23.0986 C   0  0  0  0  0  0
  -21.9614  -22.1798   24.6581 C   0  0  0  0  0  0
  -27.6428  -19.4201   22.1155 C   0  0  0  0  0  0
  -22.4632  -22.3341   23.2163 C   0  0  0  0  0  0
  -22.5013  -27.5094   24.2163 C   0  0  0  0  0  0
  -23.7593  -25.4382   24.2656 C   0  0  0  0  0  0
  -22.1956  -28.6705   21.7673 C   0  0  0  0  0  0
  -24.5921  -23.6521   23.4602 N   0  0  0  0  0  0
  -28.2188  -17.5081   21.5195 N   0  0  0  0  0  0
  -31.0637  -14.2655   19.4804 H   0  0  0  0  0  0
  -30.6441  -12.9800   20.5255 H   0  0  0  0  0  0
  -30.2454  -12.2123   18.1923 H   0  0  0  0  0  0
  -29.4331  -13.7078   17.7940 H   0  0  0  0  0  0
  -28.3400  -11.3920   19.3954 H   0  0  0  0  0  0
  -27.6043  -12.1868   18.0114 H   0  0  0  0  0  0
  -27.3591  -14.2214   19.2848 H   0  0  0  0  0  0
  -28.7753  -12.8505   21.6295 H   0  0  0  0  0  0
  -27.6907  -14.1852   21.8833 H   0  0  0  0  0  0
  -25.2678   -9.5667   22.4757 H   0  0  0  0  0  0
  -23.9967   -7.4555   22.7472 H   0  0  0  0  0  0
  -21.0735   -8.8625   19.8952 H   0  0  0  0  0  0
  -22.3533  -10.9563   19.6154 H   0  0  0  0  0  0
  -21.1976   -7.6117   23.9705 H   0  0  0  0  0  0
  -21.1491   -6.0511   25.9088 H   0  0  0  0  0  0
  -22.0606   -2.7575   23.2882 H   0  0  0  0  0  0
  -22.3712  -11.9763   22.5003 H   0  0  0  0  0  0
  -21.0694  -13.1085   22.2888 H   0  0  0  0  0  0
  -24.5230  -15.8084   20.4583 H   0  0  0  0  0  0
  -26.1106  -15.6079   19.9171 H   0  0  0  0  0  0
  -26.8968  -32.6029   23.2182 H   0  0  0  0  0  0
  -25.1100  -34.0149   25.1095 H   0  0  0  0  0  0
  -23.4984  -30.1265   22.7727 H   0  0  0  0  0  0
  -23.3801  -35.9720   23.3135 H   0  0  0  0  0  0
  -24.3628  -36.9077   22.1947 H   0  0  0  0  0  0
  -23.7164  -37.6610   23.6509 H   0  0  0  0  0  0
  -26.5010  -31.7285   21.0630 H   0  0  0  0  0  0
  -27.2875  -30.5868   22.1263 H   0  0  0  0  0  0
  -27.0668  -28.0792   21.6952 H   0  0  0  0  0  0
  -25.1789  -26.5837   18.4556 H   0  0  0  0  0  0
  -24.3397  -28.7063   17.8572 H   0  0  0  0  0  0
  -23.9623  -31.3791   20.3947 H   0  0  0  0  0  0
  -23.0383  -30.0311   19.9632 H   0  0  0  0  0  0
  -25.1217  -36.2199   25.0745 H   0  0  0  0  0  0
  -20.9373  -26.0180   23.3215 H   0  0  0  0  0  0
  -20.6015  -24.9441   21.6772 H   0  0  0  0  0  0
  -21.2606  -26.1129   20.6004 H   0  0  0  0  0  0
  -18.9088  -25.6166   20.2620 H   0  0  0  0  0  0
  -19.2371  -27.3100   20.3909 H   0  0  0  0  0  0
  -17.1669  -26.4140   21.6000 H   0  0  0  0  0  0
  -18.2306  -25.6099   22.7417 H   0  0  0  0  0  0
  -20.5896  -29.8988   23.8945 H   0  0  0  0  0  0
  -18.5358  -31.2003   24.3343 H   0  0  0  0  0  0
  -16.2491  -30.3115   23.7965 H   0  0  0  0  0  0
  -16.1776  -28.0370   22.7671 H   0  0  0  0  0  0
  -24.6622  -30.6983   25.7703 H   0  0  0  0  0  0
  -24.8585  -32.2990   26.4707 H   0  0  0  0  0  0
  -25.7913  -30.9464   27.0811 H   0  0  0  0  0  0
  -26.5288  -29.6931   24.2535 H   0  0  0  0  0  0
  -27.5213  -29.8368   25.6553 H   0  0  0  0  0  0
  -28.0757  -30.5224   24.1553 H   0  0  0  0  0  0
  -27.2496  -33.4407   26.3094 H   0  0  0  0  0  0
  -28.4374  -32.7880   25.1940 H   0  0  0  0  0  0
  -28.0741  -31.9505   26.6966 H   0  0  0  0  0  0
  -28.2550  -38.0293   24.7631 H   0  0  0  0  0  0
  -28.1163  -36.2845   24.6095 H   0  0  0  0  0  0
  -27.2312  -37.1376   25.8830 H   0  0  0  0  0  0
  -23.5501  -25.8310   22.3917 H   0  0  0  0  0  0
  -26.0171  -38.3041   24.1570 H   0  0  0  0  0  0
  -24.1541  -20.3117   22.4390 H   0  0  0  0  0  0
  -26.8482  -23.2388   23.3435 H   0  0  0  0  0  0
  -22.3128  -22.9804   25.3127 H   0  0  0  0  0  0
  -22.2871  -21.2333   25.0949 H   0  0  0  0  0  0
  -20.8696  -22.1870   24.6684 H   0  0  0  0  0  0
  -28.0944  -19.3550   23.1080 H   0  0  0  0  0  0
  -28.3761  -19.9996   21.5513 H   0  0  0  0  0  0
  -22.0884  -21.4767   22.6530 H   0  0  0  0  0  0
  -22.0253  -23.2120   22.7436 H   0  0  0  0  0  0
  -22.9492  -28.2209   24.9155 H   0  0  0  0  0  0
  -21.5753  -27.4019   24.7889 H   0  0  0  0  0  0
  -23.3084  -25.0367   25.1705 H   0  0  0  0  0  0
  -24.6841  -25.8378   24.6810 H   0  0  0  0  0  0
  -21.8853  -29.7193   21.8025 H   0  0  0  0  0  0
  -21.3524  -28.4731   21.0998 H   0  0  0  0  0  0
  -27.3494  -16.9903   21.5526 H   0  0  0  0  0  0
  1 25  1  0  0  0
  1 30  2  0  0  0
  1 82  1  0  0  0
  2  3  1  0  0  0
  2 25  1  0  0  0
  2 83  1  0  0  0
  2 84  1  0  0  0
  3  4  1  0  0  0
  3 85  1  0  0  0
  3 86  1  0  0  0
  4  5  1  0  0  0
  4 87  1  0  0  0
  4 88  1  0  0  0
  5  6  1  0  0  0
  5 26  1  0  0  0
  5 89  1  0  0  0
  6 25  1  0  0  0
  6 90  1  0  0  0
  6 91  1  0  0  0
  7  8  2  0  0  0
  7 26  1  0  0  0
  7 29  1  0  0  0
  8  9  1  0  0  0
  8 22  1  0  0  0
  9 10  1  0  0  0
  9 27  2  0  0  0
 10 11  2  0  0  0
 10 15  1  0  0  0
 11 12  1  0  0  0
 11 92  1  0  0  0
 12 13  2  0  0  0
 12 93  1  0  0  0
 13 14  1  0  0  0
 13 31  1  0  0  0
 14 15  2  0  0  0
 14 94  1  0  0  0
 15 95  1  0  0  0
 16 17  2  0  0  0
 16 21  1  0  0  0
 16 31  1  0  0  0
 17 18  1  0  0  0
 17 96  1  0  0  0
 18 19  2  0  0  0
 18 97  1  0  0  0
 19 20  1  0  0  0
 19 24  1  0  0  0
 20 21  2  0  0  0
 20 98  1  0  0  0
 21 23  1  0  0  0
 22 28  1  0  0  0
 22 32  2  0  0  0
 26 27  1  0  0  0
 28 99  1  0  0  0
 28100  1  0  0  0
 29101  1  0  0  0
 29102  1  0  0  0
 33 34  1  0  0  0
 33 66  1  0  0  0
 33 70  2  0  0  0
 34 36  1  0  0  0
 34 59  1  0  0  0
 34103  1  0  0  0
 35 44  2  0  0  0
 35 45  1  0  0  0
 35 68  1  0  0  0
 36 56  1  0  0  0
 36104  1  0  0  0
 37 39  1  0  0  0
 37 47  1  0  0  0
 37 66  1  0  0  0
 37105  1  0  0  0
 38 43  2  0  0  0
 38 46  1  0  0  0
 38 47  1  0  0  0
 39 64  1  0  0  0
 39 67  2  0  0  0
 40 52  1  0  0  0
 40 53  2  0  0  0
 40 58  1  0  0  0
 41106  1  0  0  0
 41107  1  0  0  0
 41108  1  0  0  0
 41 48  1  0  0  0
 42 43  1  0  0  0
 42 66  1  0  0  0
 42109  1  0  0  0
 42110  1  0  0  0
 43 44  1  0  0  0
 44111  1  0  0  0
 45 46  2  0  0  0
 45112  1  0  0  0
 46113  1  0  0  0
 47114  1  0  0  0
 47115  1  0  0  0
 48 56  1  0  0  0
 48 65  1  0  0  0
 48116  1  0  0  0
 49 50  1  0  0  0
 49 53  1  0  0  0
 49 64  1  0  0  0
 49117  1  0  0  0
 50 51  1  0  0  0
 50118  1  0  0  0
 50119  1  0  0  0
 51 52  1  0  0  0
 51120  1  0  0  0
 51121  1  0  0  0
 52122  1  0  0  0
 52123  1  0  0  0
 53 54  1  0  0  0
 54 55  2  0  0  0
 54124  1  0  0  0
 55 57  1  0  0  0
 55125  1  0  0  0
 56 69  2  0  0  0
 57 58  2  0  0  0
 57126  1  0  0  0
 58127  1  0  0  0
 59 60  1  0  0  0
 59 61  1  0  0  0
 59 62  1  0  0  0
 60128  1  0  0  0
 60129  1  0  0  0
 60130  1  0  0  0
 61131  1  0  0  0
 61132  1  0  0  0
 61133  1  0  0  0
 62134  1  0  0  0
 62135  1  0  0  0
 62136  1  0  0  0
 63 65  1  0  0  0
 63137  1  0  0  0
 63138  1  0  0  0
 63139  1  0  0  0
 64140  1  0  0  0
 65141  1  0  0  0
 68 80  1  0  0  0
 71 73  1  0  0  0
 71 74  2  0  0  0
 71142  1  0  0  0
 72 73  2  0  0  0
 72 81  1  0  0  0
 72143  1  0  0  0
 73 76  1  0  0  0
 74 77  1  0  0  0
 74 81  1  0  0  0
 75 77  1  0  0  0
 75144  1  0  0  0
 75145  1  0  0  0
 75146  1  0  0  0
 76 82  1  0  0  0
 76147  1  0  0  0
 76148  1  0  0  0
 77149  1  0  0  0
 77150  1  0  0  0
 78 79  1  0  0  0
 78 80  1  0  0  0
 78151  1  0  0  0
 78152  1  0  0  0
 79 81  1  0  0  0
 79153  1  0  0  0
 79154  1  0  0  0
 80155  1  0  0  0
 80156  1  0  0  0
 82157  1  0  0  0
M  ISO  4   1 100  68 101  80 101  82 100
M  END
> <chiral flag>
0

> <version>
0

> <s_m_source_file>
/data/baiqing/PycharmProjects/Reinvent-master-3.2/result/LINK_invent/BTK/process_docking_weight1_custom_sum_contain_oxygen_bond_distance_aromatic_linkinvent_7_9_3/rearranged_h_0033.sdf

> <i_m_source_file_index>
85

> <r_mmod_Potential_Energy-OPLS-2005>
19770.423828125

> <r_mmod_Stretch_Energy-OPLS-2005>
7890.96826171875

> <r_mmod_Bend_Energy-OPLS-2005>
1813.59936523438

> <r_mmod_Torsional_Energy-OPLS-2005>
643.681091308594

> <r_mmod_Improper_Torsional_Energy-OPLS-2005>
96.3160247802734

> <r_mmod_Van_der_Waal_Energy-OPLS-2005>
2181.80615234375

> <r_mmod_Electrostatic_Energy-OPLS-2005>
-392.724884033203

> <r_mmod_Solvation_Energy-OPLS-2005>
-203.649765014648

> <b_mmod_Minimization_Converged-OPLS-2005>
0

> <r_mmod_RMS_Derivative-OPLS-2005>
7.40379762649536

$$$$
86
                    3D
 Structure written by MMmdl.
159167  0  0  1  0            999 V2000
  -30.6515  -14.5221   20.2392 C   0  0  0  0  0  0
  -30.4147  -12.2660   19.4208 C   0  0  0  0  0  0
  -29.4790  -12.3491   18.1928 C   0  0  0  0  0  0
  -27.9974  -12.2933   18.6214 C   0  0  0  0  0  0
  -27.6404  -13.2005   19.8304 C   0  0  2  0  0  0
  -28.7048  -13.1210   20.9482 C   0  0  0  0  0  0
  -25.2571  -13.8130   20.5789 C   0  0  0  0  0  0
  -24.1817  -13.0392   20.9260 C   0  0  0  0  0  0
  -24.6368  -11.6869   20.8790 C   0  0  0  0  0  0
  -23.9023  -10.4268   21.0437 C   0  0  0  0  0  0
  -24.3580   -9.4200   21.9239 C   0  0  0  0  0  0
  -23.6263   -8.2230   22.0769 C   0  0  0  0  0  0
  -22.4240   -8.0294   21.3568 C   0  0  0  0  0  0
  -21.9891   -9.0249   20.4646 C   0  0  0  0  0  0
  -22.7191  -10.2137   20.3073 C   0  0  0  0  0  0
  -21.6812   -6.0727   22.5283 C   0  0  0  0  0  0
  -21.4003   -6.5627   23.8215 C   0  0  0  0  0  0
  -21.3669   -5.6786   24.9177 C   0  0  0  0  0  0
  -21.6050   -4.3056   24.7236 C   0  0  0  0  0  0
  -21.8802   -3.8134   23.4344 C   0  0  0  0  0  0
  -21.9180   -4.6954   22.3405 C   0  0  0  0  0  0
  -22.7844  -13.5226   21.1864 C   0  0  0  0  0  0
  -22.1636   -4.2136   21.0988 F   0  0  0  0  0  0
  -21.5647   -3.4545   25.7741 F   0  0  0  0  0  0
  -30.0374  -13.3240   20.3640 N   0  0  0  0  0  0
  -26.2958  -12.9281   20.3311 N   0  0  0  0  0  0
  -25.9283  -11.6462   20.5814 N   0  0  0  0  0  0
  -22.0405  -12.8234   22.0394 N   0  0  0  0  0  0
  -25.4302  -15.1846   20.4336 N   0  0  0  0  0  0
  -31.8697  -14.6502   20.3414 O   0  0  0  0  0  0
  -21.6630   -6.8864   21.4238 O   0  0  0  0  0  0
  -22.3634  -14.5558   20.6703 O   0  0  0  0  0  0
  -24.6154  -31.8702   23.2055 C   0  0  0  0  0  0
  -25.9059  -32.4821   23.8382 C   0  0  1  0  0  0
  -27.2253  -27.4295   20.0786 C   0  0  0  0  0  0
  -25.5972  -33.8623   24.2329 N   0  0  0  0  0  0
  -23.3999  -30.4924   21.5534 C   0  0  2  0  0  0
  -24.8398  -28.9577   20.1141 C   0  0  0  0  0  0
  -22.7428  -29.4669   22.5036 C   0  0  0  0  0  0
  -18.0281  -28.1354   22.8507 C   0  0  0  0  0  0
  -24.1498  -36.7296   23.2626 C   0  0  0  0  0  0
  -25.9266  -30.8317   21.3578 C   0  0  0  0  0  0
  -25.9993  -29.4621   20.7122 C   0  0  0  0  0  0
  -27.1917  -28.7019   20.6982 C   0  0  0  0  0  0
  -26.0399  -26.9451   19.4727 C   0  0  0  0  0  0
  -24.8557  -27.7015   19.4919 C   0  0  0  0  0  0
  -23.6012  -29.8249   20.1668 C   0  0  0  0  0  0
  -25.4129  -36.3114   24.0329 C   0  0  1  0  0  0
  -20.5863  -28.3648   23.1339 C   0  0  2  0  0  0
  -20.6764  -26.9373   22.5431 C   0  0  0  0  0  0
  -19.5745  -26.6384   21.5222 C   0  0  0  0  0  0
  -18.1924  -26.7909   22.1631 C   0  0  0  0  0  0
  -19.1517  -28.8835   23.2914 C   0  0  0  0  0  0
  -18.9454  -30.1453   23.8893 C   0  0  0  0  0  0
  -17.6452  -30.6563   24.0585 C   0  0  0  0  0  0
  -25.9073  -34.9486   23.5114 C   0  0  0  0  0  0
  -16.5341  -29.9073   23.6318 C   0  0  0  0  0  0
  -16.7272  -28.6498   23.0327 C   0  0  0  0  0  0
  -26.4487  -31.6582   25.0704 C   0  0  0  0  0  0
  -25.3742  -31.3666   26.1432 C   0  0  0  0  0  0
  -27.0282  -30.3043   24.5988 C   0  0  0  0  0  0
  -27.6092  -32.4254   25.7454 C   0  0  0  0  0  0
  -27.5564  -37.1821   24.8463 C   0  0  0  0  0  0
  -21.4154  -29.3020   22.3778 N   0  0  0  0  0  0
  -26.4289  -37.3809   23.9398 N   0  0  0  0  0  0
  -24.6656  -31.0807   22.0973 N   0  0  0  0  0  0
  -23.4212  -28.8224   23.3073 O   0  0  0  0  0  0
  -28.4097  -26.7167   20.0875 O   0  0  0  0  0  0
  -26.5610  -34.8932   22.4656 O   0  0  0  0  0  0
  -23.5379  -32.1466   23.7494 O   0  0  0  0  0  0
  -27.7381  -19.5466   19.8844 C   0  0  0  0  0  0
  -25.0817  -19.4266   19.1900 C   0  0  0  0  0  0
  -27.2950  -18.4246   19.1552 C   0  0  0  0  0  0
  -25.9246  -18.3690   18.7884 C   0  0  0  0  0  0
  -26.8212  -20.5623   20.2099 C   0  0  0  0  0  0
  -28.3075  -17.3705   18.7171 C   0  0  0  0  0  0
  -27.2758  -21.8373   20.8983 C   0  0  0  0  0  0
  -29.9838  -15.5552   19.2908 C   0  0  0  0  0  0
  -29.1107  -16.6905   19.8616 C   0  0  0  0  0  0
  -27.7386  -22.9185   19.8925 C   0  0  0  0  0  0
  -27.8321  -24.3317   20.5036 C   0  0  0  0  0  0
  -28.4467  -25.3851   19.5523 C   0  0  0  0  0  0
  -25.5152  -20.5064   19.8748 N   0  0  0  0  0  0
  -25.2617  -17.0925   17.8253 Cl  0  0  0  0  0  0
  -31.4552  -12.3512   19.1020 H   0  0  0  0  0  0
  -30.3223  -11.2951   19.9098 H   0  0  0  0  0  0
  -29.6913  -11.5045   17.5376 H   0  0  0  0  0  0
  -29.6815  -13.2216   17.5752 H   0  0  0  0  0  0
  -27.7840  -11.2549   18.8790 H   0  0  0  0  0  0
  -27.3518  -12.5261   17.7738 H   0  0  0  0  0  0
  -27.6163  -14.2187   19.4532 H   0  0  0  0  0  0
  -28.6687  -12.1604   21.4603 H   0  0  0  0  0  0
  -28.5037  -13.8864   21.6993 H   0  0  0  0  0  0
  -25.2727   -9.5692   22.4826 H   0  0  0  0  0  0
  -23.9971   -7.4599   22.7458 H   0  0  0  0  0  0
  -21.0827   -8.8715   19.8936 H   0  0  0  0  0  0
  -22.3638  -10.9668   19.6166 H   0  0  0  0  0  0
  -21.1986   -7.6136   23.9723 H   0  0  0  0  0  0
  -21.1522   -6.0515   25.9082 H   0  0  0  0  0  0
  -22.0592   -2.7607   23.2831 H   0  0  0  0  0  0
  -22.4027  -11.9952   22.4899 H   0  0  0  0  0  0
  -21.1053  -13.1324   22.2643 H   0  0  0  0  0  0
  -24.6461  -15.8234   20.4832 H   0  0  0  0  0  0
  -26.2566  -15.6090   20.0410 H   0  0  0  0  0  0
  -26.7130  -32.5558   23.1146 H   0  0  0  0  0  0
  -25.0193  -33.9784   25.0531 H   0  0  0  0  0  0
  -22.6861  -31.3089   21.4184 H   0  0  0  0  0  0
  -23.3750  -35.9635   23.3334 H   0  0  0  0  0  0
  -24.3561  -36.8848   22.2016 H   0  0  0  0  0  0
  -23.7233  -37.6519   23.6597 H   0  0  0  0  0  0
  -26.0283  -31.5882   20.5806 H   0  0  0  0  0  0
  -26.8203  -30.8956   21.9656 H   0  0  0  0  0  0
  -28.0870  -29.0866   21.1637 H   0  0  0  0  0  0
  -25.9996  -25.9885   18.9767 H   0  0  0  0  0  0
  -23.9649  -27.3122   19.0193 H   0  0  0  0  0  0
  -23.7068  -30.5971   19.4050 H   0  0  0  0  0  0
  -22.7246  -29.2412   19.8774 H   0  0  0  0  0  0
  -25.1299  -36.1977   25.0817 H   0  0  0  0  0  0
  -20.9957  -28.3182   24.1463 H   0  0  0  0  0  0
  -20.5684  -26.2243   23.3612 H   0  0  0  0  0  0
  -21.6641  -26.7432   22.1202 H   0  0  0  0  0  0
  -19.6905  -25.6316   21.1207 H   0  0  0  0  0  0
  -19.6662  -27.3244   20.6787 H   0  0  0  0  0  0
  -17.4196  -26.6683   21.4006 H   0  0  0  0  0  0
  -18.0292  -26.0021   22.9000 H   0  0  0  0  0  0
  -19.7928  -30.7288   24.2208 H   0  0  0  0  0  0
  -17.4999  -31.6228   24.5208 H   0  0  0  0  0  0
  -15.5337  -30.2985   23.7627 H   0  0  0  0  0  0
  -15.8671  -28.0845   22.6990 H   0  0  0  0  0  0
  -24.5983  -30.6918   25.7747 H   0  0  0  0  0  0
  -24.8858  -32.2812   26.4809 H   0  0  0  0  0  0
  -25.8123  -30.8901   27.0212 H   0  0  0  0  0  0
  -26.2805  -29.6853   24.1001 H   0  0  0  0  0  0
  -27.4035  -29.7191   25.4388 H   0  0  0  0  0  0
  -27.8653  -30.4353   23.9125 H   0  0  0  0  0  0
  -27.2750  -33.3551   26.2043 H   0  0  0  0  0  0
  -28.3909  -32.6768   25.0281 H   0  0  0  0  0  0
  -28.0736  -31.8342   26.5341 H   0  0  0  0  0  0
  -28.2647  -38.0068   24.7523 H   0  0  0  0  0  0
  -28.1030  -36.2619   24.6328 H   0  0  0  0  0  0
  -27.2298  -37.1499   25.8874 H   0  0  0  0  0  0
  -20.9324  -29.8758   21.6999 H   0  0  0  0  0  0
  -26.0192  -38.2895   24.1396 H   0  0  0  0  0  0
  -28.7815  -19.6444   20.1515 H   0  0  0  0  0  0
  -24.0339  -19.4268   18.9172 H   0  0  0  0  0  0
  -29.0021  -17.8584   18.0312 H   0  0  0  0  0  0
  -27.8062  -16.6106   18.1172 H   0  0  0  0  0  0
  -28.0789  -21.6022   21.6001 H   0  0  0  0  0  0
  -26.4484  -22.2143   21.5017 H   0  0  0  0  0  0
  -30.7759  -16.0043   18.6890 H   0  0  0  0  0  0
  -29.3913  -15.0309   18.5508 H   0  0  0  0  0  0
  -28.4264  -16.3085   20.6169 H   0  0  0  0  0  0
  -29.7503  -17.4303   20.3455 H   0  0  0  0  0  0
  -27.0394  -22.9520   19.0556 H   0  0  0  0  0  0
  -28.7014  -22.6225   19.4709 H   0  0  0  0  0  0
  -28.4275  -24.2915   21.4142 H   0  0  0  0  0  0
  -26.8322  -24.6391   20.8128 H   0  0  0  0  0  0
  -28.0037  -25.3426   18.5547 H   0  0  0  0  0  0
  -29.4931  -25.1299   19.3934 H   0  0  0  0  0  0
  1 25  1  0  0  0
  1 30  2  0  0  0
  1 78  1  0  0  0
  2  3  1  0  0  0
  2 25  1  0  0  0
  2 85  1  0  0  0
  2 86  1  0  0  0
  3  4  1  0  0  0
  3 87  1  0  0  0
  3 88  1  0  0  0
  4  5  1  0  0  0
  4 89  1  0  0  0
  4 90  1  0  0  0
  5  6  1  0  0  0
  5 26  1  0  0  0
  5 91  1  0  0  0
  6 25  1  0  0  0
  6 92  1  0  0  0
  6 93  1  0  0  0
  7  8  2  0  0  0
  7 26  1  0  0  0
  7 29  1  0  0  0
  8  9  1  0  0  0
  8 22  1  0  0  0
  9 10  1  0  0  0
  9 27  2  0  0  0
 10 11  2  0  0  0
 10 15  1  0  0  0
 11 12  1  0  0  0
 11 94  1  0  0  0
 12 13  2  0  0  0
 12 95  1  0  0  0
 13 14  1  0  0  0
 13 31  1  0  0  0
 14 15  2  0  0  0
 14 96  1  0  0  0
 15 97  1  0  0  0
 16 17  2  0  0  0
 16 21  1  0  0  0
 16 31  1  0  0  0
 17 18  1  0  0  0
 17 98  1  0  0  0
 18 19  2  0  0  0
 18 99  1  0  0  0
 19 20  1  0  0  0
 19 24  1  0  0  0
 20 21  2  0  0  0
 20100  1  0  0  0
 21 23  1  0  0  0
 22 28  1  0  0  0
 22 32  2  0  0  0
 26 27  1  0  0  0
 28101  1  0  0  0
 28102  1  0  0  0
 29103  1  0  0  0
 29104  1  0  0  0
 33 34  1  0  0  0
 33 66  1  0  0  0
 33 70  2  0  0  0
 34 36  1  0  0  0
 34 59  1  0  0  0
 34105  1  0  0  0
 35 44  2  0  0  0
 35 45  1  0  0  0
 35 68  1  0  0  0
 36 56  1  0  0  0
 36106  1  0  0  0
 37 39  1  0  0  0
 37 47  1  0  0  0
 37 66  1  0  0  0
 37107  1  0  0  0
 38 43  2  0  0  0
 38 46  1  0  0  0
 38 47  1  0  0  0
 39 64  1  0  0  0
 39 67  2  0  0  0
 40 52  1  0  0  0
 40 53  2  0  0  0
 40 58  1  0  0  0
 41108  1  0  0  0
 41109  1  0  0  0
 41110  1  0  0  0
 41 48  1  0  0  0
 42 43  1  0  0  0
 42 66  1  0  0  0
 42111  1  0  0  0
 42112  1  0  0  0
 43 44  1  0  0  0
 44113  1  0  0  0
 45 46  2  0  0  0
 45114  1  0  0  0
 46115  1  0  0  0
 47116  1  0  0  0
 47117  1  0  0  0
 48 56  1  0  0  0
 48 65  1  0  0  0
 48118  1  0  0  0
 49 50  1  0  0  0
 49 53  1  0  0  0
 49 64  1  0  0  0
 49119  1  0  0  0
 50 51  1  0  0  0
 50120  1  0  0  0
 50121  1  0  0  0
 51 52  1  0  0  0
 51122  1  0  0  0
 51123  1  0  0  0
 52124  1  0  0  0
 52125  1  0  0  0
 53 54  1  0  0  0
 54 55  2  0  0  0
 54126  1  0  0  0
 55 57  1  0  0  0
 55127  1  0  0  0
 56 69  2  0  0  0
 57 58  2  0  0  0
 57128  1  0  0  0
 58129  1  0  0  0
 59 60  1  0  0  0
 59 61  1  0  0  0
 59 62  1  0  0  0
 60130  1  0  0  0
 60131  1  0  0  0
 60132  1  0  0  0
 61133  1  0  0  0
 61134  1  0  0  0
 61135  1  0  0  0
 62136  1  0  0  0
 62137  1  0  0  0
 62138  1  0  0  0
 63 65  1  0  0  0
 63139  1  0  0  0
 63140  1  0  0  0
 63141  1  0  0  0
 64142  1  0  0  0
 65143  1  0  0  0
 68 82  1  0  0  0
 71 73  2  0  0  0
 71 75  1  0  0  0
 71144  1  0  0  0
 72 74  2  0  0  0
 72 83  1  0  0  0
 72145  1  0  0  0
 73 74  1  0  0  0
 73 76  1  0  0  0
 74 84  1  0  0  0
 75 77  1  0  0  0
 75 83  2  0  0  0
 76 79  1  0  0  0
 76146  1  0  0  0
 76147  1  0  0  0
 77 80  1  0  0  0
 77148  1  0  0  0
 77149  1  0  0  0
 78 79  1  0  0  0
 78150  1  0  0  0
 78151  1  0  0  0
 79152  1  0  0  0
 79153  1  0  0  0
 80 81  1  0  0  0
 80154  1  0  0  0
 80155  1  0  0  0
 81 82  1  0  0  0
 81156  1  0  0  0
 81157  1  0  0  0
 82158  1  0  0  0
 82159  1  0  0  0
M  ISO  4   1 100  68 101  78 100  82 101
M  END
> <chiral flag>
0

> <version>
0

> <s_m_source_file>
/data/baiqing/PycharmProjects/Reinvent-master-3.2/result/LINK_invent/BTK/process_docking_weight1_custom_sum_contain_oxygen_bond_distance_aromatic_linkinvent_7_9_3/rearranged_h_0033.sdf

> <i_m_source_file_index>
86

> <r_mmod_Potential_Energy-OPLS-2005>
-32.3327407836914

> <r_mmod_Stretch_Energy-OPLS-2005>
34.8474769592285

> <r_mmod_Bend_Energy-OPLS-2005>
104.530769348145

> <r_mmod_Torsional_Energy-OPLS-2005>
213.447570800781

> <r_mmod_Improper_Torsional_Energy-OPLS-2005>
23.4734191894531

> <r_mmod_Van_der_Waal_Energy-OPLS-2005>
147.19807434082

> <r_mmod_Electrostatic_Energy-OPLS-2005>
-404.91748046875

> <r_mmod_Solvation_Energy-OPLS-2005>
-200.732269287109

> <b_mmod_Minimization_Converged-OPLS-2005>
0

> <r_mmod_RMS_Derivative-OPLS-2005>
5.95065593719482

$$$$
87
                    3D
 Structure written by MMmdl.
169177  0  0  1  0            999 V2000
  -30.8281  -14.5334   20.4271 C   0  0  0  0  0  0
  -30.3814  -12.3145   19.4824 C   0  0  0  0  0  0
  -29.4853  -12.4233   18.2352 C   0  0  0  0  0  0
  -28.0072  -12.2989   18.6348 C   0  0  0  0  0  0
  -27.6247  -13.2116   19.8281 C   0  0  2  0  0  0
  -28.6780  -13.1835   20.9575 C   0  0  0  0  0  0
  -25.2492  -13.8179   20.5669 C   0  0  0  0  0  0
  -24.1796  -13.0453   20.9251 C   0  0  0  0  0  0
  -24.6361  -11.6921   20.8822 C   0  0  0  0  0  0
  -23.9064  -10.4292   21.0438 C   0  0  0  0  0  0
  -24.3644   -9.4186   21.9177 C   0  0  0  0  0  0
  -23.6308   -8.2237   22.0739 C   0  0  0  0  0  0
  -22.4282   -8.0284   21.3543 C   0  0  0  0  0  0
  -21.9920   -9.0263   20.4652 C   0  0  0  0  0  0
  -22.7253  -10.2131   20.3064 C   0  0  0  0  0  0
  -21.6839   -6.0734   22.5268 C   0  0  0  0  0  0
  -21.3980   -6.5654   23.8197 C   0  0  0  0  0  0
  -21.3651   -5.6819   24.9175 C   0  0  0  0  0  0
  -21.6069   -4.3081   24.7222 C   0  0  0  0  0  0
  -21.8851   -3.8156   23.4356 C   0  0  0  0  0  0
  -21.9200   -4.6963   22.3403 C   0  0  0  0  0  0
  -22.7827  -13.5226   21.1927 C   0  0  0  0  0  0
  -22.1682   -4.2151   21.0985 F   0  0  0  0  0  0
  -21.5608   -3.4561   25.7727 F   0  0  0  0  0  0
  -30.0123  -13.4265   20.3862 N   0  0  0  0  0  0
  -26.2849  -12.9320   20.3234 N   0  0  0  0  0  0
  -25.9274  -11.6516   20.5862 N   0  0  0  0  0  0
  -22.0529  -12.8141   22.0459 N   0  0  0  0  0  0
  -25.4283  -15.1884   20.3927 N   0  0  0  0  0  0
  -32.0306  -14.3364   20.2727 O   0  0  0  0  0  0
  -21.6653   -6.8870   21.4231 O   0  0  0  0  0  0
  -22.3537  -14.5567   20.6813 O   0  0  0  0  0  0
  -24.6139  -31.8664   23.2114 C   0  0  0  0  0  0
  -25.9040  -32.4798   23.8373 C   0  0  1  0  0  0
  -27.2113  -27.4303   20.0924 C   0  0  0  0  0  0
  -25.5890  -33.8590   24.2291 N   0  0  0  0  0  0
  -23.3987  -30.4972   21.5497 C   0  0  2  0  0  0
  -24.8423  -28.9780   20.1025 C   0  0  0  0  0  0
  -22.7397  -29.4644   22.4936 C   0  0  0  0  0  0
  -18.0264  -28.1368   22.8488 C   0  0  0  0  0  0
  -24.1473  -36.7302   23.2645 C   0  0  0  0  0  0
  -25.9306  -30.8356   21.3665 C   0  0  0  0  0  0
  -26.0059  -29.4738   20.7068 C   0  0  0  0  0  0
  -27.1942  -28.7078   20.7014 C   0  0  0  0  0  0
  -26.0344  -26.9701   19.4518 C   0  0  0  0  0  0
  -24.8553  -27.7279   19.4663 C   0  0  0  0  0  0
  -23.6048  -29.8411   20.1595 C   0  0  0  0  0  0
  -25.4094  -36.3082   24.0331 C   0  0  1  0  0  0
  -20.5859  -28.3638   23.1313 C   0  0  2  0  0  0
  -20.6751  -26.9368   22.5414 C   0  0  0  0  0  0
  -19.5723  -26.6352   21.5218 C   0  0  0  0  0  0
  -18.1901  -26.7899   22.1629 C   0  0  0  0  0  0
  -19.1521  -28.8816   23.2892 C   0  0  0  0  0  0
  -18.9464  -30.1439   23.8876 C   0  0  0  0  0  0
  -17.6474  -30.6576   24.0564 C   0  0  0  0  0  0
  -25.9035  -34.9453   23.5097 C   0  0  0  0  0  0
  -16.5354  -29.9088   23.6351 C   0  0  0  0  0  0
  -16.7257  -28.6514   23.0338 C   0  0  0  0  0  0
  -26.4481  -31.6585   25.0703 C   0  0  0  0  0  0
  -25.3755  -31.3720   26.1465 C   0  0  0  0  0  0
  -27.0319  -30.3009   24.6103 C   0  0  0  0  0  0
  -27.6022  -32.4334   25.7482 C   0  0  0  0  0  0
  -27.5548  -37.1800   24.8467 C   0  0  0  0  0  0
  -21.4117  -29.3014   22.3713 N   0  0  0  0  0  0
  -26.4265  -37.3773   23.9425 N   0  0  0  0  0  0
  -24.6657  -31.0798   22.1007 N   0  0  0  0  0  0
  -23.4178  -28.8172   23.2954 O   0  0  0  0  0  0
  -28.3404  -26.6376   20.1557 O   0  0  0  0  0  0
  -26.5595  -34.8915   22.4664 O   0  0  0  0  0  0
  -23.5350  -32.1386   23.7547 O   0  0  0  0  0  0
  -28.4352  -21.0546   22.7038 C   0  0  0  0  0  0
  -28.4628  -22.0862   20.1039 C   0  0  0  0  0  0
  -28.7067  -22.4260   22.4977 C   0  0  0  0  0  0
  -28.1300  -20.7292   20.3122 C   0  0  0  0  0  0
  -28.1625  -20.1851   21.6258 C   0  0  0  0  0  0
  -28.7760  -22.9467   21.1793 C   0  0  0  0  0  0
  -28.9096  -23.3092   23.7185 C   0  0  0  0  0  0
  -27.7923  -19.8925   19.0854 C   0  0  0  0  0  0
  -29.8747  -16.1017   18.9068 C   0  0  0  0  0  0
  -31.6025  -16.8183   20.3846 C   0  0  0  0  0  0
  -28.0112  -18.6792   21.9027 C   0  0  0  0  0  0
  -29.1874  -24.3996   20.8819 C   0  0  0  0  0  0
  -29.2852  -17.9559   21.4254 C   0  0  0  0  0  0
  -29.3545  -16.3920   21.2953 C   0  0  0  0  0  0
  -28.0631  -25.2250   20.2370 C   0  0  0  0  0  0
  -30.3897  -15.9087   20.2970 N   0  3  0  0  0  0
  -31.4256  -12.3151   19.1676 H   0  0  0  0  0  0
  -30.2322  -11.3535   19.9825 H   0  0  0  0  0  0
  -29.7407  -11.6287   17.5334 H   0  0  0  0  0  0
  -29.6604  -13.3587   17.7052 H   0  0  0  0  0  0
  -27.8281  -11.2529   18.8916 H   0  0  0  0  0  0
  -27.3691  -12.5071   17.7745 H   0  0  0  0  0  0
  -27.5808  -14.2132   19.4212 H   0  0  0  0  0  0
  -28.6690  -12.2041   21.4372 H   0  0  0  0  0  0
  -28.4257  -13.8862   21.7518 H   0  0  0  0  0  0
  -25.2797   -9.5639   22.4743 H   0  0  0  0  0  0
  -24.0015   -7.4628   22.7456 H   0  0  0  0  0  0
  -21.0836   -8.8792   19.8976 H   0  0  0  0  0  0
  -22.3713  -10.9681   19.6181 H   0  0  0  0  0  0
  -21.1955   -7.6159   23.9675 H   0  0  0  0  0  0
  -21.1427   -6.0557   25.9071 H   0  0  0  0  0  0
  -22.0633   -2.7615   23.2864 H   0  0  0  0  0  0
  -22.4137  -11.9682   22.4635 H   0  0  0  0  0  0
  -21.1201  -13.1152   22.2873 H   0  0  0  0  0  0
  -24.6450  -15.8304   20.4419 H   0  0  0  0  0  0
  -26.2251  -15.5871   19.9164 H   0  0  0  0  0  0
  -26.7099  -32.5501   23.1130 H   0  0  0  0  0  0
  -25.0052  -33.9750   25.0443 H   0  0  0  0  0  0
  -22.6872  -31.3144   21.4152 H   0  0  0  0  0  0
  -23.3713  -35.9655   23.3323 H   0  0  0  0  0  0
  -24.3561  -36.8894   22.2050 H   0  0  0  0  0  0
  -23.7239  -37.6517   23.6663 H   0  0  0  0  0  0
  -26.0477  -31.6080   20.6047 H   0  0  0  0  0  0
  -26.8185  -30.8795   21.9871 H   0  0  0  0  0  0
  -28.0855  -29.0779   21.1897 H   0  0  0  0  0  0
  -26.0065  -26.0197   18.9363 H   0  0  0  0  0  0
  -23.9695  -27.3479   18.9759 H   0  0  0  0  0  0
  -23.7028  -30.6205   19.4017 H   0  0  0  0  0  0
  -22.7304  -29.2565   19.8642 H   0  0  0  0  0  0
  -25.1268  -36.1927   25.0817 H   0  0  0  0  0  0
  -20.9970  -28.3194   24.1427 H   0  0  0  0  0  0
  -20.5657  -26.2232   23.3598 H   0  0  0  0  0  0
  -21.6619  -26.7388   22.1197 H   0  0  0  0  0  0
  -19.6892  -25.6272   21.1219 H   0  0  0  0  0  0
  -19.6678  -27.3194   20.6778 H   0  0  0  0  0  0
  -17.4170  -26.6656   21.4028 H   0  0  0  0  0  0
  -18.0299  -26.0030   22.9019 H   0  0  0  0  0  0
  -19.7957  -30.7261   24.2188 H   0  0  0  0  0  0
  -17.5048  -31.6264   24.5155 H   0  0  0  0  0  0
  -15.5367  -30.3002   23.7685 H   0  0  0  0  0  0
  -15.8646  -28.0867   22.7025 H   0  0  0  0  0  0
  -24.5960  -30.7003   25.7867 H   0  0  0  0  0  0
  -24.8933  -32.2892   26.4848 H   0  0  0  0  0  0
  -25.8129  -30.8979   27.0256 H   0  0  0  0  0  0
  -26.2871  -29.6757   24.1163 H   0  0  0  0  0  0
  -27.4080  -29.7258   25.4579 H   0  0  0  0  0  0
  -27.8702  -30.4305   23.9249 H   0  0  0  0  0  0
  -27.2578  -33.3621   26.2049 H   0  0  0  0  0  0
  -28.3844  -32.6910   25.0329 H   0  0  0  0  0  0
  -28.0669  -31.8466   26.5421 H   0  0  0  0  0  0
  -28.2578  -38.0090   24.7487 H   0  0  0  0  0  0
  -28.1015  -36.2602   24.6307 H   0  0  0  0  0  0
  -27.2262  -37.1463   25.8874 H   0  0  0  0  0  0
  -20.9254  -29.8777   21.6989 H   0  0  0  0  0  0
  -26.0126  -38.2827   24.1483 H   0  0  0  0  0  0
  -28.4557  -20.6570   23.7100 H   0  0  0  0  0  0
  -28.4832  -22.4725   19.0928 H   0  0  0  0  0  0
  -28.5996  -22.7964   24.6290 H   0  0  0  0  0  0
  -28.3010  -24.2106   23.6422 H   0  0  0  0  0  0
  -29.9543  -23.5944   23.8355 H   0  0  0  0  0  0
  -27.1232  -20.4396   18.4193 H   0  0  0  0  0  0
  -27.2960  -18.9549   19.3295 H   0  0  0  0  0  0
  -28.7015  -19.6613   18.5298 H   0  0  0  0  0  0
  -29.7024  -17.1517   18.6776 H   0  0  0  0  0  0
  -28.9349  -15.6000   18.7143 H   0  0  0  0  0  0
  -30.5877  -15.7445   18.1601 H   0  0  0  0  0  0
  -31.4198  -17.8553   20.1092 H   0  0  0  0  0  0
  -32.3944  -16.5564   19.6787 H   0  0  0  0  0  0
  -32.0381  -16.8148   21.3843 H   0  0  0  0  0  0
  -27.1162  -18.2945   21.4141 H   0  0  0  0  0  0
  -27.8595  -18.5068   22.9689 H   0  0  0  0  0  0
  -30.0507  -24.3837   20.2147 H   0  0  0  0  0  0
  -29.5237  -24.9079   21.7838 H   0  0  0  0  0  0
  -30.1119  -18.3056   22.0472 H   0  0  0  0  0  0
  -29.4506  -18.3776   20.4415 H   0  0  0  0  0  0
  -28.3696  -16.0181   21.0145 H   0  0  0  0  0  0
  -29.5753  -15.9739   22.2815 H   0  0  0  0  0  0
  -27.1644  -25.0571   20.8357 H   0  0  0  0  0  0
  -27.8658  -24.8364   19.2370 H   0  0  0  0  0  0
  1 25  1  0  0  0
  1 30  2  0  0  0
  1 86  1  0  0  0
  2  3  1  0  0  0
  2 25  1  0  0  0
  2 87  1  0  0  0
  2 88  1  0  0  0
  3  4  1  0  0  0
  3 89  1  0  0  0
  3 90  1  0  0  0
  4  5  1  0  0  0
  4 91  1  0  0  0
  4 92  1  0  0  0
  5  6  1  0  0  0
  5 26  1  0  0  0
  5 93  1  0  0  0
  6 25  1  0  0  0
  6 94  1  0  0  0
  6 95  1  0  0  0
  7  8  2  0  0  0
  7 26  1  0  0  0
  7 29  1  0  0  0
  8  9  1  0  0  0
  8 22  1  0  0  0
  9 10  1  0  0  0
  9 27  2  0  0  0
 10 11  2  0  0  0
 10 15  1  0  0  0
 11 12  1  0  0  0
 11 96  1  0  0  0
 12 13  2  0  0  0
 12 97  1  0  0  0
 13 14  1  0  0  0
 13 31  1  0  0  0
 14 15  2  0  0  0
 14 98  1  0  0  0
 15 99  1  0  0  0
 16 17  2  0  0  0
 16 21  1  0  0  0
 16 31  1  0  0  0
 17 18  1  0  0  0
 17100  1  0  0  0
 18 19  2  0  0  0
 18101  1  0  0  0
 19 20  1  0  0  0
 19 24  1  0  0  0
 20 21  2  0  0  0
 20102  1  0  0  0
 21 23  1  0  0  0
 22 28  1  0  0  0
 22 32  2  0  0  0
 26 27  1  0  0  0
 28103  1  0  0  0
 28104  1  0  0  0
 29105  1  0  0  0
 29106  1  0  0  0
 33 34  1  0  0  0
 33 66  1  0  0  0
 33 70  2  0  0  0
 34 36  1  0  0  0
 34 59  1  0  0  0
 34107  1  0  0  0
 35 44  2  0  0  0
 35 45  1  0  0  0
 35 68  1  0  0  0
 36 56  1  0  0  0
 36108  1  0  0  0
 37 39  1  0  0  0
 37 47  1  0  0  0
 37 66  1  0  0  0
 37109  1  0  0  0
 38 43  2  0  0  0
 38 46  1  0  0  0
 38 47  1  0  0  0
 39 64  1  0  0  0
 39 67  2  0  0  0
 40 52  1  0  0  0
 40 53  2  0  0  0
 40 58  1  0  0  0
 41110  1  0  0  0
 41111  1  0  0  0
 41112  1  0  0  0
 41 48  1  0  0  0
 42 43  1  0  0  0
 42 66  1  0  0  0
 42113  1  0  0  0
 42114  1  0  0  0
 43 44  1  0  0  0
 44115  1  0  0  0
 45 46  2  0  0  0
 45116  1  0  0  0
 46117  1  0  0  0
 47118  1  0  0  0
 47119  1  0  0  0
 48 56  1  0  0  0
 48 65  1  0  0  0
 48120  1  0  0  0
 49 50  1  0  0  0
 49 53  1  0  0  0
 49 64  1  0  0  0
 49121  1  0  0  0
 50 51  1  0  0  0
 50122  1  0  0  0
 50123  1  0  0  0
 51 52  1  0  0  0
 51124  1  0  0  0
 51125  1  0  0  0
 52126  1  0  0  0
 52127  1  0  0  0
 53 54  1  0  0  0
 54 55  2  0  0  0
 54128  1  0  0  0
 55 57  1  0  0  0
 55129  1  0  0  0
 56 69  2  0  0  0
 57 58  2  0  0  0
 57130  1  0  0  0
 58131  1  0  0  0
 59 60  1  0  0  0
 59 61  1  0  0  0
 59 62  1  0  0  0
 60132  1  0  0  0
 60133  1  0  0  0
 60134  1  0  0  0
 61135  1  0  0  0
 61136  1  0  0  0
 61137  1  0  0  0
 62138  1  0  0  0
 62139  1  0  0  0
 62140  1  0  0  0
 63 65  1  0  0  0
 63141  1  0  0  0
 63142  1  0  0  0
 63143  1  0  0  0
 64144  1  0  0  0
 65145  1  0  0  0
 68 85  1  0  0  0
 71 73  2  0  0  0
 71 75  1  0  0  0
 71146  1  0  0  0
 72 74  1  0  0  0
 72 76  2  0  0  0
 72147  1  0  0  0
 73 76  1  0  0  0
 73 77  1  0  0  0
 74 75  2  0  0  0
 74 78  1  0  0  0
 75 81  1  0  0  0
 76 82  1  0  0  0
 77148  1  0  0  0
 77149  1  0  0  0
 77150  1  0  0  0
 78151  1  0  0  0
 78152  1  0  0  0
 78153  1  0  0  0
 79154  1  0  0  0
 79155  1  0  0  0
 79156  1  0  0  0
 79 86  1  0  0  0
 80 86  1  0  0  0
 80157  1  0  0  0
 80158  1  0  0  0
 80159  1  0  0  0
 81 83  1  0  0  0
 81160  1  0  0  0
 81161  1  0  0  0
 82 85  1  0  0  0
 82162  1  0  0  0
 82163  1  0  0  0
 83 84  1  0  0  0
 83164  1  0  0  0
 83165  1  0  0  0
 84 86  1  0  0  0
 84166  1  0  0  0
 84167  1  0  0  0
 85168  1  0  0  0
 85169  1  0  0  0
M  CHG  1  86   1
M  ISO  4   1 100  68 101  85 101  86 100
M  END
> <chiral flag>
0

> <version>
0

> <s_m_source_file>
/data/baiqing/PycharmProjects/Reinvent-master-3.2/result/LINK_invent/BTK/process_docking_weight1_custom_sum_contain_oxygen_bond_distance_aromatic_linkinvent_7_9_3/rearranged_h_0033.sdf

> <i_m_source_file_index>
87

> <r_mmod_Potential_Energy-OPLS-2005>
94.061164855957

> <r_mmod_Stretch_Energy-OPLS-2005>
55.9785575866699

> <r_mmod_Bend_Energy-OPLS-2005>
145.934219360352

> <r_mmod_Torsional_Energy-OPLS-2005>
210.086380004883

> <r_mmod_Improper_Torsional_Energy-OPLS-2005>
9.81821918487549

> <r_mmod_Van_der_Waal_Energy-OPLS-2005>
198.672241210938

> <r_mmod_Electrostatic_Energy-OPLS-2005>
-241.367828369141

> <r_mmod_Solvation_Energy-OPLS-2005>
-343.590881347656

> <b_mmod_Minimization_Converged-OPLS-2005>
0

> <r_mmod_RMS_Derivative-OPLS-2005>
3.59771919250488

$$$$
88
                    3D
 Structure written by MMmdl.
170180  0  0  1  0            999 V2000
  -30.7536  -14.5205   20.4884 C   0  0  0  0  0  0
  -30.4210  -12.3347   19.4163 C   0  0  0  0  0  0
  -29.4914  -12.4723   18.1977 C   0  0  0  0  0  0
  -28.0138  -12.3454   18.6182 C   0  0  0  0  0  0
  -27.6503  -13.2189   19.8516 C   0  0  2  0  0  0
  -28.7085  -13.0978   20.9716 C   0  0  0  0  0  0
  -25.2573  -13.8192   20.5720 C   0  0  0  0  0  0
  -24.1844  -13.0427   20.9191 C   0  0  0  0  0  0
  -24.6440  -11.6908   20.8769 C   0  0  0  0  0  0
  -23.9109  -10.4289   21.0424 C   0  0  0  0  0  0
  -24.3665   -9.4191   21.9182 C   0  0  0  0  0  0
  -23.6338   -8.2235   22.0744 C   0  0  0  0  0  0
  -22.4303   -8.0303   21.3552 C   0  0  0  0  0  0
  -21.9965   -9.0263   20.4635 C   0  0  0  0  0  0
  -22.7301  -10.2139   20.3045 C   0  0  0  0  0  0
  -21.6839   -6.0779   22.5291 C   0  0  0  0  0  0
  -21.4012   -6.5673   23.8233 C   0  0  0  0  0  0
  -21.3658   -5.6809   24.9185 C   0  0  0  0  0  0
  -21.6057   -4.3073   24.7223 C   0  0  0  0  0  0
  -21.8818   -3.8177   23.4334 C   0  0  0  0  0  0
  -21.9192   -4.7011   22.3403 C   0  0  0  0  0  0
  -22.7868  -13.5219   21.1855 C   0  0  0  0  0  0
  -22.1662   -4.2209   21.0977 F   0  0  0  0  0  0
  -21.5615   -3.4543   25.7724 F   0  0  0  0  0  0
  -30.0277  -13.3711   20.3841 N   0  0  0  0  0  0
  -26.2997  -12.9378   20.3319 N   0  0  0  0  0  0
  -25.9357  -11.6523   20.5765 N   0  0  0  0  0  0
  -22.0508  -12.8187   22.0410 N   0  0  0  0  0  0
  -25.4250  -15.1935   20.4195 N   0  0  0  0  0  0
  -31.9446  -14.5695   20.1695 O   0  0  0  0  0  0
  -21.6633   -6.8924   21.4257 O   0  0  0  0  0  0
  -22.3534  -14.5501   20.6685 O   0  0  0  0  0  0
  -24.6088  -31.8701   23.2125 C   0  0  0  0  0  0
  -25.8979  -32.4876   23.8403 C   0  0  1  0  0  0
  -27.2404  -27.4571   20.0954 C   0  0  0  0  0  0
  -25.5829  -33.8671   24.2318 N   0  0  0  0  0  0
  -23.3997  -30.4863   21.5546 C   0  0  2  0  0  0
  -24.8533  -28.9564   20.1227 C   0  0  0  0  0  0
  -22.7402  -29.4619   22.5039 C   0  0  0  0  0  0
  -18.0258  -28.1374   22.8448 C   0  0  0  0  0  0
  -24.1486  -36.7323   23.2618 C   0  0  0  0  0  0
  -25.9278  -30.8335   21.3767 C   0  0  0  0  0  0
  -26.0088  -29.4683   20.7265 C   0  0  0  0  0  0
  -27.2080  -28.7224   20.7224 C   0  0  0  0  0  0
  -26.0749  -26.9531   19.4895 C   0  0  0  0  0  0
  -24.8763  -27.6917   19.5062 C   0  0  0  0  0  0
  -23.6132  -29.8177   20.1712 C   0  0  0  0  0  0
  -25.4118  -36.3131   24.0305 C   0  0  1  0  0  0
  -20.5847  -28.3654   23.1342 C   0  0  2  0  0  0
  -20.6764  -26.9406   22.5436 C   0  0  0  0  0  0
  -19.5775  -26.6390   21.5197 C   0  0  0  0  0  0
  -18.1928  -26.7926   22.1580 C   0  0  0  0  0  0
  -19.1513  -28.8826   23.2869 C   0  0  0  0  0  0
  -18.9445  -30.1430   23.8902 C   0  0  0  0  0  0
  -17.6456  -30.6577   24.0558 C   0  0  0  0  0  0
  -25.9051  -34.9508   23.5115 C   0  0  0  0  0  0
  -16.5346  -29.9080   23.6333 C   0  0  0  0  0  0
  -16.7246  -28.6501   23.0323 C   0  0  0  0  0  0
  -26.4408  -31.6680   25.0744 C   0  0  0  0  0  0
  -25.3645  -31.3824   26.1478 C   0  0  0  0  0  0
  -27.0267  -30.3104   24.6190 C   0  0  0  0  0  0
  -27.5993  -32.4405   25.7499 C   0  0  0  0  0  0
  -27.5624  -37.1782   24.8419 C   0  0  0  0  0  0
  -21.4145  -29.2998   22.3765 N   0  0  0  0  0  0
  -26.4319  -37.3817   23.9403 N   0  0  0  0  0  0
  -24.6624  -31.0776   22.1054 N   0  0  0  0  0  0
  -23.4177  -28.8154   23.3072 O   0  0  0  0  0  0
  -28.3870  -26.7094   20.0169 O   0  0  0  0  0  0
  -26.5648  -34.8952   22.4714 O   0  0  0  0  0  0
  -23.5294  -32.1428   23.7534 O   0  0  0  0  0  0
  -30.0610  -21.4965   22.5887 C   0  0  0  0  0  0
  -30.5791  -22.7080   22.0511 C   0  0  0  0  0  0
  -30.9604  -20.5271   22.2341 C   0  0  0  0  0  0
  -28.9839  -17.6665   19.5345 C   0  0  0  0  0  0
  -29.8688  -18.6477   20.2860 C   0  0  0  0  0  0
  -34.1052  -21.4667   20.1400 C   0  0  0  0  0  0
  -33.1633  -20.5690   19.3700 C   0  0  0  0  0  0
  -29.7256  -16.3352   19.3832 C   0  0  0  0  0  0
  -30.7090  -16.6487   21.6353 C   0  0  0  0  0  0
  -30.1198  -18.0973   21.6940 C   0  0  1  0  0  0
  -33.1427  -20.5575   20.8835 C   0  0  0  0  0  0
  -30.0467  -24.1147   22.2384 C   0  0  0  0  0  0
  -30.9717  -19.0528   22.5854 C   0  0  0  0  0  0
  -29.4726  -24.7723   20.9673 C   0  0  0  0  0  0
  -28.8341  -26.1513   21.2456 C   0  0  0  0  0  0
  -31.7035  -22.4937   21.3821 N   0  0  0  0  0  0
  -31.9428  -21.1581   21.4806 N   0  0  0  0  0  0
  -30.0844  -15.6934   20.6707 N   0  0  0  0  0  0
  -31.4593  -12.4294   19.0955 H   0  0  0  0  0  0
  -30.3365  -11.3453   19.8660 H   0  0  0  0  0  0
  -29.7292  -11.7088   17.4553 H   0  0  0  0  0  0
  -29.6587  -13.4333   17.7081 H   0  0  0  0  0  0
  -27.8252  -11.2930   18.8391 H   0  0  0  0  0  0
  -27.3654  -12.5972   17.7769 H   0  0  0  0  0  0
  -27.6501  -14.2486   19.5030 H   0  0  0  0  0  0
  -28.6980  -12.0970   21.4028 H   0  0  0  0  0  0
  -28.4905  -13.7938   21.7813 H   0  0  0  0  0  0
  -25.2825   -9.5650   22.4743 H   0  0  0  0  0  0
  -24.0053   -7.4609   22.7453 H   0  0  0  0  0  0
  -21.0906   -8.8798   19.8924 H   0  0  0  0  0  0
  -22.3800  -10.9677   19.6144 H   0  0  0  0  0  0
  -21.1997   -7.6179   23.9763 H   0  0  0  0  0  0
  -21.1477   -6.0523   25.9095 H   0  0  0  0  0  0
  -22.0596   -2.7642   23.2801 H   0  0  0  0  0  0
  -22.4161  -11.9905   22.4852 H   0  0  0  0  0  0
  -21.1070  -13.1114   22.2503 H   0  0  0  0  0  0
  -24.6599  -15.8441   20.5572 H   0  0  0  0  0  0
  -26.2873  -15.6470   20.1431 H   0  0  0  0  0  0
  -26.7056  -32.5563   23.1183 H   0  0  0  0  0  0
  -24.9861  -33.9836   25.0369 H   0  0  0  0  0  0
  -22.6815  -31.2953   21.4111 H   0  0  0  0  0  0
  -23.3773  -35.9618   23.3262 H   0  0  0  0  0  0
  -24.3557  -36.9008   22.2036 H   0  0  0  0  0  0
  -23.7237  -37.6493   23.6705 H   0  0  0  0  0  0
  -26.0455  -31.6029   20.6113 H   0  0  0  0  0  0
  -26.8130  -30.8806   22.0001 H   0  0  0  0  0  0
  -28.1062  -29.1117   21.1832 H   0  0  0  0  0  0
  -26.0973  -25.9849   19.0060 H   0  0  0  0  0  0
  -23.9868  -27.2842   19.0456 H   0  0  0  0  0  0
  -23.7102  -30.5869   19.4034 H   0  0  0  0  0  0
  -22.7421  -29.2256   19.8863 H   0  0  0  0  0  0
  -25.1308  -36.1992   25.0797 H   0  0  0  0  0  0
  -20.9877  -28.3249   24.1489 H   0  0  0  0  0  0
  -20.5674  -26.2273   23.3619 H   0  0  0  0  0  0
  -21.6641  -26.7470   22.1257 H   0  0  0  0  0  0
  -19.6955  -25.6289   21.1256 H   0  0  0  0  0  0
  -19.6768  -27.3173   20.6713 H   0  0  0  0  0  0
  -17.4232  -26.6661   21.3966 H   0  0  0  0  0  0
  -18.0284  -26.0055   22.8961 H   0  0  0  0  0  0
  -19.7927  -30.7176   24.2350 H   0  0  0  0  0  0
  -17.5038  -31.6273   24.5132 H   0  0  0  0  0  0
  -15.5361  -30.2987   23.7684 H   0  0  0  0  0  0
  -15.8637  -28.0848   22.7058 H   0  0  0  0  0  0
  -24.5844  -30.7156   25.7805 H   0  0  0  0  0  0
  -24.8755  -32.2988   26.4795 H   0  0  0  0  0  0
  -25.7908  -30.9084   27.0330 H   0  0  0  0  0  0
  -26.2871  -29.6864   24.1160 H   0  0  0  0  0  0
  -27.3921  -29.7345   25.4706 H   0  0  0  0  0  0
  -27.8749  -30.4384   23.9454 H   0  0  0  0  0  0
  -27.2618  -33.3700   26.2102 H   0  0  0  0  0  0
  -28.3763  -32.7022   25.0298 H   0  0  0  0  0  0
  -28.0714  -31.8532   26.5390 H   0  0  0  0  0  0
  -28.2583  -38.0147   24.7587 H   0  0  0  0  0  0
  -28.1211  -36.2692   24.6119 H   0  0  0  0  0  0
  -27.2346  -37.1221   25.8815 H   0  0  0  0  0  0
  -20.9333  -29.8712   21.6958 H   0  0  0  0  0  0
  -26.0218  -38.2892   24.1464 H   0  0  0  0  0  0
  -29.1701  -21.3629   23.1890 H   0  0  0  0  0  0
  -28.7295  -18.0757   18.5556 H   0  0  0  0  0  0
  -28.0417  -17.5241   20.0629 H   0  0  0  0  0  0
  -29.3792  -19.6222   20.3159 H   0  0  0  0  0  0
  -30.8128  -18.7874   19.7548 H   0  0  0  0  0  0
  -33.9218  -22.5370   20.0939 H   0  0  0  0  0  0
  -35.1554  -21.1834   20.1622 H   0  0  0  0  0  0
  -33.5885  -19.6999   18.8684 H   0  0  0  0  0  0
  -32.3392  -21.0507   18.8455 H   0  0  0  0  0  0
  -30.6363  -16.5142   18.8076 H   0  0  0  0  0  0
  -29.1223  -15.6724   18.7644 H   0  0  0  0  0  0
  -30.6471  -16.2026   22.6302 H   0  0  0  0  0  0
  -31.7743  -16.7373   21.4067 H   0  0  0  0  0  0
  -29.1328  -18.0404   22.1597 H   0  0  0  0  0  0
  -33.5403  -19.7153   21.4436 H   0  0  0  0  0  0
  -30.8281  -24.7557   22.6496 H   0  0  0  0  0  0
  -29.2628  -24.0940   22.9969 H   0  0  0  0  0  0
  -30.6304  -18.9507   23.6142 H   0  0  0  0  0  0
  -32.0020  -18.7018   22.6188 H   0  0  0  0  0  0
  -28.7172  -24.1193   20.5304 H   0  0  0  0  0  0
  -30.2634  -24.8761   20.2215 H   0  0  0  0  0  0
  -29.5584  -26.8304   21.6985 H   0  0  0  0  0  0
  -28.0086  -26.0514   21.9570 H   0  0  0  0  0  0
  1 25  1  0  0  0
  1 30  2  0  0  0
  1 88  1  0  0  0
  2  3  1  0  0  0
  2 25  1  0  0  0
  2 89  1  0  0  0
  2 90  1  0  0  0
  3  4  1  0  0  0
  3 91  1  0  0  0
  3 92  1  0  0  0
  4  5  1  0  0  0
  4 93  1  0  0  0
  4 94  1  0  0  0
  5  6  1  0  0  0
  5 26  1  0  0  0
  5 95  1  0  0  0
  6 25  1  0  0  0
  6 96  1  0  0  0
  6 97  1  0  0  0
  7  8  2  0  0  0
  7 26  1  0  0  0
  7 29  1  0  0  0
  8  9  1  0  0  0
  8 22  1  0  0  0
  9 10  1  0  0  0
  9 27  2  0  0  0
 10 11  2  0  0  0
 10 15  1  0  0  0
 11 12  1  0  0  0
 11 98  1  0  0  0
 12 13  2  0  0  0
 12 99  1  0  0  0
 13 14  1  0  0  0
 13 31  1  0  0  0
 14 15  2  0  0  0
 14100  1  0  0  0
 15101  1  0  0  0
 16 17  2  0  0  0
 16 21  1  0  0  0
 16 31  1  0  0  0
 17 18  1  0  0  0
 17102  1  0  0  0
 18 19  2  0  0  0
 18103  1  0  0  0
 19 20  1  0  0  0
 19 24  1  0  0  0
 20 21  2  0  0  0
 20104  1  0  0  0
 21 23  1  0  0  0
 22 28  1  0  0  0
 22 32  2  0  0  0
 26 27  1  0  0  0
 28105  1  0  0  0
 28106  1  0  0  0
 29107  1  0  0  0
 29108  1  0  0  0
 33 34  1  0  0  0
 33 66  1  0  0  0
 33 70  2  0  0  0
 34 36  1  0  0  0
 34 59  1  0  0  0
 34109  1  0  0  0
 35 44  2  0  0  0
 35 45  1  0  0  0
 35 68  1  0  0  0
 36 56  1  0  0  0
 36110  1  0  0  0
 37 39  1  0  0  0
 37 47  1  0  0  0
 37 66  1  0  0  0
 37111  1  0  0  0
 38 43  2  0  0  0
 38 46  1  0  0  0
 38 47  1  0  0  0
 39 64  1  0  0  0
 39 67  2  0  0  0
 40 52  1  0  0  0
 40 53  2  0  0  0
 40 58  1  0  0  0
 41112  1  0  0  0
 41113  1  0  0  0
 41114  1  0  0  0
 41 48  1  0  0  0
 42 43  1  0  0  0
 42 66  1  0  0  0
 42115  1  0  0  0
 42116  1  0  0  0
 43 44  1  0  0  0
 44117  1  0  0  0
 45 46  2  0  0  0
 45118  1  0  0  0
 46119  1  0  0  0
 47120  1  0  0  0
 47121  1  0  0  0
 48 56  1  0  0  0
 48 65  1  0  0  0
 48122  1  0  0  0
 49 50  1  0  0  0
 49 53  1  0  0  0
 49 64  1  0  0  0
 49123  1  0  0  0
 50 51  1  0  0  0
 50124  1  0  0  0
 50125  1  0  0  0
 51 52  1  0  0  0
 51126  1  0  0  0
 51127  1  0  0  0
 52128  1  0  0  0
 52129  1  0  0  0
 53 54  1  0  0  0
 54 55  2  0  0  0
 54130  1  0  0  0
 55 57  1  0  0  0
 55131  1  0  0  0
 56 69  2  0  0  0
 57 58  2  0  0  0
 57132  1  0  0  0
 58133  1  0  0  0
 59 60  1  0  0  0
 59 61  1  0  0  0
 59 62  1  0  0  0
 60134  1  0  0  0
 60135  1  0  0  0
 60136  1  0  0  0
 61137  1  0  0  0
 61138  1  0  0  0
 61139  1  0  0  0
 62140  1  0  0  0
 62141  1  0  0  0
 62142  1  0  0  0
 63 65  1  0  0  0
 63143  1  0  0  0
 63144  1  0  0  0
 63145  1  0  0  0
 64146  1  0  0  0
 65147  1  0  0  0
 68 85  1  0  0  0
 71 72  1  0  0  0
 71 73  2  0  0  0
 71148  1  0  0  0
 72 82  1  0  0  0
 72 86  2  0  0  0
 73 83  1  0  0  0
 73 87  1  0  0  0
 74 75  1  0  0  0
 74 78  1  0  0  0
 74149  1  0  0  0
 74150  1  0  0  0
 75 80  1  0  0  0
 75151  1  0  0  0
 75152  1  0  0  0
 76 77  1  0  0  0
 76 81  1  0  0  0
 76153  1  0  0  0
 76154  1  0  0  0
 77 81  1  0  0  0
 77155  1  0  0  0
 77156  1  0  0  0
 78 88  1  0  0  0
 78157  1  0  0  0
 78158  1  0  0  0
 79 80  1  0  0  0
 79 88  1  0  0  0
 79159  1  0  0  0
 79160  1  0  0  0
 80 83  1  0  0  0
 80161  1  0  0  0
 81 87  1  0  0  0
 81162  1  0  0  0
 82 84  1  0  0  0
 82163  1  0  0  0
 82164  1  0  0  0
 83165  1  0  0  0
 83166  1  0  0  0
 84 85  1  0  0  0
 84167  1  0  0  0
 84168  1  0  0  0
 85169  1  0  0  0
 85170  1  0  0  0
 86 87  1  0  0  0
M  ISO  4   1 100  68 101  85 101  88 100
M  END
> <chiral flag>
0

> <version>
0

> <s_m_source_file>
/data/baiqing/PycharmProjects/Reinvent-master-3.2/result/LINK_invent/BTK/process_docking_weight1_custom_sum_contain_oxygen_bond_distance_aromatic_linkinvent_7_9_3/rearranged_h_0033.sdf

> <i_m_source_file_index>
88

> <r_mmod_Potential_Energy-OPLS-2005>
189.621322631836

> <r_mmod_Stretch_Energy-OPLS-2005>
40.5712623596191

> <r_mmod_Bend_Energy-OPLS-2005>
123.861640930176

> <r_mmod_Torsional_Energy-OPLS-2005>
393.153503417969

> <r_mmod_Improper_Torsional_Energy-OPLS-2005>
11.4649839401245

> <r_mmod_Van_der_Waal_Energy-OPLS-2005>
129.227828979492

> <r_mmod_Electrostatic_Energy-OPLS-2005>
-331.750640869141

> <r_mmod_Solvation_Energy-OPLS-2005>
-201.118576049805

> <b_mmod_Minimization_Converged-OPLS-2005>
0

> <r_mmod_RMS_Derivative-OPLS-2005>
4.79603433609009

$$$$
89
                    3D
 Structure written by MMmdl.
162170  0  0  1  0            999 V2000
  -30.7890  -14.3511   20.7108 C   0  0  0  0  0  0
  -30.4163  -12.3001   19.3896 C   0  0  0  0  0  0
  -29.4814  -12.5326   18.1900 C   0  0  0  0  0  0
  -28.0077  -12.3816   18.6093 C   0  0  0  0  0  0
  -27.6660  -13.2052   19.8790 C   0  0  2  0  0  0
  -28.7039  -12.9548   20.9944 C   0  0  0  0  0  0
  -25.2604  -13.8163   20.5677 C   0  0  0  0  0  0
  -24.1845  -13.0437   20.9158 C   0  0  0  0  0  0
  -24.6397  -11.6904   20.8716 C   0  0  0  0  0  0
  -23.9059  -10.4294   21.0392 C   0  0  0  0  0  0
  -24.3612   -9.4218   21.9177 C   0  0  0  0  0  0
  -23.6287   -8.2252   22.0753 C   0  0  0  0  0  0
  -22.4272   -8.0283   21.3542 C   0  0  0  0  0  0
  -21.9901   -9.0254   20.4642 C   0  0  0  0  0  0
  -22.7228  -10.2137   20.3047 C   0  0  0  0  0  0
  -21.6854   -6.0734   22.5281 C   0  0  0  0  0  0
  -21.4018   -6.5638   23.8214 C   0  0  0  0  0  0
  -21.3659   -5.6791   24.9174 C   0  0  0  0  0  0
  -21.6044   -4.3053   24.7227 C   0  0  0  0  0  0
  -21.8820   -3.8143   23.4348 C   0  0  0  0  0  0
  -21.9194   -4.6959   22.3405 C   0  0  0  0  0  0
  -22.7868  -13.5237   21.1824 C   0  0  0  0  0  0
  -22.1660   -4.2141   21.0981 F   0  0  0  0  0  0
  -21.5631   -3.4535   25.7739 F   0  0  0  0  0  0
  -30.0483  -13.2414   20.4580 N   0  0  0  0  0  0
  -26.3045  -12.9331   20.3380 N   0  0  0  0  0  0
  -25.9326  -11.6485   20.5750 N   0  0  0  0  0  0
  -22.0508  -12.8237   22.0386 N   0  0  0  0  0  0
  -25.4330  -15.1876   20.4101 N   0  0  0  0  0  0
  -31.7897  -14.6604   20.0577 O   0  0  0  0  0  0
  -21.6646   -6.8875   21.4238 O   0  0  0  0  0  0
  -22.3546  -14.5540   20.6667 O   0  0  0  0  0  0
  -24.6112  -31.8694   23.2116 C   0  0  0  0  0  0
  -25.9018  -32.4828   23.8402 C   0  0  1  0  0  0
  -27.2354  -27.4548   20.0981 C   0  0  0  0  0  0
  -25.5891  -33.8628   24.2329 N   0  0  0  0  0  0
  -23.3990  -30.4908   21.5516 C   0  0  2  0  0  0
  -24.8476  -28.9559   20.1182 C   0  0  0  0  0  0
  -22.7398  -29.4652   22.5008 C   0  0  0  0  0  0
  -18.0269  -28.1373   22.8491 C   0  0  0  0  0  0
  -24.1498  -36.7318   23.2637 C   0  0  0  0  0  0
  -25.9259  -30.8369   21.3668 C   0  0  0  0  0  0
  -26.0033  -29.4711   20.7204 C   0  0  0  0  0  0
  -27.2009  -28.7245   20.7161 C   0  0  0  0  0  0
  -26.0711  -26.9501   19.4876 C   0  0  0  0  0  0
  -24.8737  -27.6914   19.5026 C   0  0  0  0  0  0
  -23.6074  -29.8194   20.1666 C   0  0  0  0  0  0
  -25.4118  -36.3114   24.0333 C   0  0  1  0  0  0
  -20.5855  -28.3652   23.1333 C   0  0  2  0  0  0
  -20.6751  -26.9388   22.5429 C   0  0  0  0  0  0
  -19.5735  -26.6381   21.5213 C   0  0  0  0  0  0
  -18.1911  -26.7928   22.1606 C   0  0  0  0  0  0
  -19.1515  -28.8829   23.2906 C   0  0  0  0  0  0
  -18.9441  -30.1438   23.8913 C   0  0  0  0  0  0
  -17.6441  -30.6580   24.0565 C   0  0  0  0  0  0
  -25.9042  -34.9477   23.5130 C   0  0  0  0  0  0
  -16.5333  -29.9080   23.6321 C   0  0  0  0  0  0
  -16.7258  -28.6496   23.0344 C   0  0  0  0  0  0
  -26.4454  -31.6600   25.0728 C   0  0  0  0  0  0
  -25.3705  -31.3698   26.1459 C   0  0  0  0  0  0
  -27.0274  -30.3041   24.6100 C   0  0  0  0  0  0
  -27.6039  -32.4313   25.7485 C   0  0  0  0  0  0
  -27.5597  -37.1812   24.8456 C   0  0  0  0  0  0
  -21.4129  -29.3020   22.3745 N   0  0  0  0  0  0
  -26.4307  -37.3798   23.9408 N   0  0  0  0  0  0
  -24.6628  -31.0805   22.1015 N   0  0  0  0  0  0
  -23.4185  -28.8203   23.3048 O   0  0  0  0  0  0
  -28.3866  -26.7107   20.0358 O   0  0  0  0  0  0
  -26.5608  -34.8923   22.4695 O   0  0  0  0  0  0
  -23.5308  -32.1443   23.7517 O   0  0  0  0  0  0
  -28.9798  -24.1308   22.7118 C   0  0  0  0  0  0
  -28.3923  -23.8775   20.3701 C   0  0  0  0  0  0
  -28.7302  -24.7140   21.4540 C   0  0  0  0  0  0
  -28.8966  -22.7335   22.8974 C   0  0  0  0  0  0
  -28.5577  -21.8913   21.8040 C   0  0  0  0  0  0
  -28.3065  -22.4807   20.5380 C   0  0  0  0  0  0
  -29.1734  -22.1698   24.2830 C   0  0  0  0  0  0
  -28.4666  -20.3723   21.9830 C   0  0  0  0  0  0
  -28.8728  -26.2247   21.2875 C   0  0  0  0  0  0
  -29.7931  -19.6505   21.6742 C   0  0  0  0  0  0
  -29.7671  -18.1518   22.0340 C   0  0  0  0  0  0
  -31.1272  -17.4657   21.8168 C   0  0  0  0  0  0
  -31.2380  -16.0678   22.4581 C   0  0  0  0  0  0
  -30.4264  -15.0434   21.7995 N   0  0  0  0  0  0
  -27.8967  -21.5149   19.1625 Cl  0  0  0  0  0  0
  -31.4578  -12.4069   19.0789 H   0  0  0  0  0  0
  -30.3228  -11.2765   19.7550 H   0  0  0  0  0  0
  -29.7157  -11.8306   17.3889 H   0  0  0  0  0  0
  -29.6477  -13.5307   17.7817 H   0  0  0  0  0  0
  -27.8176  -11.3229   18.7899 H   0  0  0  0  0  0
  -27.3524  -12.6712   17.7875 H   0  0  0  0  0  0
  -27.7230  -14.2588   19.6038 H   0  0  0  0  0  0
  -28.6661  -11.9140   21.3199 H   0  0  0  0  0  0
  -28.4475  -13.5430   21.8758 H   0  0  0  0  0  0
  -25.2757   -9.5703   22.4747 H   0  0  0  0  0  0
  -24.0001   -7.4651   22.7474 H   0  0  0  0  0  0
  -21.0837   -8.8767   19.8946 H   0  0  0  0  0  0
  -22.3679  -10.9671   19.6153 H   0  0  0  0  0  0
  -21.2011   -7.6148   23.9713 H   0  0  0  0  0  0
  -21.1478   -6.0523   25.9079 H   0  0  0  0  0  0
  -22.0597   -2.7606   23.2854 H   0  0  0  0  0  0
  -22.4122  -11.9899   22.4783 H   0  0  0  0  0  0
  -21.1121  -13.1266   22.2576 H   0  0  0  0  0  0
  -24.6723  -15.8486   20.5249 H   0  0  0  0  0  0
  -26.2976  -15.6255   20.1152 H   0  0  0  0  0  0
  -26.7101  -32.5547   23.1178 H   0  0  0  0  0  0
  -25.0057  -33.9800   25.0480 H   0  0  0  0  0  0
  -22.6865  -31.3060   21.4114 H   0  0  0  0  0  0
  -23.3768  -35.9641   23.3284 H   0  0  0  0  0  0
  -24.3599  -36.8962   22.2056 H   0  0  0  0  0  0
  -23.7238  -37.6508   23.6674 H   0  0  0  0  0  0
  -26.0399  -31.6003   20.5966 H   0  0  0  0  0  0
  -26.8140  -30.8905   21.9850 H   0  0  0  0  0  0
  -28.0964  -29.1219   21.1727 H   0  0  0  0  0  0
  -26.0925  -25.9832   19.0045 H   0  0  0  0  0  0
  -23.9863  -27.2889   19.0333 H   0  0  0  0  0  0
  -23.7128  -30.5921   19.4043 H   0  0  0  0  0  0
  -22.7334  -29.2340   19.8742 H   0  0  0  0  0  0
  -25.1286  -36.1987   25.0826 H   0  0  0  0  0  0
  -20.9941  -28.3211   24.1456 H   0  0  0  0  0  0
  -20.5638  -26.2245   23.3609 H   0  0  0  0  0  0
  -21.6624  -26.7422   22.1234 H   0  0  0  0  0  0
  -19.6890  -25.6296   21.1224 H   0  0  0  0  0  0
  -19.6693  -27.3201   20.6755 H   0  0  0  0  0  0
  -17.4193  -26.6722   21.3986 H   0  0  0  0  0  0
  -18.0272  -26.0051   22.8972 H   0  0  0  0  0  0
  -19.7919  -30.7247   24.2290 H   0  0  0  0  0  0
  -17.4999  -31.6261   24.5169 H   0  0  0  0  0  0
  -15.5333  -30.2981   23.7639 H   0  0  0  0  0  0
  -15.8661  -28.0816   22.7046 H   0  0  0  0  0  0
  -24.5984  -30.6908   25.7821 H   0  0  0  0  0  0
  -24.8746  -32.2823   26.4771 H   0  0  0  0  0  0
  -25.8067  -30.9021   27.0292 H   0  0  0  0  0  0
  -26.2818  -29.6834   24.1120 H   0  0  0  0  0  0
  -27.3997  -29.7255   25.4561 H   0  0  0  0  0  0
  -27.8680  -30.4358   23.9281 H   0  0  0  0  0  0
  -27.2678  -33.3622   26.2062 H   0  0  0  0  0  0
  -28.3845  -32.6852   25.0303 H   0  0  0  0  0  0
  -28.0703  -31.8422   26.5392 H   0  0  0  0  0  0
  -28.2597  -38.0126   24.7529 H   0  0  0  0  0  0
  -28.1112  -36.2660   24.6252 H   0  0  0  0  0  0
  -27.2314  -37.1414   25.8856 H   0  0  0  0  0  0
  -20.9282  -29.8752   21.6979 H   0  0  0  0  0  0
  -26.0197  -38.2875   24.1417 H   0  0  0  0  0  0
  -29.2442  -24.7707   23.5434 H   0  0  0  0  0  0
  -28.2043  -24.3005   19.3947 H   0  0  0  0  0  0
  -29.5706  -22.9339   24.9520 H   0  0  0  0  0  0
  -29.9029  -21.3614   24.2418 H   0  0  0  0  0  0
  -28.2558  -21.7854   24.7295 H   0  0  0  0  0  0
  -27.6719  -19.9692   21.3551 H   0  0  0  0  0  0
  -28.1472  -20.1418   22.9991 H   0  0  0  0  0  0
  -29.9327  -26.4709   21.3566 H   0  0  0  0  0  0
  -28.3887  -26.7141   22.1352 H   0  0  0  0  0  0
  -30.5953  -20.1307   22.2355 H   0  0  0  0  0  0
  -30.0434  -19.7751   20.6201 H   0  0  0  0  0  0
  -28.9982  -17.6409   21.4536 H   0  0  0  0  0  0
  -29.4811  -18.0473   23.0812 H   0  0  0  0  0  0
  -31.9071  -18.0896   22.2569 H   0  0  0  0  0  0
  -31.3595  -17.4166   20.7520 H   0  0  0  0  0  0
  -30.9473  -16.1184   23.5084 H   0  0  0  0  0  0
  -32.2832  -15.7505   22.4594 H   0  0  0  0  0  0
  -29.6057  -14.7158   22.2888 H   0  0  0  0  0  0
  1 25  1  0  0  0
  1 30  2  0  0  0
  1 84  1  0  0  0
  2  3  1  0  0  0
  2 25  1  0  0  0
  2 86  1  0  0  0
  2 87  1  0  0  0
  3  4  1  0  0  0
  3 88  1  0  0  0
  3 89  1  0  0  0
  4  5  1  0  0  0
  4 90  1  0  0  0
  4 91  1  0  0  0
  5  6  1  0  0  0
  5 26  1  0  0  0
  5 92  1  0  0  0
  6 25  1  0  0  0
  6 93  1  0  0  0
  6 94  1  0  0  0
  7  8  2  0  0  0
  7 26  1  0  0  0
  7 29  1  0  0  0
  8  9  1  0  0  0
  8 22  1  0  0  0
  9 10  1  0  0  0
  9 27  2  0  0  0
 10 11  2  0  0  0
 10 15  1  0  0  0
 11 12  1  0  0  0
 11 95  1  0  0  0
 12 13  2  0  0  0
 12 96  1  0  0  0
 13 14  1  0  0  0
 13 31  1  0  0  0
 14 15  2  0  0  0
 14 97  1  0  0  0
 15 98  1  0  0  0
 16 17  2  0  0  0
 16 21  1  0  0  0
 16 31  1  0  0  0
 17 18  1  0  0  0
 17 99  1  0  0  0
 18 19  2  0  0  0
 18100  1  0  0  0
 19 20  1  0  0  0
 19 24  1  0  0  0
 20 21  2  0  0  0
 20101  1  0  0  0
 21 23  1  0  0  0
 22 28  1  0  0  0
 22 32  2  0  0  0
 26 27  1  0  0  0
 28102  1  0  0  0
 28103  1  0  0  0
 29104  1  0  0  0
 29105  1  0  0  0
 33 34  1  0  0  0
 33 66  1  0  0  0
 33 70  2  0  0  0
 34 36  1  0  0  0
 34 59  1  0  0  0
 34106  1  0  0  0
 35 44  2  0  0  0
 35 45  1  0  0  0
 35 68  1  0  0  0
 36 56  1  0  0  0
 36107  1  0  0  0
 37 39  1  0  0  0
 37 47  1  0  0  0
 37 66  1  0  0  0
 37108  1  0  0  0
 38 43  2  0  0  0
 38 46  1  0  0  0
 38 47  1  0  0  0
 39 64  1  0  0  0
 39 67  2  0  0  0
 40 52  1  0  0  0
 40 53  2  0  0  0
 40 58  1  0  0  0
 41109  1  0  0  0
 41110  1  0  0  0
 41111  1  0  0  0
 41 48  1  0  0  0
 42 43  1  0  0  0
 42 66  1  0  0  0
 42112  1  0  0  0
 42113  1  0  0  0
 43 44  1  0  0  0
 44114  1  0  0  0
 45 46  2  0  0  0
 45115  1  0  0  0
 46116  1  0  0  0
 47117  1  0  0  0
 47118  1  0  0  0
 48 56  1  0  0  0
 48 65  1  0  0  0
 48119  1  0  0  0
 49 50  1  0  0  0
 49 53  1  0  0  0
 49 64  1  0  0  0
 49120  1  0  0  0
 50 51  1  0  0  0
 50121  1  0  0  0
 50122  1  0  0  0
 51 52  1  0  0  0
 51123  1  0  0  0
 51124  1  0  0  0
 52125  1  0  0  0
 52126  1  0  0  0
 53 54  1  0  0  0
 54 55  2  0  0  0
 54127  1  0  0  0
 55 57  1  0  0  0
 55128  1  0  0  0
 56 69  2  0  0  0
 57 58  2  0  0  0
 57129  1  0  0  0
 58130  1  0  0  0
 59 60  1  0  0  0
 59 61  1  0  0  0
 59 62  1  0  0  0
 60131  1  0  0  0
 60132  1  0  0  0
 60133  1  0  0  0
 61134  1  0  0  0
 61135  1  0  0  0
 61136  1  0  0  0
 62137  1  0  0  0
 62138  1  0  0  0
 62139  1  0  0  0
 63 65  1  0  0  0
 63140  1  0  0  0
 63141  1  0  0  0
 63142  1  0  0  0
 64143  1  0  0  0
 65144  1  0  0  0
 68 79  1  0  0  0
 71 73  2  0  0  0
 71 74  1  0  0  0
 71145  1  0  0  0
 72 73  1  0  0  0
 72 76  2  0  0  0
 72146  1  0  0  0
 73 79  1  0  0  0
 74 75  2  0  0  0
 74 77  1  0  0  0
 75 76  1  0  0  0
 75 78  1  0  0  0
 76 85  1  0  0  0
 77147  1  0  0  0
 77148  1  0  0  0
 77149  1  0  0  0
 78 80  1  0  0  0
 78150  1  0  0  0
 78151  1  0  0  0
 79152  1  0  0  0
 79153  1  0  0  0
 80 81  1  0  0  0
 80154  1  0  0  0
 80155  1  0  0  0
 81 82  1  0  0  0
 81156  1  0  0  0
 81157  1  0  0  0
 82 83  1  0  0  0
 82158  1  0  0  0
 82159  1  0  0  0
 83 84  1  0  0  0
 83160  1  0  0  0
 83161  1  0  0  0
 84162  1  0  0  0
M  ISO  4   1 100  68 101  79 101  84 100
M  END
> <chiral flag>
0

> <version>
0

> <s_m_source_file>
/data/baiqing/PycharmProjects/Reinvent-master-3.2/result/LINK_invent/BTK/process_docking_weight1_custom_sum_contain_oxygen_bond_distance_aromatic_linkinvent_7_9_3/rearranged_h_0033.sdf

> <i_m_source_file_index>
89

> <r_mmod_Potential_Energy-OPLS-2005>
-60.754264831543

> <r_mmod_Stretch_Energy-OPLS-2005>
33.54736328125

> <r_mmod_Bend_Energy-OPLS-2005>
85.7961959838867

> <r_mmod_Torsional_Energy-OPLS-2005>
228.058868408203

> <r_mmod_Improper_Torsional_Energy-OPLS-2005>
2.59642314910889

> <r_mmod_Van_der_Waal_Energy-OPLS-2005>
148.175277709961

> <r_mmod_Electrostatic_Energy-OPLS-2005>
-367.100494384766

> <r_mmod_Solvation_Energy-OPLS-2005>
-198.711822509766

> <b_mmod_Minimization_Converged-OPLS-2005>
0

> <r_mmod_RMS_Derivative-OPLS-2005>
1.25172185897827

$$$$
90
                    3D
 Structure written by MMmdl.
172180  0  0  1  0            999 V2000
  -30.6575  -14.5821   20.5103 C   0  0  0  0  0  0
  -30.4285  -12.3666   19.4299 C   0  0  0  0  0  0
  -29.4957  -12.5083   18.2079 C   0  0  0  0  0  0
  -28.0194  -12.3534   18.6235 C   0  0  0  0  0  0
  -27.6511  -13.2157   19.8609 C   0  0  2  0  0  0
  -28.7006  -13.0550   20.9848 C   0  0  0  0  0  0
  -25.2537  -13.8171   20.5684 C   0  0  0  0  0  0
  -24.1813  -13.0433   20.9188 C   0  0  0  0  0  0
  -24.6387  -11.6898   20.8733 C   0  0  0  0  0  0
  -23.9046  -10.4289   21.0407 C   0  0  0  0  0  0
  -24.3608   -9.4206   21.9182 C   0  0  0  0  0  0
  -23.6293   -8.2238   22.0746 C   0  0  0  0  0  0
  -22.4275   -8.0270   21.3540 C   0  0  0  0  0  0
  -21.9912   -9.0236   20.4635 C   0  0  0  0  0  0
  -22.7229  -10.2120   20.3046 C   0  0  0  0  0  0
  -21.6847   -6.0721   22.5273 C   0  0  0  0  0  0
  -21.4014   -6.5631   23.8202 C   0  0  0  0  0  0
  -21.3661   -5.6785   24.9169 C   0  0  0  0  0  0
  -21.6052   -4.3048   24.7229 C   0  0  0  0  0  0
  -21.8815   -3.8134   23.4352 C   0  0  0  0  0  0
  -21.9198   -4.6945   22.3404 C   0  0  0  0  0  0
  -22.7824  -13.5214   21.1857 C   0  0  0  0  0  0
  -22.1657   -4.2134   21.0978 F   0  0  0  0  0  0
  -21.5638   -3.4532   25.7742 F   0  0  0  0  0  0
  -30.0158  -13.3809   20.4144 N   0  0  0  0  0  0
  -26.2977  -12.9359   20.3337 N   0  0  0  0  0  0
  -25.9321  -11.6509   20.5756 N   0  0  0  0  0  0
  -22.0471  -12.8191   22.0402 N   0  0  0  0  0  0
  -25.4247  -15.1898   20.4110 N   0  0  0  0  0  0
  -31.8249  -14.7300   20.1426 O   0  0  0  0  0  0
  -21.6638   -6.8869   21.4238 O   0  0  0  0  0  0
  -22.3513  -14.5534   20.6714 O   0  0  0  0  0  0
  -24.6154  -31.8594   23.2067 C   0  0  0  0  0  0
  -25.9036  -32.4785   23.8367 C   0  0  1  0  0  0
  -27.2432  -27.3839   20.1224 C   0  0  0  0  0  0
  -25.5878  -33.8589   24.2289 N   0  0  0  0  0  0
  -23.4108  -30.4776   21.5465 C   0  0  2  0  0  0
  -24.8619  -28.9401   20.1088 C   0  0  0  0  0  0
  -22.7458  -29.4561   22.4974 C   0  0  0  0  0  0
  -18.0245  -28.1387   22.8483 C   0  0  0  0  0  0
  -24.1439  -36.7283   23.2656 C   0  0  0  0  0  0
  -25.9422  -30.8105   21.3715 C   0  0  0  0  0  0
  -26.0172  -29.4384   20.7224 C   0  0  0  0  0  0
  -27.2028  -28.6658   20.7303 C   0  0  0  0  0  0
  -26.0715  -26.9125   19.4896 C   0  0  0  0  0  0
  -24.8877  -27.6795   19.4844 C   0  0  0  0  0  0
  -23.6285  -29.8157   20.1574 C   0  0  0  0  0  0
  -25.4063  -36.3068   24.0331 C   0  0  1  0  0  0
  -20.5839  -28.3647   23.1343 C   0  0  2  0  0  0
  -20.6721  -26.9382   22.5441 C   0  0  0  0  0  0
  -19.5712  -26.6368   21.5232 C   0  0  0  0  0  0
  -18.1883  -26.7925   22.1613 C   0  0  0  0  0  0
  -19.1506  -28.8839   23.2898 C   0  0  0  0  0  0
  -18.9434  -30.1439   23.8912 C   0  0  0  0  0  0
  -17.6454  -30.6600   24.0570 C   0  0  0  0  0  0
  -25.9007  -34.9449   23.5109 C   0  0  0  0  0  0
  -16.5331  -29.9116   23.6326 C   0  0  0  0  0  0
  -16.7250  -28.6519   23.0355 C   0  0  0  0  0  0
  -26.4453  -31.6621   25.0727 C   0  0  0  0  0  0
  -25.3724  -31.3770   26.1505 C   0  0  0  0  0  0
  -27.0304  -30.3062   24.6121 C   0  0  0  0  0  0
  -27.5980  -32.4439   25.7476 C   0  0  0  0  0  0
  -27.5532  -37.1776   24.8465 C   0  0  0  0  0  0
  -21.4178  -29.3006   22.3760 N   0  0  0  0  0  0
  -26.4208  -37.3772   23.9429 N   0  0  0  0  0  0
  -24.6745  -31.0643   22.1008 N   0  0  0  0  0  0
  -23.4206  -28.8105   23.3033 O   0  0  0  0  0  0
  -28.4097  -26.6361   20.2225 O   0  0  0  0  0  0
  -26.5600  -34.8909   22.4693 O   0  0  0  0  0  0
  -23.5331  -32.1365   23.7424 O   0  0  0  0  0  0
  -29.3876  -21.0256   17.9916 C   0  0  0  0  0  0
  -28.9816  -21.5697   19.2383 C   0  0  0  0  0  0
  -29.1115  -21.8959   16.9746 C   0  0  0  0  0  0
  -28.4965  -22.8493   18.9555 C   0  0  0  0  0  0
  -30.5959  -22.9025   15.2231 C   0  0  0  0  0  0
  -28.3912  -21.9697   14.4868 C   0  0  0  0  0  0
  -30.2037  -20.4478   15.2297 C   0  0  0  0  0  0
  -27.6544  -23.9527   16.8104 C   0  0  0  0  0  0
  -29.1785  -20.8128   20.5652 C   0  0  0  0  0  0
  -28.0700  -24.0420   19.8410 C   0  0  0  0  0  0
  -28.8279  -19.2667   20.6097 C   0  0  0  0  0  0
  -29.8691  -18.1895   20.1120 C   0  0  0  0  0  0
  -30.3315  -17.0598   21.1226 C   0  0  0  0  0  0
  -28.6595  -25.4524   19.4276 C   0  0  0  0  0  0
  -29.5402  -21.8133   15.5097 C   0  0  0  0  0  0
  -28.3882  -22.9358   17.5577 N   0  0  0  0  0  0
  -29.8953  -15.6521   20.8680 N   0  0  0  0  0  0
  -31.4704  -12.4823   19.1237 H   0  0  0  0  0  0
  -30.3509  -11.3677   19.8622 H   0  0  0  0  0  0
  -29.7511  -11.7690   17.4478 H   0  0  0  0  0  0
  -29.6419  -13.4857   17.7455 H   0  0  0  0  0  0
  -27.8493  -11.3002   18.8452 H   0  0  0  0  0  0
  -27.3637  -12.5951   17.7879 H   0  0  0  0  0  0
  -27.6754  -14.2539   19.5295 H   0  0  0  0  0  0
  -28.7045  -12.0304   21.3607 H   0  0  0  0  0  0
  -28.4621  -13.6883   21.8409 H   0  0  0  0  0  0
  -25.2754   -9.5679   22.4753 H   0  0  0  0  0  0
  -23.9990   -7.4636   22.7470 H   0  0  0  0  0  0
  -21.0839   -8.8761   19.8944 H   0  0  0  0  0  0
  -22.3697  -10.9656   19.6145 H   0  0  0  0  0  0
  -21.1994   -7.6134   23.9706 H   0  0  0  0  0  0
  -21.1490   -6.0515   25.9075 H   0  0  0  0  0  0
  -22.0599   -2.7599   23.2857 H   0  0  0  0  0  0
  -22.4086  -11.9837   22.4765 H   0  0  0  0  0  0
  -21.1088  -13.1197   22.2605 H   0  0  0  0  0  0
  -24.6585  -15.8437   20.5240 H   0  0  0  0  0  0
  -26.2750  -15.6337   20.0895 H   0  0  0  0  0  0
  -26.7126  -32.5446   23.1141 H   0  0  0  0  0  0
  -25.0012  -33.9753   25.0424 H   0  0  0  0  0  0
  -22.6985  -31.2921   21.4044 H   0  0  0  0  0  0
  -23.3674  -35.9639   23.3329 H   0  0  0  0  0  0
  -24.3563  -36.8888   22.2077 H   0  0  0  0  0  0
  -23.7189  -37.6476   23.6680 H   0  0  0  0  0  0
  -26.0577  -31.5702   20.5979 H   0  0  0  0  0  0
  -26.8315  -30.8756   21.9848 H   0  0  0  0  0  0
  -28.0919  -29.0426   21.2165 H   0  0  0  0  0  0
  -26.0500  -25.9443   19.0165 H   0  0  0  0  0  0
  -24.0030  -27.2841   19.0018 H   0  0  0  0  0  0
  -23.7591  -30.5955   19.4078 H   0  0  0  0  0  0
  -22.7517  -29.2487   19.8409 H   0  0  0  0  0  0
  -25.1225  -36.1926   25.0804 H   0  0  0  0  0  0
  -20.9880  -28.3183   24.1494 H   0  0  0  0  0  0
  -20.5605  -26.2258   23.3621 H   0  0  0  0  0  0
  -21.6593  -26.7421   22.1258 H   0  0  0  0  0  0
  -19.6864  -25.6280   21.1278 H   0  0  0  0  0  0
  -19.6652  -27.3171   20.6754 H   0  0  0  0  0  0
  -17.4155  -26.6706   21.4015 H   0  0  0  0  0  0
  -18.0240  -26.0072   22.9000 H   0  0  0  0  0  0
  -19.7926  -30.7223   24.2306 H   0  0  0  0  0  0
  -17.5025  -31.6283   24.5165 H   0  0  0  0  0  0
  -15.5351  -30.3051   23.7606 H   0  0  0  0  0  0
  -15.8630  -28.0855   22.7087 H   0  0  0  0  0  0
  -24.5972  -30.6970   25.7964 H   0  0  0  0  0  0
  -24.8785  -32.2917   26.4796 H   0  0  0  0  0  0
  -25.8111  -30.9163   27.0367 H   0  0  0  0  0  0
  -26.2873  -29.6847   24.1087 H   0  0  0  0  0  0
  -27.4017  -29.7254   25.4574 H   0  0  0  0  0  0
  -27.8734  -30.4420   23.9333 H   0  0  0  0  0  0
  -27.2537  -33.3775   26.1964 H   0  0  0  0  0  0
  -28.3791  -32.6986   25.0304 H   0  0  0  0  0  0
  -28.0654  -31.8662   26.5456 H   0  0  0  0  0  0
  -28.2546  -38.0079   24.7494 H   0  0  0  0  0  0
  -28.1011  -36.2589   24.6273 H   0  0  0  0  0  0
  -27.2285  -37.1453   25.8886 H   0  0  0  0  0  0
  -20.9350  -29.8834   21.7077 H   0  0  0  0  0  0
  -26.0072  -38.2810   24.1528 H   0  0  0  0  0  0
  -29.8890  -20.0781   17.8670 H   0  0  0  0  0  0
  -30.2053  -23.9074   15.3805 H   0  0  0  0  0  0
  -30.9510  -22.8593   14.1930 H   0  0  0  0  0  0
  -31.4620  -22.7930   15.8765 H   0  0  0  0  0  0
  -28.0734  -23.0049   14.3659 H   0  0  0  0  0  0
  -27.5235  -21.3654   14.7548 H   0  0  0  0  0  0
  -28.7047  -21.6624   13.4886 H   0  0  0  0  0  0
  -31.0990  -20.3046   15.8366 H   0  0  0  0  0  0
  -30.5119  -20.3521   14.1882 H   0  0  0  0  0  0
  -29.5241  -19.6228   15.4405 H   0  0  0  0  0  0
  -26.9721  -23.4711   16.1158 H   0  0  0  0  0  0
  -28.3317  -24.6142   16.2684 H   0  0  0  0  0  0
  -26.9996  -24.5390   17.4495 H   0  0  0  0  0  0
  -28.5424  -21.3128   21.2950 H   0  0  0  0  0  0
  -30.1999  -20.9714   20.9134 H   0  0  0  0  0  0
  -28.3778  -23.8383   20.8673 H   0  0  0  0  0  0
  -26.9822  -24.0882   19.8808 H   0  0  0  0  0  0
  -27.8678  -19.1010   20.1167 H   0  0  0  0  0  0
  -28.6272  -19.0401   21.6565 H   0  0  0  0  0  0
  -30.7627  -18.7326   19.8002 H   0  0  0  0  0  0
  -29.5028  -17.7307   19.1942 H   0  0  0  0  0  0
  -30.0212  -17.3200   22.1359 H   0  0  0  0  0  0
  -31.4216  -17.0804   21.1701 H   0  0  0  0  0  0
  -28.4378  -25.7317   18.4037 H   0  0  0  0  0  0
  -29.7442  -25.3411   19.4438 H   0  0  0  0  0  0
  -28.9350  -15.4399   21.0969 H   0  0  0  0  0  0
  1 25  1  0  0  0
  1 30  2  0  0  0
  1 87  1  0  0  0
  2  3  1  0  0  0
  2 25  1  0  0  0
  2 88  1  0  0  0
  2 89  1  0  0  0
  3  4  1  0  0  0
  3 90  1  0  0  0
  3 91  1  0  0  0
  4  5  1  0  0  0
  4 92  1  0  0  0
  4 93  1  0  0  0
  5  6  1  0  0  0
  5 26  1  0  0  0
  5 94  1  0  0  0
  6 25  1  0  0  0
  6 95  1  0  0  0
  6 96  1  0  0  0
  7  8  2  0  0  0
  7 26  1  0  0  0
  7 29  1  0  0  0
  8  9  1  0  0  0
  8 22  1  0  0  0
  9 10  1  0  0  0
  9 27  2  0  0  0
 10 11  2  0  0  0
 10 15  1  0  0  0
 11 12  1  0  0  0
 11 97  1  0  0  0
 12 13  2  0  0  0
 12 98  1  0  0  0
 13 14  1  0  0  0
 13 31  1  0  0  0
 14 15  2  0  0  0
 14 99  1  0  0  0
 15100  1  0  0  0
 16 17  2  0  0  0
 16 21  1  0  0  0
 16 31  1  0  0  0
 17 18  1  0  0  0
 17101  1  0  0  0
 18 19  2  0  0  0
 18102  1  0  0  0
 19 20  1  0  0  0
 19 24  1  0  0  0
 20 21  2  0  0  0
 20103  1  0  0  0
 21 23  1  0  0  0
 22 28  1  0  0  0
 22 32  2  0  0  0
 26 27  1  0  0  0
 28104  1  0  0  0
 28105  1  0  0  0
 29106  1  0  0  0
 29107  1  0  0  0
 33 34  1  0  0  0
 33 66  1  0  0  0
 33 70  2  0  0  0
 34 36  1  0  0  0
 34 59  1  0  0  0
 34108  1  0  0  0
 35 44  2  0  0  0
 35 45  1  0  0  0
 35 68  1  0  0  0
 36 56  1  0  0  0
 36109  1  0  0  0
 37 39  1  0  0  0
 37 47  1  0  0  0
 37 66  1  0  0  0
 37110  1  0  0  0
 38 43  2  0  0  0
 38 46  1  0  0  0
 38 47  1  0  0  0
 39 64  1  0  0  0
 39 67  2  0  0  0
 40 52  1  0  0  0
 40 53  2  0  0  0
 40 58  1  0  0  0
 41111  1  0  0  0
 41112  1  0  0  0
 41113  1  0  0  0
 41 48  1  0  0  0
 42 43  1  0  0  0
 42 66  1  0  0  0
 42114  1  0  0  0
 42115  1  0  0  0
 43 44  1  0  0  0
 44116  1  0  0  0
 45 46  2  0  0  0
 45117  1  0  0  0
 46118  1  0  0  0
 47119  1  0  0  0
 47120  1  0  0  0
 48 56  1  0  0  0
 48 65  1  0  0  0
 48121  1  0  0  0
 49 50  1  0  0  0
 49 53  1  0  0  0
 49 64  1  0  0  0
 49122  1  0  0  0
 50 51  1  0  0  0
 50123  1  0  0  0
 50124  1  0  0  0
 51 52  1  0  0  0
 51125  1  0  0  0
 51126  1  0  0  0
 52127  1  0  0  0
 52128  1  0  0  0
 53 54  1  0  0  0
 54 55  2  0  0  0
 54129  1  0  0  0
 55 57  1  0  0  0
 55130  1  0  0  0
 56 69  2  0  0  0
 57 58  2  0  0  0
 57131  1  0  0  0
 58132  1  0  0  0
 59 60  1  0  0  0
 59 61  1  0  0  0
 59 62  1  0  0  0
 60133  1  0  0  0
 60134  1  0  0  0
 60135  1  0  0  0
 61136  1  0  0  0
 61137  1  0  0  0
 61138  1  0  0  0
 62139  1  0  0  0
 62140  1  0  0  0
 62141  1  0  0  0
 63 65  1  0  0  0
 63142  1  0  0  0
 63143  1  0  0  0
 63144  1  0  0  0
 64145  1  0  0  0
 65146  1  0  0  0
 68 84  1  0  0  0
 71 72  1  0  0  0
 71 73  2  0  0  0
 71147  1  0  0  0
 72 74  2  0  0  0
 72 79  1  0  0  0
 73 85  1  0  0  0
 73 86  1  0  0  0
 74 80  1  0  0  0
 74 86  1  0  0  0
 75148  1  0  0  0
 75149  1  0  0  0
 75150  1  0  0  0
 75 85  1  0  0  0
 76 85  1  0  0  0
 76151  1  0  0  0
 76152  1  0  0  0
 76153  1  0  0  0
 77 85  1  0  0  0
 77154  1  0  0  0
 77155  1  0  0  0
 77156  1  0  0  0
 78 86  1  0  0  0
 78157  1  0  0  0
 78158  1  0  0  0
 78159  1  0  0  0
 79 81  1  0  0  0
 79160  1  0  0  0
 79161  1  0  0  0
 80 84  1  0  0  0
 80162  1  0  0  0
 80163  1  0  0  0
 81 82  1  0  0  0
 81164  1  0  0  0
 81165  1  0  0  0
 82 83  1  0  0  0
 82166  1  0  0  0
 82167  1  0  0  0
 83 87  1  0  0  0
 83168  1  0  0  0
 83169  1  0  0  0
 84170  1  0  0  0
 84171  1  0  0  0
 87172  1  0  0  0
M  ISO  4   1 100  68 101  84 101  87 100
M  END
> <chiral flag>
0

> <version>
0

> <s_m_source_file>
/data/baiqing/PycharmProjects/Reinvent-master-3.2/result/LINK_invent/BTK/process_docking_weight1_custom_sum_contain_oxygen_bond_distance_aromatic_linkinvent_7_9_3/rearranged_h_0033.sdf

> <i_m_source_file_index>
90

> <r_mmod_Potential_Energy-OPLS-2005>
8.18974208831787

> <r_mmod_Stretch_Energy-OPLS-2005>
63.9837646484375

> <r_mmod_Bend_Energy-OPLS-2005>
159.099868774414

> <r_mmod_Torsional_Energy-OPLS-2005>
252.367416381836

> <r_mmod_Improper_Torsional_Energy-OPLS-2005>
4.1238260269165

> <r_mmod_Van_der_Waal_Energy-OPLS-2005>
134.439346313477

> <r_mmod_Electrostatic_Energy-OPLS-2005>
-433.195373535156

> <r_mmod_Solvation_Energy-OPLS-2005>
-204.204208374023

> <b_mmod_Minimization_Converged-OPLS-2005>
0

> <r_mmod_RMS_Derivative-OPLS-2005>
3.97795915603638

$$$$
91
                    3D
 Structure written by MMmdl.
158166  0  0  1  0            999 V2000
  -30.6598  -14.6215   20.5217 C   0  0  0  0  0  0
  -30.4271  -12.3915   19.4406 C   0  0  0  0  0  0
  -29.4949  -12.4979   18.2151 C   0  0  0  0  0  0
  -28.0207  -12.3421   18.6365 C   0  0  0  0  0  0
  -27.6485  -13.2224   19.8591 C   0  0  2  0  0  0
  -28.6973  -13.0942   20.9852 C   0  0  0  0  0  0
  -25.2542  -13.8190   20.5726 C   0  0  0  0  0  0
  -24.1825  -13.0452   20.9224 C   0  0  0  0  0  0
  -24.6407  -11.6925   20.8775 C   0  0  0  0  0  0
  -23.9087  -10.4303   21.0425 C   0  0  0  0  0  0
  -24.3641   -9.4213   21.9190 C   0  0  0  0  0  0
  -23.6316   -8.2248   22.0757 C   0  0  0  0  0  0
  -22.4293   -8.0280   21.3553 C   0  0  0  0  0  0
  -21.9937   -9.0263   20.4654 C   0  0  0  0  0  0
  -22.7269  -10.2138   20.3066 C   0  0  0  0  0  0
  -21.6849   -6.0756   22.5290 C   0  0  0  0  0  0
  -21.4006   -6.5657   23.8228 C   0  0  0  0  0  0
  -21.3654   -5.6808   24.9180 C   0  0  0  0  0  0
  -21.6040   -4.3072   24.7232 C   0  0  0  0  0  0
  -21.8809   -3.8169   23.4358 C   0  0  0  0  0  0
  -21.9190   -4.6987   22.3414 C   0  0  0  0  0  0
  -22.7837  -13.5208   21.1890 C   0  0  0  0  0  0
  -22.1657   -4.2179   21.0997 F   0  0  0  0  0  0
  -21.5626   -3.4549   25.7743 F   0  0  0  0  0  0
  -30.0055  -13.4239   20.4073 N   0  0  0  0  0  0
  -26.2972  -12.9386   20.3352 N   0  0  0  0  0  0
  -25.9332  -11.6531   20.5795 N   0  0  0  0  0  0
  -22.0504  -12.8183   22.0447 N   0  0  0  0  0  0
  -25.4261  -15.1911   20.4145 N   0  0  0  0  0  0
  -31.8318  -14.7464   20.1562 O   0  0  0  0  0  0
  -21.6634   -6.8896   21.4255 O   0  0  0  0  0  0
  -22.3530  -14.5536   20.6768 O   0  0  0  0  0  0
  -24.6258  -31.8585   23.2021 C   0  0  0  0  0  0
  -25.9099  -32.4780   23.8352 C   0  0  1  0  0  0
  -27.2177  -27.3168   20.1119 C   0  0  0  0  0  0
  -25.5897  -33.8585   24.2271 N   0  0  0  0  0  0
  -23.4229  -30.4780   21.5474 C   0  0  2  0  0  0
  -24.8724  -28.9394   20.1080 C   0  0  0  0  0  0
  -22.7508  -29.4557   22.4967 C   0  0  0  0  0  0
  -18.0268  -28.1368   22.8474 C   0  0  0  0  0  0
  -24.1492  -36.7280   23.2635 C   0  0  0  0  0  0
  -25.9647  -30.7858   21.3786 C   0  0  0  0  0  0
  -26.0413  -29.4136   20.7191 C   0  0  0  0  0  0
  -27.2216  -28.6108   20.7182 C   0  0  0  0  0  0
  -26.0355  -26.8966   19.4730 C   0  0  0  0  0  0
  -24.8707  -27.6851   19.4771 C   0  0  0  0  0  0
  -23.6383  -29.8169   20.1613 C   0  0  0  0  0  0
  -25.4117  -36.3091   24.0332 C   0  0  1  0  0  0
  -20.5881  -28.3662   23.1308 C   0  0  2  0  0  0
  -20.6767  -26.9386   22.5430 C   0  0  0  0  0  0
  -19.5741  -26.6356   21.5226 C   0  0  0  0  0  0
  -18.1904  -26.7896   22.1611 C   0  0  0  0  0  0
  -19.1528  -28.8835   23.2855 C   0  0  0  0  0  0
  -18.9459  -30.1433   23.8878 C   0  0  0  0  0  0
  -17.6461  -30.6565   24.0560 C   0  0  0  0  0  0
  -25.9069  -34.9461   23.5106 C   0  0  0  0  0  0
  -16.5345  -29.9071   23.6356 C   0  0  0  0  0  0
  -16.7265  -28.6482   23.0362 C   0  0  0  0  0  0
  -26.4489  -31.6611   25.0741 C   0  0  0  0  0  0
  -25.3685  -31.3764   26.1463 C   0  0  0  0  0  0
  -27.0365  -30.3059   24.6188 C   0  0  0  0  0  0
  -27.6061  -32.4364   25.7481 C   0  0  0  0  0  0
  -27.5593  -37.1754   24.8436 C   0  0  0  0  0  0
  -21.4214  -29.2988   22.3725 N   0  0  0  0  0  0
  -26.4277  -37.3796   23.9436 N   0  0  0  0  0  0
  -24.6898  -31.0556   22.0994 N   0  0  0  0  0  0
  -23.4238  -28.8111   23.3043 O   0  0  0  0  0  0
  -28.2781  -26.4064   20.1462 O   0  0  0  0  0  0
  -26.5648  -34.8905   22.4687 O   0  0  0  0  0  0
  -23.5410  -32.1400   23.7326 O   0  0  0  0  0  0
  -28.6009  -23.0641   19.6513 C   0  0  0  0  0  0
  -28.7785  -21.6267   19.6638 C   0  0  0  0  0  0
  -28.5225  -23.7874   20.8836 C   0  0  0  0  0  0
  -28.9530  -20.9351   20.9030 C   0  0  0  0  0  0
  -28.7059  -22.9875   22.0503 C   0  0  0  0  0  0
  -28.4338  -23.8077   18.3292 C   0  0  0  0  0  0
  -28.7263  -20.8349   18.3573 C   0  0  0  0  0  0
  -28.0525  -25.2935   21.0890 C   0  0  0  0  0  0
  -28.9501  -19.3685   21.1381 C   0  0  0  0  0  0
  -30.0328  -18.3899   20.5148 C   0  0  0  0  0  0
  -30.4314  -17.0675   21.3173 C   0  0  0  0  0  0
  -28.9403  -21.6503   22.0485 N   0  0  0  0  0  0
  -29.9239  -15.7112   20.9073 N   0  0  0  0  0  0
  -28.5438  -23.6684   23.6354 Cl  0  0  0  0  0  0
  -31.4693  -12.5032   19.1357 H   0  0  0  0  0  0
  -30.3568  -11.4016   19.8921 H   0  0  0  0  0  0
  -29.7520  -11.7373   17.4763 H   0  0  0  0  0  0
  -29.6363  -13.4611   17.7231 H   0  0  0  0  0  0
  -27.8581  -11.2912   18.8765 H   0  0  0  0  0  0
  -27.3604  -12.5649   17.7974 H   0  0  0  0  0  0
  -27.6615  -14.2545   19.5063 H   0  0  0  0  0  0
  -28.7128  -12.0797   21.3856 H   0  0  0  0  0  0
  -28.4526  -13.7443   21.8271 H   0  0  0  0  0  0
  -25.2779   -9.5674   22.4778 H   0  0  0  0  0  0
  -24.0024   -7.4625   22.7455 H   0  0  0  0  0  0
  -21.0881   -8.8784   19.8950 H   0  0  0  0  0  0
  -22.3735  -10.9688   19.6187 H   0  0  0  0  0  0
  -21.1990   -7.6158   23.9745 H   0  0  0  0  0  0
  -21.1480   -6.0532   25.9090 H   0  0  0  0  0  0
  -22.0590   -2.7633   23.2847 H   0  0  0  0  0  0
  -22.4138  -11.9814   22.4771 H   0  0  0  0  0  0
  -21.1131  -13.1193   22.2704 H   0  0  0  0  0  0
  -24.6611  -15.8465   20.5232 H   0  0  0  0  0  0
  -26.2732  -15.6295   20.0797 H   0  0  0  0  0  0
  -26.7159  -32.5480   23.1092 H   0  0  0  0  0  0
  -25.0081  -33.9759   25.0442 H   0  0  0  0  0  0
  -22.7150  -31.2958   21.4011 H   0  0  0  0  0  0
  -23.3775  -35.9586   23.3273 H   0  0  0  0  0  0
  -24.3570  -36.8954   22.2047 H   0  0  0  0  0  0
  -23.7224  -37.6453   23.6702 H   0  0  0  0  0  0
  -26.0937  -31.5507   20.6125 H   0  0  0  0  0  0
  -26.8419  -30.8340   22.0096 H   0  0  0  0  0  0
  -28.1150  -28.9539   21.2230 H   0  0  0  0  0  0
  -26.0088  -25.9285   18.9917 H   0  0  0  0  0  0
  -23.9764  -27.3161   18.9928 H   0  0  0  0  0  0
  -23.7495  -30.5941   19.4050 H   0  0  0  0  0  0
  -22.7591  -29.2425   19.8652 H   0  0  0  0  0  0
  -25.1276  -36.1931   25.0821 H   0  0  0  0  0  0
  -20.9922  -28.3227   24.1446 H   0  0  0  0  0  0
  -20.5724  -26.2238   23.3623 H   0  0  0  0  0  0
  -21.6624  -26.7469   22.1163 H   0  0  0  0  0  0
  -19.6948  -25.6274   21.1252 H   0  0  0  0  0  0
  -19.6698  -27.3173   20.6764 H   0  0  0  0  0  0
  -17.4190  -26.6666   21.3995 H   0  0  0  0  0  0
  -18.0255  -26.0051   22.9006 H   0  0  0  0  0  0
  -19.7951  -30.7225   24.2241 H   0  0  0  0  0  0
  -17.5028  -31.6257   24.5112 H   0  0  0  0  0  0
  -15.5347  -30.2946   23.7698 H   0  0  0  0  0  0
  -15.8659  -28.0802   22.7099 H   0  0  0  0  0  0
  -24.5837  -30.7174   25.7753 H   0  0  0  0  0  0
  -24.8866  -32.2917   26.4917 H   0  0  0  0  0  0
  -25.7911  -30.8902   27.0262 H   0  0  0  0  0  0
  -26.2948  -29.6770   24.1258 H   0  0  0  0  0  0
  -27.4167  -29.7372   25.4672 H   0  0  0  0  0  0
  -27.8758  -30.4401   23.9359 H   0  0  0  0  0  0
  -27.2741  -33.3706   26.2030 H   0  0  0  0  0  0
  -28.3853  -32.6883   25.0274 H   0  0  0  0  0  0
  -28.0739  -31.8506   26.5402 H   0  0  0  0  0  0
  -28.2526  -38.0134   24.7644 H   0  0  0  0  0  0
  -28.1171  -36.2680   24.6070 H   0  0  0  0  0  0
  -27.2310  -37.1169   25.8826 H   0  0  0  0  0  0
  -20.9392  -29.8751   21.6980 H   0  0  0  0  0  0
  -26.0161  -38.2858   24.1526 H   0  0  0  0  0  0
  -28.8635  -23.2723   17.4797 H   0  0  0  0  0  0
  -28.9531  -24.7645   18.3561 H   0  0  0  0  0  0
  -27.3801  -23.9872   18.1184 H   0  0  0  0  0  0
  -27.9179  -21.1774   17.7019 H   0  0  0  0  0  0
  -28.5427  -19.7763   18.5218 H   0  0  0  0  0  0
  -29.6685  -20.9228   17.8123 H   0  0  0  0  0  0
  -28.5309  -25.6660   21.9937 H   0  0  0  0  0  0
  -26.9950  -25.2225   21.3467 H   0  0  0  0  0  0
  -27.9599  -18.9918   20.8851 H   0  0  0  0  0  0
  -29.0148  -19.2346   22.2193 H   0  0  0  0  0  0
  -30.9482  -18.9779   20.4514 H   0  0  0  0  0  0
  -29.7853  -18.1444   19.4828 H   0  0  0  0  0  0
  -30.1773  -17.1964   22.3700 H   0  0  0  0  0  0
  -31.5212  -17.0129   21.3162 H   0  0  0  0  0  0
  -28.9523  -15.5232   21.1056 H   0  0  0  0  0  0
  1 25  1  0  0  0
  1 30  2  0  0  0
  1 83  1  0  0  0
  2  3  1  0  0  0
  2 25  1  0  0  0
  2 85  1  0  0  0
  2 86  1  0  0  0
  3  4  1  0  0  0
  3 87  1  0  0  0
  3 88  1  0  0  0
  4  5  1  0  0  0
  4 89  1  0  0  0
  4 90  1  0  0  0
  5  6  1  0  0  0
  5 26  1  0  0  0
  5 91  1  0  0  0
  6 25  1  0  0  0
  6 92  1  0  0  0
  6 93  1  0  0  0
  7  8  2  0  0  0
  7 26  1  0  0  0
  7 29  1  0  0  0
  8  9  1  0  0  0
  8 22  1  0  0  0
  9 10  1  0  0  0
  9 27  2  0  0  0
 10 11  2  0  0  0
 10 15  1  0  0  0
 11 12  1  0  0  0
 11 94  1  0  0  0
 12 13  2  0  0  0
 12 95  1  0  0  0
 13 14  1  0  0  0
 13 31  1  0  0  0
 14 15  2  0  0  0
 14 96  1  0  0  0
 15 97  1  0  0  0
 16 17  2  0  0  0
 16 21  1  0  0  0
 16 31  1  0  0  0
 17 18  1  0  0  0
 17 98  1  0  0  0
 18 19  2  0  0  0
 18 99  1  0  0  0
 19 20  1  0  0  0
 19 24  1  0  0  0
 20 21  2  0  0  0
 20100  1  0  0  0
 21 23  1  0  0  0
 22 28  1  0  0  0
 22 32  2  0  0  0
 26 27  1  0  0  0
 28101  1  0  0  0
 28102  1  0  0  0
 29103  1  0  0  0
 29104  1  0  0  0
 33 34  1  0  0  0
 33 66  1  0  0  0
 33 70  2  0  0  0
 34 36  1  0  0  0
 34 59  1  0  0  0
 34105  1  0  0  0
 35 44  2  0  0  0
 35 45  1  0  0  0
 35 68  1  0  0  0
 36 56  1  0  0  0
 36106  1  0  0  0
 37 39  1  0  0  0
 37 47  1  0  0  0
 37 66  1  0  0  0
 37107  1  0  0  0
 38 43  2  0  0  0
 38 46  1  0  0  0
 38 47  1  0  0  0
 39 64  1  0  0  0
 39 67  2  0  0  0
 40 52  1  0  0  0
 40 53  2  0  0  0
 40 58  1  0  0  0
 41108  1  0  0  0
 41109  1  0  0  0
 41110  1  0  0  0
 41 48  1  0  0  0
 42 43  1  0  0  0
 42 66  1  0  0  0
 42111  1  0  0  0
 42112  1  0  0  0
 43 44  1  0  0  0
 44113  1  0  0  0
 45 46  2  0  0  0
 45114  1  0  0  0
 46115  1  0  0  0
 47116  1  0  0  0
 47117  1  0  0  0
 48 56  1  0  0  0
 48 65  1  0  0  0
 48118  1  0  0  0
 49 50  1  0  0  0
 49 53  1  0  0  0
 49 64  1  0  0  0
 49119  1  0  0  0
 50 51  1  0  0  0
 50120  1  0  0  0
 50121  1  0  0  0
 51 52  1  0  0  0
 51122  1  0  0  0
 51123  1  0  0  0
 52124  1  0  0  0
 52125  1  0  0  0
 53 54  1  0  0  0
 54 55  2  0  0  0
 54126  1  0  0  0
 55 57  1  0  0  0
 55127  1  0  0  0
 56 69  2  0  0  0
 57 58  2  0  0  0
 57128  1  0  0  0
 58129  1  0  0  0
 59 60  1  0  0  0
 59 61  1  0  0  0
 59 62  1  0  0  0
 60130  1  0  0  0
 60131  1  0  0  0
 60132  1  0  0  0
 61133  1  0  0  0
 61134  1  0  0  0
 61135  1  0  0  0
 62136  1  0  0  0
 62137  1  0  0  0
 62138  1  0  0  0
 63 65  1  0  0  0
 63139  1  0  0  0
 63140  1  0  0  0
 63141  1  0  0  0
 64142  1  0  0  0
 65143  1  0  0  0
 68 78  1  0  0  0
 71 72  2  0  0  0
 71 73  1  0  0  0
 71 76  1  0  0  0
 72 74  1  0  0  0
 72 77  1  0  0  0
 73 75  2  0  0  0
 73 78  1  0  0  0
 74 79  1  0  0  0
 74 82  2  0  0  0
 75 82  1  0  0  0
 75 84  1  0  0  0
 76144  1  0  0  0
 76145  1  0  0  0
 76146  1  0  0  0
 77147  1  0  0  0
 77148  1  0  0  0
 77149  1  0  0  0
 78150  1  0  0  0
 78151  1  0  0  0
 79 80  1  0  0  0
 79152  1  0  0  0
 79153  1  0  0  0
 80 81  1  0  0  0
 80154  1  0  0  0
 80155  1  0  0  0
 81 83  1  0  0  0
 81156  1  0  0  0
 81157  1  0  0  0
 83158  1  0  0  0
M  ISO  4   1 100  68 101  78 101  83 100
M  END
> <chiral flag>
0

> <version>
0

> <s_m_source_file>
/data/baiqing/PycharmProjects/Reinvent-master-3.2/result/LINK_invent/BTK/process_docking_weight1_custom_sum_contain_oxygen_bond_distance_aromatic_linkinvent_7_9_3/rearranged_h_0033.sdf

> <i_m_source_file_index>
91

> <r_mmod_Potential_Energy-OPLS-2005>
-21.5625438690186

> <r_mmod_Stretch_Energy-OPLS-2005>
85.1963119506836

> <r_mmod_Bend_Energy-OPLS-2005>
167.74528503418

> <r_mmod_Torsional_Energy-OPLS-2005>
256.271301269531

> <r_mmod_Improper_Torsional_Energy-OPLS-2005>
5.6574182510376

> <r_mmod_Van_der_Waal_Energy-OPLS-2005>
149.205795288086

> <r_mmod_Electrostatic_Energy-OPLS-2005>
-522.307983398438

> <r_mmod_Solvation_Energy-OPLS-2005>
-215.477416992188

> <b_mmod_Minimization_Converged-OPLS-2005>
0

> <r_mmod_RMS_Derivative-OPLS-2005>
4.14202642440796

$$$$
92
                    3D
 Structure written by MMmdl.
162170  0  0  1  0            999 V2000
  -30.6939  -14.4165   20.5793 C   0  0  0  0  0  0
  -30.4265  -12.2643   19.4290 C   0  0  0  0  0  0
  -29.5028  -12.4904   18.2156 C   0  0  0  0  0  0
  -28.0186  -12.3594   18.6155 C   0  0  0  0  0  0
  -27.6633  -13.1924   19.8769 C   0  0  2  0  0  0
  -28.6983  -12.9360   20.9985 C   0  0  0  0  0  0
  -25.2607  -13.8148   20.5678 C   0  0  0  0  0  0
  -24.1832  -13.0445   20.9163 C   0  0  0  0  0  0
  -24.6347  -11.6909   20.8693 C   0  0  0  0  0  0
  -23.9000  -10.4301   21.0340 C   0  0  0  0  0  0
  -24.3571   -9.4234   21.9121 C   0  0  0  0  0  0
  -23.6289   -8.2247   22.0704 C   0  0  0  0  0  0
  -22.4272   -8.0252   21.3517 C   0  0  0  0  0  0
  -21.9873   -9.0203   20.4607 C   0  0  0  0  0  0
  -22.7164  -10.2106   20.3009 C   0  0  0  0  0  0
  -21.6850   -6.0710   22.5277 C   0  0  0  0  0  0
  -21.4005   -6.5616   23.8206 C   0  0  0  0  0  0
  -21.3685   -5.6768   24.9170 C   0  0  0  0  0  0
  -21.6056   -4.3031   24.7217 C   0  0  0  0  0  0
  -21.8827   -3.8123   23.4336 C   0  0  0  0  0  0
  -21.9206   -4.6942   22.3393 C   0  0  0  0  0  0
  -22.7862  -13.5247   21.1864 C   0  0  0  0  0  0
  -22.1666   -4.2119   21.0965 F   0  0  0  0  0  0
  -21.5645   -3.4519   25.7731 F   0  0  0  0  0  0
  -30.0416  -13.2312   20.4660 N   0  0  0  0  0  0
  -26.3014  -12.9277   20.3324 N   0  0  0  0  0  0
  -25.9269  -11.6453   20.5710 N   0  0  0  0  0  0
  -22.0508  -12.8230   22.0407 N   0  0  0  0  0  0
  -25.4400  -15.1866   20.4174 N   0  0  0  0  0  0
  -31.7993  -14.6438   20.0805 O   0  0  0  0  0  0
  -21.6651   -6.8847   21.4233 O   0  0  0  0  0  0
  -22.3542  -14.5556   20.6722 O   0  0  0  0  0  0
  -24.6120  -31.8723   23.2142 C   0  0  0  0  0  0
  -25.9046  -32.4816   23.8380 C   0  0  1  0  0  0
  -27.2064  -27.4717   20.0514 C   0  0  0  0  0  0
  -25.5921  -33.8615   24.2327 N   0  0  0  0  0  0
  -23.3887  -30.5078   21.5570 C   0  0  2  0  0  0
  -24.8195  -28.9749   20.1149 C   0  0  0  0  0  0
  -22.7353  -29.4746   22.4998 C   0  0  0  0  0  0
  -18.0274  -28.1397   22.8478 C   0  0  0  0  0  0
  -24.1491  -36.7322   23.2632 C   0  0  0  0  0  0
  -25.9170  -30.8467   21.3558 C   0  0  0  0  0  0
  -25.9849  -29.4865   20.6973 C   0  0  0  0  0  0
  -27.1836  -28.7419   20.6606 C   0  0  0  0  0  0
  -26.0172  -26.9578   19.4858 C   0  0  0  0  0  0
  -24.8263  -27.7075   19.5119 C   0  0  0  0  0  0
  -23.5874  -29.8486   20.1675 C   0  0  0  0  0  0
  -25.4100  -36.3092   24.0337 C   0  0  1  0  0  0
  -20.5851  -28.3687   23.1312 C   0  0  2  0  0  0
  -20.6762  -26.9430   22.5409 C   0  0  0  0  0  0
  -19.5760  -26.6403   21.5192 C   0  0  0  0  0  0
  -18.1930  -26.7950   22.1590 C   0  0  0  0  0  0
  -19.1507  -28.8848   23.2900 C   0  0  0  0  0  0
  -18.9460  -30.1450   23.8918 C   0  0  0  0  0  0
  -17.6463  -30.6598   24.0579 C   0  0  0  0  0  0
  -25.9034  -34.9466   23.5122 C   0  0  0  0  0  0
  -16.5362  -29.9113   23.6328 C   0  0  0  0  0  0
  -16.7256  -28.6535   23.0336 C   0  0  0  0  0  0
  -26.4503  -31.6591   25.0695 C   0  0  0  0  0  0
  -25.3796  -31.3690   26.1462 C   0  0  0  0  0  0
  -27.0313  -30.3038   24.6026 C   0  0  0  0  0  0
  -27.6071  -32.4306   25.7460 C   0  0  0  0  0  0
  -27.5599  -37.1785   24.8444 C   0  0  0  0  0  0
  -21.4090  -29.3059   22.3716 N   0  0  0  0  0  0
  -26.4278  -37.3784   23.9441 N   0  0  0  0  0  0
  -24.6581  -31.0878   22.1011 N   0  0  0  0  0  0
  -23.4167  -28.8276   23.3005 O   0  0  0  0  0  0
  -28.3979  -26.7897   19.9924 O   0  0  0  0  0  0
  -26.5586  -34.8932   22.4673 O   0  0  0  0  0  0
  -23.5344  -32.1467   23.7598 O   0  0  0  0  0  0
  -29.8913  -23.9201   22.5359 C   0  0  0  0  0  0
  -29.7203  -22.2956   20.7231 C   0  0  0  0  0  0
  -29.8046  -23.6322   21.1622 C   0  0  0  0  0  0
  -29.8995  -22.8850   23.4865 C   0  0  0  0  0  0
  -29.7308  -21.2473   21.6711 C   0  0  0  0  0  0
  -29.8361  -21.5420   23.0551 C   0  0  0  0  0  0
  -29.9573  -23.2373   24.9615 C   0  0  0  0  0  0
  -29.7279  -24.8001   20.2008 C   0  0  0  0  0  0
  -29.6039  -19.8075   21.2012 C   0  0  0  0  0  0
  -30.9670  -19.1377   20.9336 C   0  0  0  0  0  0
  -31.0086  -17.6701   21.4028 C   0  0  0  0  0  0
  -30.0005  -16.7912   20.6400 C   0  0  0  0  0  0
  -28.3159  -25.3872   20.1952 C   0  0  0  0  0  0
  -29.9451  -15.4019   21.0903 N   0  0  0  0  0  0
  -29.8916  -20.2687   24.2308 Cl  0  0  0  0  0  0
  -31.4704  -12.3718   19.1308 H   0  0  0  0  0  0
  -30.3251  -11.2449   19.8060 H   0  0  0  0  0  0
  -29.7445  -11.7779   17.4260 H   0  0  0  0  0  0
  -29.6853  -13.4842   17.8064 H   0  0  0  0  0  0
  -27.8217  -11.3042   18.8094 H   0  0  0  0  0  0
  -27.3759  -12.6399   17.7799 H   0  0  0  0  0  0
  -27.7188  -14.2430   19.5929 H   0  0  0  0  0  0
  -28.6549  -11.8904   21.3056 H   0  0  0  0  0  0
  -28.4627  -13.5088   21.8960 H   0  0  0  0  0  0
  -25.2700   -9.5752   22.4702 H   0  0  0  0  0  0
  -24.0026   -7.4635   22.7412 H   0  0  0  0  0  0
  -21.0804   -8.8679   19.8914 H   0  0  0  0  0  0
  -22.3567  -10.9626   19.6124 H   0  0  0  0  0  0
  -21.1968   -7.6118   23.9702 H   0  0  0  0  0  0
  -21.1518   -6.0489   25.9074 H   0  0  0  0  0  0
  -22.0595   -2.7586   23.2837 H   0  0  0  0  0  0
  -22.4117  -11.9915   22.4840 H   0  0  0  0  0  0
  -21.1096  -13.1199   22.2566 H   0  0  0  0  0  0
  -24.6875  -15.8516   20.5570 H   0  0  0  0  0  0
  -26.3075  -15.6231   20.1327 H   0  0  0  0  0  0
  -26.7102  -32.5520   23.1118 H   0  0  0  0  0  0
  -25.0075  -33.9761   25.0474 H   0  0  0  0  0  0
  -22.6776  -31.3272   21.4298 H   0  0  0  0  0  0
  -23.3740  -35.9658   23.3235 H   0  0  0  0  0  0
  -24.3611  -36.8993   22.2058 H   0  0  0  0  0  0
  -23.7256  -37.6518   23.6679 H   0  0  0  0  0  0
  -26.0248  -31.6180   20.5911 H   0  0  0  0  0  0
  -26.8078  -30.8915   21.9703 H   0  0  0  0  0  0
  -28.0883  -29.1456   21.0910 H   0  0  0  0  0  0
  -25.9873  -25.9986   18.9933 H   0  0  0  0  0  0
  -23.9241  -27.3130   19.0625 H   0  0  0  0  0  0
  -23.6984  -30.6292   19.4141 H   0  0  0  0  0  0
  -22.7020  -29.2822   19.8700 H   0  0  0  0  0  0
  -25.1280  -36.1906   25.0827 H   0  0  0  0  0  0
  -20.9945  -28.3254   24.1429 H   0  0  0  0  0  0
  -20.5636  -26.2313   23.3589 H   0  0  0  0  0  0
  -21.6653  -26.7470   22.1228 H   0  0  0  0  0  0
  -19.6930  -25.6304   21.1236 H   0  0  0  0  0  0
  -19.6722  -27.3195   20.6707 H   0  0  0  0  0  0
  -17.4210  -26.6678   21.3989 H   0  0  0  0  0  0
  -18.0354  -26.0096   22.8990 H   0  0  0  0  0  0
  -19.7947  -30.7248   24.2296 H   0  0  0  0  0  0
  -17.5049  -31.6281   24.5185 H   0  0  0  0  0  0
  -15.5364  -30.3039   23.7660 H   0  0  0  0  0  0
  -15.8654  -28.0877   22.7032 H   0  0  0  0  0  0
  -24.5944  -30.7057   25.7834 H   0  0  0  0  0  0
  -24.9023  -32.2850   26.4957 H   0  0  0  0  0  0
  -25.8188  -30.8844   27.0190 H   0  0  0  0  0  0
  -26.2816  -29.6763   24.1197 H   0  0  0  0  0  0
  -27.4244  -29.7308   25.4438 H   0  0  0  0  0  0
  -27.8587  -30.4374   23.9044 H   0  0  0  0  0  0
  -27.2669  -33.3576   26.2093 H   0  0  0  0  0  0
  -28.3856  -32.6920   25.0276 H   0  0  0  0  0  0
  -28.0763  -31.8398   26.5336 H   0  0  0  0  0  0
  -28.2534  -38.0164   24.7583 H   0  0  0  0  0  0
  -28.1184  -36.2703   24.6121 H   0  0  0  0  0  0
  -27.2357  -37.1247   25.8853 H   0  0  0  0  0  0
  -20.9214  -29.8820   21.6986 H   0  0  0  0  0  0
  -26.0150  -38.2844   24.1502 H   0  0  0  0  0  0
  -29.9273  -24.9525   22.8577 H   0  0  0  0  0  0
  -29.6268  -22.0707   19.6671 H   0  0  0  0  0  0
  -30.0965  -24.3091   25.1057 H   0  0  0  0  0  0
  -30.7935  -22.7314   25.4418 H   0  0  0  0  0  0
  -29.0355  -22.9495   25.4710 H   0  0  0  0  0  0
  -30.0314  -24.5232   19.1920 H   0  0  0  0  0  0
  -30.4411  -25.5555   20.5369 H   0  0  0  0  0  0
  -28.9728  -19.7533   20.3127 H   0  0  0  0  0  0
  -29.0493  -19.2560   21.9602 H   0  0  0  0  0  0
  -31.7547  -19.6784   21.4606 H   0  0  0  0  0  0
  -31.2136  -19.2180   19.8726 H   0  0  0  0  0  0
  -30.8025  -17.6390   22.4721 H   0  0  0  0  0  0
  -32.0227  -17.2839   21.2789 H   0  0  0  0  0  0
  -30.2063  -16.8293   19.5677 H   0  0  0  0  0  0
  -28.9928  -17.1907   20.7589 H   0  0  0  0  0  0
  -27.8396  -25.2345   21.1650 H   0  0  0  0  0  0
  -27.7149  -24.8650   19.4503 H   0  0  0  0  0  0
  -29.0760  -15.1045   21.5107 H   0  0  0  0  0  0
  1 25  1  0  0  0
  1 30  2  0  0  0
  1 84  1  0  0  0
  2  3  1  0  0  0
  2 25  1  0  0  0
  2 86  1  0  0  0
  2 87  1  0  0  0
  3  4  1  0  0  0
  3 88  1  0  0  0
  3 89  1  0  0  0
  4  5  1  0  0  0
  4 90  1  0  0  0
  4 91  1  0  0  0
  5  6  1  0  0  0
  5 26  1  0  0  0
  5 92  1  0  0  0
  6 25  1  0  0  0
  6 93  1  0  0  0
  6 94  1  0  0  0
  7  8  2  0  0  0
  7 26  1  0  0  0
  7 29  1  0  0  0
  8  9  1  0  0  0
  8 22  1  0  0  0
  9 10  1  0  0  0
  9 27  2  0  0  0
 10 11  2  0  0  0
 10 15  1  0  0  0
 11 12  1  0  0  0
 11 95  1  0  0  0
 12 13  2  0  0  0
 12 96  1  0  0  0
 13 14  1  0  0  0
 13 31  1  0  0  0
 14 15  2  0  0  0
 14 97  1  0  0  0
 15 98  1  0  0  0
 16 17  2  0  0  0
 16 21  1  0  0  0
 16 31  1  0  0  0
 17 18  1  0  0  0
 17 99  1  0  0  0
 18 19  2  0  0  0
 18100  1  0  0  0
 19 20  1  0  0  0
 19 24  1  0  0  0
 20 21  2  0  0  0
 20101  1  0  0  0
 21 23  1  0  0  0
 22 28  1  0  0  0
 22 32  2  0  0  0
 26 27  1  0  0  0
 28102  1  0  0  0
 28103  1  0  0  0
 29104  1  0  0  0
 29105  1  0  0  0
 33 34  1  0  0  0
 33 66  1  0  0  0
 33 70  2  0  0  0
 34 36  1  0  0  0
 34 59  1  0  0  0
 34106  1  0  0  0
 35 44  2  0  0  0
 35 45  1  0  0  0
 35 68  1  0  0  0
 36 56  1  0  0  0
 36107  1  0  0  0
 37 39  1  0  0  0
 37 47  1  0  0  0
 37 66  1  0  0  0
 37108  1  0  0  0
 38 43  2  0  0  0
 38 46  1  0  0  0
 38 47  1  0  0  0
 39 64  1  0  0  0
 39 67  2  0  0  0
 40 52  1  0  0  0
 40 53  2  0  0  0
 40 58  1  0  0  0
 41109  1  0  0  0
 41110  1  0  0  0
 41111  1  0  0  0
 41 48  1  0  0  0
 42 43  1  0  0  0
 42 66  1  0  0  0
 42112  1  0  0  0
 42113  1  0  0  0
 43 44  1  0  0  0
 44114  1  0  0  0
 45 46  2  0  0  0
 45115  1  0  0  0
 46116  1  0  0  0
 47117  1  0  0  0
 47118  1  0  0  0
 48 56  1  0  0  0
 48 65  1  0  0  0
 48119  1  0  0  0
 49 50  1  0  0  0
 49 53  1  0  0  0
 49 64  1  0  0  0
 49120  1  0  0  0
 50 51  1  0  0  0
 50121  1  0  0  0
 50122  1  0  0  0
 51 52  1  0  0  0
 51123  1  0  0  0
 51124  1  0  0  0
 52125  1  0  0  0
 52126  1  0  0  0
 53 54  1  0  0  0
 54 55  2  0  0  0
 54127  1  0  0  0
 55 57  1  0  0  0
 55128  1  0  0  0
 56 69  2  0  0  0
 57 58  2  0  0  0
 57129  1  0  0  0
 58130  1  0  0  0
 59 60  1  0  0  0
 59 61  1  0  0  0
 59 62  1  0  0  0
 60131  1  0  0  0
 60132  1  0  0  0
 60133  1  0  0  0
 61134  1  0  0  0
 61135  1  0  0  0
 61136  1  0  0  0
 62137  1  0  0  0
 62138  1  0  0  0
 62139  1  0  0  0
 63 65  1  0  0  0
 63140  1  0  0  0
 63141  1  0  0  0
 63142  1  0  0  0
 64143  1  0  0  0
 65144  1  0  0  0
 68 83  1  0  0  0
 71 73  2  0  0  0
 71 74  1  0  0  0
 71145  1  0  0  0
 72 73  1  0  0  0
 72 75  2  0  0  0
 72146  1  0  0  0
 73 78  1  0  0  0
 74 76  2  0  0  0
 74 77  1  0  0  0
 75 76  1  0  0  0
 75 79  1  0  0  0
 76 85  1  0  0  0
 77147  1  0  0  0
 77148  1  0  0  0
 77149  1  0  0  0
 78 83  1  0  0  0
 78150  1  0  0  0
 78151  1  0  0  0
 79 80  1  0  0  0
 79152  1  0  0  0
 79153  1  0  0  0
 80 81  1  0  0  0
 80154  1  0  0  0
 80155  1  0  0  0
 81 82  1  0  0  0
 81156  1  0  0  0
 81157  1  0  0  0
 82 84  1  0  0  0
 82158  1  0  0  0
 82159  1  0  0  0
 83160  1  0  0  0
 83161  1  0  0  0
 84162  1  0  0  0
M  ISO  4   1 100  68 101  83 101  84 100
M  END
> <chiral flag>
0

> <version>
0

> <s_m_source_file>
/data/baiqing/PycharmProjects/Reinvent-master-3.2/result/LINK_invent/BTK/process_docking_weight1_custom_sum_contain_oxygen_bond_distance_aromatic_linkinvent_7_9_3/rearranged_h_0033.sdf

> <i_m_source_file_index>
92

> <r_mmod_Potential_Energy-OPLS-2005>
-42.8288040161133

> <r_mmod_Stretch_Energy-OPLS-2005>
30.7605304718018

> <r_mmod_Bend_Energy-OPLS-2005>
87.8455963134766

> <r_mmod_Torsional_Energy-OPLS-2005>
228.32341003418

> <r_mmod_Improper_Torsional_Energy-OPLS-2005>
6.57382917404175

> <r_mmod_Van_der_Waal_Energy-OPLS-2005>
160.206069946289

> <r_mmod_Electrostatic_Energy-OPLS-2005>
-364.145965576172

> <r_mmod_Solvation_Energy-OPLS-2005>
-203.550201416016

> <b_mmod_Minimization_Converged-OPLS-2005>
0

> <r_mmod_RMS_Derivative-OPLS-2005>
4.10478401184082

$$$$
93
                    3D
 Structure written by MMmdl.
168176  0  0  1  0            999 V2000
  -30.7628  -14.3702   20.6244 C   0  0  0  0  0  0
  -30.4061  -12.2574   19.4100 C   0  0  0  0  0  0
  -29.4902  -12.5153   18.1949 C   0  0  0  0  0  0
  -28.0127  -12.3807   18.6150 C   0  0  0  0  0  0
  -27.6682  -13.2044   19.8849 C   0  0  2  0  0  0
  -28.7070  -12.9537   21.0039 C   0  0  0  0  0  0
  -25.2596  -13.8173   20.5678 C   0  0  0  0  0  0
  -24.1827  -13.0447   20.9156 C   0  0  0  0  0  0
  -24.6378  -11.6913   20.8722 C   0  0  0  0  0  0
  -23.9036  -10.4298   21.0398 C   0  0  0  0  0  0
  -24.3615   -9.4214   21.9172 C   0  0  0  0  0  0
  -23.6312   -8.2239   22.0754 C   0  0  0  0  0  0
  -22.4295   -8.0286   21.3520 C   0  0  0  0  0  0
  -21.9906   -9.0254   20.4618 C   0  0  0  0  0  0
  -22.7224  -10.2147   20.3026 C   0  0  0  0  0  0
  -21.6852   -6.0761   22.5283 C   0  0  0  0  0  0
  -21.4018   -6.5659   23.8219 C   0  0  0  0  0  0
  -21.3660   -5.6798   24.9182 C   0  0  0  0  0  0
  -21.6059   -4.3062   24.7212 C   0  0  0  0  0  0
  -21.8831   -3.8169   23.4334 C   0  0  0  0  0  0
  -21.9186   -4.6993   22.3404 C   0  0  0  0  0  0
  -22.7846  -13.5249   21.1799 C   0  0  0  0  0  0
  -22.1648   -4.2189   21.0968 F   0  0  0  0  0  0
  -21.5624   -3.4553   25.7716 F   0  0  0  0  0  0
  -30.0497  -13.2257   20.4599 N   0  0  0  0  0  0
  -26.3038  -12.9327   20.3420 N   0  0  0  0  0  0
  -25.9313  -11.6494   20.5795 N   0  0  0  0  0  0
  -22.0500  -12.8206   22.0371 N   0  0  0  0  0  0
  -25.4362  -15.1886   20.4132 N   0  0  0  0  0  0
  -31.8240  -14.5891   20.0327 O   0  0  0  0  0  0
  -21.6636   -6.8900   21.4246 O   0  0  0  0  0  0
  -22.3495  -14.5537   20.6660 O   0  0  0  0  0  0
  -24.6133  -31.8667   23.2103 C   0  0  0  0  0  0
  -25.9040  -32.4814   23.8392 C   0  0  1  0  0  0
  -27.2512  -27.4408   20.0686 C   0  0  0  0  0  0
  -25.5891  -33.8613   24.2313 N   0  0  0  0  0  0
  -23.4007  -30.4888   21.5521 C   0  0  2  0  0  0
  -24.8459  -28.9508   20.1203 C   0  0  0  0  0  0
  -22.7412  -29.4665   22.5024 C   0  0  0  0  0  0
  -18.0263  -28.1374   22.8488 C   0  0  0  0  0  0
  -24.1483  -36.7317   23.2640 C   0  0  0  0  0  0
  -25.9306  -30.8303   21.3658 C   0  0  0  0  0  0
  -26.0062  -29.4652   20.7103 C   0  0  0  0  0  0
  -27.2063  -28.7178   20.6785 C   0  0  0  0  0  0
  -26.0638  -26.9381   19.4801 C   0  0  0  0  0  0
  -24.8694  -27.6854   19.5083 C   0  0  0  0  0  0
  -23.6071  -29.8179   20.1677 C   0  0  0  0  0  0
  -25.4107  -36.3119   24.0335 C   0  0  1  0  0  0
  -20.5859  -28.3659   23.1322 C   0  0  2  0  0  0
  -20.6755  -26.9400   22.5415 C   0  0  0  0  0  0
  -19.5743  -26.6383   21.5202 C   0  0  0  0  0  0
  -18.1916  -26.7920   22.1609 C   0  0  0  0  0  0
  -19.1515  -28.8829   23.2900 C   0  0  0  0  0  0
  -18.9449  -30.1432   23.8901 C   0  0  0  0  0  0
  -17.6463  -30.6576   24.0562 C   0  0  0  0  0  0
  -25.9034  -34.9485   23.5121 C   0  0  0  0  0  0
  -16.5350  -29.9091   23.6330 C   0  0  0  0  0  0
  -16.7255  -28.6509   23.0344 C   0  0  0  0  0  0
  -26.4462  -31.6614   25.0734 C   0  0  0  0  0  0
  -25.3740  -31.3733   26.1494 C   0  0  0  0  0  0
  -27.0295  -30.3057   24.6134 C   0  0  0  0  0  0
  -27.6017  -32.4357   25.7499 C   0  0  0  0  0  0
  -27.5598  -37.1796   24.8455 C   0  0  0  0  0  0
  -21.4144  -29.3031   22.3756 N   0  0  0  0  0  0
  -26.4287  -37.3813   23.9433 N   0  0  0  0  0  0
  -24.6665  -31.0759   22.1008 N   0  0  0  0  0  0
  -23.4183  -28.8206   23.3073 O   0  0  0  0  0  0
  -28.4704  -26.7833   20.0484 O   0  0  0  0  0  0
  -26.5622  -34.8935   22.4698 O   0  0  0  0  0  0
  -23.5314  -32.1441   23.7470 O   0  0  0  0  0  0
  -30.8063  -23.4093   17.2917 C   0  0  0  0  0  0
  -30.3408  -26.0496   18.0899 C   0  0  0  0  0  0
  -31.4771  -24.4597   16.6357 C   0  0  0  0  0  0
  -31.2535  -25.7916   17.0458 C   0  0  0  0  0  0
  -29.9080  -23.6549   18.3586 C   0  0  0  0  0  0
  -29.6379  -25.0063   18.7378 C   0  0  0  0  0  0
  -32.4194  -24.1365   15.4883 C   0  0  0  0  0  0
  -31.9677  -26.9543   16.3721 C   0  0  0  0  0  0
  -29.2239  -22.4506   19.0228 C   0  0  0  0  0  0
  -28.5825  -25.3703   19.7950 C   0  0  0  0  0  0
  -30.1728  -21.2881   19.4150 C   0  0  0  0  0  0
  -29.4203  -20.0653   19.9855 C   0  0  0  0  0  0
  -30.3742  -18.9924   20.5345 C   0  0  0  0  0  0
  -29.6827  -17.6799   20.9530 C   0  0  0  0  0  0
  -30.7034  -16.6753   21.5249 C   0  0  0  0  0  0
  -30.2178  -15.2970   21.4224 N   0  0  0  0  0  0
  -31.4584  -12.3122   19.1204 H   0  0  0  0  0  0
  -30.2632  -11.2378   19.7781 H   0  0  0  0  0  0
  -29.7066  -11.8063   17.3931 H   0  0  0  0  0  0
  -29.6784  -13.5115   17.7881 H   0  0  0  0  0  0
  -27.8234  -11.3232   18.7994 H   0  0  0  0  0  0
  -27.3619  -12.6672   17.7878 H   0  0  0  0  0  0
  -27.7257  -14.2592   19.6113 H   0  0  0  0  0  0
  -28.6632  -11.9158   21.3434 H   0  0  0  0  0  0
  -28.4710  -13.5524   21.8852 H   0  0  0  0  0  0
  -25.2796   -9.5711   22.4678 H   0  0  0  0  0  0
  -24.0071   -7.4627   22.7465 H   0  0  0  0  0  0
  -21.0853   -8.8751   19.8904 H   0  0  0  0  0  0
  -22.3709  -10.9667   19.6096 H   0  0  0  0  0  0
  -21.2013   -7.6161   23.9750 H   0  0  0  0  0  0
  -21.1437   -6.0507   25.9086 H   0  0  0  0  0  0
  -22.0588   -2.7632   23.2781 H   0  0  0  0  0  0
  -22.4202  -11.9954   22.4778 H   0  0  0  0  0  0
  -21.1087  -13.1161   22.2555 H   0  0  0  0  0  0
  -24.6741  -15.8505   20.5285 H   0  0  0  0  0  0
  -26.3020  -15.6301   20.1281 H   0  0  0  0  0  0
  -26.7120  -32.5507   23.1152 H   0  0  0  0  0  0
  -25.0027  -33.9799   25.0448 H   0  0  0  0  0  0
  -22.6897  -31.3048   21.4112 H   0  0  0  0  0  0
  -23.3758  -35.9627   23.3258 H   0  0  0  0  0  0
  -24.3577  -36.8977   22.2059 H   0  0  0  0  0  0
  -23.7207  -37.6494   23.6676 H   0  0  0  0  0  0
  -26.0549  -31.5996   20.6011 H   0  0  0  0  0  0
  -26.8134  -30.8725   21.9923 H   0  0  0  0  0  0
  -28.1100  -29.1213   21.1132 H   0  0  0  0  0  0
  -26.0283  -25.9911   18.9630 H   0  0  0  0  0  0
  -23.9792  -27.2856   19.0426 H   0  0  0  0  0  0
  -23.7206  -30.5907   19.4068 H   0  0  0  0  0  0
  -22.7278  -29.2419   19.8712 H   0  0  0  0  0  0
  -25.1279  -36.1970   25.0827 H   0  0  0  0  0  0
  -20.9939  -28.3206   24.1448 H   0  0  0  0  0  0
  -20.5645  -26.2275   23.3604 H   0  0  0  0  0  0
  -21.6632  -26.7437   22.1220 H   0  0  0  0  0  0
  -19.6912  -25.6297   21.1226 H   0  0  0  0  0  0
  -19.6675  -27.3200   20.6732 H   0  0  0  0  0  0
  -17.4197  -26.6670   21.4003 H   0  0  0  0  0  0
  -18.0312  -26.0046   22.8991 H   0  0  0  0  0  0
  -19.7930  -30.7239   24.2283 H   0  0  0  0  0  0
  -17.5016  -31.6248   24.5185 H   0  0  0  0  0  0
  -15.5356  -30.2996   23.7625 H   0  0  0  0  0  0
  -15.8663  -28.0819   22.7070 H   0  0  0  0  0  0
  -24.5870  -30.7136   25.7840 H   0  0  0  0  0  0
  -24.8990  -32.2897   26.4999 H   0  0  0  0  0  0
  -25.8092  -30.8853   27.0224 H   0  0  0  0  0  0
  -26.2844  -29.6817   24.1191 H   0  0  0  0  0  0
  -27.4065  -29.7303   25.4598 H   0  0  0  0  0  0
  -27.8675  -30.4374   23.9289 H   0  0  0  0  0  0
  -27.2611  -33.3630   26.2112 H   0  0  0  0  0  0
  -28.3795  -32.6974   25.0322 H   0  0  0  0  0  0
  -28.0727  -31.8489   26.5390 H   0  0  0  0  0  0
  -28.2570  -38.0142   24.7587 H   0  0  0  0  0  0
  -28.1139  -36.2681   24.6154 H   0  0  0  0  0  0
  -27.2336  -37.1305   25.8861 H   0  0  0  0  0  0
  -20.9317  -29.8761   21.6978 H   0  0  0  0  0  0
  -26.0169  -38.2876   24.1463 H   0  0  0  0  0  0
  -30.9798  -22.3984   16.9489 H   0  0  0  0  0  0
  -30.1676  -27.0747   18.3865 H   0  0  0  0  0  0
  -32.6313  -23.0686   15.4300 H   0  0  0  0  0  0
  -33.3725  -24.6550   15.5920 H   0  0  0  0  0  0
  -31.9698  -24.4393   14.5431 H   0  0  0  0  0  0
  -31.6277  -27.9115   16.7694 H   0  0  0  0  0  0
  -31.7869  -26.9596   15.2965 H   0  0  0  0  0  0
  -33.0421  -26.8930   16.5425 H   0  0  0  0  0  0
  -28.4606  -22.0893   18.3329 H   0  0  0  0  0  0
  -28.6982  -22.7626   19.9219 H   0  0  0  0  0  0
  -28.8818  -24.9143   20.7388 H   0  0  0  0  0  0
  -27.6496  -24.8869   19.5192 H   0  0  0  0  0  0
  -30.9002  -21.6486   20.1433 H   0  0  0  0  0  0
  -30.7504  -20.9395   18.5562 H   0  0  0  0  0  0
  -28.7944  -19.6291   19.2057 H   0  0  0  0  0  0
  -28.7479  -20.3832   20.7814 H   0  0  0  0  0  0
  -30.9361  -19.4017   21.3764 H   0  0  0  0  0  0
  -31.1081  -18.7580   19.7613 H   0  0  0  0  0  0
  -29.1934  -17.2469   20.0791 H   0  0  0  0  0  0
  -28.8876  -17.8651   21.6789 H   0  0  0  0  0  0
  -30.9241  -16.9060   22.5654 H   0  0  0  0  0  0
  -31.6528  -16.7960   21.0009 H   0  0  0  0  0  0
  -29.3767  -15.0506   21.9243 H   0  0  0  0  0  0
  1 25  1  0  0  0
  1 30  2  0  0  0
  1 86  1  0  0  0
  2  3  1  0  0  0
  2 25  1  0  0  0
  2 87  1  0  0  0
  2 88  1  0  0  0
  3  4  1  0  0  0
  3 89  1  0  0  0
  3 90  1  0  0  0
  4  5  1  0  0  0
  4 91  1  0  0  0
  4 92  1  0  0  0
  5  6  1  0  0  0
  5 26  1  0  0  0
  5 93  1  0  0  0
  6 25  1  0  0  0
  6 94  1  0  0  0
  6 95  1  0  0  0
  7  8  2  0  0  0
  7 26  1  0  0  0
  7 29  1  0  0  0
  8  9  1  0  0  0
  8 22  1  0  0  0
  9 10  1  0  0  0
  9 27  2  0  0  0
 10 11  2  0  0  0
 10 15  1  0  0  0
 11 12  1  0  0  0
 11 96  1  0  0  0
 12 13  2  0  0  0
 12 97  1  0  0  0
 13 14  1  0  0  0
 13 31  1  0  0  0
 14 15  2  0  0  0
 14 98  1  0  0  0
 15 99  1  0  0  0
 16 17  2  0  0  0
 16 21  1  0  0  0
 16 31  1  0  0  0
 17 18  1  0  0  0
 17100  1  0  0  0
 18 19  2  0  0  0
 18101  1  0  0  0
 19 20  1  0  0  0
 19 24  1  0  0  0
 20 21  2  0  0  0
 20102  1  0  0  0
 21 23  1  0  0  0
 22 28  1  0  0  0
 22 32  2  0  0  0
 26 27  1  0  0  0
 28103  1  0  0  0
 28104  1  0  0  0
 29105  1  0  0  0
 29106  1  0  0  0
 33 34  1  0  0  0
 33 66  1  0  0  0
 33 70  2  0  0  0
 34 36  1  0  0  0
 34 59  1  0  0  0
 34107  1  0  0  0
 35 44  2  0  0  0
 35 45  1  0  0  0
 35 68  1  0  0  0
 36 56  1  0  0  0
 36108  1  0  0  0
 37 39  1  0  0  0
 37 47  1  0  0  0
 37 66  1  0  0  0
 37109  1  0  0  0
 38 43  2  0  0  0
 38 46  1  0  0  0
 38 47  1  0  0  0
 39 64  1  0  0  0
 39 67  2  0  0  0
 40 52  1  0  0  0
 40 53  2  0  0  0
 40 58  1  0  0  0
 41110  1  0  0  0
 41111  1  0  0  0
 41112  1  0  0  0
 41 48  1  0  0  0
 42 43  1  0  0  0
 42 66  1  0  0  0
 42113  1  0  0  0
 42114  1  0  0  0
 43 44  1  0  0  0
 44115  1  0  0  0
 45 46  2  0  0  0
 45116  1  0  0  0
 46117  1  0  0  0
 47118  1  0  0  0
 47119  1  0  0  0
 48 56  1  0  0  0
 48 65  1  0  0  0
 48120  1  0  0  0
 49 50  1  0  0  0
 49 53  1  0  0  0
 49 64  1  0  0  0
 49121  1  0  0  0
 50 51  1  0  0  0
 50122  1  0  0  0
 50123  1  0  0  0
 51 52  1  0  0  0
 51124  1  0  0  0
 51125  1  0  0  0
 52126  1  0  0  0
 52127  1  0  0  0
 53 54  1  0  0  0
 54 55  2  0  0  0
 54128  1  0  0  0
 55 57  1  0  0  0
 55129  1  0  0  0
 56 69  2  0  0  0
 57 58  2  0  0  0
 57130  1  0  0  0
 58131  1  0  0  0
 59 60  1  0  0  0
 59 61  1  0  0  0
 59 62  1  0  0  0
 60132  1  0  0  0
 60133  1  0  0  0
 60134  1  0  0  0
 61135  1  0  0  0
 61136  1  0  0  0
 61137  1  0  0  0
 62138  1  0  0  0
 62139  1  0  0  0
 62140  1  0  0  0
 63 65  1  0  0  0
 63141  1  0  0  0
 63142  1  0  0  0
 63143  1  0  0  0
 64144  1  0  0  0
 65145  1  0  0  0
 68 80  1  0  0  0
 71 73  2  0  0  0
 71 75  1  0  0  0
 71146  1  0  0  0
 72 74  2  0  0  0
 72 76  1  0  0  0
 72147  1  0  0  0
 73 74  1  0  0  0
 73 77  1  0  0  0
 74 78  1  0  0  0
 75 76  2  0  0  0
 75 79  1  0  0  0
 76 80  1  0  0  0
 77148  1  0  0  0
 77149  1  0  0  0
 77150  1  0  0  0
 78151  1  0  0  0
 78152  1  0  0  0
 78153  1  0  0  0
 79 81  1  0  0  0
 79154  1  0  0  0
 79155  1  0  0  0
 80156  1  0  0  0
 80157  1  0  0  0
 81 82  1  0  0  0
 81158  1  0  0  0
 81159  1  0  0  0
 82 83  1  0  0  0
 82160  1  0  0  0
 82161  1  0  0  0
 83 84  1  0  0  0
 83162  1  0  0  0
 83163  1  0  0  0
 84 85  1  0  0  0
 84164  1  0  0  0
 84165  1  0  0  0
 85 86  1  0  0  0
 85166  1  0  0  0
 85167  1  0  0  0
 86168  1  0  0  0
M  ISO  4   1 100  68 101  80 101  86 100
M  END
> <chiral flag>
0

> <version>
0

> <s_m_source_file>
/data/baiqing/PycharmProjects/Reinvent-master-3.2/result/LINK_invent/BTK/process_docking_weight1_custom_sum_contain_oxygen_bond_distance_aromatic_linkinvent_7_9_3/rearranged_h_0033.sdf

> <i_m_source_file_index>
93

> <r_mmod_Potential_Energy-OPLS-2005>
-50.669002532959

> <r_mmod_Stretch_Energy-OPLS-2005>
39.1888809204102

> <r_mmod_Bend_Energy-OPLS-2005>
104.971618652344

> <r_mmod_Torsional_Energy-OPLS-2005>
203.408020019531

> <r_mmod_Improper_Torsional_Energy-OPLS-2005>
2.29271149635315

> <r_mmod_Van_der_Waal_Energy-OPLS-2005>
162.259811401367

> <r_mmod_Electrostatic_Energy-OPLS-2005>
-371.364227294922

> <r_mmod_Solvation_Energy-OPLS-2005>
-200.894073486328

> <b_mmod_Minimization_Converged-OPLS-2005>
0

> <r_mmod_RMS_Derivative-OPLS-2005>
5.08380651473999

$$$$
94
                    3D
 Structure written by MMmdl.
159167  0  0  1  0            999 V2000
  -30.6803  -14.4991   20.5650 C   0  0  0  0  0  0
  -30.4267  -12.3205   19.4275 C   0  0  0  0  0  0
  -29.4970  -12.5051   18.2096 C   0  0  0  0  0  0
  -28.0180  -12.3610   18.6222 C   0  0  0  0  0  0
  -27.6597  -13.2065   19.8739 C   0  0  2  0  0  0
  -28.7015  -12.9965   20.9959 C   0  0  0  0  0  0
  -25.2572  -13.8153   20.5683 C   0  0  0  0  0  0
  -24.1825  -13.0428   20.9176 C   0  0  0  0  0  0
  -24.6383  -11.6898   20.8736 C   0  0  0  0  0  0
  -23.9051  -10.4286   21.0404 C   0  0  0  0  0  0
  -24.3606   -9.4204   21.9179 C   0  0  0  0  0  0
  -23.6286   -8.2238   22.0753 C   0  0  0  0  0  0
  -22.4267   -8.0275   21.3545 C   0  0  0  0  0  0
  -21.9901   -9.0246   20.4647 C   0  0  0  0  0  0
  -22.7225  -10.2125   20.3051 C   0  0  0  0  0  0
  -21.6852   -6.0729   22.5284 C   0  0  0  0  0  0
  -21.4016   -6.5636   23.8218 C   0  0  0  0  0  0
  -21.3659   -5.6790   24.9179 C   0  0  0  0  0  0
  -21.6039   -4.3052   24.7232 C   0  0  0  0  0  0
  -21.8819   -3.8145   23.4353 C   0  0  0  0  0  0
  -21.9193   -4.6958   22.3409 C   0  0  0  0  0  0
  -22.7845  -13.5225   21.1846 C   0  0  0  0  0  0
  -22.1658   -4.2145   21.0985 F   0  0  0  0  0  0
  -21.5629   -3.4535   25.7744 F   0  0  0  0  0  0
  -30.0294  -13.3097   20.4423 N   0  0  0  0  0  0
  -26.3012  -12.9323   20.3367 N   0  0  0  0  0  0
  -25.9312  -11.6485   20.5774 N   0  0  0  0  0  0
  -22.0488  -12.8219   22.0407 N   0  0  0  0  0  0
  -25.4294  -15.1870   20.4094 N   0  0  0  0  0  0
  -31.8144  -14.6898   20.1167 O   0  0  0  0  0  0
  -21.6632   -6.8870   21.4245 O   0  0  0  0  0  0
  -22.3529  -14.5528   20.6692 O   0  0  0  0  0  0
  -24.6165  -31.8665   23.2080 C   0  0  0  0  0  0
  -25.9050  -32.4816   23.8380 C   0  0  1  0  0  0
  -27.2330  -27.4077   20.0949 C   0  0  0  0  0  0
  -25.5905  -33.8615   24.2314 N   0  0  0  0  0  0
  -23.4047  -30.4902   21.5492 C   0  0  2  0  0  0
  -24.8481  -28.9498   20.1170 C   0  0  0  0  0  0
  -22.7419  -29.4653   22.4978 C   0  0  0  0  0  0
  -18.0280  -28.1383   22.8490 C   0  0  0  0  0  0
  -24.1490  -36.7315   23.2638 C   0  0  0  0  0  0
  -25.9351  -30.8236   21.3627 C   0  0  0  0  0  0
  -26.0093  -29.4548   20.7121 C   0  0  0  0  0  0
  -27.2005  -28.6913   20.6962 C   0  0  0  0  0  0
  -26.0430  -26.9148   19.5101 C   0  0  0  0  0  0
  -24.8606  -27.6803   19.5153 C   0  0  0  0  0  0
  -23.6136  -29.8227   20.1638 C   0  0  0  0  0  0
  -25.4114  -36.3110   24.0334 C   0  0  1  0  0  0
  -20.5870  -28.3669   23.1319 C   0  0  2  0  0  0
  -20.6770  -26.9404   22.5421 C   0  0  0  0  0  0
  -19.5748  -26.6389   21.5217 C   0  0  0  0  0  0
  -18.1926  -26.7930   22.1624 C   0  0  0  0  0  0
  -19.1529  -28.8843   23.2902 C   0  0  0  0  0  0
  -18.9452  -30.1449   23.8913 C   0  0  0  0  0  0
  -17.6453  -30.6586   24.0568 C   0  0  0  0  0  0
  -25.9041  -34.9474   23.5124 C   0  0  0  0  0  0
  -16.5345  -29.9088   23.6325 C   0  0  0  0  0  0
  -16.7269  -28.6509   23.0340 C   0  0  0  0  0  0
  -26.4468  -31.6598   25.0714 C   0  0  0  0  0  0
  -25.3730  -31.3696   26.1460 C   0  0  0  0  0  0
  -27.0292  -30.3044   24.6079 C   0  0  0  0  0  0
  -27.6051  -32.4308   25.7477 C   0  0  0  0  0  0
  -27.5583  -37.1816   24.8465 C   0  0  0  0  0  0
  -21.4146  -29.3034   22.3721 N   0  0  0  0  0  0
  -26.4302  -37.3796   23.9404 N   0  0  0  0  0  0
  -24.6708  -31.0751   22.0986 N   0  0  0  0  0  0
  -23.4187  -28.8196   23.3025 O   0  0  0  0  0  0
  -28.4303  -26.7083   20.0982 O   0  0  0  0  0  0
  -26.5601  -34.8927   22.4685 O   0  0  0  0  0  0
  -23.5353  -32.1425   23.7465 O   0  0  0  0  0  0
  -28.2107  -24.5081   21.9664 C   0  0  0  0  0  0
  -28.4150  -22.8670   20.1807 C   0  0  0  0  0  0
  -28.3689  -24.2255   20.5953 C   0  0  0  0  0  0
  -28.0799  -23.4635   22.9056 C   0  0  0  0  0  0
  -28.2826  -21.7981   21.1098 C   0  0  0  0  0  0
  -28.1018  -22.1128   22.4811 C   0  0  0  0  0  0
  -27.9065  -23.8078   24.3748 C   0  0  0  0  0  0
  -28.2292  -20.3348   20.6225 C   0  0  0  0  0  0
  -28.5355  -25.3643   19.5754 C   0  0  0  0  0  0
  -29.4384  -19.4177   20.9814 C   0  0  0  0  0  0
  -29.1540  -17.8988   20.7704 C   0  0  0  0  0  0
  -30.3154  -16.9391   21.1627 C   0  0  0  0  0  0
  -29.9435  -15.5120   21.0691 N   0  0  0  0  0  0
  -27.8712  -20.8540   23.6496 Cl  0  0  0  0  0  0
  -31.4713  -12.4260   19.1289 H   0  0  0  0  0  0
  -30.3343  -11.3113   19.8313 H   0  0  0  0  0  0
  -29.7419  -11.7773   17.4346 H   0  0  0  0  0  0
  -29.6600  -13.4892   17.7668 H   0  0  0  0  0  0
  -27.8342  -11.3054   18.8264 H   0  0  0  0  0  0
  -27.3662  -12.6263   17.7893 H   0  0  0  0  0  0
  -27.6998  -14.2529   19.5704 H   0  0  0  0  0  0
  -28.6837  -11.9619   21.3410 H   0  0  0  0  0  0
  -28.4615  -13.5988   21.8730 H   0  0  0  0  0  0
  -25.2751   -9.5677   22.4750 H   0  0  0  0  0  0
  -23.9997   -7.4627   22.7469 H   0  0  0  0  0  0
  -21.0835   -8.8758   19.8953 H   0  0  0  0  0  0
  -22.3686  -10.9656   19.6154 H   0  0  0  0  0  0
  -21.2011   -7.6145   23.9722 H   0  0  0  0  0  0
  -21.1480   -6.0520   25.9080 H   0  0  0  0  0  0
  -22.0602   -2.7608   23.2858 H   0  0  0  0  0  0
  -22.4102  -11.9875   22.4790 H   0  0  0  0  0  0
  -21.1108  -13.1252   22.2619 H   0  0  0  0  0  0
  -24.6627  -15.8423   20.5148 H   0  0  0  0  0  0
  -26.2839  -15.6271   20.0924 H   0  0  0  0  0  0
  -26.7115  -32.5515   23.1135 H   0  0  0  0  0  0
  -25.0064  -33.9774   25.0464 H   0  0  0  0  0  0
  -22.6948  -31.3082   21.4097 H   0  0  0  0  0  0
  -23.3747  -35.9653   23.3315 H   0  0  0  0  0  0
  -24.3582  -36.8919   22.2051 H   0  0  0  0  0  0
  -23.7247  -37.6526   23.6644 H   0  0  0  0  0  0
  -26.0483  -31.5868   20.5916 H   0  0  0  0  0  0
  -26.8237  -30.8790   21.9802 H   0  0  0  0  0  0
  -28.1002  -29.0824   21.1501 H   0  0  0  0  0  0
  -25.9928  -25.9414   19.0476 H   0  0  0  0  0  0
  -23.9643  -27.2828   19.0594 H   0  0  0  0  0  0
  -23.7290  -30.5984   19.4056 H   0  0  0  0  0  0
  -22.7347  -29.2490   19.8638 H   0  0  0  0  0  0
  -25.1292  -36.1976   25.0827 H   0  0  0  0  0  0
  -20.9964  -28.3229   24.1439 H   0  0  0  0  0  0
  -20.5682  -26.2270   23.3602 H   0  0  0  0  0  0
  -21.6638  -26.7453   22.1203 H   0  0  0  0  0  0
  -19.6909  -25.6306   21.1235 H   0  0  0  0  0  0
  -19.6690  -27.3208   20.6752 H   0  0  0  0  0  0
  -17.4197  -26.6685   21.4024 H   0  0  0  0  0  0
  -18.0322  -26.0074   22.9021 H   0  0  0  0  0  0
  -19.7927  -30.7267   24.2281 H   0  0  0  0  0  0
  -17.5007  -31.6264   24.5170 H   0  0  0  0  0  0
  -15.5346  -30.2992   23.7644 H   0  0  0  0  0  0
  -15.8671  -28.0840   22.7031 H   0  0  0  0  0  0
  -24.5918  -30.7030   25.7789 H   0  0  0  0  0  0
  -24.8903  -32.2845   26.4906 H   0  0  0  0  0  0
  -25.8089  -30.8869   27.0216 H   0  0  0  0  0  0
  -26.2827  -29.6818   24.1136 H   0  0  0  0  0  0
  -27.4071  -29.7268   25.4524 H   0  0  0  0  0  0
  -27.8659  -30.4370   23.9218 H   0  0  0  0  0  0
  -27.2684  -33.3604   26.2078 H   0  0  0  0  0  0
  -28.3853  -32.6872   25.0299 H   0  0  0  0  0  0
  -28.0724  -31.8411   26.5374 H   0  0  0  0  0  0
  -28.2608  -38.0103   24.7506 H   0  0  0  0  0  0
  -28.1070  -36.2639   24.6303 H   0  0  0  0  0  0
  -27.2299  -37.1481   25.8866 H   0  0  0  0  0  0
  -20.9303  -29.8766   21.6953 H   0  0  0  0  0  0
  -26.0190  -38.2876   24.1399 H   0  0  0  0  0  0
  -28.1898  -25.5360   22.3014 H   0  0  0  0  0  0
  -28.5383  -22.6451   19.1300 H   0  0  0  0  0  0
  -27.8998  -24.8859   24.5376 H   0  0  0  0  0  0
  -28.7222  -23.3856   24.9627 H   0  0  0  0  0  0
  -26.9665  -23.4066   24.7541 H   0  0  0  0  0  0
  -28.0832  -20.3255   19.5419 H   0  0  0  0  0  0
  -27.3181  -19.8970   21.0329 H   0  0  0  0  0  0
  -27.9085  -25.1911   18.7025 H   0  0  0  0  0  0
  -29.5525  -25.2773   19.1922 H   0  0  0  0  0  0
  -29.7109  -19.5660   22.0257 H   0  0  0  0  0  0
  -30.3096  -19.7235   20.4013 H   0  0  0  0  0  0
  -28.8918  -17.7299   19.7249 H   0  0  0  0  0  0
  -28.2684  -17.6326   21.3494 H   0  0  0  0  0  0
  -30.6213  -17.1351   22.1912 H   0  0  0  0  0  0
  -31.1854  -17.1516   20.5389 H   0  0  0  0  0  0
  -29.0223  -15.2595   21.3943 H   0  0  0  0  0  0
  1 25  1  0  0  0
  1 30  2  0  0  0
  1 83  1  0  0  0
  2  3  1  0  0  0
  2 25  1  0  0  0
  2 85  1  0  0  0
  2 86  1  0  0  0
  3  4  1  0  0  0
  3 87  1  0  0  0
  3 88  1  0  0  0
  4  5  1  0  0  0
  4 89  1  0  0  0
  4 90  1  0  0  0
  5  6  1  0  0  0
  5 26  1  0  0  0
  5 91  1  0  0  0
  6 25  1  0  0  0
  6 92  1  0  0  0
  6 93  1  0  0  0
  7  8  2  0  0  0
  7 26  1  0  0  0
  7 29  1  0  0  0
  8  9  1  0  0  0
  8 22  1  0  0  0
  9 10  1  0  0  0
  9 27  2  0  0  0
 10 11  2  0  0  0
 10 15  1  0  0  0
 11 12  1  0  0  0
 11 94  1  0  0  0
 12 13  2  0  0  0
 12 95  1  0  0  0
 13 14  1  0  0  0
 13 31  1  0  0  0
 14 15  2  0  0  0
 14 96  1  0  0  0
 15 97  1  0  0  0
 16 17  2  0  0  0
 16 21  1  0  0  0
 16 31  1  0  0  0
 17 18  1  0  0  0
 17 98  1  0  0  0
 18 19  2  0  0  0
 18 99  1  0  0  0
 19 20  1  0  0  0
 19 24  1  0  0  0
 20 21  2  0  0  0
 20100  1  0  0  0
 21 23  1  0  0  0
 22 28  1  0  0  0
 22 32  2  0  0  0
 26 27  1  0  0  0
 28101  1  0  0  0
 28102  1  0  0  0
 29103  1  0  0  0
 29104  1  0  0  0
 33 34  1  0  0  0
 33 66  1  0  0  0
 33 70  2  0  0  0
 34 36  1  0  0  0
 34 59  1  0  0  0
 34105  1  0  0  0
 35 44  2  0  0  0
 35 45  1  0  0  0
 35 68  1  0  0  0
 36 56  1  0  0  0
 36106  1  0  0  0
 37 39  1  0  0  0
 37 47  1  0  0  0
 37 66  1  0  0  0
 37107  1  0  0  0
 38 43  2  0  0  0
 38 46  1  0  0  0
 38 47  1  0  0  0
 39 64  1  0  0  0
 39 67  2  0  0  0
 40 52  1  0  0  0
 40 53  2  0  0  0
 40 58  1  0  0  0
 41108  1  0  0  0
 41109  1  0  0  0
 41110  1  0  0  0
 41 48  1  0  0  0
 42 43  1  0  0  0
 42 66  1  0  0  0
 42111  1  0  0  0
 42112  1  0  0  0
 43 44  1  0  0  0
 44113  1  0  0  0
 45 46  2  0  0  0
 45114  1  0  0  0
 46115  1  0  0  0
 47116  1  0  0  0
 47117  1  0  0  0
 48 56  1  0  0  0
 48 65  1  0  0  0
 48118  1  0  0  0
 49 50  1  0  0  0
 49 53  1  0  0  0
 49 64  1  0  0  0
 49119  1  0  0  0
 50 51  1  0  0  0
 50120  1  0  0  0
 50121  1  0  0  0
 51 52  1  0  0  0
 51122  1  0  0  0
 51123  1  0  0  0
 52124  1  0  0  0
 52125  1  0  0  0
 53 54  1  0  0  0
 54 55  2  0  0  0
 54126  1  0  0  0
 55 57  1  0  0  0
 55127  1  0  0  0
 56 69  2  0  0  0
 57 58  2  0  0  0
 57128  1  0  0  0
 58129  1  0  0  0
 59 60  1  0  0  0
 59 61  1  0  0  0
 59 62  1  0  0  0
 60130  1  0  0  0
 60131  1  0  0  0
 60132  1  0  0  0
 61133  1  0  0  0
 61134  1  0  0  0
 61135  1  0  0  0
 62136  1  0  0  0
 62137  1  0  0  0
 62138  1  0  0  0
 63 65  1  0  0  0
 63139  1  0  0  0
 63140  1  0  0  0
 63141  1  0  0  0
 64142  1  0  0  0
 65143  1  0  0  0
 68 79  1  0  0  0
 71 73  2  0  0  0
 71 74  1  0  0  0
 71144  1  0  0  0
 72 73  1  0  0  0
 72 75  2  0  0  0
 72145  1  0  0  0
 73 79  1  0  0  0
 74 76  2  0  0  0
 74 77  1  0  0  0
 75 76  1  0  0  0
 75 78  1  0  0  0
 76 84  1  0  0  0
 77146  1  0  0  0
 77147  1  0  0  0
 77148  1  0  0  0
 78 80  1  0  0  0
 78149  1  0  0  0
 78150  1  0  0  0
 79151  1  0  0  0
 79152  1  0  0  0
 80 81  1  0  0  0
 80153  1  0  0  0
 80154  1  0  0  0
 81 82  1  0  0  0
 81155  1  0  0  0
 81156  1  0  0  0
 82 83  1  0  0  0
 82157  1  0  0  0
 82158  1  0  0  0
 83159  1  0  0  0
M  ISO  4   1 100  68 101  79 101  83 100
M  END
> <chiral flag>
0

> <version>
0

> <s_m_source_file>
/data/baiqing/PycharmProjects/Reinvent-master-3.2/result/LINK_invent/BTK/process_docking_weight1_custom_sum_contain_oxygen_bond_distance_aromatic_linkinvent_7_9_3/rearranged_h_0033.sdf

> <i_m_source_file_index>
94

> <r_mmod_Potential_Energy-OPLS-2005>
-51.5427284240723

> <r_mmod_Stretch_Energy-OPLS-2005>
43.2519378662109

> <r_mmod_Bend_Energy-OPLS-2005>
104.859344482422

> <r_mmod_Torsional_Energy-OPLS-2005>
195.031158447266

> <r_mmod_Improper_Torsional_Energy-OPLS-2005>
3.69330525398254

> <r_mmod_Van_der_Waal_Energy-OPLS-2005>
147.927627563477

> <r_mmod_Electrostatic_Energy-OPLS-2005>
-362.503997802734

> <r_mmod_Solvation_Energy-OPLS-2005>
-199.521987915039

> <b_mmod_Minimization_Converged-OPLS-2005>
0

> <r_mmod_RMS_Derivative-OPLS-2005>
0.731451988220215

$$$$
95
                    3D
 Structure written by MMmdl.
158166  0  0  1  0            999 V2000
  -30.7478  -14.3923   20.6665 C   0  0  0  0  0  0
  -30.4207  -12.3027   19.3922 C   0  0  0  0  0  0
  -29.4832  -12.5194   18.1889 C   0  0  0  0  0  0
  -28.0070  -12.3744   18.6056 C   0  0  0  0  0  0
  -27.6625  -13.2014   19.8724 C   0  0  2  0  0  0
  -28.7029  -12.9470   20.9845 C   0  0  0  0  0  0
  -25.2585  -13.8149   20.5663 C   0  0  0  0  0  0
  -24.1834  -13.0429   20.9151 C   0  0  0  0  0  0
  -24.6383  -11.6896   20.8707 C   0  0  0  0  0  0
  -23.9049  -10.4284   21.0379 C   0  0  0  0  0  0
  -24.3607   -9.4204   21.9157 C   0  0  0  0  0  0
  -23.6287   -8.2243   22.0742 C   0  0  0  0  0  0
  -22.4268   -8.0273   21.3538 C   0  0  0  0  0  0
  -21.9899   -9.0236   20.4635 C   0  0  0  0  0  0
  -22.7219  -10.2119   20.3031 C   0  0  0  0  0  0
  -21.6851   -6.0725   22.5282 C   0  0  0  0  0  0
  -21.4015   -6.5633   23.8214 C   0  0  0  0  0  0
  -21.3661   -5.6791   24.9179 C   0  0  0  0  0  0
  -21.6046   -4.3055   24.7235 C   0  0  0  0  0  0
  -21.8818   -3.8139   23.4358 C   0  0  0  0  0  0
  -21.9192   -4.6953   22.3409 C   0  0  0  0  0  0
  -22.7858  -13.5224   21.1831 C   0  0  0  0  0  0
  -22.1655   -4.2135   21.0987 F   0  0  0  0  0  0
  -21.5635   -3.4543   25.7751 F   0  0  0  0  0  0
  -30.0391  -13.2549   20.4441 N   0  0  0  0  0  0
  -26.3022  -12.9318   20.3342 N   0  0  0  0  0  0
  -25.9308  -11.6479   20.5728 N   0  0  0  0  0  0
  -22.0515  -12.8203   22.0401 N   0  0  0  0  0  0
  -25.4300  -15.1873   20.4096 N   0  0  0  0  0  0
  -31.8057  -14.6554   20.0854 O   0  0  0  0  0  0
  -21.6638   -6.8866   21.4240 O   0  0  0  0  0  0
  -22.3531  -14.5516   20.6676 O   0  0  0  0  0  0
  -24.6101  -31.8684   23.2063 C   0  0  0  0  0  0
  -25.8999  -32.4829   23.8352 C   0  0  1  0  0  0
  -27.2359  -27.4509   20.1014 C   0  0  0  0  0  0
  -25.5835  -33.8615   24.2273 N   0  0  0  0  0  0
  -23.3975  -30.4883   21.5487 C   0  0  2  0  0  0
  -24.8450  -28.9500   20.1194 C   0  0  0  0  0  0
  -22.7389  -29.4651   22.5014 C   0  0  0  0  0  0
  -18.0261  -28.1386   22.8508 C   0  0  0  0  0  0
  -24.1508  -36.7327   23.2652 C   0  0  0  0  0  0
  -25.9227  -30.8407   21.3542 C   0  0  0  0  0  0
  -26.0038  -29.4745   20.7066 C   0  0  0  0  0  0
  -27.2047  -28.7335   20.6890 C   0  0  0  0  0  0
  -26.0616  -26.9286   19.5210 C   0  0  0  0  0  0
  -24.8672  -27.6748   19.5251 C   0  0  0  0  0  0
  -23.6041  -29.8119   20.1666 C   0  0  0  0  0  0
  -25.4130  -36.3112   24.0339 C   0  0  1  0  0  0
  -20.5843  -28.3664   23.1333 C   0  0  2  0  0  0
  -20.6744  -26.9402   22.5421 C   0  0  0  0  0  0
  -19.5721  -26.6389   21.5220 C   0  0  0  0  0  0
  -18.1900  -26.7932   22.1631 C   0  0  0  0  0  0
  -19.1511  -28.8850   23.2905 C   0  0  0  0  0  0
  -18.9441  -30.1467   23.8897 C   0  0  0  0  0  0
  -17.6442  -30.6594   24.0578 C   0  0  0  0  0  0
  -25.9043  -34.9483   23.5121 C   0  0  0  0  0  0
  -16.5335  -29.9090   23.6350 C   0  0  0  0  0  0
  -16.7250  -28.6510   23.0367 C   0  0  0  0  0  0
  -26.4435  -31.6622   25.0684 C   0  0  0  0  0  0
  -25.3700  -31.3727   26.1438 C   0  0  0  0  0  0
  -27.0288  -30.3078   24.6050 C   0  0  0  0  0  0
  -27.5980  -32.4386   25.7440 C   0  0  0  0  0  0
  -27.5599  -37.1811   24.8465 C   0  0  0  0  0  0
  -21.4124  -29.3028   22.3746 N   0  0  0  0  0  0
  -26.4321  -37.3793   23.9398 N   0  0  0  0  0  0
  -24.6614  -31.0803   22.0953 N   0  0  0  0  0  0
  -23.4172  -28.8205   23.3055 O   0  0  0  0  0  0
  -28.4129  -26.7413   20.0811 O   0  0  0  0  0  0
  -26.5646  -34.8937   22.4704 O   0  0  0  0  0  0
  -23.5303  -32.1423   23.7485 O   0  0  0  0  0  0
  -28.1892  -22.9767   20.6050 C   0  0  0  0  0  0
  -28.2624  -22.8917   17.8743 C   0  0  0  0  0  0
  -28.3006  -24.2060   19.9128 C   0  0  0  0  0  0
  -28.3627  -24.1524   18.4944 C   0  0  0  0  0  0
  -28.1301  -21.7658   19.8896 C   0  0  0  0  0  0
  -28.3958  -25.4814   20.7601 C   0  0  0  0  0  0
  -28.0714  -20.4196   20.6009 C   0  0  0  0  0  0
  -29.4307  -19.6903   20.6003 C   0  0  0  0  0  0
  -29.4066  -18.3044   21.2796 C   0  0  0  0  0  0
  -30.8088  -17.6644   21.3388 C   0  0  0  0  0  0
  -30.9077  -16.3735   22.1787 C   0  0  0  0  0  0
  -28.1488  -21.7235   18.5430 N   0  0  0  0  0  0
  -30.2326  -15.2174   21.5885 N   0  0  0  0  0  0
  -28.5824  -25.5369   17.4795 Cl  0  0  0  0  0  0
  -31.4622  -12.4155   19.0845 H   0  0  0  0  0  0
  -30.3348  -11.2822   19.7695 H   0  0  0  0  0  0
  -29.7177  -11.8059   17.3977 H   0  0  0  0  0  0
  -29.6485  -13.5123   17.7668 H   0  0  0  0  0  0
  -27.8160  -11.3161   18.7889 H   0  0  0  0  0  0
  -27.3544  -12.6624   17.7808 H   0  0  0  0  0  0
  -27.7172  -14.2542   19.5930 H   0  0  0  0  0  0
  -28.6781  -11.8995   21.2882 H   0  0  0  0  0  0
  -28.4489  -13.5114   21.8819 H   0  0  0  0  0  0
  -25.2761   -9.5686   22.4714 H   0  0  0  0  0  0
  -24.0003   -7.4638   22.7459 H   0  0  0  0  0  0
  -21.0835   -8.8739   19.8939 H   0  0  0  0  0  0
  -22.3669  -10.9646   19.6132 H   0  0  0  0  0  0
  -21.2000   -7.6141   23.9714 H   0  0  0  0  0  0
  -21.1489   -6.0525   25.9082 H   0  0  0  0  0  0
  -22.0594   -2.7601   23.2871 H   0  0  0  0  0  0
  -22.4166  -11.9883   22.4798 H   0  0  0  0  0  0
  -21.1123  -13.1198   22.2603 H   0  0  0  0  0  0
  -24.6654  -15.8434   20.5230 H   0  0  0  0  0  0
  -26.2881  -15.6294   20.1048 H   0  0  0  0  0  0
  -26.7075  -32.5573   23.1122 H   0  0  0  0  0  0
  -24.9896  -33.9749   25.0356 H   0  0  0  0  0  0
  -22.6853  -31.3034   21.4049 H   0  0  0  0  0  0
  -23.3765  -35.9667   23.3312 H   0  0  0  0  0  0
  -24.3598  -36.8950   22.2065 H   0  0  0  0  0  0
  -23.7275  -37.6526   23.6691 H   0  0  0  0  0  0
  -26.0312  -31.6063   20.5846 H   0  0  0  0  0  0
  -26.8108  -30.8970   21.9719 H   0  0  0  0  0  0
  -28.1047  -29.1344   21.1338 H   0  0  0  0  0  0
  -26.0718  -25.9525   19.0581 H   0  0  0  0  0  0
  -23.9751  -27.2606   19.0755 H   0  0  0  0  0  0
  -23.7063  -30.5809   19.4002 H   0  0  0  0  0  0
  -22.7294  -29.2247   19.8800 H   0  0  0  0  0  0
  -25.1317  -36.1969   25.0834 H   0  0  0  0  0  0
  -20.9930  -28.3240   24.1454 H   0  0  0  0  0  0
  -20.5670  -26.2271   23.3609 H   0  0  0  0  0  0
  -21.6615  -26.7454   22.1204 H   0  0  0  0  0  0
  -19.6875  -25.6303   21.1234 H   0  0  0  0  0  0
  -19.6653  -27.3223   20.6767 H   0  0  0  0  0  0
  -17.4160  -26.6709   21.4028 H   0  0  0  0  0  0
  -18.0281  -26.0067   22.9016 H   0  0  0  0  0  0
  -19.7920  -30.7304   24.2235 H   0  0  0  0  0  0
  -17.4993  -31.6274   24.5181 H   0  0  0  0  0  0
  -15.5337  -30.2992   23.7678 H   0  0  0  0  0  0
  -15.8647  -28.0840   22.7075 H   0  0  0  0  0  0
  -24.5833  -30.7128   25.7761 H   0  0  0  0  0  0
  -24.8938  -32.2898   26.4923 H   0  0  0  0  0  0
  -25.8024  -30.8841   27.0179 H   0  0  0  0  0  0
  -26.2826  -29.6806   24.1159 H   0  0  0  0  0  0
  -27.4137  -29.7340   25.4487 H   0  0  0  0  0  0
  -27.8615  -30.4400   23.9137 H   0  0  0  0  0  0
  -27.2536  -33.3666   26.2022 H   0  0  0  0  0  0
  -28.3754  -32.7005   25.0248 H   0  0  0  0  0  0
  -28.0706  -31.8544   26.5344 H   0  0  0  0  0  0
  -28.2607  -38.0122   24.7542 H   0  0  0  0  0  0
  -28.1107  -36.2649   24.6270 H   0  0  0  0  0  0
  -27.2312  -37.1436   25.8867 H   0  0  0  0  0  0
  -20.9293  -29.8739   21.6955 H   0  0  0  0  0  0
  -26.0216  -38.2876   24.1372 H   0  0  0  0  0  0
  -28.1693  -22.9644   21.6864 H   0  0  0  0  0  0
  -28.2945  -22.8155   16.7978 H   0  0  0  0  0  0
  -29.3232  -25.4176   21.3305 H   0  0  0  0  0  0
  -27.5977  -25.4602   21.5055 H   0  0  0  0  0  0
  -27.3198  -19.8000   20.1105 H   0  0  0  0  0  0
  -27.7276  -20.5660   21.6257 H   0  0  0  0  0  0
  -30.1660  -20.3252   21.0970 H   0  0  0  0  0  0
  -29.7721  -19.5744   19.5713 H   0  0  0  0  0  0
  -28.7188  -17.6440   20.7502 H   0  0  0  0  0  0
  -29.0143  -18.4119   22.2918 H   0  0  0  0  0  0
  -31.4959  -18.3887   21.7790 H   0  0  0  0  0  0
  -31.1832  -17.4814   20.3305 H   0  0  0  0  0  0
  -30.4945  -16.5455   23.1731 H   0  0  0  0  0  0
  -31.9592  -16.1252   22.3371 H   0  0  0  0  0  0
  -29.3567  -14.9330   22.0020 H   0  0  0  0  0  0
  1 25  1  0  0  0
  1 30  2  0  0  0
  1 83  1  0  0  0
  2  3  1  0  0  0
  2 25  1  0  0  0
  2 85  1  0  0  0
  2 86  1  0  0  0
  3  4  1  0  0  0
  3 87  1  0  0  0
  3 88  1  0  0  0
  4  5  1  0  0  0
  4 89  1  0  0  0
  4 90  1  0  0  0
  5  6  1  0  0  0
  5 26  1  0  0  0
  5 91  1  0  0  0
  6 25  1  0  0  0
  6 92  1  0  0  0
  6 93  1  0  0  0
  7  8  2  0  0  0
  7 26  1  0  0  0
  7 29  1  0  0  0
  8  9  1  0  0  0
  8 22  1  0  0  0
  9 10  1  0  0  0
  9 27  2  0  0  0
 10 11  2  0  0  0
 10 15  1  0  0  0
 11 12  1  0  0  0
 11 94  1  0  0  0
 12 13  2  0  0  0
 12 95  1  0  0  0
 13 14  1  0  0  0
 13 31  1  0  0  0
 14 15  2  0  0  0
 14 96  1  0  0  0
 15 97  1  0  0  0
 16 17  2  0  0  0
 16 21  1  0  0  0
 16 31  1  0  0  0
 17 18  1  0  0  0
 17 98  1  0  0  0
 18 19  2  0  0  0
 18 99  1  0  0  0
 19 20  1  0  0  0
 19 24  1  0  0  0
 20 21  2  0  0  0
 20100  1  0  0  0
 21 23  1  0  0  0
 22 28  1  0  0  0
 22 32  2  0  0  0
 26 27  1  0  0  0
 28101  1  0  0  0
 28102  1  0  0  0
 29103  1  0  0  0
 29104  1  0  0  0
 33 34  1  0  0  0
 33 66  1  0  0  0
 33 70  2  0  0  0
 34 36  1  0  0  0
 34 59  1  0  0  0
 34105  1  0  0  0
 35 44  2  0  0  0
 35 45  1  0  0  0
 35 68  1  0  0  0
 36 56  1  0  0  0
 36106  1  0  0  0
 37 39  1  0  0  0
 37 47  1  0  0  0
 37 66  1  0  0  0
 37107  1  0  0  0
 38 43  2  0  0  0
 38 46  1  0  0  0
 38 47  1  0  0  0
 39 64  1  0  0  0
 39 67  2  0  0  0
 40 52  1  0  0  0
 40 53  2  0  0  0
 40 58  1  0  0  0
 41108  1  0  0  0
 41109  1  0  0  0
 41110  1  0  0  0
 41 48  1  0  0  0
 42 43  1  0  0  0
 42 66  1  0  0  0
 42111  1  0  0  0
 42112  1  0  0  0
 43 44  1  0  0  0
 44113  1  0  0  0
 45 46  2  0  0  0
 45114  1  0  0  0
 46115  1  0  0  0
 47116  1  0  0  0
 47117  1  0  0  0
 48 56  1  0  0  0
 48 65  1  0  0  0
 48118  1  0  0  0
 49 50  1  0  0  0
 49 53  1  0  0  0
 49 64  1  0  0  0
 49119  1  0  0  0
 50 51  1  0  0  0
 50120  1  0  0  0
 50121  1  0  0  0
 51 52  1  0  0  0
 51122  1  0  0  0
 51123  1  0  0  0
 52124  1  0  0  0
 52125  1  0  0  0
 53 54  1  0  0  0
 54 55  2  0  0  0
 54126  1  0  0  0
 55 57  1  0  0  0
 55127  1  0  0  0
 56 69  2  0  0  0
 57 58  2  0  0  0
 57128  1  0  0  0
 58129  1  0  0  0
 59 60  1  0  0  0
 59 61  1  0  0  0
 59 62  1  0  0  0
 60130  1  0  0  0
 60131  1  0  0  0
 60132  1  0  0  0
 61133  1  0  0  0
 61134  1  0  0  0
 61135  1  0  0  0
 62136  1  0  0  0
 62137  1  0  0  0
 62138  1  0  0  0
 63 65  1  0  0  0
 63139  1  0  0  0
 63140  1  0  0  0
 63141  1  0  0  0
 64142  1  0  0  0
 65143  1  0  0  0
 68 76  1  0  0  0
 71 73  2  0  0  0
 71 75  1  0  0  0
 71144  1  0  0  0
 72 74  2  0  0  0
 72 82  1  0  0  0
 72145  1  0  0  0
 73 74  1  0  0  0
 73 76  1  0  0  0
 74 84  1  0  0  0
 75 77  1  0  0  0
 75 82  2  0  0  0
 76146  1  0  0  0
 76147  1  0  0  0
 77 78  1  0  0  0
 77148  1  0  0  0
 77149  1  0  0  0
 78 79  1  0  0  0
 78150  1  0  0  0
 78151  1  0  0  0
 79 80  1  0  0  0
 79152  1  0  0  0
 79153  1  0  0  0
 80 81  1  0  0  0
 80154  1  0  0  0
 80155  1  0  0  0
 81 83  1  0  0  0
 81156  1  0  0  0
 81157  1  0  0  0
 83158  1  0  0  0
M  ISO  4   1 100  68 101  76 101  83 100
M  END
> <chiral flag>
0

> <version>
0

> <s_m_source_file>
/data/baiqing/PycharmProjects/Reinvent-master-3.2/result/LINK_invent/BTK/process_docking_weight1_custom_sum_contain_oxygen_bond_distance_aromatic_linkinvent_7_9_3/rearranged_h_0033.sdf

> <i_m_source_file_index>
95

> <r_mmod_Potential_Energy-OPLS-2005>
-160.934661865234

> <r_mmod_Stretch_Energy-OPLS-2005>
33.2324028015137

> <r_mmod_Bend_Energy-OPLS-2005>
96.378662109375

> <r_mmod_Torsional_Energy-OPLS-2005>
215.270919799805

> <r_mmod_Improper_Torsional_Energy-OPLS-2005>
1.92651605606079

> <r_mmod_Van_der_Waal_Energy-OPLS-2005>
150.465148925781

> <r_mmod_Electrostatic_Energy-OPLS-2005>
-450.234313964844

> <r_mmod_Solvation_Energy-OPLS-2005>
-215.783737182617

> <b_mmod_Minimization_Converged-OPLS-2005>
0

> <r_mmod_RMS_Derivative-OPLS-2005>
1.63085091114044

$$$$
96
                    3D
 Structure written by MMmdl.
181189  0  0  1  0            999 V2000
  -30.4541  -14.6723   20.4402 C   0  0  0  0  0  0
  -30.4218  -12.3937   19.4506 C   0  0  0  0  0  0
  -29.4923  -12.4935   18.2182 C   0  0  0  0  0  0
  -28.0125  -12.3213   18.6245 C   0  0  0  0  0  0
  -27.6316  -13.1812   19.8577 C   0  0  2  0  0  0
  -28.6641  -13.0085   20.9844 C   0  0  0  0  0  0
  -25.2483  -13.8064   20.5645 C   0  0  0  0  0  0
  -24.1737  -13.0381   20.9191 C   0  0  0  0  0  0
  -24.6269  -11.6840   20.8761 C   0  0  0  0  0  0
  -23.8957  -10.4250   21.0441 C   0  0  0  0  0  0
  -24.3541   -9.4175   21.9207 C   0  0  0  0  0  0
  -23.6244   -8.2198   22.0757 C   0  0  0  0  0  0
  -22.4230   -8.0235   21.3541 C   0  0  0  0  0  0
  -21.9848   -9.0201   20.4646 C   0  0  0  0  0  0
  -22.7148  -10.2094   20.3073 C   0  0  0  0  0  0
  -21.6830   -6.0703   22.5278 C   0  0  0  0  0  0
  -21.3995   -6.5619   23.8209 C   0  0  0  0  0  0
  -21.3654   -5.6781   24.9177 C   0  0  0  0  0  0
  -21.6048   -4.3044   24.7236 C   0  0  0  0  0  0
  -21.8820   -3.8127   23.4359 C   0  0  0  0  0  0
  -21.9185   -4.6935   22.3411 C   0  0  0  0  0  0
  -22.7791  -13.5230   21.1869 C   0  0  0  0  0  0
  -22.1656   -4.2121   21.0989 F   0  0  0  0  0  0
  -21.5636   -3.4534   25.7753 F   0  0  0  0  0  0
  -29.9582  -13.3992   20.4278 N   0  0  0  0  0  0
  -26.2825  -12.9157   20.3257 N   0  0  0  0  0  0
  -25.9164  -11.6357   20.5743 N   0  0  0  0  0  0
  -22.0422  -12.8244   22.0427 N   0  0  0  0  0  0
  -25.4267  -15.1772   20.4031 N   0  0  0  0  0  0
  -31.6192  -14.8725   20.0687 O   0  0  0  0  0  0
  -21.6605   -6.8830   21.4234 O   0  0  0  0  0  0
  -22.3511  -14.5551   20.6718 O   0  0  0  0  0  0
  -24.7337  -31.7780   23.2718 C   0  0  0  0  0  0
  -25.9681  -32.4768   23.8662 C   0  0  1  0  0  0
  -26.5978  -28.0663   20.7604 C   0  0  0  0  0  0
  -25.6053  -33.8527   24.2367 N   0  0  0  0  0  0
  -23.5393  -29.8215   21.9595 C   0  0  2  0  0  0
  -24.9615  -28.8352   19.1288 C   0  0  0  0  0  0
  -22.8743  -29.0581   22.9609 C   0  0  0  0  0  0
  -18.1109  -27.9004   22.7796 C   0  0  0  0  0  0
  -24.1472  -36.7283   23.2610 C   0  0  0  0  0  0
  -26.3082  -30.9637   21.1652 C   0  0  0  0  0  0
  -26.3151  -29.8223   19.6072 C   0  0  0  0  0  0
  -27.3336  -28.9547   20.0248 C   0  0  0  0  0  0
  -26.1649  -27.0393   19.8800 C   0  0  0  0  0  0
  -25.2165  -27.4836   18.9621 C   0  0  0  0  0  0
  -23.4993  -28.7169   20.3163 C   0  0  0  0  0  0
  -25.4070  -36.3027   24.0315 C   0  0  1  0  0  0
  -20.7484  -27.9820   23.4424 C   0  0  2  0  0  0
  -20.7259  -26.6022   22.7611 C   0  0  0  0  0  0
  -19.6136  -26.3061   21.7498 C   0  0  0  0  0  0
  -18.2128  -26.5029   22.2921 C   0  0  0  0  0  0
  -19.4356  -28.6366   23.5298 C   0  0  0  0  0  0
  -19.3718  -30.2842   23.9521 C   0  0  0  0  0  0
  -17.9940  -31.1803   23.5458 C   0  0  0  0  0  0
  -25.9046  -34.9384   23.5124 C   0  0  0  0  0  0
  -16.7017  -30.4328   22.7737 C   0  0  0  0  0  0
  -16.7513  -28.8044   22.4050 C   0  0  0  0  0  0
  -26.4911  -31.6629   25.1051 C   0  0  0  0  0  0
  -25.4098  -31.3756   26.1769 C   0  0  0  0  0  0
  -27.0862  -30.3068   24.6491 C   0  0  0  0  0  0
  -27.6327  -32.4460   25.7834 C   0  0  0  0  0  0
  -27.5533  -37.1824   24.8468 C   0  0  0  0  0  0
  -21.5929  -28.8547   22.7029 N   0  0  0  0  0  0
  -26.4235  -37.3733   23.9420 N   0  0  0  0  0  0
  -24.9220  -30.8570   22.2952 N   0  0  0  0  0  0
  -23.5220  -28.5689   23.8564 O   0  0  0  0  0  0
  -25.4807  -28.9253   21.2441 O   0  0  0  0  0  0
  -26.5625  -34.8818   22.4706 O   0  0  0  0  0  0
  -23.6183  -32.0523   23.7406 O   0  0  0  0  0  0
  -18.6841  -29.0862   20.4535 C   0  0  0  0  0  0
  -20.0110  -30.7729   21.3831 C   0  0  0  0  0  0
  -19.6688  -28.8943   19.4053 C   0  0  0  0  0  0
  -21.0270  -30.7040   20.2699 C   0  0  0  0  0  0
  -18.7696  -29.9014   21.7066 C   0  0  0  0  0  0
  -20.6557  -29.8675   19.2030 C   0  0  0  0  0  0
  -19.8225  -27.5322   18.5954 C   0  0  0  0  0  0
  -22.5187  -31.4656   20.0944 C   0  0  0  0  0  0
  -29.5392  -15.9250   20.8545 C   0  0  0  0  0  0
  -21.2056  -26.7018   18.8115 C   0  0  0  0  0  0
  -28.7698  -16.8393   19.7709 C   0  0  0  0  0  0
  -21.3848  -25.1417   18.5026 C   0  0  0  0  0  0
  -27.7722  -17.9828   20.3055 C   0  0  0  0  0  0
  -22.6181  -24.3822   19.2051 C   0  0  0  0  0  0
  -26.9293  -18.8840   19.2795 C   0  0  0  0  0  0
  -23.1713  -22.9781   18.6574 C   0  0  0  0  0  0
  -25.9974  -20.0528   19.8664 C   0  0  0  0  0  0
  -24.2673  -22.1816   19.5229 C   0  0  0  0  0  0
  -25.0682  -20.9355   18.8990 C   0  0  0  0  0  0
  -24.2214  -30.8816   20.0251 C   0  0  0  0  0  0
  -17.3990  -29.1594   24.6931 Cl  0  0  0  0  0  0
  -21.5459  -29.8960   17.7114 Cl  0  0  0  0  0  0
  -31.4625  -12.5449   19.1600 H   0  0  0  0  0  0
  -30.3754  -11.3934   19.8843 H   0  0  0  0  0  0
  -29.7654  -11.7418   17.4768 H   0  0  0  0  0  0
  -29.6256  -13.4619   17.7337 H   0  0  0  0  0  0
  -27.8512  -11.2666   18.8502 H   0  0  0  0  0  0
  -27.3580  -12.5531   17.7838 H   0  0  0  0  0  0
  -27.6482  -14.2112   19.5238 H   0  0  0  0  0  0
  -28.6924  -11.9692   21.3155 H   0  0  0  0  0  0
  -28.3958  -13.5789   21.8721 H   0  0  0  0  0  0
  -25.2679   -9.5658   22.4788 H   0  0  0  0  0  0
  -23.9951   -7.4582   22.7471 H   0  0  0  0  0  0
  -21.0779   -8.8702   19.8952 H   0  0  0  0  0  0
  -22.3596  -10.9632   19.6188 H   0  0  0  0  0  0
  -21.1974   -7.6126   23.9703 H   0  0  0  0  0  0
  -21.1483   -6.0516   25.9081 H   0  0  0  0  0  0
  -22.0609   -2.7589   23.2872 H   0  0  0  0  0  0
  -22.4007  -11.9889   22.4807 H   0  0  0  0  0  0
  -21.1056  -13.1308   22.2641 H   0  0  0  0  0  0
  -24.6630  -15.8365   20.5040 H   0  0  0  0  0  0
  -26.2873  -15.6104   20.0936 H   0  0  0  0  0  0
  -26.7768  -32.5158   23.1384 H   0  0  0  0  0  0
  -25.0027  -33.9643   25.0400 H   0  0  0  0  0  0
  -22.7915  -30.5804   22.0889 H   0  0  0  0  0  0
  -23.3691  -35.9665   23.3258 H   0  0  0  0  0  0
  -24.3573  -36.8915   22.2031 H   0  0  0  0  0  0
  -23.7276  -37.6510   23.6630 H   0  0  0  0  0  0
  -26.5049  -31.9978   20.8718 H   0  0  0  0  0  0
  -27.1851  -30.7272   21.7657 H   0  0  0  0  0  0
  -28.2250  -29.3641   20.4834 H   0  0  0  0  0  0
  -26.4345  -26.0010   20.0086 H   0  0  0  0  0  0
  -24.5636  -26.8021   18.4344 H   0  0  0  0  0  0
  -22.5906  -28.7209   19.7779 H   0  0  0  0  0  0
  -23.4783  -27.6911   20.6939 H   0  0  0  0  0  0
  -25.1230  -36.1873   25.0801 H   0  0  0  0  0  0
  -21.1208  -27.8704   24.4642 H   0  0  0  0  0  0
  -20.5963  -25.8661   23.5555 H   0  0  0  0  0  0
  -21.7007  -26.3676   22.3289 H   0  0  0  0  0  0
  -19.7165  -25.2925   21.3641 H   0  0  0  0  0  0
  -19.7627  -26.9560   20.9351 H   0  0  0  0  0  0
  -17.4587  -26.2970   21.5308 H   0  0  0  0  0  0
  -18.0216  -25.8253   23.1227 H   0  0  0  0  0  0
  -20.2303  -30.7699   24.3956 H   0  0  0  0  0  0
  -17.9557  -32.2367   23.7725 H   0  0  0  0  0  0
  -15.8278  -31.0133   22.5138 H   0  0  0  0  0  0
  -15.9156  -28.3378   21.9029 H   0  0  0  0  0  0
  -24.6415  -30.6830   25.8317 H   0  0  0  0  0  0
  -24.9102  -32.2890   26.4993 H   0  0  0  0  0  0
  -25.8491  -30.9253   27.0675 H   0  0  0  0  0  0
  -26.3456  -29.6450   24.1989 H   0  0  0  0  0  0
  -27.5103  -29.7587   25.4917 H   0  0  0  0  0  0
  -27.8917  -30.4444   23.9280 H   0  0  0  0  0  0
  -27.2793  -33.3757   26.2294 H   0  0  0  0  0  0
  -28.4190  -32.7025   25.0730 H   0  0  0  0  0  0
  -28.0920  -31.8676   26.5859 H   0  0  0  0  0  0
  -28.2561  -38.0100   24.7414 H   0  0  0  0  0  0
  -28.0994  -36.2624   24.6355 H   0  0  0  0  0  0
  -27.2274  -37.1561   25.8879 H   0  0  0  0  0  0
  -21.1790  -29.3294   21.9114 H   0  0  0  0  0  0
  -26.0093  -38.2802   24.1398 H   0  0  0  0  0  0
  -17.9251  -28.3284   20.3703 H   0  0  0  0  0  0
  -20.3238  -31.4890   22.1264 H   0  0  0  0  0  0
  -19.6952  -27.7499   17.5352 H   0  0  0  0  0  0
  -18.9767  -26.8902   18.8407 H   0  0  0  0  0  0
  -22.4925  -32.2519   20.8533 H   0  0  0  0  0  0
  -22.3881  -32.0603   19.1897 H   0  0  0  0  0  0
  -28.8186  -15.6218   21.6078 H   0  0  0  0  0  0
  -30.2060  -16.5929   21.3999 H   0  0  0  0  0  0
  -21.5003  -26.7909   19.8508 H   0  0  0  0  0  0
  -21.9969  -27.2158   18.2668 H   0  0  0  0  0  0
  -28.2063  -16.2058   19.0905 H   0  0  0  0  0  0
  -29.5185  -17.3150   19.1367 H   0  0  0  0  0  0
  -21.4592  -25.0118   17.4222 H   0  0  0  0  0  0
  -20.4659  -24.6335   18.7944 H   0  0  0  0  0  0
  -28.3538  -18.6571   20.9353 H   0  0  0  0  0  0
  -27.0567  -17.5165   20.9837 H   0  0  0  0  0  0
  -22.3488  -24.2471   20.2529 H   0  0  0  0  0  0
  -23.4645  -25.0646   19.2293 H   0  0  0  0  0  0
  -26.3055  -18.2207   18.6786 H   0  0  0  0  0  0
  -27.6290  -19.3305   18.5727 H   0  0  0  0  0  0
  -23.5810  -23.1481   17.6607 H   0  0  0  0  0  0
  -22.3191  -22.3135   18.5100 H   0  0  0  0  0  0
  -26.6437  -20.7361   20.4179 H   0  0  0  0  0  0
  -25.3469  -19.6048   20.6189 H   0  0  0  0  0  0
  -23.7697  -21.8323   20.4285 H   0  0  0  0  0  0
  -25.0093  -22.9006   19.8718 H   0  0  0  0  0  0
  -24.3492  -20.2683   18.4204 H   0  0  0  0  0  0
  -25.6888  -21.3143   18.0861 H   0  0  0  0  0  0
  -24.5916  -31.9076   20.1190 H   0  0  0  0  0  0
  -24.3084  -30.9529   18.9308 H   0  0  0  0  0  0
  1 25  1  0  0  0
  1 30  2  0  0  0
  1 79  1  0  0  0
  2  3  1  0  0  0
  2 25  1  0  0  0
  2 93  1  0  0  0
  2 94  1  0  0  0
  3  4  1  0  0  0
  3 95  1  0  0  0
  3 96  1  0  0  0
  4  5  1  0  0  0
  4 97  1  0  0  0
  4 98  1  0  0  0
  5  6  1  0  0  0
  5 26  1  0  0  0
  5 99  1  0  0  0
  6 25  1  0  0  0
  6100  1  0  0  0
  6101  1  0  0  0
  7  8  2  0  0  0
  7 26  1  0  0  0
  7 29  1  0  0  0
  8  9  1  0  0  0
  8 22  1  0  0  0
  9 10  1  0  0  0
  9 27  2  0  0  0
 10 11  2  0  0  0
 10 15  1  0  0  0
 11 12  1  0  0  0
 11102  1  0  0  0
 12 13  2  0  0  0
 12103  1  0  0  0
 13 14  1  0  0  0
 13 31  1  0  0  0
 14 15  2  0  0  0
 14104  1  0  0  0
 15105  1  0  0  0
 16 17  2  0  0  0
 16 21  1  0  0  0
 16 31  1  0  0  0
 17 18  1  0  0  0
 17106  1  0  0  0
 18 19  2  0  0  0
 18107  1  0  0  0
 19 20  1  0  0  0
 19 24  1  0  0  0
 20 21  2  0  0  0
 20108  1  0  0  0
 21 23  1  0  0  0
 22 28  1  0  0  0
 22 32  2  0  0  0
 26 27  1  0  0  0
 28109  1  0  0  0
 28110  1  0  0  0
 29111  1  0  0  0
 29112  1  0  0  0
 33 34  1  0  0  0
 33 66  1  0  0  0
 33 70  2  0  0  0
 34 36  1  0  0  0
 34 59  1  0  0  0
 34113  1  0  0  0
 35 44  2  0  0  0
 35 45  1  0  0  0
 35 68  1  0  0  0
 36 56  1  0  0  0
 36114  1  0  0  0
 37 39  1  0  0  0
 37 47  1  0  0  0
 37 66  1  0  0  0
 37115  1  0  0  0
 38 43  2  0  0  0
 38 46  1  0  0  0
 38 47  1  0  0  0
 39 64  1  0  0  0
 39 67  2  0  0  0
 40 52  1  0  0  0
 40 53  2  0  0  0
 40 58  1  0  0  0
 41116  1  0  0  0
 41117  1  0  0  0
 41118  1  0  0  0
 41 48  1  0  0  0
 42 43  1  0  0  0
 42 66  1  0  0  0
 42119  1  0  0  0
 42120  1  0  0  0
 43 44  1  0  0  0
 44121  1  0  0  0
 45 46  2  0  0  0
 45122  1  0  0  0
 46123  1  0  0  0
 47124  1  0  0  0
 47125  1  0  0  0
 48 56  1  0  0  0
 48 65  1  0  0  0
 48126  1  0  0  0
 49 50  1  0  0  0
 49 53  1  0  0  0
 49 64  1  0  0  0
 49127  1  0  0  0
 50 51  1  0  0  0
 50128  1  0  0  0
 50129  1  0  0  0
 51 52  1  0  0  0
 51130  1  0  0  0
 51131  1  0  0  0
 52132  1  0  0  0
 52133  1  0  0  0
 53 54  1  0  0  0
 54 55  2  0  0  0
 54134  1  0  0  0
 55 57  1  0  0  0
 55135  1  0  0  0
 56 69  2  0  0  0
 57 58  2  0  0  0
 57136  1  0  0  0
 58137  1  0  0  0
 59 60  1  0  0  0
 59 61  1  0  0  0
 59 62  1  0  0  0
 60138  1  0  0  0
 60139  1  0  0  0
 60140  1  0  0  0
 61141  1  0  0  0
 61142  1  0  0  0
 61143  1  0  0  0
 62144  1  0  0  0
 62145  1  0  0  0
 62146  1  0  0  0
 63 65  1  0  0  0
 63147  1  0  0  0
 63148  1  0  0  0
 63149  1  0  0  0
 64150  1  0  0  0
 65151  1  0  0  0
 68 90  1  0  0  0
 71 73  2  0  0  0
 71 75  1  0  0  0
 71152  1  0  0  0
 72 74  1  0  0  0
 72 75  2  0  0  0
 72153  1  0  0  0
 73 76  1  0  0  0
 73 77  1  0  0  0
 74 76  2  0  0  0
 74 78  1  0  0  0
 75 91  1  0  0  0
 76 92  1  0  0  0
 77 80  1  0  0  0
 77154  1  0  0  0
 77155  1  0  0  0
 78 90  1  0  0  0
 78156  1  0  0  0
 78157  1  0  0  0
 79 81  1  0  0  0
 79158  1  0  0  0
 79159  1  0  0  0
 80 82  1  0  0  0
 80160  1  0  0  0
 80161  1  0  0  0
 81 83  1  0  0  0
 81162  1  0  0  0
 81163  1  0  0  0
 82 84  1  0  0  0
 82164  1  0  0  0
 82165  1  0  0  0
 83 85  1  0  0  0
 83166  1  0  0  0
 83167  1  0  0  0
 84 86  1  0  0  0
 84168  1  0  0  0
 84169  1  0  0  0
 85 87  1  0  0  0
 85170  1  0  0  0
 85171  1  0  0  0
 86 88  1  0  0  0
 86172  1  0  0  0
 86173  1  0  0  0
 87 89  1  0  0  0
 87174  1  0  0  0
 87175  1  0  0  0
 88 89  1  0  0  0
 88176  1  0  0  0
 88177  1  0  0  0
 89178  1  0  0  0
 89179  1  0  0  0
 90180  1  0  0  0
 90181  1  0  0  0
M  ISO  4   1 100  68 101  79 100  90 101
M  END
> <chiral flag>
0

> <version>
0

> <s_m_source_file>
/data/baiqing/PycharmProjects/Reinvent-master-3.2/result/LINK_invent/BTK/process_docking_weight1_custom_sum_contain_oxygen_bond_distance_aromatic_linkinvent_7_9_3/rearranged_h_0033.sdf

> <i_m_source_file_index>
96

> <r_mmod_Potential_Energy-OPLS-2005>
15389.248046875

> <r_mmod_Stretch_Energy-OPLS-2005>
7901.73193359375

> <r_mmod_Bend_Energy-OPLS-2005>
689.97265625

> <r_mmod_Torsional_Energy-OPLS-2005>
681.138305664062

> <r_mmod_Improper_Torsional_Energy-OPLS-2005>
95.2423095703125

> <r_mmod_Van_der_Waal_Energy-OPLS-2005>
3823.69506835938

> <r_mmod_Electrostatic_Energy-OPLS-2005>
-309.931854248047

> <r_mmod_Solvation_Energy-OPLS-2005>
-168.780868530273

> <b_mmod_Minimization_Converged-OPLS-2005>
0

> <r_mmod_RMS_Derivative-OPLS-2005>
4.16582822799683

$$$$
97
                    3D
 Structure written by MMmdl.
180189  0  0  1  0            999 V2000
  -30.8237  -14.2489   20.7376 C   0  0  0  0  0  0
  -30.3997  -12.2518   19.3731 C   0  0  0  0  0  0
  -29.4719  -12.5302   18.1801 C   0  0  0  0  0  0
  -27.9969  -12.3969   18.5982 C   0  0  0  0  0  0
  -27.6670  -13.2041   19.8819 C   0  0  2  0  0  0
  -28.7007  -12.9214   20.9941 C   0  0  0  0  0  0
  -25.2586  -13.8169   20.5676 C   0  0  0  0  0  0
  -24.1841  -13.0447   20.9161 C   0  0  0  0  0  0
  -24.6392  -11.6907   20.8722 C   0  0  0  0  0  0
  -23.9060  -10.4295   21.0398 C   0  0  0  0  0  0
  -24.3611   -9.4211   21.9189 C   0  0  0  0  0  0
  -23.6288   -8.2250   22.0760 C   0  0  0  0  0  0
  -22.4276   -8.0283   21.3544 C   0  0  0  0  0  0
  -21.9912   -9.0250   20.4643 C   0  0  0  0  0  0
  -22.7239  -10.2129   20.3049 C   0  0  0  0  0  0
  -21.6848   -6.0739   22.5280 C   0  0  0  0  0  0
  -21.4014   -6.5633   23.8214 C   0  0  0  0  0  0
  -21.3659   -5.6787   24.9163 C   0  0  0  0  0  0
  -21.6040   -4.3051   24.7223 C   0  0  0  0  0  0
  -21.8819   -3.8141   23.4337 C   0  0  0  0  0  0
  -21.9194   -4.6970   22.3388 C   0  0  0  0  0  0
  -22.7859  -13.5244   21.1815 C   0  0  0  0  0  0
  -22.1657   -4.2148   21.0976 F   0  0  0  0  0  0
  -21.5627   -3.4534   25.7736 F   0  0  0  0  0  0
  -30.0531  -13.1724   20.4630 N   0  0  0  0  0  0
  -26.3045  -12.9347   20.3399 N   0  0  0  0  0  0
  -25.9312  -11.6490   20.5763 N   0  0  0  0  0  0
  -22.0488  -12.8248   22.0372 N   0  0  0  0  0  0
  -25.4325  -15.1892   20.4084 N   0  0  0  0  0  0
  -31.7847  -14.5847   20.0402 O   0  0  0  0  0  0
  -21.6638   -6.8880   21.4241 O   0  0  0  0  0  0
  -22.3541  -14.5561   20.6668 O   0  0  0  0  0  0
  -24.6078  -31.8729   23.2199 C   0  0  0  0  0  0
  -25.9009  -32.4823   23.8452 C   0  0  1  0  0  0
  -27.2133  -27.4941   20.0684 C   0  0  0  0  0  0
  -25.5874  -33.8622   24.2379 N   0  0  0  0  0  0
  -23.3885  -30.5005   21.5647 C   0  0  2  0  0  0
  -24.8219  -28.9693   20.1292 C   0  0  0  0  0  0
  -22.7361  -29.4684   22.5110 C   0  0  0  0  0  0
  -18.0249  -28.1355   22.8529 C   0  0  0  0  0  0
  -24.1470  -36.7313   23.2650 C   0  0  0  0  0  0
  -25.9147  -30.8529   21.3667 C   0  0  0  0  0  0
  -25.9836  -29.4925   20.7107 C   0  0  0  0  0  0
  -27.1839  -28.7595   20.6783 C   0  0  0  0  0  0
  -26.0353  -26.9624   19.5001 C   0  0  0  0  0  0
  -24.8369  -27.6965   19.5343 C   0  0  0  0  0  0
  -23.5867  -29.8346   20.1773 C   0  0  0  0  0  0
  -25.4091  -36.3114   24.0363 C   0  0  1  0  0  0
  -20.5818  -28.3619   23.1332 C   0  0  2  0  0  0
  -20.6741  -26.9376   22.5396 C   0  0  0  0  0  0
  -19.5709  -26.6384   21.5197 C   0  0  0  0  0  0
  -18.1884  -26.7920   22.1623 C   0  0  0  0  0  0
  -19.1499  -28.8823   23.2910 C   0  0  0  0  0  0
  -18.9428  -30.1441   23.8893 C   0  0  0  0  0  0
  -17.6439  -30.6573   24.0560 C   0  0  0  0  0  0
  -25.9013  -34.9476   23.5181 C   0  0  0  0  0  0
  -16.5325  -29.9076   23.6324 C   0  0  0  0  0  0
  -16.7246  -28.6473   23.0392 C   0  0  0  0  0  0
  -26.4465  -31.6572   25.0748 C   0  0  0  0  0  0
  -25.3762  -31.3593   26.1495 C   0  0  0  0  0  0
  -27.0331  -30.3056   24.6085 C   0  0  0  0  0  0
  -27.6039  -32.4276   25.7497 C   0  0  0  0  0  0
  -27.5602  -37.1800   24.8474 C   0  0  0  0  0  0
  -21.4103  -29.3008   22.3784 N   0  0  0  0  0  0
  -26.4294  -37.3780   23.9433 N   0  0  0  0  0  0
  -24.6546  -31.0882   22.1089 N   0  0  0  0  0  0
  -23.4152  -28.8230   23.3142 O   0  0  0  0  0  0
  -28.4245  -26.8740   19.9595 O   0  0  0  0  0  0
  -26.5570  -34.8915   22.4738 O   0  0  0  0  0  0
  -23.5282  -32.1469   23.7651 O   0  0  0  0  0  0
  -29.9807  -18.0510   22.0193 C   0  0  0  0  0  0
  -31.8871  -17.5439   20.5926 C   0  0  0  0  0  0
  -31.0593  -17.2193   21.6844 C   0  0  0  0  0  0
  -29.7592  -19.2482   21.3157 C   0  0  0  0  0  0
  -31.6489  -18.6954   19.8238 C   0  0  0  0  0  0
  -30.6041  -19.5757   20.2162 C   0  0  0  0  0  0
  -28.8998  -23.1625   19.6048 C   0  0  0  0  0  0
  -30.5277  -24.1529   21.2250 C   0  0  0  0  0  0
  -28.3779  -24.5479   19.2301 C   0  0  0  0  0  0
  -29.9942  -25.5506   20.9272 C   0  0  0  0  0  0
  -30.3959  -23.2384   19.9974 C   0  0  1  0  0  0
  -28.5535  -25.5393   20.3941 C   0  0  2  0  0  0
  -27.3570  -20.1468   21.0395 C   0  0  0  0  0  0
  -32.6734  -17.8319   17.6093 C   0  0  0  0  0  0
  -32.6009  -21.9441   20.0561 C   0  0  0  0  0  0
  -28.6625  -20.1758   21.8411 C   0  0  0  0  0  0
  -32.5735  -18.9747   18.6327 C   0  0  0  0  0  0
  -31.3014  -15.9483   22.4686 C   0  0  0  0  0  0
  -31.0839  -21.8903   20.3001 C   0  0  2  0  0  0
  -30.4519  -20.7991   19.5656 N   0  0  0  0  0  0
  -30.5543  -14.8370   21.9049 N   0  0  0  0  0  0
  -31.4439  -12.3372   19.0667 H   0  0  0  0  0  0
  -30.2829  -11.2232   19.7141 H   0  0  0  0  0  0
  -29.6912  -11.8391   17.3653 H   0  0  0  0  0  0
  -29.6589  -13.5346   17.7940 H   0  0  0  0  0  0
  -27.7852  -11.3392   18.7582 H   0  0  0  0  0  0
  -27.3478  -12.7182   17.7823 H   0  0  0  0  0  0
  -27.7352  -14.2631   19.6271 H   0  0  0  0  0  0
  -28.6382  -11.8799   21.3127 H   0  0  0  0  0  0
  -28.4584  -13.5129   21.8762 H   0  0  0  0  0  0
  -25.2749   -9.5687   22.4762 H   0  0  0  0  0  0
  -23.9990   -7.4643   22.7482 H   0  0  0  0  0  0
  -21.0845   -8.8761   19.8938 H   0  0  0  0  0  0
  -22.3705  -10.9662   19.6142 H   0  0  0  0  0  0
  -21.2006   -7.6142   23.9715 H   0  0  0  0  0  0
  -21.1475   -6.0511   25.9068 H   0  0  0  0  0  0
  -22.0597   -2.7608   23.2837 H   0  0  0  0  0  0
  -22.4059  -11.9880   22.4752 H   0  0  0  0  0  0
  -21.1097  -13.1266   22.2559 H   0  0  0  0  0  0
  -24.6737  -15.8505   20.5301 H   0  0  0  0  0  0
  -26.2939  -15.6268   20.1069 H   0  0  0  0  0  0
  -26.7084  -32.5547   23.1222 H   0  0  0  0  0  0
  -25.0000  -33.9778   25.0512 H   0  0  0  0  0  0
  -22.6730  -31.3149   21.4307 H   0  0  0  0  0  0
  -23.3737  -35.9642   23.3267 H   0  0  0  0  0  0
  -24.3594  -36.8957   22.2073 H   0  0  0  0  0  0
  -23.7178  -37.6506   23.6667 H   0  0  0  0  0  0
  -26.0287  -31.6244   20.6045 H   0  0  0  0  0  0
  -26.7998  -30.8897   21.9873 H   0  0  0  0  0  0
  -28.0898  -29.1719   21.0988 H   0  0  0  0  0  0
  -26.0209  -26.0178   18.9864 H   0  0  0  0  0  0
  -23.9437  -27.2834   19.0869 H   0  0  0  0  0  0
  -23.6950  -30.6072   19.4138 H   0  0  0  0  0  0
  -22.7076  -29.2566   19.8872 H   0  0  0  0  0  0
  -25.1243  -36.2008   25.0857 H   0  0  0  0  0  0
  -20.9888  -28.3180   24.1462 H   0  0  0  0  0  0
  -20.5658  -26.2237   23.3582 H   0  0  0  0  0  0
  -21.6612  -26.7458   22.1162 H   0  0  0  0  0  0
  -19.6850  -25.6299   21.1211 H   0  0  0  0  0  0
  -19.6633  -27.3230   20.6754 H   0  0  0  0  0  0
  -17.4158  -26.6682   21.4018 H   0  0  0  0  0  0
  -18.0287  -26.0053   22.9014 H   0  0  0  0  0  0
  -19.7920  -30.7261   24.2250 H   0  0  0  0  0  0
  -17.4990  -31.6255   24.5160 H   0  0  0  0  0  0
  -15.5325  -30.2980   23.7623 H   0  0  0  0  0  0
  -15.8641  -28.0755   22.7151 H   0  0  0  0  0  0
  -24.5944  -30.6940   25.7807 H   0  0  0  0  0  0
  -24.8961  -32.2718   26.5049 H   0  0  0  0  0  0
  -25.8157  -30.8676   27.0189 H   0  0  0  0  0  0
  -26.2897  -29.6753   24.1199 H   0  0  0  0  0  0
  -27.4214  -29.7300   25.4495 H   0  0  0  0  0  0
  -27.8658  -30.4389   23.9169 H   0  0  0  0  0  0
  -27.2675  -33.3560   26.2106 H   0  0  0  0  0  0
  -28.3851  -32.6831   25.0330 H   0  0  0  0  0  0
  -28.0721  -31.8380   26.5395 H   0  0  0  0  0  0
  -28.2543  -38.0164   24.7601 H   0  0  0  0  0  0
  -28.1162  -36.2704   24.6183 H   0  0  0  0  0  0
  -27.2336  -37.1303   25.8874 H   0  0  0  0  0  0
  -20.9273  -29.8739   21.7002 H   0  0  0  0  0  0
  -26.0188  -38.2861   24.1466 H   0  0  0  0  0  0
  -29.3391  -17.7827   22.8481 H   0  0  0  0  0  0
  -32.7102  -16.8931   20.3330 H   0  0  0  0  0  0
  -28.7393  -22.5108   18.7453 H   0  0  0  0  0  0
  -28.2955  -22.7695   20.4239 H   0  0  0  0  0  0
  -29.9759  -23.7266   22.0646 H   0  0  0  0  0  0
  -31.5654  -24.2278   21.5481 H   0  0  0  0  0  0
  -27.3328  -24.4463   18.9503 H   0  0  0  0  0  0
  -28.9053  -24.9099   18.3449 H   0  0  0  0  0  0
  -30.6509  -26.0162   20.1924 H   0  0  0  0  0  0
  -30.0403  -26.1695   21.8245 H   0  0  0  0  0  0
  -30.9150  -23.6925   19.1507 H   0  0  0  0  0  0
  -27.8568  -25.3045   21.2032 H   0  0  0  0  0  0
  -26.6533  -20.8704   21.4523 H   0  0  0  0  0  0
  -26.8826  -19.1671   21.0829 H   0  0  0  0  0  0
  -27.5140  -20.4031   19.9925 H   0  0  0  0  0  0
  -33.3464  -18.1132   16.7974 H   0  0  0  0  0  0
  -31.7036  -17.6082   17.1656 H   0  0  0  0  0  0
  -33.0673  -16.9163   18.0507 H   0  0  0  0  0  0
  -33.0627  -22.8013   20.5418 H   0  0  0  0  0  0
  -32.8400  -22.0013   18.9948 H   0  0  0  0  0  0
  -33.0877  -21.0612   20.4693 H   0  0  0  0  0  0
  -29.0258  -21.1961   21.9065 H   0  0  0  0  0  0
  -28.4446  -19.9109   22.8768 H   0  0  0  0  0  0
  -33.5686  -19.1821   19.0250 H   0  0  0  0  0  0
  -32.2665  -19.8713   18.0968 H   0  0  0  0  0  0
  -30.9953  -16.0920   23.5040 H   0  0  0  0  0  0
  -32.3672  -15.7162   22.4969 H   0  0  0  0  0  0
  -30.9722  -21.7016   21.3664 H   0  0  0  0  0  0
  -29.4666  -21.0156   19.4559 H   0  0  0  0  0  0
  -29.7914  -14.4620   22.4490 H   0  0  0  0  0  0
  1 25  1  0  0  0
  1 30  2  0  0  0
  1 91  1  0  0  0
  2  3  1  0  0  0
  2 25  1  0  0  0
  2 92  1  0  0  0
  2 93  1  0  0  0
  3  4  1  0  0  0
  3 94  1  0  0  0
  3 95  1  0  0  0
  4  5  1  0  0  0
  4 96  1  0  0  0
  4 97  1  0  0  0
  5  6  1  0  0  0
  5 26  1  0  0  0
  5 98  1  0  0  0
  6 25  1  0  0  0
  6 99  1  0  0  0
  6100  1  0  0  0
  7  8  2  0  0  0
  7 26  1  0  0  0
  7 29  1  0  0  0
  8  9  1  0  0  0
  8 22  1  0  0  0
  9 10  1  0  0  0
  9 27  2  0  0  0
 10 11  2  0  0  0
 10 15  1  0  0  0
 11 12  1  0  0  0
 11101  1  0  0  0
 12 13  2  0  0  0
 12102  1  0  0  0
 13 14  1  0  0  0
 13 31  1  0  0  0
 14 15  2  0  0  0
 14103  1  0  0  0
 15104  1  0  0  0
 16 17  2  0  0  0
 16 21  1  0  0  0
 16 31  1  0  0  0
 17 18  1  0  0  0
 17105  1  0  0  0
 18 19  2  0  0  0
 18106  1  0  0  0
 19 20  1  0  0  0
 19 24  1  0  0  0
 20 21  2  0  0  0
 20107  1  0  0  0
 21 23  1  0  0  0
 22 28  1  0  0  0
 22 32  2  0  0  0
 26 27  1  0  0  0
 28108  1  0  0  0
 28109  1  0  0  0
 29110  1  0  0  0
 29111  1  0  0  0
 33 34  1  0  0  0
 33 66  1  0  0  0
 33 70  2  0  0  0
 34 36  1  0  0  0
 34 59  1  0  0  0
 34112  1  0  0  0
 35 44  2  0  0  0
 35 45  1  0  0  0
 35 68  1  0  0  0
 36 56  1  0  0  0
 36113  1  0  0  0
 37 39  1  0  0  0
 37 47  1  0  0  0
 37 66  1  0  0  0
 37114  1  0  0  0
 38 43  2  0  0  0
 38 46  1  0  0  0
 38 47  1  0  0  0
 39 64  1  0  0  0
 39 67  2  0  0  0
 40 52  1  0  0  0
 40 53  2  0  0  0
 40 58  1  0  0  0
 41115  1  0  0  0
 41116  1  0  0  0
 41117  1  0  0  0
 41 48  1  0  0  0
 42 43  1  0  0  0
 42 66  1  0  0  0
 42118  1  0  0  0
 42119  1  0  0  0
 43 44  1  0  0  0
 44120  1  0  0  0
 45 46  2  0  0  0
 45121  1  0  0  0
 46122  1  0  0  0
 47123  1  0  0  0
 47124  1  0  0  0
 48 56  1  0  0  0
 48 65  1  0  0  0
 48125  1  0  0  0
 49 50  1  0  0  0
 49 53  1  0  0  0
 49 64  1  0  0  0
 49126  1  0  0  0
 50 51  1  0  0  0
 50127  1  0  0  0
 50128  1  0  0  0
 51 52  1  0  0  0
 51129  1  0  0  0
 51130  1  0  0  0
 52131  1  0  0  0
 52132  1  0  0  0
 53 54  1  0  0  0
 54 55  2  0  0  0
 54133  1  0  0  0
 55 57  1  0  0  0
 55134  1  0  0  0
 56 69  2  0  0  0
 57 58  2  0  0  0
 57135  1  0  0  0
 58136  1  0  0  0
 59 60  1  0  0  0
 59 61  1  0  0  0
 59 62  1  0  0  0
 60137  1  0  0  0
 60138  1  0  0  0
 60139  1  0  0  0
 61140  1  0  0  0
 61141  1  0  0  0
 61142  1  0  0  0
 62143  1  0  0  0
 62144  1  0  0  0
 62145  1  0  0  0
 63 65  1  0  0  0
 63146  1  0  0  0
 63147  1  0  0  0
 63148  1  0  0  0
 64149  1  0  0  0
 65150  1  0  0  0
 68 82  1  0  0  0
 71 73  2  0  0  0
 71 74  1  0  0  0
 71151  1  0  0  0
 72 73  1  0  0  0
 72 75  2  0  0  0
 72152  1  0  0  0
 73 88  1  0  0  0
 74 76  2  0  0  0
 74 86  1  0  0  0
 75 76  1  0  0  0
 75 87  1  0  0  0
 76 90  1  0  0  0
 77 79  1  0  0  0
 77153  1  0  0  0
 77154  1  0  0  0
 77 81  1  0  0  0
 78 80  1  0  0  0
 78 81  1  0  0  0
 78155  1  0  0  0
 78156  1  0  0  0
 79 82  1  0  0  0
 79157  1  0  0  0
 79158  1  0  0  0
 80 82  1  0  0  0
 80159  1  0  0  0
 80160  1  0  0  0
 81 89  1  0  0  0
 81161  1  0  0  0
 82162  1  0  0  0
 83 86  1  0  0  0
 83163  1  0  0  0
 83164  1  0  0  0
 83165  1  0  0  0
 84 87  1  0  0  0
 84166  1  0  0  0
 84167  1  0  0  0
 84168  1  0  0  0
 85169  1  0  0  0
 85170  1  0  0  0
 85171  1  0  0  0
 85 89  1  0  0  0
 86172  1  0  0  0
 86173  1  0  0  0
 87174  1  0  0  0
 87175  1  0  0  0
 88 91  1  0  0  0
 88176  1  0  0  0
 88177  1  0  0  0
 89 90  1  0  0  0
 89178  1  0  0  0
 90179  1  0  0  0
 91180  1  0  0  0
M  ISO  4   1 100  68 101  82 101  91 100
M  END
> <chiral flag>
0

> <version>
0

> <s_m_source_file>
/data/baiqing/PycharmProjects/Reinvent-master-3.2/result/LINK_invent/BTK/process_docking_weight1_custom_sum_contain_oxygen_bond_distance_aromatic_linkinvent_7_9_3/rearranged_h_0033.sdf

> <i_m_source_file_index>
97

> <r_mmod_Potential_Energy-OPLS-2005>
-93.1262283325195

> <r_mmod_Stretch_Energy-OPLS-2005>
31.5949592590332

> <r_mmod_Bend_Energy-OPLS-2005>
107.147117614746

> <r_mmod_Torsional_Energy-OPLS-2005>
269.725769042969

> <r_mmod_Improper_Torsional_Energy-OPLS-2005>
9.73577880859375

> <r_mmod_Van_der_Waal_Energy-OPLS-2005>
171.804718017578

> <r_mmod_Electrostatic_Energy-OPLS-2005>
-498.381042480469

> <r_mmod_Solvation_Energy-OPLS-2005>
-196.691635131836

> <b_mmod_Minimization_Converged-OPLS-2005>
0

> <r_mmod_RMS_Derivative-OPLS-2005>
3.75462937355042

$$$$
98
                    3D
 Structure written by MMmdl.
173181  0  0  1  0            999 V2000
  -30.8351  -14.2469   20.7964 C   0  0  0  0  0  0
  -30.4065  -12.2975   19.3604 C   0  0  0  0  0  0
  -29.4653  -12.5789   18.1791 C   0  0  0  0  0  0
  -27.9985  -12.4100   18.6075 C   0  0  0  0  0  0
  -27.6651  -13.2109   19.8899 C   0  0  2  0  0  0
  -28.7028  -12.9323   20.9997 C   0  0  0  0  0  0
  -25.2576  -13.8174   20.5707 C   0  0  0  0  0  0
  -24.1854  -13.0449   20.9189 C   0  0  0  0  0  0
  -24.6419  -11.6905   20.8754 C   0  0  0  0  0  0
  -23.9104  -10.4287   21.0425 C   0  0  0  0  0  0
  -24.3656   -9.4178   21.9193 C   0  0  0  0  0  0
  -23.6318   -8.2217   22.0755 C   0  0  0  0  0  0
  -22.4284   -8.0289   21.3541 C   0  0  0  0  0  0
  -21.9945   -9.0284   20.4644 C   0  0  0  0  0  0
  -22.7298  -10.2141   20.3053 C   0  0  0  0  0  0
  -21.6857   -6.0750   22.5268 C   0  0  0  0  0  0
  -21.4025   -6.5655   23.8198 C   0  0  0  0  0  0
  -21.3669   -5.6814   24.9170 C   0  0  0  0  0  0
  -21.6031   -4.3070   24.7212 C   0  0  0  0  0  0
  -21.8827   -3.8161   23.4330 C   0  0  0  0  0  0
  -21.9200   -4.6986   22.3381 C   0  0  0  0  0  0
  -22.7849  -13.5188   21.1873 C   0  0  0  0  0  0
  -22.1651   -4.2172   21.0959 F   0  0  0  0  0  0
  -21.5642   -3.4542   25.7714 F   0  0  0  0  0  0
  -30.0556  -13.1900   20.4696 N   0  0  0  0  0  0
  -26.3055  -12.9372   20.3474 N   0  0  0  0  0  0
  -25.9333  -11.6507   20.5780 N   0  0  0  0  0  0
  -22.0529  -12.8136   22.0413 N   0  0  0  0  0  0
  -25.4256  -15.1911   20.4031 N   0  0  0  0  0  0
  -31.7161  -14.7011   20.0572 O   0  0  0  0  0  0
  -21.6638   -6.8895   21.4221 O   0  0  0  0  0  0
  -22.3480  -14.5505   20.6765 O   0  0  0  0  0  0
  -24.6124  -31.8719   23.2111 C   0  0  0  0  0  0
  -25.9035  -32.4836   23.8379 C   0  0  1  0  0  0
  -27.2389  -27.4424   20.0907 C   0  0  0  0  0  0
  -25.5920  -33.8638   24.2311 N   0  0  0  0  0  0
  -23.3977  -30.4958   21.5506 C   0  0  2  0  0  0
  -24.8480  -28.9670   20.1098 C   0  0  0  0  0  0
  -22.7394  -29.4676   22.4983 C   0  0  0  0  0  0
  -18.0264  -28.1370   22.8504 C   0  0  0  0  0  0
  -24.1477  -36.7322   23.2634 C   0  0  0  0  0  0
  -25.9286  -30.8355   21.3683 C   0  0  0  0  0  0
  -26.0048  -29.4708   20.7174 C   0  0  0  0  0  0
  -27.1981  -28.7141   20.7110 C   0  0  0  0  0  0
  -26.0568  -26.9501   19.4875 C   0  0  0  0  0  0
  -24.8700  -27.7063   19.4909 C   0  0  0  0  0  0
  -23.6058  -29.8314   20.1627 C   0  0  0  0  0  0
  -25.4102  -36.3102   24.0324 C   0  0  1  0  0  0
  -20.5856  -28.3668   23.1345 C   0  0  2  0  0  0
  -20.6775  -26.9409   22.5427 C   0  0  0  0  0  0
  -19.5737  -26.6377   21.5234 C   0  0  0  0  0  0
  -18.1902  -26.7915   22.1632 C   0  0  0  0  0  0
  -19.1510  -28.8835   23.2924 C   0  0  0  0  0  0
  -18.9423  -30.1447   23.8914 C   0  0  0  0  0  0
  -17.6424  -30.6575   24.0568 C   0  0  0  0  0  0
  -25.9037  -34.9486   23.5098 C   0  0  0  0  0  0
  -16.5323  -29.9075   23.6318 C   0  0  0  0  0  0
  -16.7255  -28.6501   23.0326 C   0  0  0  0  0  0
  -26.4453  -31.6630   25.0719 C   0  0  0  0  0  0
  -25.3704  -31.3771   26.1461 C   0  0  0  0  0  0
  -27.0308  -30.3060   24.6145 C   0  0  0  0  0  0
  -27.5997  -32.4377   25.7490 C   0  0  0  0  0  0
  -27.5572  -37.1797   24.8437 C   0  0  0  0  0  0
  -21.4127  -29.3040   22.3754 N   0  0  0  0  0  0
  -26.4268  -37.3797   23.9411 N   0  0  0  0  0  0
  -24.6631  -31.0824   22.1002 N   0  0  0  0  0  0
  -23.4175  -28.8239   23.3031 O   0  0  0  0  0  0
  -28.4353  -26.7518   20.0872 O   0  0  0  0  0  0
  -26.5584  -34.8935   22.4649 O   0  0  0  0  0  0
  -23.5326  -32.1510   23.7500 O   0  0  0  0  0  0
  -26.7817  -22.2148   20.1226 C   0  0  0  0  0  0
  -28.0773  -24.2656   20.0764 C   0  0  0  0  0  0
  -28.5017  -23.9459   21.4012 C   0  0  0  0  0  0
  -27.2314  -23.3408   19.4124 C   0  0  0  0  0  0
  -27.9794  -22.7798   22.0198 C   0  0  0  0  0  0
  -29.5080  -24.8214   22.1433 C   0  0  0  0  0  0
  -28.5646  -25.5288   19.3471 C   0  0  0  0  0  0
  -28.3293  -22.3479   23.4422 C   0  0  0  0  0  0
  -29.5212  -21.3657   23.5143 C   0  0  0  0  0  0
  -29.5635  -20.5691   24.8340 C   0  0  0  0  0  0
  -30.5409  -19.3734   24.8213 C   0  0  0  0  0  0
  -29.8598  -18.0019   24.6682 C   0  0  0  0  0  0
  -29.4057  -17.6181   23.2447 C   0  0  0  0  0  0
  -30.4752  -17.6601   22.1316 C   0  0  0  0  0  0
  -31.7854  -16.8791   22.3774 C   0  0  0  0  0  0
  -31.6533  -15.4230   22.8676 C   0  0  0  0  0  0
  -27.1282  -21.9447   21.3945 N   0  0  0  0  0  0
  -30.7406  -14.5879   22.0869 N   0  0  0  0  0  0
  -26.7455  -23.5231   17.7603 Cl  0  0  0  0  0  0
  -31.4473  -12.4156   19.0507 H   0  0  0  0  0  0
  -30.3025  -11.2627   19.6857 H   0  0  0  0  0  0
  -29.6925  -11.9159   17.3440 H   0  0  0  0  0  0
  -29.6192  -13.5978   17.8177 H   0  0  0  0  0  0
  -27.8106  -11.3505   18.7760 H   0  0  0  0  0  0
  -27.3381  -12.7187   17.7981 H   0  0  0  0  0  0
  -27.7233  -14.2701   19.6386 H   0  0  0  0  0  0
  -28.6369  -11.8903   21.3192 H   0  0  0  0  0  0
  -28.4617  -13.5345   21.8771 H   0  0  0  0  0  0
  -25.2817   -9.5613   22.4759 H   0  0  0  0  0  0
  -24.0053   -7.4577   22.7428 H   0  0  0  0  0  0
  -21.0913   -8.8822   19.8900 H   0  0  0  0  0  0
  -22.3834  -10.9697   19.6149 H   0  0  0  0  0  0
  -21.2004   -7.6166   23.9704 H   0  0  0  0  0  0
  -21.1490   -6.0540   25.9075 H   0  0  0  0  0  0
  -22.0595   -2.7630   23.2810 H   0  0  0  0  0  0
  -22.4225  -11.9824   22.4794 H   0  0  0  0  0  0
  -21.1123  -13.1044   22.2642 H   0  0  0  0  0  0
  -24.6587  -15.8491   20.4885 H   0  0  0  0  0  0
  -26.2949  -15.6268   20.1209 H   0  0  0  0  0  0
  -26.7124  -32.5553   23.1158 H   0  0  0  0  0  0
  -25.0108  -33.9822   25.0477 H   0  0  0  0  0  0
  -22.6833  -31.3111   21.4128 H   0  0  0  0  0  0
  -23.3719  -35.9658   23.3293 H   0  0  0  0  0  0
  -24.3555  -36.8968   22.2042 H   0  0  0  0  0  0
  -23.7271  -37.6541   23.6685 H   0  0  0  0  0  0
  -26.0473  -31.6037   20.6024 H   0  0  0  0  0  0
  -26.8114  -30.8840   21.9952 H   0  0  0  0  0  0
  -28.0932  -29.1034   21.1769 H   0  0  0  0  0  0
  -26.0293  -25.9869   19.0047 H   0  0  0  0  0  0
  -23.9848  -27.3122   19.0098 H   0  0  0  0  0  0
  -23.7108  -30.6114   19.4051 H   0  0  0  0  0  0
  -22.7264  -29.2531   19.8719 H   0  0  0  0  0  0
  -25.1273  -36.1933   25.0809 H   0  0  0  0  0  0
  -20.9950  -28.3223   24.1467 H   0  0  0  0  0  0
  -20.5711  -26.2259   23.3601 H   0  0  0  0  0  0
  -21.6637  -26.7479   22.1186 H   0  0  0  0  0  0
  -19.6902  -25.6289   21.1259 H   0  0  0  0  0  0
  -19.6674  -27.3193   20.6767 H   0  0  0  0  0  0
  -17.4187  -26.6686   21.4020 H   0  0  0  0  0  0
  -18.0283  -26.0041   22.9009 H   0  0  0  0  0  0
  -19.7892  -30.7278   24.2277 H   0  0  0  0  0  0
  -17.4963  -31.6252   24.5182 H   0  0  0  0  0  0
  -15.5316  -30.2966   23.7661 H   0  0  0  0  0  0
  -15.8651  -28.0858   22.6985 H   0  0  0  0  0  0
  -24.5813  -30.7196   25.7809 H   0  0  0  0  0  0
  -24.8933  -32.2938   26.4931 H   0  0  0  0  0  0
  -25.7981  -30.8912   27.0231 H   0  0  0  0  0  0
  -26.2908  -29.6817   24.1129 H   0  0  0  0  0  0
  -27.4004  -29.7315   25.4650 H   0  0  0  0  0  0
  -27.8752  -30.4366   23.9368 H   0  0  0  0  0  0
  -27.2594  -33.3680   26.2062 H   0  0  0  0  0  0
  -28.3799  -32.6978   25.0323 H   0  0  0  0  0  0
  -28.0686  -31.8532   26.5422 H   0  0  0  0  0  0
  -28.2547  -38.0137   24.7527 H   0  0  0  0  0  0
  -28.1118  -36.2667   24.6184 H   0  0  0  0  0  0
  -27.2307  -37.1364   25.8845 H   0  0  0  0  0  0
  -20.9268  -29.8807   21.7036 H   0  0  0  0  0  0
  -26.0146  -38.2867   24.1403 H   0  0  0  0  0  0
  -26.1256  -21.4930   19.6586 H   0  0  0  0  0  0
  -30.2417  -25.2503   21.4634 H   0  0  0  0  0  0
  -30.0944  -24.2571   22.8651 H   0  0  0  0  0  0
  -29.0011  -25.6303   22.6734 H   0  0  0  0  0  0
  -28.1205  -25.6453   18.3572 H   0  0  0  0  0  0
  -29.6240  -25.3842   19.1474 H   0  0  0  0  0  0
  -27.4442  -21.8668   23.8608 H   0  0  0  0  0  0
  -28.4989  -23.2130   24.0809 H   0  0  0  0  0  0
  -30.4567  -21.9085   23.3677 H   0  0  0  0  0  0
  -29.4481  -20.6620   22.6869 H   0  0  0  0  0  0
  -28.5598  -20.2170   25.0760 H   0  0  0  0  0  0
  -29.8381  -21.2408   25.6497 H   0  0  0  0  0  0
  -31.0783  -19.3612   25.7717 H   0  0  0  0  0  0
  -31.3082  -19.5030   24.0586 H   0  0  0  0  0  0
  -28.9881  -17.9702   25.3223 H   0  0  0  0  0  0
  -30.5308  -17.2348   25.0554 H   0  0  0  0  0  0
  -28.5806  -18.2668   22.9416 H   0  0  0  0  0  0
  -28.9849  -16.6131   23.2858 H   0  0  0  0  0  0
  -30.7429  -18.6994   21.9376 H   0  0  0  0  0  0
  -30.0166  -17.3067   21.2050 H   0  0  0  0  0  0
  -32.4044  -17.4282   23.0872 H   0  0  0  0  0  0
  -32.3622  -16.8808   21.4506 H   0  0  0  0  0  0
  -32.6402  -14.9564   22.8895 H   0  0  0  0  0  0
  -31.2950  -15.4141   23.8984 H   0  0  0  0  0  0
  -30.0598  -14.0691   22.6232 H   0  0  0  0  0  0
  1 25  1  0  0  0
  1 30  2  0  0  0
  1 88  1  0  0  0
  2  3  1  0  0  0
  2 25  1  0  0  0
  2 90  1  0  0  0
  2 91  1  0  0  0
  3  4  1  0  0  0
  3 92  1  0  0  0
  3 93  1  0  0  0
  4  5  1  0  0  0
  4 94  1  0  0  0
  4 95  1  0  0  0
  5  6  1  0  0  0
  5 26  1  0  0  0
  5 96  1  0  0  0
  6 25  1  0  0  0
  6 97  1  0  0  0
  6 98  1  0  0  0
  7  8  2  0  0  0
  7 26  1  0  0  0
  7 29  1  0  0  0
  8  9  1  0  0  0
  8 22  1  0  0  0
  9 10  1  0  0  0
  9 27  2  0  0  0
 10 11  2  0  0  0
 10 15  1  0  0  0
 11 12  1  0  0  0
 11 99  1  0  0  0
 12 13  2  0  0  0
 12100  1  0  0  0
 13 14  1  0  0  0
 13 31  1  0  0  0
 14 15  2  0  0  0
 14101  1  0  0  0
 15102  1  0  0  0
 16 17  2  0  0  0
 16 21  1  0  0  0
 16 31  1  0  0  0
 17 18  1  0  0  0
 17103  1  0  0  0
 18 19  2  0  0  0
 18104  1  0  0  0
 19 20  1  0  0  0
 19 24  1  0  0  0
 20 21  2  0  0  0
 20105  1  0  0  0
 21 23  1  0  0  0
 22 28  1  0  0  0
 22 32  2  0  0  0
 26 27  1  0  0  0
 28106  1  0  0  0
 28107  1  0  0  0
 29108  1  0  0  0
 29109  1  0  0  0
 33 34  1  0  0  0
 33 66  1  0  0  0
 33 70  2  0  0  0
 34 36  1  0  0  0
 34 59  1  0  0  0
 34110  1  0  0  0
 35 44  2  0  0  0
 35 45  1  0  0  0
 35 68  1  0  0  0
 36 56  1  0  0  0
 36111  1  0  0  0
 37 39  1  0  0  0
 37 47  1  0  0  0
 37 66  1  0  0  0
 37112  1  0  0  0
 38 43  2  0  0  0
 38 46  1  0  0  0
 38 47  1  0  0  0
 39 64  1  0  0  0
 39 67  2  0  0  0
 40 52  1  0  0  0
 40 53  2  0  0  0
 40 58  1  0  0  0
 41113  1  0  0  0
 41114  1  0  0  0
 41115  1  0  0  0
 41 48  1  0  0  0
 42 43  1  0  0  0
 42 66  1  0  0  0
 42116  1  0  0  0
 42117  1  0  0  0
 43 44  1  0  0  0
 44118  1  0  0  0
 45 46  2  0  0  0
 45119  1  0  0  0
 46120  1  0  0  0
 47121  1  0  0  0
 47122  1  0  0  0
 48 56  1  0  0  0
 48 65  1  0  0  0
 48123  1  0  0  0
 49 50  1  0  0  0
 49 53  1  0  0  0
 49 64  1  0  0  0
 49124  1  0  0  0
 50 51  1  0  0  0
 50125  1  0  0  0
 50126  1  0  0  0
 51 52  1  0  0  0
 51127  1  0  0  0
 51128  1  0  0  0
 52129  1  0  0  0
 52130  1  0  0  0
 53 54  1  0  0  0
 54 55  2  0  0  0
 54131  1  0  0  0
 55 57  1  0  0  0
 55132  1  0  0  0
 56 69  2  0  0  0
 57 58  2  0  0  0
 57133  1  0  0  0
 58134  1  0  0  0
 59 60  1  0  0  0
 59 61  1  0  0  0
 59 62  1  0  0  0
 60135  1  0  0  0
 60136  1  0  0  0
 60137  1  0  0  0
 61138  1  0  0  0
 61139  1  0  0  0
 61140  1  0  0  0
 62141  1  0  0  0
 62142  1  0  0  0
 62143  1  0  0  0
 63 65  1  0  0  0
 63144  1  0  0  0
 63145  1  0  0  0
 63146  1  0  0  0
 64147  1  0  0  0
 65148  1  0  0  0
 68 77  1  0  0  0
 71 74  2  0  0  0
 71 87  1  0  0  0
 71149  1  0  0  0
 72 73  2  0  0  0
 72 74  1  0  0  0
 72 77  1  0  0  0
 73 75  1  0  0  0
 73 76  1  0  0  0
 74 89  1  0  0  0
 75 78  1  0  0  0
 75 87  2  0  0  0
 76150  1  0  0  0
 76151  1  0  0  0
 76152  1  0  0  0
 77153  1  0  0  0
 77154  1  0  0  0
 78 79  1  0  0  0
 78155  1  0  0  0
 78156  1  0  0  0
 79 80  1  0  0  0
 79157  1  0  0  0
 79158  1  0  0  0
 80 81  1  0  0  0
 80159  1  0  0  0
 80160  1  0  0  0
 81 82  1  0  0  0
 81161  1  0  0  0
 81162  1  0  0  0
 82 83  1  0  0  0
 82163  1  0  0  0
 82164  1  0  0  0
 83 84  1  0  0  0
 83165  1  0  0  0
 83166  1  0  0  0
 84 85  1  0  0  0
 84167  1  0  0  0
 84168  1  0  0  0
 85 86  1  0  0  0
 85169  1  0  0  0
 85170  1  0  0  0
 86 88  1  0  0  0
 86171  1  0  0  0
 86172  1  0  0  0
 88173  1  0  0  0
M  ISO  4   1 100  68 101  77 101  88 100
M  END
> <chiral flag>
0

> <version>
0

> <s_m_source_file>
/data/baiqing/PycharmProjects/Reinvent-master-3.2/result/LINK_invent/BTK/process_docking_weight1_custom_sum_contain_oxygen_bond_distance_aromatic_linkinvent_7_9_3/rearranged_h_0033.sdf

> <i_m_source_file_index>
98

> <r_mmod_Potential_Energy-OPLS-2005>
-118.445960998535

> <r_mmod_Stretch_Energy-OPLS-2005>
36.9084701538086

> <r_mmod_Bend_Energy-OPLS-2005>
109.844703674316

> <r_mmod_Torsional_Energy-OPLS-2005>
224.624450683594

> <r_mmod_Improper_Torsional_Energy-OPLS-2005>
5.73496055603027

> <r_mmod_Van_der_Waal_Energy-OPLS-2005>
149.61962890625

> <r_mmod_Electrostatic_Energy-OPLS-2005>
-454.194213867188

> <r_mmod_Solvation_Energy-OPLS-2005>
-203.379272460938

> <b_mmod_Minimization_Converged-OPLS-2005>
0

> <r_mmod_RMS_Derivative-OPLS-2005>
5.40239477157593

$$$$
