0
                    3D
 Structure written by MMmdl.
140147  0  0  1  0            999 V2000
  -30.1611  -16.0041   20.3080 C   0  0  0  0  0  0
  -30.3940  -13.3709   19.5193 C   0  0  0  0  0  0
  -29.5602  -12.7495   18.3505 C   0  0  0  0  0  0
  -28.1679  -12.3098   18.8207 C   0  0  0  0  0  0
  -27.5837  -13.3431   19.8035 C   0  0  2  0  0  0
  -28.5794  -13.8362   20.8889 C   0  0  0  0  0  0
  -25.2278  -13.8329   20.5856 C   0  0  0  0  0  0
  -24.1700  -13.0433   20.9315 C   0  0  0  0  0  0
  -24.6450  -11.6960   20.8763 C   0  0  0  0  0  0
  -23.9156  -10.4295   21.0384 C   0  0  0  0  0  0
  -24.3676   -9.4207   21.9173 C   0  0  0  0  0  0
  -23.6326   -8.2253   22.0753 C   0  0  0  0  0  0
  -22.4305   -8.0296   21.3544 C   0  0  0  0  0  0
  -21.9960   -9.0273   20.4641 C   0  0  0  0  0  0
  -22.7315  -10.2138   20.3042 C   0  0  0  0  0  0
  -21.6863   -6.0747   22.5279 C   0  0  0  0  0  0
  -21.4022   -6.5646   23.8213 C   0  0  0  0  0  0
  -21.3661   -5.6796   24.9173 C   0  0  0  0  0  0
  -21.6044   -4.3059   24.7222 C   0  0  0  0  0  0
  -21.8818   -3.8153   23.4342 C   0  0  0  0  0  0
  -21.9196   -4.6972   22.3400 C   0  0  0  0  0  0
  -22.7702  -13.5137   21.1934 C   0  0  0  0  0  0
  -22.1662   -4.2158   21.0977 F   0  0  0  0  0  0
  -21.5626   -3.4540   25.7734 F   0  0  0  0  0  0
  -29.6775  -14.5802   20.1919 N   0  0  0  0  0  0
  -26.2769  -12.9729   20.3291 N   0  0  0  0  0  0
  -25.9412  -11.6758   20.5682 N   0  0  0  0  0  0
  -22.0374  -12.8106   22.0483 N   0  0  0  0  0  0
  -25.3817  -15.2078   20.4306 N   0  0  0  0  0  0
  -31.4087  -15.8722   20.2822 O   0  0  0  0  0  0
  -21.6655   -6.8899   21.4244 O   0  0  0  0  0  0
  -22.3368  -14.5432   20.6768 O   0  0  0  0  0  0
  -24.7122  -31.7741   23.1306 C   0  0  0  0  0  0
  -25.9575  -32.4339   23.7956 C   0  0  1  0  0  0
  -27.2357  -26.4414   20.2493 C   0  0  0  0  0  0
  -25.6043  -33.8173   24.1821 N   0  0  0  0  0  0
  -23.5502  -30.3697   21.4913 C   0  0  2  0  0  0
  -25.0042  -28.6446   20.1367 C   0  0  0  0  0  0
  -22.7896  -29.4343   22.4700 C   0  0  0  0  0  0
  -18.0162  -28.1569   22.8214 C   0  0  0  0  0  0
  -24.1498  -36.7093   23.2657 C   0  0  0  0  0  0
  -26.1405  -30.4200   21.4324 C   0  0  0  0  0  0
  -26.2010  -28.9529   20.7936 C   0  0  0  0  0  0
  -27.2917  -27.8910   20.8024 C   0  0  0  0  0  0
  -25.9991  -26.4075   19.5352 C   0  0  0  0  0  0
  -24.9575  -27.3998   19.4818 C   0  0  0  0  0  0
  -23.8153  -29.6344   20.1422 C   0  0  0  0  0  0
  -25.4158  -36.2817   24.0263 C   0  0  1  0  0  0
  -20.6073  -28.3875   23.0881 C   0  0  2  0  0  0
  -20.7786  -26.9756   22.4608 C   0  0  0  0  0  0
  -19.5498  -26.4216   21.7088 C   0  0  0  0  0  0
  -18.1097  -26.8638   22.0237 C   0  0  0  0  0  0
  -19.1588  -28.8842   23.2637 C   0  0  0  0  0  0
  -18.9570  -30.1345   23.8911 C   0  0  0  0  0  0
  -17.6624  -30.6560   24.0765 C   0  0  0  0  0  0
  -25.9160  -34.9216   23.4892 C   0  0  0  0  0  0
  -16.5419  -29.9202   23.6574 C   0  0  0  0  0  0
  -16.7219  -28.6723   23.0397 C   0  0  0  0  0  0
  -26.4648  -31.6466   25.0680 C   0  0  0  0  0  0
  -25.3637  -31.3855   26.1238 C   0  0  0  0  0  0
  -27.0614  -30.2776   24.6755 C   0  0  0  0  0  0
  -27.6047  -32.4377   25.7524 C   0  0  0  0  0  0
  -27.5558  -37.1705   24.8467 C   0  0  0  0  0  0
  -21.4495  -29.3435   22.3578 N   0  0  0  0  0  0
  -26.4262  -37.3606   23.9409 N   0  0  0  0  0  0
  -24.8283  -30.8941   22.0696 N   0  0  0  0  0  0
  -23.4210  -28.7802   23.3033 O   0  0  0  0  0  0
  -28.1967  -25.1262   20.2226 O   0  0  0  0  0  0
  -26.5824  -34.8842   22.4527 O   0  0  0  0  0  0
  -23.6085  -32.0940   23.6097 O   0  0  0  0  0  0
  -28.7705  -21.2825   19.9969 C   0  0  0  0  0  0
  -29.3625  -19.3536   20.6014 C   0  0  0  0  0  0
  -28.2110  -23.2498   20.5175 C   0  0  0  0  0  0
  -29.4079  -17.4693   20.2741 N   0  0  0  0  0  0
  -31.3466  -13.7011   19.1035 H   0  0  0  0  0  0
  -30.6640  -12.6081   20.2520 H   0  0  0  0  0  0
  -30.0920  -11.9085   17.9034 H   0  0  0  0  0  0
  -29.4512  -13.4961   17.5625 H   0  0  0  0  0  0
  -28.2677  -11.3481   19.3257 H   0  0  0  0  0  0
  -27.5014  -12.1499   17.9722 H   0  0  0  0  0  0
  -27.3925  -14.2099   19.1687 H   0  0  0  0  0  0
  -28.9347  -13.0208   21.5211 H   0  0  0  0  0  0
  -28.0774  -14.5353   21.5592 H   0  0  0  0  0  0
  -25.2813   -9.5677   22.4762 H   0  0  0  0  0  0
  -24.0020   -7.4647   22.7483 H   0  0  0  0  0  0
  -21.0888   -8.8807   19.8948 H   0  0  0  0  0  0
  -22.3776  -10.9680   19.6153 H   0  0  0  0  0  0
  -21.2018   -7.6155   23.9719 H   0  0  0  0  0  0
  -21.1482   -6.0525   25.9077 H   0  0  0  0  0  0
  -22.0594   -2.7615   23.2840 H   0  0  0  0  0  0
  -22.4027  -11.9789   22.4882 H   0  0  0  0  0  0
  -21.0974  -13.1085   22.2674 H   0  0  0  0  0  0
  -24.6092  -15.8546   20.5480 H   0  0  0  0  0  0
  -26.2271  -15.6547   20.1017 H   0  0  0  0  0  0
  -26.7689  -32.4750   23.0689 H   0  0  0  0  0  0
  -25.0068  -33.9166   24.9896 H   0  0  0  0  0  0
  -22.8946  -31.2157   21.2742 H   0  0  0  0  0  0
  -23.3788  -35.9392   23.3244 H   0  0  0  0  0  0
  -24.3558  -36.8846   22.2087 H   0  0  0  0  0  0
  -23.7232  -37.6231   23.6804 H   0  0  0  0  0  0
  -26.3681  -31.1235   20.6306 H   0  0  0  0  0  0
  -26.9832  -30.5006   22.1060 H   0  0  0  0  0  0
  -28.1975  -28.1537   21.3305 H   0  0  0  0  0  0
  -25.7911  -25.4872   19.0076 H   0  0  0  0  0  0
  -24.0632  -27.1495   18.9276 H   0  0  0  0  0  0
  -24.0136  -30.3783   19.3698 H   0  0  0  0  0  0
  -22.9130  -29.1146   19.8155 H   0  0  0  0  0  0
  -25.1379  -36.1542   25.0751 H   0  0  0  0  0  0
  -20.9993  -28.3319   24.1064 H   0  0  0  0  0  0
  -21.1583  -26.3040   23.2422 H   0  0  0  0  0  0
  -21.6163  -26.9721   21.7601 H   0  0  0  0  0  0
  -19.3880  -26.0269   22.7114 H   0  0  0  0  0  0
  -19.6128  -27.3462   21.1307 H   0  0  0  0  0  0
  -17.5815  -27.0283   21.0810 H   0  0  0  0  0  0
  -17.5017  -26.0951   22.5175 H   0  0  0  0  0  0
  -19.8097  -30.7074   24.2302 H   0  0  0  0  0  0
  -17.5302  -31.6181   24.5523 H   0  0  0  0  0  0
  -15.5460  -30.3152   23.8048 H   0  0  0  0  0  0
  -15.8546  -28.1225   22.6995 H   0  0  0  0  0  0
  -24.5858  -30.7178   25.7514 H   0  0  0  0  0  0
  -24.8793  -32.3100   26.4389 H   0  0  0  0  0  0
  -25.7743  -30.9184   27.0198 H   0  0  0  0  0  0
  -26.3378  -29.6321   24.1770 H   0  0  0  0  0  0
  -27.3966  -29.7315   25.5583 H   0  0  0  0  0  0
  -27.9387  -30.3845   24.0374 H   0  0  0  0  0  0
  -27.2557  -33.3779   26.1808 H   0  0  0  0  0  0
  -28.4013  -32.6778   25.0469 H   0  0  0  0  0  0
  -28.0543  -31.8704   26.5683 H   0  0  0  0  0  0
  -28.2525  -38.0046   24.7520 H   0  0  0  0  0  0
  -28.1104  -36.2565   24.6288 H   0  0  0  0  0  0
  -27.2271  -37.1326   25.8867 H   0  0  0  0  0  0
  -20.9859  -29.9264   21.6745 H   0  0  0  0  0  0
  -26.0065  -38.2641   24.1431 H   0  0  0  0  0  0
  -27.9479  -21.0312   19.3274 H   0  0  0  0  0  0
  -29.5799  -21.5046   19.3014 H   0  0  0  0  0  0
  -28.8623  -19.3135   21.5693 H   0  0  0  0  0  0
  -30.4044  -19.5229   20.8749 H   0  0  0  0  0  0
  -28.6621  -23.2870   21.5090 H   0  0  0  0  0  0
  -27.1534  -23.1048   20.7380 H   0  0  0  0  0  0
  -28.4467  -17.2150   20.0887 H   0  0  0  0  0  0
  1 25  1  0  0  0
  1 30  2  0  0  0
  1 74  1  0  0  0
  2  3  1  0  0  0
  2 25  1  0  0  0
  2 75  1  0  0  0
  2 76  1  0  0  0
  3  4  1  0  0  0
  3 77  1  0  0  0
  3 78  1  0  0  0
  4  5  1  0  0  0
  4 79  1  0  0  0
  4 80  1  0  0  0
  5  6  1  0  0  0
  5 26  1  0  0  0
  5 81  1  0  0  0
  6 25  1  0  0  0
  6 82  1  0  0  0
  6 83  1  0  0  0
  7  8  2  0  0  0
  7 26  1  0  0  0
  7 29  1  0  0  0
  8  9  1  0  0  0
  8 22  1  0  0  0
  9 10  1  0  0  0
  9 27  2  0  0  0
 10 11  2  0  0  0
 10 15  1  0  0  0
 11 12  1  0  0  0
 11 84  1  0  0  0
 12 13  2  0  0  0
 12 85  1  0  0  0
 13 14  1  0  0  0
 13 31  1  0  0  0
 14 15  2  0  0  0
 14 86  1  0  0  0
 15 87  1  0  0  0
 16 17  2  0  0  0
 16 21  1  0  0  0
 16 31  1  0  0  0
 17 18  1  0  0  0
 17 88  1  0  0  0
 18 19  2  0  0  0
 18 89  1  0  0  0
 19 20  1  0  0  0
 19 24  1  0  0  0
 20 21  2  0  0  0
 20 90  1  0  0  0
 21 23  1  0  0  0
 22 28  1  0  0  0
 22 32  2  0  0  0
 26 27  1  0  0  0
 28 91  1  0  0  0
 28 92  1  0  0  0
 29 93  1  0  0  0
 29 94  1  0  0  0
 33 34  1  0  0  0
 33 66  1  0  0  0
 33 70  2  0  0  0
 34 36  1  0  0  0
 34 59  1  0  0  0
 34 95  1  0  0  0
 35 44  2  0  0  0
 35 45  1  0  0  0
 35 68  1  0  0  0
 36 56  1  0  0  0
 36 96  1  0  0  0
 37 39  1  0  0  0
 37 47  1  0  0  0
 37 66  1  0  0  0
 37 97  1  0  0  0
 38 43  2  0  0  0
 38 46  1  0  0  0
 38 47  1  0  0  0
 39 64  1  0  0  0
 39 67  2  0  0  0
 40 52  1  0  0  0
 40 53  2  0  0  0
 40 58  1  0  0  0
 41 98  1  0  0  0
 41 99  1  0  0  0
 41100  1  0  0  0
 41 48  1  0  0  0
 42 43  1  0  0  0
 42 66  1  0  0  0
 42101  1  0  0  0
 42102  1  0  0  0
 43 44  1  0  0  0
 44103  1  0  0  0
 45 46  2  0  0  0
 45104  1  0  0  0
 46105  1  0  0  0
 47106  1  0  0  0
 47107  1  0  0  0
 48 56  1  0  0  0
 48 65  1  0  0  0
 48108  1  0  0  0
 49 50  1  0  0  0
 49 53  1  0  0  0
 49 64  1  0  0  0
 49109  1  0  0  0
 50 51  1  0  0  0
 50110  1  0  0  0
 50111  1  0  0  0
 51 52  1  0  0  0
 51112  1  0  0  0
 51113  1  0  0  0
 52114  1  0  0  0
 52115  1  0  0  0
 53 54  1  0  0  0
 54 55  2  0  0  0
 54116  1  0  0  0
 55 57  1  0  0  0
 55117  1  0  0  0
 56 69  2  0  0  0
 57 58  2  0  0  0
 57118  1  0  0  0
 58119  1  0  0  0
 59 60  1  0  0  0
 59 61  1  0  0  0
 59 62  1  0  0  0
 60120  1  0  0  0
 60121  1  0  0  0
 60122  1  0  0  0
 61123  1  0  0  0
 61124  1  0  0  0
 61125  1  0  0  0
 62126  1  0  0  0
 62127  1  0  0  0
 62128  1  0  0  0
 63 65  1  0  0  0
 63129  1  0  0  0
 63130  1  0  0  0
 63131  1  0  0  0
 64132  1  0  0  0
 65133  1  0  0  0
 68 73  1  0  0  0
 71 72  1  0  0  0
 71 73  1  0  0  0
 71134  1  0  0  0
 71135  1  0  0  0
 72 74  1  0  0  0
 72136  1  0  0  0
 72137  1  0  0  0
 73138  1  0  0  0
 73139  1  0  0  0
 74140  1  0  0  0
M  ISO  4   1 100  68 101  73 101  74 100
M  END
> <chiral flag>
0

> <version>
0

> <s_m_source_file>
/data/baiqing/PycharmProjects/Reinvent-master-3.2/result/LINK_invent/BTK/process_docking_weight1_custom_sum_contain_oxygen_bond_distance_aromatic_linkinvent_7_9_3/rearranged_h_0001.sdf

> <i_m_source_file_index>
1

> <r_mmod_Potential_Energy-OPLS-2005>
4439.1796875

> <r_mmod_Stretch_Energy-OPLS-2005>
1928.78686523438

> <r_mmod_Bend_Energy-OPLS-2005>
1134.07287597656

> <r_mmod_Torsional_Energy-OPLS-2005>
253.740341186523

> <r_mmod_Improper_Torsional_Energy-OPLS-2005>
5.21059560775757

> <r_mmod_Van_der_Waal_Energy-OPLS-2005>
136.971328735352

> <r_mmod_Electrostatic_Energy-OPLS-2005>
-343.119842529297

> <r_mmod_Solvation_Energy-OPLS-2005>
-223.109710693359

> <b_mmod_Minimization_Converged-OPLS-2005>
0

> <r_mmod_RMS_Derivative-OPLS-2005>
0.0710311159491539

$$$$
1
                    3D
 Structure written by MMmdl.
151160  0  0  1  0            999 V2000
  -28.6196  -16.6208   20.8090 C   0  0  0  0  0  0
  -29.9366  -14.0582   19.7756 C   0  0  0  0  0  0
  -29.4808  -13.0672   18.5928 C   0  0  0  0  0  0
  -28.1805  -12.3330   18.9304 C   0  0  0  0  0  0
  -27.3967  -13.2943   19.8219 C   0  0  2  0  0  0
  -28.1082  -13.8278   21.0641 C   0  0  0  0  0  0
  -25.1204  -13.7989   20.5442 C   0  0  0  0  0  0
  -24.0876  -13.0156   20.9298 C   0  0  0  0  0  0
  -24.5696  -11.6696   20.8802 C   0  0  0  0  0  0
  -23.8646  -10.4105   21.0509 C   0  0  0  0  0  0
  -24.3383   -9.4097   21.9244 C   0  0  0  0  0  0
  -23.6168   -8.2087   22.0760 C   0  0  0  0  0  0
  -22.4161   -8.0107   21.3531 C   0  0  0  0  0  0
  -21.9699   -9.0027   20.4636 C   0  0  0  0  0  0
  -22.6907  -10.1942   20.3084 C   0  0  0  0  0  0
  -21.6807   -6.0636   22.5295 C   0  0  0  0  0  0
  -21.3971   -6.5581   23.8210 C   0  0  0  0  0  0
  -21.3646   -5.6760   24.9188 C   0  0  0  0  0  0
  -21.6047   -4.3023   24.7258 C   0  0  0  0  0  0
  -21.8824   -3.8087   23.4389 C   0  0  0  0  0  0
  -21.9177   -4.6878   22.3431 C   0  0  0  0  0  0
  -22.7054  -13.5000   21.2097 C   0  0  0  0  0  0
  -22.1654   -4.2067   21.1008 F   0  0  0  0  0  0
  -21.5644   -3.4523   25.7782 F   0  0  0  0  0  0
  -28.8045  -14.9825   20.5214 N   0  0  0  0  0  0
  -26.1251  -12.9083   20.2541 N   0  0  0  0  0  0
  -25.8462  -11.6262   20.5403 N   0  0  0  0  0  0
  -21.9831  -12.8023   22.0739 N   0  0  0  0  0  0
  -25.2908  -15.1771   20.3907 N   0  0  0  0  0  0
  -29.9121  -16.7493   20.6847 O   0  0  0  0  0  0
  -21.6552   -6.8718   21.4237 O   0  0  0  0  0  0
  -22.2835  -14.5361   20.6974 O   0  0  0  0  0  0
  -24.6418  -31.9188   23.2236 C   0  0  0  0  0  0
  -25.9318  -32.5037   23.8581 C   0  0  1  0  0  0
  -27.0601  -27.4120   20.0209 C   0  0  0  0  0  0
  -25.6183  -33.8798   24.2528 N   0  0  0  0  0  0
  -23.4388  -30.5344   21.6129 C   0  0  2  0  0  0
  -24.8353  -29.0950   20.0693 C   0  0  0  0  0  0
  -23.0200  -29.4171   22.5809 C   0  0  0  0  0  0
  -18.5395  -27.1286   22.8987 C   0  0  0  0  0  0
  -24.1502  -36.7355   23.2609 C   0  0  0  0  0  0
  -25.9744  -30.8354   21.4188 C   0  0  0  0  0  0
  -26.0044  -29.4846   20.7367 C   0  0  0  0  0  0
  -27.1322  -28.6180   20.7653 C   0  0  0  0  0  0
  -25.9985  -27.2346   19.1353 C   0  0  0  0  0  0
  -24.8377  -27.9804   19.2448 C   0  0  0  0  0  0
  -23.6053  -29.9517   20.1914 C   0  0  0  0  0  0
  -25.4116  -36.3192   24.0335 C   0  0  1  0  0  0
  -21.4787  -27.6808   23.1615 C   0  0  2  0  0  0
  -22.3680  -26.2558   21.7654 C   0  0  0  0  0  0
  -20.7539  -24.9700   20.8528 C   0  0  0  0  0  0
  -18.8175  -25.5199   21.9053 C   0  0  0  0  0  0
  -19.7002  -28.0208   23.4373 C   0  0  0  0  0  0
  -19.3238  -29.3855   23.8941 C   0  0  0  0  0  0
  -18.0200  -29.9726   23.9151 C   0  0  0  0  0  0
  -25.9096  -34.9582   23.5161 C   0  0  0  0  0  0
  -16.9619  -29.1862   23.4401 C   0  0  0  0  0  0
  -17.2358  -27.8523   22.9469 C   0  0  0  0  0  0
  -26.4570  -31.6666   25.0878 C   0  0  0  0  0  0
  -25.3733  -31.3756   26.1513 C   0  0  0  0  0  0
  -27.0419  -30.3085   24.6310 C   0  0  0  0  0  0
  -27.6116  -32.4337   25.7722 C   0  0  0  0  0  0
  -27.5599  -37.1843   24.8453 C   0  0  0  0  0  0
  -21.7828  -29.0036   22.5817 N   0  0  0  0  0  0
  -26.4296  -37.3871   23.9427 N   0  0  0  0  0  0
  -24.7011  -31.1450   22.1099 N   0  0  0  0  0  0
  -23.8243  -28.8746   23.3305 O   0  0  0  0  0  0
  -27.8300  -26.2937   20.1999 O   0  0  0  0  0  0
  -26.5529  -34.8985   22.4644 O   0  0  0  0  0  0
  -23.5592  -32.1884   23.7636 O   0  0  0  0  0  0
  -20.3874  -27.0456   21.2379 C   0  0  0  0  0  0
  -21.3406  -26.9440   19.6918 C   0  0  0  0  0  0
  -21.0241  -25.1380   22.9897 C   0  0  0  0  0  0
  -22.6056  -25.6974   19.4101 C   0  0  0  0  0  0
  -22.6495  -23.7823   22.0932 C   0  0  0  0  0  0
  -23.2384  -24.4053   20.4802 C   0  0  0  0  0  0
  -24.0517  -22.1452   21.7854 C   0  0  0  0  0  0
  -25.8639  -24.4563   19.8935 C   0  0  0  0  0  0
  -25.4910  -20.1789   21.8934 C   0  0  0  0  0  0
  -26.9890  -25.1843   20.7802 C   0  0  0  0  0  0
  -24.7920  -22.6327   20.8233 N   0  0  0  0  0  0
  -24.6001  -23.9344   20.4676 N   0  0  0  0  0  0
  -26.0880  -24.1448   18.7154 O   0  0  0  0  0  0
  -26.6824  -18.3828   21.1445 O   0  0  0  0  0  0
  -30.6683  -14.7418   19.3438 H   0  0  0  0  0  0
  -30.5177  -13.5027   20.5150 H   0  0  0  0  0  0
  -30.2772  -12.3662   18.3397 H   0  0  0  0  0  0
  -29.3073  -13.6666   17.6988 H   0  0  0  0  0  0
  -28.3978  -11.4179   19.4811 H   0  0  0  0  0  0
  -27.6240  -12.0526   18.0353 H   0  0  0  0  0  0
  -27.1866  -14.1131   19.1283 H   0  0  0  0  0  0
  -28.7138  -13.0761   21.5758 H   0  0  0  0  0  0
  -27.4256  -14.2110   21.8250 H   0  0  0  0  0  0
  -25.2520   -9.5661   22.4806 H   0  0  0  0  0  0
  -23.9918   -7.4476   22.7459 H   0  0  0  0  0  0
  -21.0638   -8.8472   19.8944 H   0  0  0  0  0  0
  -22.3329  -10.9476   19.6205 H   0  0  0  0  0  0
  -21.1938   -7.6087   23.9687 H   0  0  0  0  0  0
  -21.1480   -6.0500   25.9088 H   0  0  0  0  0  0
  -22.0623   -2.7549   23.2912 H   0  0  0  0  0  0
  -22.3477  -11.9666   22.5055 H   0  0  0  0  0  0
  -21.0492  -13.1063   22.3085 H   0  0  0  0  0  0
  -24.5232  -15.8290   20.5144 H   0  0  0  0  0  0
  -26.0904  -15.5930   19.9341 H   0  0  0  0  0  0
  -26.7436  -32.5696   23.1386 H   0  0  0  0  0  0
  -25.0422  -33.9989   25.0731 H   0  0  0  0  0  0
  -22.6477  -31.2863   21.5813 H   0  0  0  0  0  0
  -23.3781  -35.9671   23.3263 H   0  0  0  0  0  0
  -24.3615  -36.8962   22.2027 H   0  0  0  0  0  0
  -23.7231  -37.6554   23.6608 H   0  0  0  0  0  0
  -26.1576  -31.6091   20.6722 H   0  0  0  0  0  0
  -26.8427  -30.8347   22.0651 H   0  0  0  0  0  0
  -27.9850  -28.8293   21.3954 H   0  0  0  0  0  0
  -26.0180  -26.4695   18.3792 H   0  0  0  0  0  0
  -23.9910  -27.7843   18.6078 H   0  0  0  0  0  0
  -23.6872  -30.7668   19.4712 H   0  0  0  0  0  0
  -22.7203  -29.3851   19.9013 H   0  0  0  0  0  0
  -25.1268  -36.2072   25.0825 H   0  0  0  0  0  0
  -21.9225  -27.5547   24.1513 H   0  0  0  0  0  0
  -21.3484  -24.9231   21.0677 H   0  0  0  0  0  0
  -23.3505  -25.9550   22.3802 H   0  0  0  0  0  0
  -20.3793  -24.8843   19.7304 H   0  0  0  0  0  0
  -22.0821  -26.1078   21.3565 H   0  0  0  0  0  0
  -18.0366  -25.5039   21.1431 H   0  0  0  0  0  0
  -18.5244  -24.6979   22.5615 H   0  0  0  0  0  0
  -20.1258  -30.0260   24.2331 H   0  0  0  0  0  0
  -17.8600  -30.9836   24.2656 H   0  0  0  0  0  0
  -15.9547  -29.5803   23.4153 H   0  0  0  0  0  0
  -16.3900  -27.3228   22.5301 H   0  0  0  0  0  0
  -24.5946  -30.7117   25.7743 H   0  0  0  0  0  0
  -24.8901  -32.2913   26.4923 H   0  0  0  0  0  0
  -25.7994  -30.8905   27.0301 H   0  0  0  0  0  0
  -26.3059  -29.6894   24.1183 H   0  0  0  0  0  0
  -27.3953  -29.7271   25.4835 H   0  0  0  0  0  0
  -27.8993  -30.4362   23.9700 H   0  0  0  0  0  0
  -27.2709  -33.3597   26.2365 H   0  0  0  0  0  0
  -28.3934  -32.6956   25.0581 H   0  0  0  0  0  0
  -28.0768  -31.8407   26.5606 H   0  0  0  0  0  0
  -28.2559  -38.0196   24.7589 H   0  0  0  0  0  0
  -28.1156  -36.2736   24.6167 H   0  0  0  0  0  0
  -27.2329  -37.1346   25.8853 H   0  0  0  0  0  0
  -21.0910  -29.4420   21.9918 H   0  0  0  0  0  0
  -26.0186  -38.2937   24.1484 H   0  0  0  0  0  0
  -19.6911  -27.8719   21.1368 H   0  0  0  0  0  0
  -21.1478  -27.6708   18.9167 H   0  0  0  0  0  0
  -20.5460  -24.9722   23.9469 H   0  0  0  0  0  0
  -23.1569  -25.8048   18.4874 H   0  0  0  0  0  0
  -24.9510  -19.6084   22.6485 H   0  0  0  0  0  0
  -26.3177  -20.5982   22.4670 H   0  0  0  0  0  0
  -27.6795  -24.4071   21.1045 H   0  0  0  0  0  0
  -26.5132  -25.5473   21.6931 H   0  0  0  0  0  0
  1 25  1  0  0  0
  1 30  2  0  0  0
  1 84  1  0  0  0
  2  3  1  0  0  0
  2 25  1  0  0  0
  2 85  1  0  0  0
  2 86  1  0  0  0
  3  4  1  0  0  0
  3 87  1  0  0  0
  3 88  1  0  0  0
  4  5  1  0  0  0
  4 89  1  0  0  0
  4 90  1  0  0  0
  5  6  1  0  0  0
  5 26  1  0  0  0
  5 91  1  0  0  0
  6 25  1  0  0  0
  6 92  1  0  0  0
  6 93  1  0  0  0
  7  8  2  0  0  0
  7 26  1  0  0  0
  7 29  1  0  0  0
  8  9  1  0  0  0
  8 22  1  0  0  0
  9 10  1  0  0  0
  9 27  2  0  0  0
 10 11  2  0  0  0
 10 15  1  0  0  0
 11 12  1  0  0  0
 11 94  1  0  0  0
 12 13  2  0  0  0
 12 95  1  0  0  0
 13 14  1  0  0  0
 13 31  1  0  0  0
 14 15  2  0  0  0
 14 96  1  0  0  0
 15 97  1  0  0  0
 16 17  2  0  0  0
 16 21  1  0  0  0
 16 31  1  0  0  0
 17 18  1  0  0  0
 17 98  1  0  0  0
 18 19  2  0  0  0
 18 99  1  0  0  0
 19 20  1  0  0  0
 19 24  1  0  0  0
 20 21  2  0  0  0
 20100  1  0  0  0
 21 23  1  0  0  0
 22 28  1  0  0  0
 22 32  2  0  0  0
 26 27  1  0  0  0
 28101  1  0  0  0
 28102  1  0  0  0
 29103  1  0  0  0
 29104  1  0  0  0
 33 34  1  0  0  0
 33 66  1  0  0  0
 33 70  2  0  0  0
 34 36  1  0  0  0
 34 59  1  0  0  0
 34105  1  0  0  0
 35 44  2  0  0  0
 35 45  1  0  0  0
 35 68  1  0  0  0
 36 56  1  0  0  0
 36106  1  0  0  0
 37 39  1  0  0  0
 37 47  1  0  0  0
 37 66  1  0  0  0
 37107  1  0  0  0
 38 43  2  0  0  0
 38 46  1  0  0  0
 38 47  1  0  0  0
 39 64  1  0  0  0
 39 67  2  0  0  0
 40 52  1  0  0  0
 40 53  2  0  0  0
 40 58  1  0  0  0
 41108  1  0  0  0
 41109  1  0  0  0
 41110  1  0  0  0
 41 48  1  0  0  0
 42 43  1  0  0  0
 42 66  1  0  0  0
 42111  1  0  0  0
 42112  1  0  0  0
 43 44  1  0  0  0
 44113  1  0  0  0
 45 46  2  0  0  0
 45114  1  0  0  0
 46115  1  0  0  0
 47116  1  0  0  0
 47117  1  0  0  0
 48 56  1  0  0  0
 48 65  1  0  0  0
 48118  1  0  0  0
 49 50  1  0  0  0
 49 53  1  0  0  0
 49 64  1  0  0  0
 49119  1  0  0  0
 50 51  1  0  0  0
 50120  1  0  0  0
 50121  1  0  0  0
 51 52  1  0  0  0
 51122  1  0  0  0
 51123  1  0  0  0
 52124  1  0  0  0
 52125  1  0  0  0
 53 54  1  0  0  0
 54 55  2  0  0  0
 54126  1  0  0  0
 55 57  1  0  0  0
 55127  1  0  0  0
 56 69  2  0  0  0
 57 58  2  0  0  0
 57128  1  0  0  0
 58129  1  0  0  0
 59 60  1  0  0  0
 59 61  1  0  0  0
 59 62  1  0  0  0
 60130  1  0  0  0
 60131  1  0  0  0
 60132  1  0  0  0
 61133  1  0  0  0
 61134  1  0  0  0
 61135  1  0  0  0
 62136  1  0  0  0
 62137  1  0  0  0
 62138  1  0  0  0
 63 65  1  0  0  0
 63139  1  0  0  0
 63140  1  0  0  0
 63141  1  0  0  0
 64142  1  0  0  0
 65143  1  0  0  0
 68 80  1  0  0  0
 71 72  2  0  0  0
 71 73  1  0  0  0
 71144  1  0  0  0
 72 74  1  0  0  0
 72145  1  0  0  0
 73 75  2  0  0  0
 73146  1  0  0  0
 74 76  2  0  0  0
 74147  1  0  0  0
 75 76  1  0  0  0
 75 77  1  0  0  0
 76 82  1  0  0  0
 77 79  1  0  0  0
 77 81  2  0  0  0
 78 80  1  0  0  0
 78 82  1  0  0  0
 78 83  2  0  0  0
 79 84  1  0  0  0
 79148  1  0  0  0
 79149  1  0  0  0
 80150  1  0  0  0
 80151  1  0  0  0
 81 82  1  0  0  0
M  ISO  4   1 100  68 101  80 101  84 100
M  END
> <chiral flag>
0

> <version>
0

> <s_m_source_file>
/data/baiqing/PycharmProjects/Reinvent-master-3.2/result/LINK_invent/BTK/process_docking_weight1_custom_sum_contain_oxygen_bond_distance_aromatic_linkinvent_7_9_3/rearranged_h_0001.sdf

> <i_m_source_file_index>
2

> <r_mmod_Potential_Energy-OPLS-2005>
25683.8671875

> <r_mmod_Stretch_Energy-OPLS-2005>
14479.3623046875

> <r_mmod_Bend_Energy-OPLS-2005>
2532.93823242188

> <r_mmod_Torsional_Energy-OPLS-2005>
456.734893798828

> <r_mmod_Improper_Torsional_Energy-OPLS-2005>
17.493709564209

> <r_mmod_Van_der_Waal_Energy-OPLS-2005>
3930.31103515625

> <r_mmod_Electrostatic_Energy-OPLS-2005>
-242.119522094727

> <r_mmod_Solvation_Energy-OPLS-2005>
-216.350646972656

> <b_mmod_Minimization_Converged-OPLS-2005>
0

> <r_mmod_RMS_Derivative-OPLS-2005>
3.89425659179688

$$$$
2
                    3D
 Structure written by MMmdl.
143150  0  0  1  0            999 V2000
  -30.3355  -15.5533   20.3377 C   0  0  0  0  0  0
  -30.4278  -13.0206   19.5356 C   0  0  0  0  0  0
  -29.5464  -12.6353   18.3151 C   0  0  0  0  0  0
  -28.1142  -12.2965   18.7563 C   0  0  0  0  0  0
  -27.5983  -13.2998   19.8136 C   0  0  2  0  0  0
  -28.6188  -13.6020   20.9348 C   0  0  0  0  0  0
  -25.2335  -13.8272   20.5783 C   0  0  0  0  0  0
  -24.1716  -13.0431   20.9280 C   0  0  0  0  0  0
  -24.6407  -11.6939   20.8763 C   0  0  0  0  0  0
  -23.9108  -10.4290   21.0398 C   0  0  0  0  0  0
  -24.3646   -9.4204   21.9179 C   0  0  0  0  0  0
  -23.6308   -8.2245   22.0753 C   0  0  0  0  0  0
  -22.4289   -8.0285   21.3544 C   0  0  0  0  0  0
  -21.9934   -9.0259   20.4644 C   0  0  0  0  0  0
  -22.7275  -10.2132   20.3050 C   0  0  0  0  0  0
  -21.6858   -6.0738   22.5278 C   0  0  0  0  0  0
  -21.4019   -6.5642   23.8212 C   0  0  0  0  0  0
  -21.3660   -5.6794   24.9173 C   0  0  0  0  0  0
  -21.6043   -4.3057   24.7224 C   0  0  0  0  0  0
  -21.8819   -3.8148   23.4345 C   0  0  0  0  0  0
  -21.9194   -4.6965   22.3402 C   0  0  0  0  0  0
  -22.7731  -13.5167   21.1917 C   0  0  0  0  0  0
  -22.1662   -4.2150   21.0979 F   0  0  0  0  0  0
  -21.5626   -3.4540   25.7737 F   0  0  0  0  0  0
  -29.8047  -14.1993   20.2827 N   0  0  0  0  0  0
  -26.2777  -12.9589   20.3227 N   0  0  0  0  0  0
  -25.9352  -11.6669   20.5705 N   0  0  0  0  0  0
  -22.0396  -12.8145   22.0471 N   0  0  0  0  0  0
  -25.3934  -15.2012   20.4226 N   0  0  0  0  0  0
  -31.5687  -15.5024   20.1771 O   0  0  0  0  0  0
  -21.6647   -6.8885   21.4242 O   0  0  0  0  0  0
  -22.3406  -14.5465   20.6752 O   0  0  0  0  0  0
  -24.6800  -31.8038   23.1543 C   0  0  0  0  0  0
  -25.9399  -32.4487   23.8074 C   0  0  1  0  0  0
  -27.2247  -26.7418   20.2123 C   0  0  0  0  0  0
  -25.5993  -33.8310   24.1966 N   0  0  0  0  0  0
  -23.5038  -30.4073   21.5074 C   0  0  2  0  0  0
  -24.9602  -28.7545   20.1181 C   0  0  0  0  0  0
  -22.7746  -29.4338   22.4723 C   0  0  0  0  0  0
  -18.0336  -28.1422   22.8456 C   0  0  0  0  0  0
  -24.1495  -36.7162   23.2653 C   0  0  0  0  0  0
  -26.0826  -30.5501   21.4119 C   0  0  0  0  0  0
  -26.1487  -29.1190   20.7619 C   0  0  0  0  0  0
  -27.2682  -28.1399   20.7756 C   0  0  0  0  0  0
  -26.0029  -26.5744   19.5148 C   0  0  0  0  0  0
  -24.9238  -27.5069   19.4714 C   0  0  0  0  0  0
  -23.7552  -29.7060   20.1417 C   0  0  0  0  0  0
  -25.4144  -36.2907   24.0285 C   0  0  1  0  0  0
  -20.5969  -28.3778   23.1151 C   0  0  2  0  0  0
  -20.6806  -26.9441   22.5404 C   0  0  0  0  0  0
  -19.5783  -26.6372   21.5218 C   0  0  0  0  0  0
  -18.1963  -26.7949   22.1618 C   0  0  0  0  0  0
  -19.1601  -28.8923   23.2785 C   0  0  0  0  0  0
  -18.9509  -30.1507   23.8830 C   0  0  0  0  0  0
  -17.6500  -30.6605   24.0552 C   0  0  0  0  0  0
  -25.9122  -34.9297   23.4960 C   0  0  0  0  0  0
  -16.5389  -29.9089   23.6351 C   0  0  0  0  0  0
  -16.7316  -28.6511   23.0366 C   0  0  0  0  0  0
  -26.4590  -31.6507   25.0681 C   0  0  0  0  0  0
  -25.3664  -31.3815   26.1302 C   0  0  0  0  0  0
  -27.0517  -30.2851   24.6551 C   0  0  0  0  0  0
  -27.6045  -32.4359   25.7497 C   0  0  0  0  0  0
  -27.5563  -37.1737   24.8467 C   0  0  0  0  0  0
  -21.4398  -29.3031   22.3473 N   0  0  0  0  0  0
  -26.4272  -37.3665   23.9408 N   0  0  0  0  0  0
  -24.7786  -30.9523   22.0774 N   0  0  0  0  0  0
  -23.4209  -28.7935   23.3052 O   0  0  0  0  0  0
  -28.2041  -25.5512   20.2801 O   0  0  0  0  0  0
  -26.5758  -34.8869   22.4574 O   0  0  0  0  0  0
  -23.5828  -32.1094   23.6523 O   0  0  0  0  0  0
  -28.7651  -20.2674   20.2904 C   0  0  0  0  0  0
  -29.0007  -22.1779   20.3080 C   0  0  0  0  0  0
  -29.8051  -18.6520   20.3467 C   0  0  0  0  0  0
  -28.0034  -23.8204   20.2032 C   0  0  0  0  0  0
  -29.5782  -16.9027   20.3825 N   0  0  0  0  0  0
  -31.4268  -13.2705   19.1767 H   0  0  0  0  0  0
  -30.5690  -12.1647   20.1980 H   0  0  0  0  0  0
  -29.9845  -11.7945   17.7757 H   0  0  0  0  0  0
  -29.5210  -13.4708   17.6137 H   0  0  0  0  0  0
  -28.1271  -11.2932   19.1840 H   0  0  0  0  0  0
  -27.4439  -12.2569   17.8969 H   0  0  0  0  0  0
  -27.4709  -14.2301   19.2582 H   0  0  0  0  0  0
  -28.8604  -12.7103   21.5153 H   0  0  0  0  0  0
  -28.2012  -14.3242   21.6380 H   0  0  0  0  0  0
  -25.2785   -9.5679   22.4764 H   0  0  0  0  0  0
  -24.0009   -7.4638   22.7481 H   0  0  0  0  0  0
  -21.0862   -8.8785   19.8952 H   0  0  0  0  0  0
  -22.3730  -10.9673   19.6163 H   0  0  0  0  0  0
  -21.2015   -7.6151   23.9715 H   0  0  0  0  0  0
  -21.1481   -6.0525   25.9076 H   0  0  0  0  0  0
  -22.0596   -2.7611   23.2846 H   0  0  0  0  0  0
  -22.4039  -11.9821   22.4865 H   0  0  0  0  0  0
  -21.1004  -13.1141   22.2671 H   0  0  0  0  0  0
  -24.6207  -15.8487   20.5359 H   0  0  0  0  0  0
  -26.2324  -15.6443   20.0726 H   0  0  0  0  0  0
  -26.7477  -32.4971   23.0784 H   0  0  0  0  0  0
  -25.0059  -33.9354   25.0062 H   0  0  0  0  0  0
  -22.8274  -31.2439   21.3201 H   0  0  0  0  0  0
  -23.3774  -35.9475   23.3272 H   0  0  0  0  0  0
  -24.3562  -36.8864   22.2076 H   0  0  0  0  0  0
  -23.7238  -37.6325   23.6753 H   0  0  0  0  0  0
  -26.2810  -31.2776   20.6238 H   0  0  0  0  0  0
  -26.9354  -30.6164   22.0750 H   0  0  0  0  0  0
  -28.1647  -28.4248   21.3080 H   0  0  0  0  0  0
  -25.8443  -25.6278   19.0182 H   0  0  0  0  0  0
  -24.0252  -27.2191   18.9430 H   0  0  0  0  0  0
  -23.9278  -30.4668   19.3796 H   0  0  0  0  0  0
  -22.8607  -29.1707   19.8189 H   0  0  0  0  0  0
  -25.1351  -36.1675   25.0775 H   0  0  0  0  0  0
  -21.0052  -28.3402   24.1277 H   0  0  0  0  0  0
  -20.5676  -26.2401   23.3662 H   0  0  0  0  0  0
  -21.6667  -26.7393   22.1218 H   0  0  0  0  0  0
  -19.6942  -25.6265   21.1292 H   0  0  0  0  0  0
  -19.6728  -27.3145   20.6718 H   0  0  0  0  0  0
  -17.4233  -26.6692   21.4021 H   0  0  0  0  0  0
  -18.0352  -26.0108   22.9031 H   0  0  0  0  0  0
  -19.7986  -30.7339   24.2170 H   0  0  0  0  0  0
  -17.5053  -31.6279   24.5166 H   0  0  0  0  0  0
  -15.5388  -30.2971   23.7716 H   0  0  0  0  0  0
  -15.8715  -28.0809   22.7122 H   0  0  0  0  0  0
  -24.5873  -30.7140   25.7600 H   0  0  0  0  0  0
  -24.8826  -32.3036   26.4537 H   0  0  0  0  0  0
  -25.7846  -30.9101   27.0204 H   0  0  0  0  0  0
  -26.3228  -29.6473   24.1543 H   0  0  0  0  0  0
  -27.3966  -29.7288   25.5278 H   0  0  0  0  0  0
  -27.9198  -30.3989   24.0055 H   0  0  0  0  0  0
  -27.2593  -33.3729   26.1879 H   0  0  0  0  0  0
  -28.3955  -32.6809   25.0396 H   0  0  0  0  0  0
  -28.0603  -31.8616   26.5574 H   0  0  0  0  0  0
  -28.2553  -38.0057   24.7511 H   0  0  0  0  0  0
  -28.1085  -36.2580   24.6299 H   0  0  0  0  0  0
  -27.2276  -37.1380   25.8868 H   0  0  0  0  0  0
  -20.9695  -29.8687   21.6544 H   0  0  0  0  0  0
  -26.0103  -38.2714   24.1421 H   0  0  0  0  0  0
  -28.1541  -20.1192   19.3998 H   0  0  0  0  0  0
  -28.0571  -20.1169   21.1057 H   0  0  0  0  0  0
  -29.7448  -22.3205   19.5244 H   0  0  0  0  0  0
  -29.5730  -22.3235   21.2244 H   0  0  0  0  0  0
  -30.4440  -18.8018   21.2176 H   0  0  0  0  0  0
  -30.4945  -18.7676   19.5099 H   0  0  0  0  0  0
  -27.2299  -23.6732   20.9571 H   0  0  0  0  0  0
  -27.4624  -23.7113   19.2633 H   0  0  0  0  0  0
  -28.5926  -16.6942   20.4591 H   0  0  0  0  0  0
  1 25  1  0  0  0
  1 30  2  0  0  0
  1 75  1  0  0  0
  2  3  1  0  0  0
  2 25  1  0  0  0
  2 76  1  0  0  0
  2 77  1  0  0  0
  3  4  1  0  0  0
  3 78  1  0  0  0
  3 79  1  0  0  0
  4  5  1  0  0  0
  4 80  1  0  0  0
  4 81  1  0  0  0
  5  6  1  0  0  0
  5 26  1  0  0  0
  5 82  1  0  0  0
  6 25  1  0  0  0
  6 83  1  0  0  0
  6 84  1  0  0  0
  7  8  2  0  0  0
  7 26  1  0  0  0
  7 29  1  0  0  0
  8  9  1  0  0  0
  8 22  1  0  0  0
  9 10  1  0  0  0
  9 27  2  0  0  0
 10 11  2  0  0  0
 10 15  1  0  0  0
 11 12  1  0  0  0
 11 85  1  0  0  0
 12 13  2  0  0  0
 12 86  1  0  0  0
 13 14  1  0  0  0
 13 31  1  0  0  0
 14 15  2  0  0  0
 14 87  1  0  0  0
 15 88  1  0  0  0
 16 17  2  0  0  0
 16 21  1  0  0  0
 16 31  1  0  0  0
 17 18  1  0  0  0
 17 89  1  0  0  0
 18 19  2  0  0  0
 18 90  1  0  0  0
 19 20  1  0  0  0
 19 24  1  0  0  0
 20 21  2  0  0  0
 20 91  1  0  0  0
 21 23  1  0  0  0
 22 28  1  0  0  0
 22 32  2  0  0  0
 26 27  1  0  0  0
 28 92  1  0  0  0
 28 93  1  0  0  0
 29 94  1  0  0  0
 29 95  1  0  0  0
 33 34  1  0  0  0
 33 66  1  0  0  0
 33 70  2  0  0  0
 34 36  1  0  0  0
 34 59  1  0  0  0
 34 96  1  0  0  0
 35 44  2  0  0  0
 35 45  1  0  0  0
 35 68  1  0  0  0
 36 56  1  0  0  0
 36 97  1  0  0  0
 37 39  1  0  0  0
 37 47  1  0  0  0
 37 66  1  0  0  0
 37 98  1  0  0  0
 38 43  2  0  0  0
 38 46  1  0  0  0
 38 47  1  0  0  0
 39 64  1  0  0  0
 39 67  2  0  0  0
 40 52  1  0  0  0
 40 53  2  0  0  0
 40 58  1  0  0  0
 41 99  1  0  0  0
 41100  1  0  0  0
 41101  1  0  0  0
 41 48  1  0  0  0
 42 43  1  0  0  0
 42 66  1  0  0  0
 42102  1  0  0  0
 42103  1  0  0  0
 43 44  1  0  0  0
 44104  1  0  0  0
 45 46  2  0  0  0
 45105  1  0  0  0
 46106  1  0  0  0
 47107  1  0  0  0
 47108  1  0  0  0
 48 56  1  0  0  0
 48 65  1  0  0  0
 48109  1  0  0  0
 49 50  1  0  0  0
 49 53  1  0  0  0
 49 64  1  0  0  0
 49110  1  0  0  0
 50 51  1  0  0  0
 50111  1  0  0  0
 50112  1  0  0  0
 51 52  1  0  0  0
 51113  1  0  0  0
 51114  1  0  0  0
 52115  1  0  0  0
 52116  1  0  0  0
 53 54  1  0  0  0
 54 55  2  0  0  0
 54117  1  0  0  0
 55 57  1  0  0  0
 55118  1  0  0  0
 56 69  2  0  0  0
 57 58  2  0  0  0
 57119  1  0  0  0
 58120  1  0  0  0
 59 60  1  0  0  0
 59 61  1  0  0  0
 59 62  1  0  0  0
 60121  1  0  0  0
 60122  1  0  0  0
 60123  1  0  0  0
 61124  1  0  0  0
 61125  1  0  0  0
 61126  1  0  0  0
 62127  1  0  0  0
 62128  1  0  0  0
 62129  1  0  0  0
 63 65  1  0  0  0
 63130  1  0  0  0
 63131  1  0  0  0
 63132  1  0  0  0
 64133  1  0  0  0
 65134  1  0  0  0
 68 74  1  0  0  0
 71 72  1  0  0  0
 71 73  1  0  0  0
 71135  1  0  0  0
 71136  1  0  0  0
 72 74  1  0  0  0
 72137  1  0  0  0
 72138  1  0  0  0
 73 75  1  0  0  0
 73139  1  0  0  0
 73140  1  0  0  0
 74141  1  0  0  0
 74142  1  0  0  0
 75143  1  0  0  0
M  ISO  4   1 100  68 101  74 101  75 100
M  END
> <chiral flag>
0

> <version>
0

> <s_m_source_file>
/data/baiqing/PycharmProjects/Reinvent-master-3.2/result/LINK_invent/BTK/process_docking_weight1_custom_sum_contain_oxygen_bond_distance_aromatic_linkinvent_7_9_3/rearranged_h_0001.sdf

> <i_m_source_file_index>
3

> <r_mmod_Potential_Energy-OPLS-2005>
2236.59155273438

> <r_mmod_Stretch_Energy-OPLS-2005>
1088.18041992188

> <r_mmod_Bend_Energy-OPLS-2005>
600.093139648438

> <r_mmod_Torsional_Energy-OPLS-2005>
206.369812011719

> <r_mmod_Improper_Torsional_Energy-OPLS-2005>
3.66827178001404

> <r_mmod_Van_der_Waal_Energy-OPLS-2005>
110.215888977051

> <r_mmod_Electrostatic_Energy-OPLS-2005>
-352.887237548828

> <r_mmod_Solvation_Energy-OPLS-2005>
-215.827575683594

> <b_mmod_Minimization_Converged-OPLS-2005>
0

> <r_mmod_RMS_Derivative-OPLS-2005>
0.268112510442734

$$$$
3
                    3D
 Structure written by MMmdl.
149156  0  0  1  0            999 V2000
  -30.6579  -14.6879   20.4640 C   0  0  0  0  0  0
  -30.4254  -12.3895   19.4894 C   0  0  0  0  0  0
  -29.5148  -12.4979   18.2460 C   0  0  0  0  0  0
  -28.0357  -12.3400   18.6475 C   0  0  0  0  0  0
  -27.6440  -13.2348   19.8548 C   0  0  2  0  0  0
  -28.6743  -13.1517   20.9999 C   0  0  0  0  0  0
  -25.2505  -13.8215   20.5685 C   0  0  0  0  0  0
  -24.1793  -13.0451   20.9181 C   0  0  0  0  0  0
  -24.6388  -11.6930   20.8727 C   0  0  0  0  0  0
  -23.9070  -10.4301   21.0398 C   0  0  0  0  0  0
  -24.3622   -9.4217   21.9177 C   0  0  0  0  0  0
  -23.6298   -8.2252   22.0752 C   0  0  0  0  0  0
  -22.4279   -8.0285   21.3543 C   0  0  0  0  0  0
  -21.9913   -9.0258   20.4645 C   0  0  0  0  0  0
  -22.7241  -10.2138   20.3051 C   0  0  0  0  0  0
  -21.6857   -6.0738   22.5279 C   0  0  0  0  0  0
  -21.4017   -6.5641   23.8212 C   0  0  0  0  0  0
  -21.3660   -5.6793   24.9174 C   0  0  0  0  0  0
  -21.6045   -4.3056   24.7224 C   0  0  0  0  0  0
  -21.8819   -3.8147   23.4345 C   0  0  0  0  0  0
  -21.9194   -4.6964   22.3402 C   0  0  0  0  0  0
  -22.7816  -13.5226   21.1857 C   0  0  0  0  0  0
  -22.1661   -4.2150   21.0980 F   0  0  0  0  0  0
  -21.5629   -3.4539   25.7737 F   0  0  0  0  0  0
  -29.9984  -13.4325   20.4432 N   0  0  0  0  0  0
  -26.2933  -12.9431   20.3266 N   0  0  0  0  0  0
  -25.9316  -11.6566   20.5726 N   0  0  0  0  0  0
  -22.0476  -12.8210   22.0421 N   0  0  0  0  0  0
  -25.4218  -15.1938   20.4145 N   0  0  0  0  0  0
  -31.8157  -14.8284   20.0679 O   0  0  0  0  0  0
  -21.6644   -6.8881   21.4240 O   0  0  0  0  0  0
  -22.3493  -14.5532   20.6713 O   0  0  0  0  0  0
  -24.6291  -31.8577   23.2016 C   0  0  0  0  0  0
  -25.9130  -32.4766   23.8348 C   0  0  1  0  0  0
  -27.2147  -27.2827   20.1234 C   0  0  0  0  0  0
  -25.5936  -33.8569   24.2270 N   0  0  0  0  0  0
  -23.4239  -30.4826   21.5446 C   0  0  2  0  0  0
  -24.8699  -28.9378   20.1069 C   0  0  0  0  0  0
  -22.7491  -29.4614   22.4921 C   0  0  0  0  0  0
  -18.0290  -28.1385   22.8485 C   0  0  0  0  0  0
  -24.1491  -36.7288   23.2639 C   0  0  0  0  0  0
  -25.9687  -30.7763   21.3803 C   0  0  0  0  0  0
  -26.0400  -29.4020   20.7206 C   0  0  0  0  0  0
  -27.2137  -28.5850   20.7227 C   0  0  0  0  0  0
  -26.0266  -26.8946   19.4601 C   0  0  0  0  0  0
  -24.8676  -27.6913   19.4660 C   0  0  0  0  0  0
  -23.6400  -29.8216   20.1585 C   0  0  0  0  0  0
  -25.4116  -36.3076   24.0327 C   0  0  1  0  0  0
  -20.5893  -28.3695   23.1273 C   0  0  2  0  0  0
  -20.6779  -26.9414   22.5409 C   0  0  0  0  0  0
  -19.5754  -26.6383   21.5213 C   0  0  0  0  0  0
  -18.1934  -26.7927   22.1624 C   0  0  0  0  0  0
  -19.1543  -28.8857   23.2874 C   0  0  0  0  0  0
  -18.9466  -30.1457   23.8892 C   0  0  0  0  0  0
  -17.6465  -30.6587   24.0563 C   0  0  0  0  0  0
  -25.9056  -34.9446   23.5099 C   0  0  0  0  0  0
  -16.5356  -29.9084   23.6331 C   0  0  0  0  0  0
  -16.7277  -28.6501   23.0352 C   0  0  0  0  0  0
  -26.4503  -31.6585   25.0729 C   0  0  0  0  0  0
  -25.3728  -31.3732   26.1451 C   0  0  0  0  0  0
  -27.0353  -30.3002   24.6210 C   0  0  0  0  0  0
  -27.6056  -32.4327   25.7501 C   0  0  0  0  0  0
  -27.5579  -37.1800   24.8465 C   0  0  0  0  0  0
  -21.4201  -29.3044   22.3664 N   0  0  0  0  0  0
  -26.4293  -37.3772   23.9406 N   0  0  0  0  0  0
  -24.6928  -31.0562   22.0985 N   0  0  0  0  0  0
  -23.4203  -28.8151   23.3008 O   0  0  0  0  0  0
  -28.3079  -26.3921   20.2098 O   0  0  0  0  0  0
  -26.5626  -34.8917   22.4667 O   0  0  0  0  0  0
  -23.5447  -32.1394   23.7324 O   0  0  0  0  0  0
  -29.6019  -18.4307   20.9585 C   0  0  0  0  0  0
  -30.0856  -17.1413   20.1634 C   0  0  0  0  0  0
  -28.8145  -22.2616   20.0920 C   0  0  0  0  0  0
  -28.9932  -23.7860   20.5958 C   0  0  0  0  0  0
  -29.4146  -21.0458   20.9589 C   0  0  0  0  0  0
  -28.0908  -24.9365   19.9321 C   0  0  0  0  0  0
  -29.5286  -19.6631   20.3364 N   0  0  0  0  0  0
  -29.3464  -18.3233   22.1603 O   0  0  0  0  0  0
  -29.8246  -15.8086   20.7708 O   0  0  0  0  0  0
  -31.4734  -12.4957   19.2042 H   0  0  0  0  0  0
  -30.3364  -11.4035   19.9481 H   0  0  0  0  0  0
  -29.7856  -11.7372   17.5125 H   0  0  0  0  0  0
  -29.6646  -13.4621   17.7575 H   0  0  0  0  0  0
  -27.8761  -11.2906   18.8983 H   0  0  0  0  0  0
  -27.3874  -12.5498   17.7960 H   0  0  0  0  0  0
  -27.6501  -14.2612   19.4876 H   0  0  0  0  0  0
  -28.6665  -12.1612   21.4568 H   0  0  0  0  0  0
  -28.4262  -13.8591   21.7929 H   0  0  0  0  0  0
  -25.2769   -9.5696   22.4749 H   0  0  0  0  0  0
  -24.0009   -7.4646   22.7473 H   0  0  0  0  0  0
  -21.0846   -8.8774   19.8952 H   0  0  0  0  0  0
  -22.3696  -10.9674   19.6160 H   0  0  0  0  0  0
  -21.2010   -7.6149   23.9714 H   0  0  0  0  0  0
  -21.1482   -6.0524   25.9076 H   0  0  0  0  0  0
  -22.0597   -2.7609   23.2845 H   0  0  0  0  0  0
  -22.4104  -11.9874   22.4804 H   0  0  0  0  0  0
  -21.1094  -13.1226   22.2639 H   0  0  0  0  0  0
  -24.6633  -15.8551   20.5408 H   0  0  0  0  0  0
  -26.2897  -15.6331   20.1335 H   0  0  0  0  0  0
  -26.7195  -32.5423   23.1089 H   0  0  0  0  0  0
  -25.0082  -33.9709   25.0415 H   0  0  0  0  0  0
  -22.7192  -31.3046   21.4025 H   0  0  0  0  0  0
  -23.3754  -35.9620   23.3303 H   0  0  0  0  0  0
  -24.3582  -36.8909   22.2053 H   0  0  0  0  0  0
  -23.7245  -37.6490   23.6663 H   0  0  0  0  0  0
  -26.1077  -31.5391   20.6130 H   0  0  0  0  0  0
  -26.8464  -30.8221   22.0134 H   0  0  0  0  0  0
  -28.1057  -28.9309   21.2262 H   0  0  0  0  0  0
  -25.9567  -25.9530   18.9369 H   0  0  0  0  0  0
  -23.9746  -27.3354   18.9704 H   0  0  0  0  0  0
  -23.7622  -30.6005   19.4050 H   0  0  0  0  0  0
  -22.7585  -29.2548   19.8536 H   0  0  0  0  0  0
  -25.1297  -36.1926   25.0819 H   0  0  0  0  0  0
  -20.9985  -28.3275   24.1393 H   0  0  0  0  0  0
  -20.5682  -26.2305   23.3614 H   0  0  0  0  0  0
  -21.6647  -26.7441   22.1202 H   0  0  0  0  0  0
  -19.6918  -25.6294   21.1244 H   0  0  0  0  0  0
  -19.6691  -27.3193   20.6743 H   0  0  0  0  0  0
  -17.4204  -26.6677   21.4025 H   0  0  0  0  0  0
  -18.0331  -26.0068   22.9018 H   0  0  0  0  0  0
  -19.7942  -30.7273   24.2260 H   0  0  0  0  0  0
  -17.5021  -31.6267   24.5166 H   0  0  0  0  0  0
  -15.5356  -30.2985   23.7657 H   0  0  0  0  0  0
  -15.8677  -28.0820   22.7068 H   0  0  0  0  0  0
  -24.5909  -30.7072   25.7782 H   0  0  0  0  0  0
  -24.8913  -32.2901   26.4861 H   0  0  0  0  0  0
  -25.8048  -30.8924   27.0237 H   0  0  0  0  0  0
  -26.2936  -29.6746   24.1229 H   0  0  0  0  0  0
  -27.4031  -29.7267   25.4727 H   0  0  0  0  0  0
  -27.8815  -30.4277   23.9456 H   0  0  0  0  0  0
  -27.2661  -33.3630   26.2068 H   0  0  0  0  0  0
  -28.3872  -32.6882   25.0334 H   0  0  0  0  0  0
  -28.0720  -31.8462   26.5428 H   0  0  0  0  0  0
  -28.2597  -38.0096   24.7508 H   0  0  0  0  0  0
  -28.1073  -36.2626   24.6296 H   0  0  0  0  0  0
  -27.2297  -37.1455   25.8868 H   0  0  0  0  0  0
  -20.9383  -29.8769   21.6873 H   0  0  0  0  0  0
  -26.0173  -38.2847   24.1405 H   0  0  0  0  0  0
  -31.1544  -17.2732   19.9919 H   0  0  0  0  0  0
  -29.6176  -17.1536   19.1787 H   0  0  0  0  0  0
  -29.2309  -22.2034   19.0859 H   0  0  0  0  0  0
  -27.7474  -22.0738   19.9681 H   0  0  0  0  0  0
  -30.0416  -24.0592   20.4738 H   0  0  0  0  0  0
  -28.8137  -23.8112   21.6711 H   0  0  0  0  0  0
  -28.8403  -20.9667   21.8835 H   0  0  0  0  0  0
  -30.4226  -21.3227   21.2708 H   0  0  0  0  0  0
  -27.0767  -24.6681   20.2279 H   0  0  0  0  0  0
  -28.1326  -24.8159   18.8489 H   0  0  0  0  0  0
  -29.7280  -19.6509   19.3439 H   0  0  0  0  0  0
  1 25  1  0  0  0
  1 30  2  0  0  0
  1 79  1  0  0  0
  2  3  1  0  0  0
  2 25  1  0  0  0
  2 80  1  0  0  0
  2 81  1  0  0  0
  3  4  1  0  0  0
  3 82  1  0  0  0
  3 83  1  0  0  0
  4  5  1  0  0  0
  4 84  1  0  0  0
  4 85  1  0  0  0
  5  6  1  0  0  0
  5 26  1  0  0  0
  5 86  1  0  0  0
  6 25  1  0  0  0
  6 87  1  0  0  0
  6 88  1  0  0  0
  7  8  2  0  0  0
  7 26  1  0  0  0
  7 29  1  0  0  0
  8  9  1  0  0  0
  8 22  1  0  0  0
  9 10  1  0  0  0
  9 27  2  0  0  0
 10 11  2  0  0  0
 10 15  1  0  0  0
 11 12  1  0  0  0
 11 89  1  0  0  0
 12 13  2  0  0  0
 12 90  1  0  0  0
 13 14  1  0  0  0
 13 31  1  0  0  0
 14 15  2  0  0  0
 14 91  1  0  0  0
 15 92  1  0  0  0
 16 17  2  0  0  0
 16 21  1  0  0  0
 16 31  1  0  0  0
 17 18  1  0  0  0
 17 93  1  0  0  0
 18 19  2  0  0  0
 18 94  1  0  0  0
 19 20  1  0  0  0
 19 24  1  0  0  0
 20 21  2  0  0  0
 20 95  1  0  0  0
 21 23  1  0  0  0
 22 28  1  0  0  0
 22 32  2  0  0  0
 26 27  1  0  0  0
 28 96  1  0  0  0
 28 97  1  0  0  0
 29 98  1  0  0  0
 29 99  1  0  0  0
 33 34  1  0  0  0
 33 66  1  0  0  0
 33 70  2  0  0  0
 34 36  1  0  0  0
 34 59  1  0  0  0
 34100  1  0  0  0
 35 44  2  0  0  0
 35 45  1  0  0  0
 35 68  1  0  0  0
 36 56  1  0  0  0
 36101  1  0  0  0
 37 39  1  0  0  0
 37 47  1  0  0  0
 37 66  1  0  0  0
 37102  1  0  0  0
 38 43  2  0  0  0
 38 46  1  0  0  0
 38 47  1  0  0  0
 39 64  1  0  0  0
 39 67  2  0  0  0
 40 52  1  0  0  0
 40 53  2  0  0  0
 40 58  1  0  0  0
 41103  1  0  0  0
 41104  1  0  0  0
 41105  1  0  0  0
 41 48  1  0  0  0
 42 43  1  0  0  0
 42 66  1  0  0  0
 42106  1  0  0  0
 42107  1  0  0  0
 43 44  1  0  0  0
 44108  1  0  0  0
 45 46  2  0  0  0
 45109  1  0  0  0
 46110  1  0  0  0
 47111  1  0  0  0
 47112  1  0  0  0
 48 56  1  0  0  0
 48 65  1  0  0  0
 48113  1  0  0  0
 49 50  1  0  0  0
 49 53  1  0  0  0
 49 64  1  0  0  0
 49114  1  0  0  0
 50 51  1  0  0  0
 50115  1  0  0  0
 50116  1  0  0  0
 51 52  1  0  0  0
 51117  1  0  0  0
 51118  1  0  0  0
 52119  1  0  0  0
 52120  1  0  0  0
 53 54  1  0  0  0
 54 55  2  0  0  0
 54121  1  0  0  0
 55 57  1  0  0  0
 55122  1  0  0  0
 56 69  2  0  0  0
 57 58  2  0  0  0
 57123  1  0  0  0
 58124  1  0  0  0
 59 60  1  0  0  0
 59 61  1  0  0  0
 59 62  1  0  0  0
 60125  1  0  0  0
 60126  1  0  0  0
 60127  1  0  0  0
 61128  1  0  0  0
 61129  1  0  0  0
 61130  1  0  0  0
 62131  1  0  0  0
 62132  1  0  0  0
 62133  1  0  0  0
 63 65  1  0  0  0
 63134  1  0  0  0
 63135  1  0  0  0
 63136  1  0  0  0
 64137  1  0  0  0
 65138  1  0  0  0
 68 76  1  0  0  0
 71 72  1  0  0  0
 71 77  1  0  0  0
 71 78  2  0  0  0
 72 79  1  0  0  0
 72139  1  0  0  0
 72140  1  0  0  0
 73 74  1  0  0  0
 73 75  1  0  0  0
 73141  1  0  0  0
 73142  1  0  0  0
 74 76  1  0  0  0
 74143  1  0  0  0
 74144  1  0  0  0
 75 77  1  0  0  0
 75145  1  0  0  0
 75146  1  0  0  0
 76147  1  0  0  0
 76148  1  0  0  0
 77149  1  0  0  0
M  ISO  4   1 100  68 101  76 101  79 100
M  END
> <chiral flag>
0

> <version>
0

> <s_m_source_file>
/data/baiqing/PycharmProjects/Reinvent-master-3.2/result/LINK_invent/BTK/process_docking_weight1_custom_sum_contain_oxygen_bond_distance_aromatic_linkinvent_7_9_3/rearranged_h_0001.sdf

> <i_m_source_file_index>
4

> <r_mmod_Potential_Energy-OPLS-2005>
-1.6736227273941

> <r_mmod_Stretch_Energy-OPLS-2005>
107.624145507812

> <r_mmod_Bend_Energy-OPLS-2005>
146.32470703125

> <r_mmod_Torsional_Energy-OPLS-2005>
176.48356628418

> <r_mmod_Improper_Torsional_Energy-OPLS-2005>
5.00937223434448

> <r_mmod_Van_der_Waal_Energy-OPLS-2005>
124.130653381348

> <r_mmod_Electrostatic_Energy-OPLS-2005>
-398.388336181641

> <r_mmod_Solvation_Energy-OPLS-2005>
-230.687911987305

> <b_mmod_Minimization_Converged-OPLS-2005>
0

> <r_mmod_RMS_Derivative-OPLS-2005>
0.245817169547081

$$$$
4
                    3D
 Structure written by MMmdl.
140147  0  0  1  0            999 V2000
  -30.1611  -16.0041   20.3080 C   0  0  0  0  0  0
  -30.3940  -13.3709   19.5193 C   0  0  0  0  0  0
  -29.5602  -12.7495   18.3505 C   0  0  0  0  0  0
  -28.1679  -12.3098   18.8207 C   0  0  0  0  0  0
  -27.5837  -13.3431   19.8035 C   0  0  2  0  0  0
  -28.5794  -13.8362   20.8889 C   0  0  0  0  0  0
  -25.2278  -13.8329   20.5856 C   0  0  0  0  0  0
  -24.1700  -13.0433   20.9315 C   0  0  0  0  0  0
  -24.6450  -11.6960   20.8763 C   0  0  0  0  0  0
  -23.9156  -10.4295   21.0384 C   0  0  0  0  0  0
  -24.3676   -9.4207   21.9173 C   0  0  0  0  0  0
  -23.6326   -8.2253   22.0753 C   0  0  0  0  0  0
  -22.4305   -8.0296   21.3544 C   0  0  0  0  0  0
  -21.9960   -9.0273   20.4641 C   0  0  0  0  0  0
  -22.7315  -10.2138   20.3042 C   0  0  0  0  0  0
  -21.6863   -6.0747   22.5279 C   0  0  0  0  0  0
  -21.4022   -6.5646   23.8213 C   0  0  0  0  0  0
  -21.3661   -5.6796   24.9173 C   0  0  0  0  0  0
  -21.6044   -4.3059   24.7222 C   0  0  0  0  0  0
  -21.8818   -3.8153   23.4342 C   0  0  0  0  0  0
  -21.9196   -4.6972   22.3400 C   0  0  0  0  0  0
  -22.7702  -13.5137   21.1934 C   0  0  0  0  0  0
  -22.1662   -4.2158   21.0977 F   0  0  0  0  0  0
  -21.5626   -3.4540   25.7734 F   0  0  0  0  0  0
  -29.6775  -14.5802   20.1919 N   0  0  0  0  0  0
  -26.2769  -12.9729   20.3291 N   0  0  0  0  0  0
  -25.9412  -11.6758   20.5682 N   0  0  0  0  0  0
  -22.0374  -12.8106   22.0483 N   0  0  0  0  0  0
  -25.3817  -15.2078   20.4306 N   0  0  0  0  0  0
  -31.4087  -15.8722   20.2822 O   0  0  0  0  0  0
  -21.6655   -6.8899   21.4244 O   0  0  0  0  0  0
  -22.3368  -14.5432   20.6768 O   0  0  0  0  0  0
  -24.7122  -31.7741   23.1306 C   0  0  0  0  0  0
  -25.9575  -32.4339   23.7956 C   0  0  1  0  0  0
  -27.2357  -26.4414   20.2493 C   0  0  0  0  0  0
  -25.6043  -33.8173   24.1821 N   0  0  0  0  0  0
  -23.5502  -30.3697   21.4913 C   0  0  2  0  0  0
  -25.0042  -28.6446   20.1367 C   0  0  0  0  0  0
  -22.7896  -29.4343   22.4700 C   0  0  0  0  0  0
  -18.0162  -28.1569   22.8214 C   0  0  0  0  0  0
  -24.1498  -36.7093   23.2657 C   0  0  0  0  0  0
  -26.1405  -30.4200   21.4324 C   0  0  0  0  0  0
  -26.2010  -28.9529   20.7936 C   0  0  0  0  0  0
  -27.2917  -27.8910   20.8024 C   0  0  0  0  0  0
  -25.9991  -26.4075   19.5352 C   0  0  0  0  0  0
  -24.9575  -27.3998   19.4818 C   0  0  0  0  0  0
  -23.8153  -29.6344   20.1422 C   0  0  0  0  0  0
  -25.4158  -36.2817   24.0263 C   0  0  1  0  0  0
  -20.6073  -28.3875   23.0881 C   0  0  2  0  0  0
  -20.7786  -26.9756   22.4608 C   0  0  0  0  0  0
  -19.5498  -26.4216   21.7088 C   0  0  0  0  0  0
  -18.1097  -26.8638   22.0237 C   0  0  0  0  0  0
  -19.1588  -28.8842   23.2637 C   0  0  0  0  0  0
  -18.9570  -30.1345   23.8911 C   0  0  0  0  0  0
  -17.6624  -30.6560   24.0765 C   0  0  0  0  0  0
  -25.9160  -34.9216   23.4892 C   0  0  0  0  0  0
  -16.5419  -29.9202   23.6574 C   0  0  0  0  0  0
  -16.7219  -28.6723   23.0397 C   0  0  0  0  0  0
  -26.4648  -31.6466   25.0680 C   0  0  0  0  0  0
  -25.3637  -31.3855   26.1238 C   0  0  0  0  0  0
  -27.0614  -30.2776   24.6755 C   0  0  0  0  0  0
  -27.6047  -32.4377   25.7524 C   0  0  0  0  0  0
  -27.5558  -37.1705   24.8467 C   0  0  0  0  0  0
  -21.4495  -29.3435   22.3578 N   0  0  0  0  0  0
  -26.4262  -37.3606   23.9409 N   0  0  0  0  0  0
  -24.8283  -30.8941   22.0696 N   0  0  0  0  0  0
  -23.4210  -28.7802   23.3033 O   0  0  0  0  0  0
  -28.1967  -25.1262   20.2226 O   0  0  0  0  0  0
  -26.5824  -34.8842   22.4527 O   0  0  0  0  0  0
  -23.6085  -32.0940   23.6097 O   0  0  0  0  0  0
  -28.7705  -21.2825   19.9969 C   0  0  0  0  0  0
  -29.3625  -19.3536   20.6014 C   0  0  0  0  0  0
  -28.2110  -23.2498   20.5175 C   0  0  0  0  0  0
  -29.4079  -17.4693   20.2741 N   0  0  0  0  0  0
  -31.3466  -13.7011   19.1035 H   0  0  0  0  0  0
  -30.6640  -12.6081   20.2520 H   0  0  0  0  0  0
  -30.0920  -11.9085   17.9034 H   0  0  0  0  0  0
  -29.4512  -13.4961   17.5625 H   0  0  0  0  0  0
  -28.2677  -11.3481   19.3257 H   0  0  0  0  0  0
  -27.5014  -12.1499   17.9722 H   0  0  0  0  0  0
  -27.3925  -14.2099   19.1687 H   0  0  0  0  0  0
  -28.9347  -13.0208   21.5211 H   0  0  0  0  0  0
  -28.0774  -14.5353   21.5592 H   0  0  0  0  0  0
  -25.2813   -9.5677   22.4762 H   0  0  0  0  0  0
  -24.0020   -7.4647   22.7483 H   0  0  0  0  0  0
  -21.0888   -8.8807   19.8948 H   0  0  0  0  0  0
  -22.3776  -10.9680   19.6153 H   0  0  0  0  0  0
  -21.2018   -7.6155   23.9719 H   0  0  0  0  0  0
  -21.1482   -6.0525   25.9077 H   0  0  0  0  0  0
  -22.0594   -2.7615   23.2840 H   0  0  0  0  0  0
  -22.4027  -11.9789   22.4882 H   0  0  0  0  0  0
  -21.0974  -13.1085   22.2674 H   0  0  0  0  0  0
  -24.6092  -15.8546   20.5480 H   0  0  0  0  0  0
  -26.2271  -15.6547   20.1017 H   0  0  0  0  0  0
  -26.7689  -32.4750   23.0689 H   0  0  0  0  0  0
  -25.0068  -33.9166   24.9896 H   0  0  0  0  0  0
  -22.8946  -31.2157   21.2742 H   0  0  0  0  0  0
  -23.3788  -35.9392   23.3244 H   0  0  0  0  0  0
  -24.3558  -36.8846   22.2087 H   0  0  0  0  0  0
  -23.7232  -37.6231   23.6804 H   0  0  0  0  0  0
  -26.3681  -31.1235   20.6306 H   0  0  0  0  0  0
  -26.9832  -30.5006   22.1060 H   0  0  0  0  0  0
  -28.1975  -28.1537   21.3305 H   0  0  0  0  0  0
  -25.7911  -25.4872   19.0076 H   0  0  0  0  0  0
  -24.0632  -27.1495   18.9276 H   0  0  0  0  0  0
  -24.0136  -30.3783   19.3698 H   0  0  0  0  0  0
  -22.9130  -29.1146   19.8155 H   0  0  0  0  0  0
  -25.1379  -36.1542   25.0751 H   0  0  0  0  0  0
  -20.9993  -28.3319   24.1064 H   0  0  0  0  0  0
  -21.1583  -26.3040   23.2422 H   0  0  0  0  0  0
  -21.6163  -26.9721   21.7601 H   0  0  0  0  0  0
  -19.3880  -26.0269   22.7114 H   0  0  0  0  0  0
  -19.6128  -27.3462   21.1307 H   0  0  0  0  0  0
  -17.5815  -27.0283   21.0810 H   0  0  0  0  0  0
  -17.5017  -26.0951   22.5175 H   0  0  0  0  0  0
  -19.8097  -30.7074   24.2302 H   0  0  0  0  0  0
  -17.5302  -31.6181   24.5523 H   0  0  0  0  0  0
  -15.5460  -30.3152   23.8048 H   0  0  0  0  0  0
  -15.8546  -28.1225   22.6995 H   0  0  0  0  0  0
  -24.5858  -30.7178   25.7514 H   0  0  0  0  0  0
  -24.8793  -32.3100   26.4389 H   0  0  0  0  0  0
  -25.7743  -30.9184   27.0198 H   0  0  0  0  0  0
  -26.3378  -29.6321   24.1770 H   0  0  0  0  0  0
  -27.3966  -29.7315   25.5583 H   0  0  0  0  0  0
  -27.9387  -30.3845   24.0374 H   0  0  0  0  0  0
  -27.2557  -33.3779   26.1808 H   0  0  0  0  0  0
  -28.4013  -32.6778   25.0469 H   0  0  0  0  0  0
  -28.0543  -31.8704   26.5683 H   0  0  0  0  0  0
  -28.2525  -38.0046   24.7520 H   0  0  0  0  0  0
  -28.1104  -36.2565   24.6288 H   0  0  0  0  0  0
  -27.2271  -37.1326   25.8867 H   0  0  0  0  0  0
  -20.9859  -29.9264   21.6745 H   0  0  0  0  0  0
  -26.0065  -38.2641   24.1431 H   0  0  0  0  0  0
  -27.9479  -21.0312   19.3274 H   0  0  0  0  0  0
  -29.5799  -21.5046   19.3014 H   0  0  0  0  0  0
  -28.8623  -19.3135   21.5693 H   0  0  0  0  0  0
  -30.4044  -19.5229   20.8749 H   0  0  0  0  0  0
  -28.6621  -23.2870   21.5090 H   0  0  0  0  0  0
  -27.1534  -23.1048   20.7380 H   0  0  0  0  0  0
  -28.4467  -17.2150   20.0887 H   0  0  0  0  0  0
  1 25  1  0  0  0
  1 30  2  0  0  0
  1 74  1  0  0  0
  2  3  1  0  0  0
  2 25  1  0  0  0
  2 75  1  0  0  0
  2 76  1  0  0  0
  3  4  1  0  0  0
  3 77  1  0  0  0
  3 78  1  0  0  0
  4  5  1  0  0  0
  4 79  1  0  0  0
  4 80  1  0  0  0
  5  6  1  0  0  0
  5 26  1  0  0  0
  5 81  1  0  0  0
  6 25  1  0  0  0
  6 82  1  0  0  0
  6 83  1  0  0  0
  7  8  2  0  0  0
  7 26  1  0  0  0
  7 29  1  0  0  0
  8  9  1  0  0  0
  8 22  1  0  0  0
  9 10  1  0  0  0
  9 27  2  0  0  0
 10 11  2  0  0  0
 10 15  1  0  0  0
 11 12  1  0  0  0
 11 84  1  0  0  0
 12 13  2  0  0  0
 12 85  1  0  0  0
 13 14  1  0  0  0
 13 31  1  0  0  0
 14 15  2  0  0  0
 14 86  1  0  0  0
 15 87  1  0  0  0
 16 17  2  0  0  0
 16 21  1  0  0  0
 16 31  1  0  0  0
 17 18  1  0  0  0
 17 88  1  0  0  0
 18 19  2  0  0  0
 18 89  1  0  0  0
 19 20  1  0  0  0
 19 24  1  0  0  0
 20 21  2  0  0  0
 20 90  1  0  0  0
 21 23  1  0  0  0
 22 28  1  0  0  0
 22 32  2  0  0  0
 26 27  1  0  0  0
 28 91  1  0  0  0
 28 92  1  0  0  0
 29 93  1  0  0  0
 29 94  1  0  0  0
 33 34  1  0  0  0
 33 66  1  0  0  0
 33 70  2  0  0  0
 34 36  1  0  0  0
 34 59  1  0  0  0
 34 95  1  0  0  0
 35 44  2  0  0  0
 35 45  1  0  0  0
 35 68  1  0  0  0
 36 56  1  0  0  0
 36 96  1  0  0  0
 37 39  1  0  0  0
 37 47  1  0  0  0
 37 66  1  0  0  0
 37 97  1  0  0  0
 38 43  2  0  0  0
 38 46  1  0  0  0
 38 47  1  0  0  0
 39 64  1  0  0  0
 39 67  2  0  0  0
 40 52  1  0  0  0
 40 53  2  0  0  0
 40 58  1  0  0  0
 41 98  1  0  0  0
 41 99  1  0  0  0
 41100  1  0  0  0
 41 48  1  0  0  0
 42 43  1  0  0  0
 42 66  1  0  0  0
 42101  1  0  0  0
 42102  1  0  0  0
 43 44  1  0  0  0
 44103  1  0  0  0
 45 46  2  0  0  0
 45104  1  0  0  0
 46105  1  0  0  0
 47106  1  0  0  0
 47107  1  0  0  0
 48 56  1  0  0  0
 48 65  1  0  0  0
 48108  1  0  0  0
 49 50  1  0  0  0
 49 53  1  0  0  0
 49 64  1  0  0  0
 49109  1  0  0  0
 50 51  1  0  0  0
 50110  1  0  0  0
 50111  1  0  0  0
 51 52  1  0  0  0
 51112  1  0  0  0
 51113  1  0  0  0
 52114  1  0  0  0
 52115  1  0  0  0
 53 54  1  0  0  0
 54 55  2  0  0  0
 54116  1  0  0  0
 55 57  1  0  0  0
 55117  1  0  0  0
 56 69  2  0  0  0
 57 58  2  0  0  0
 57118  1  0  0  0
 58119  1  0  0  0
 59 60  1  0  0  0
 59 61  1  0  0  0
 59 62  1  0  0  0
 60120  1  0  0  0
 60121  1  0  0  0
 60122  1  0  0  0
 61123  1  0  0  0
 61124  1  0  0  0
 61125  1  0  0  0
 62126  1  0  0  0
 62127  1  0  0  0
 62128  1  0  0  0
 63 65  1  0  0  0
 63129  1  0  0  0
 63130  1  0  0  0
 63131  1  0  0  0
 64132  1  0  0  0
 65133  1  0  0  0
 68 73  1  0  0  0
 71 72  1  0  0  0
 71 73  1  0  0  0
 71134  1  0  0  0
 71135  1  0  0  0
 72 74  1  0  0  0
 72136  1  0  0  0
 72137  1  0  0  0
 73138  1  0  0  0
 73139  1  0  0  0
 74140  1  0  0  0
M  ISO  4   1 100  68 101  73 101  74 100
M  END
> <chiral flag>
0

> <version>
0

> <s_m_source_file>
/data/baiqing/PycharmProjects/Reinvent-master-3.2/result/LINK_invent/BTK/process_docking_weight1_custom_sum_contain_oxygen_bond_distance_aromatic_linkinvent_7_9_3/rearranged_h_0001.sdf

> <i_m_source_file_index>
5

> <r_mmod_Potential_Energy-OPLS-2005>
4439.1796875

> <r_mmod_Stretch_Energy-OPLS-2005>
1928.78686523438

> <r_mmod_Bend_Energy-OPLS-2005>
1134.07287597656

> <r_mmod_Torsional_Energy-OPLS-2005>
253.740341186523

> <r_mmod_Improper_Torsional_Energy-OPLS-2005>
5.21059560775757

> <r_mmod_Van_der_Waal_Energy-OPLS-2005>
136.971328735352

> <r_mmod_Electrostatic_Energy-OPLS-2005>
-343.119842529297

> <r_mmod_Solvation_Energy-OPLS-2005>
-223.109710693359

> <b_mmod_Minimization_Converged-OPLS-2005>
0

> <r_mmod_RMS_Derivative-OPLS-2005>
0.0710311159491539

$$$$
5
                    3D
 Structure written by MMmdl.
151159  0  0  1  0            999 V2000
  -30.4955  -15.0177   20.3891 C   0  0  0  0  0  0
  -30.4332  -12.6353   19.4550 C   0  0  0  0  0  0
  -29.5046  -12.5027   18.2273 C   0  0  0  0  0  0
  -28.0643  -12.2253   18.6958 C   0  0  0  0  0  0
  -27.6225  -13.2163   19.8086 C   0  0  2  0  0  0
  -28.6673  -13.3133   20.9404 C   0  0  0  0  0  0
  -25.2558  -13.8129   20.5651 C   0  0  0  0  0  0
  -24.1851  -13.0397   20.9186 C   0  0  0  0  0  0
  -24.6395  -11.6855   20.8691 C   0  0  0  0  0  0
  -23.9050  -10.4267   21.0343 C   0  0  0  0  0  0
  -24.3631   -9.4180   21.9118 C   0  0  0  0  0  0
  -23.6297   -8.2224   22.0734 C   0  0  0  0  0  0
  -22.4294   -8.0242   21.3503 C   0  0  0  0  0  0
  -21.9908   -9.0213   20.4615 C   0  0  0  0  0  0
  -22.7247  -10.2082   20.2996 C   0  0  0  0  0  0
  -21.6883   -6.0701   22.5271 C   0  0  0  0  0  0
  -21.4019   -6.5596   23.8197 C   0  0  0  0  0  0
  -21.3653   -5.6747   24.9159 C   0  0  0  0  0  0
  -21.6068   -4.3017   24.7222 C   0  0  0  0  0  0
  -21.8833   -3.8112   23.4347 C   0  0  0  0  0  0
  -21.9204   -4.6927   22.3402 C   0  0  0  0  0  0
  -22.7903  -13.5174   21.1894 C   0  0  0  0  0  0
  -22.1666   -4.2102   21.0986 F   0  0  0  0  0  0
  -21.5640   -3.4526   25.7741 F   0  0  0  0  0  0
  -29.9122  -13.7488   20.3099 N   0  0  0  0  0  0
  -26.2886  -12.9272   20.3128 N   0  0  0  0  0  0
  -25.9295  -11.6439   20.5678 N   0  0  0  0  0  0
  -22.0528  -12.8117   22.0406 N   0  0  0  0  0  0
  -25.4172  -15.1873   20.4103 N   0  0  0  0  0  0
  -31.7107  -15.0544   20.1698 O   0  0  0  0  0  0
  -21.6657   -6.8859   21.4227 O   0  0  0  0  0  0
  -22.3543  -14.5493   20.6753 O   0  0  0  0  0  0
  -24.6437  -31.8415   23.1913 C   0  0  0  0  0  0
  -25.9184  -32.4732   23.8330 C   0  0  1  0  0  0
  -27.2184  -27.0805   20.1825 C   0  0  0  0  0  0
  -25.5898  -33.8549   24.2245 N   0  0  0  0  0  0
  -23.4501  -30.4563   21.5396 C   0  0  2  0  0  0
  -24.8954  -28.8717   20.1133 C   0  0  0  0  0  0
  -22.7637  -29.4476   22.4926 C   0  0  0  0  0  0
  -18.0375  -28.1415   22.8530 C   0  0  0  0  0  0
  -24.1456  -36.7317   23.2652 C   0  0  0  0  0  0
  -26.0001  -30.6979   21.3858 C   0  0  0  0  0  0
  -26.0725  -29.2986   20.7407 C   0  0  0  0  0  0
  -27.2244  -28.4187   20.7629 C   0  0  0  0  0  0
  -26.0229  -26.7791   19.4851 C   0  0  0  0  0  0
  -24.8860  -27.6234   19.4695 C   0  0  0  0  0  0
  -23.6738  -29.7823   20.1584 C   0  0  0  0  0  0
  -25.4093  -36.3104   24.0344 C   0  0  1  0  0  0
  -20.5979  -28.3647   23.1279 C   0  0  2  0  0  0
  -20.6800  -26.9412   22.5276 C   0  0  0  0  0  0
  -19.5778  -26.6637   21.5040 C   0  0  0  0  0  0
  -18.1968  -26.8048   22.1510 C   0  0  0  0  0  0
  -19.1651  -28.8845   23.2934 C   0  0  0  0  0  0
  -18.9633  -30.1426   23.8965 C   0  0  0  0  0  0
  -17.6653  -30.6632   24.0608 C   0  0  0  0  0  0
  -25.9030  -34.9462   23.5126 C   0  0  0  0  0  0
  -16.5505  -29.9160   23.6413 C   0  0  0  0  0  0
  -16.7374  -28.6526   23.0503 C   0  0  0  0  0  0
  -26.4464  -31.6599   25.0777 C   0  0  0  0  0  0
  -25.3654  -31.3801   26.1491 C   0  0  0  0  0  0
  -27.0309  -30.3020   24.6291 C   0  0  0  0  0  0
  -27.5994  -32.4364   25.7541 C   0  0  0  0  0  0
  -27.5579  -37.1819   24.8468 C   0  0  0  0  0  0
  -21.4314  -29.3023   22.3754 N   0  0  0  0  0  0
  -26.4289  -37.3799   23.9413 N   0  0  0  0  0  0
  -24.7209  -31.0227   22.0975 N   0  0  0  0  0  0
  -23.4321  -28.8035   23.3058 O   0  0  0  0  0  0
  -28.2680  -26.0753   20.3378 O   0  0  0  0  0  0
  -26.5633  -34.8944   22.4727 O   0  0  0  0  0  0
  -23.5545  -32.1311   23.7098 O   0  0  0  0  0  0
  -31.3322  -18.1508   23.2394 C   0  0  0  0  0  0
  -31.2055  -19.5157   23.0082 C   0  0  0  0  0  0
  -30.7934  -17.2463   22.3255 C   0  0  0  0  0  0
  -30.4654  -19.9728   21.9169 C   0  0  0  0  0  0
  -30.0718  -17.6030   21.1504 C   0  0  0  0  0  0
  -29.7942  -19.1259   20.9962 C   0  0  0  0  0  0
  -28.6864  -23.0680   20.6745 C   0  0  0  0  0  0
  -28.2403  -24.5487   19.8969 C   0  0  0  0  0  0
  -28.9869  -21.5627   19.8812 C   0  0  0  0  0  0
  -29.7244  -16.2467   20.4838 N   0  0  0  0  0  0
  -28.9139  -19.9929   20.2004 O   0  0  0  0  0  0
  -31.4514  -12.8264   19.1217 H   0  0  0  0  0  0
  -30.4650  -11.6894   20.0030 H   0  0  0  0  0  0
  -29.8455  -11.6904   17.5830 H   0  0  0  0  0  0
  -29.5403  -13.4086   17.6178 H   0  0  0  0  0  0
  -28.0506  -11.2117   19.0969 H   0  0  0  0  0  0
  -27.3736  -12.2202   17.8545 H   0  0  0  0  0  0
  -27.5670  -14.1903   19.3191 H   0  0  0  0  0  0
  -28.8059  -12.3582   21.4538 H   0  0  0  0  0  0
  -28.3547  -14.0434   21.6903 H   0  0  0  0  0  0
  -25.2768   -9.5686   22.4688 H   0  0  0  0  0  0
  -24.0005   -7.4637   22.7468 H   0  0  0  0  0  0
  -21.0842   -8.8715   19.8931 H   0  0  0  0  0  0
  -22.3675  -10.9599   19.6102 H   0  0  0  0  0  0
  -21.1985   -7.6111   23.9682 H   0  0  0  0  0  0
  -21.1473   -6.0482   25.9052 H   0  0  0  0  0  0
  -22.0633   -2.7580   23.2866 H   0  0  0  0  0  0
  -22.4194  -11.9764   22.4779 H   0  0  0  0  0  0
  -21.1113  -13.1037   22.2571 H   0  0  0  0  0  0
  -24.6421  -15.8263   20.5578 H   0  0  0  0  0  0
  -26.2512  -15.6552   20.0760 H   0  0  0  0  0  0
  -26.7264  -32.5303   23.1065 H   0  0  0  0  0  0
  -24.9910  -33.9606   25.0304 H   0  0  0  0  0  0
  -22.7528  -31.2850   21.3941 H   0  0  0  0  0  0
  -23.3724  -35.9643   23.3278 H   0  0  0  0  0  0
  -24.3545  -36.8964   22.2070 H   0  0  0  0  0  0
  -23.7171  -37.6508   23.6679 H   0  0  0  0  0  0
  -26.1353  -31.4318   20.5894 H   0  0  0  0  0  0
  -26.8805  -30.7759   22.0107 H   0  0  0  0  0  0
  -28.1104  -28.7349   21.2916 H   0  0  0  0  0  0
  -25.9098  -25.8417   18.9651 H   0  0  0  0  0  0
  -23.9869  -27.2911   18.9658 H   0  0  0  0  0  0
  -23.8190  -30.5615   19.4101 H   0  0  0  0  0  0
  -22.7769  -29.2386   19.8466 H   0  0  0  0  0  0
  -25.1260  -36.1986   25.0839 H   0  0  0  0  0  0
  -20.9979  -28.3088   24.1414 H   0  0  0  0  0  0
  -20.5673  -26.2186   23.3392 H   0  0  0  0  0  0
  -21.6641  -26.7457   22.0993 H   0  0  0  0  0  0
  -19.6920  -25.6702   21.0738 H   0  0  0  0  0  0
  -19.6746  -27.3664   20.6751 H   0  0  0  0  0  0
  -17.4197  -26.6968   21.3919 H   0  0  0  0  0  0
  -18.0385  -26.0053   22.8747 H   0  0  0  0  0  0
  -19.8178  -30.7127   24.2358 H   0  0  0  0  0  0
  -17.5250  -31.6347   24.5197 H   0  0  0  0  0  0
  -15.5492  -30.3091   23.7676 H   0  0  0  0  0  0
  -15.8743  -28.0881   22.7225 H   0  0  0  0  0  0
  -24.5851  -30.7086   25.7877 H   0  0  0  0  0  0
  -24.8799  -32.2968   26.4857 H   0  0  0  0  0  0
  -25.7964  -30.9075   27.0323 H   0  0  0  0  0  0
  -26.2899  -29.6781   24.1266 H   0  0  0  0  0  0
  -27.3913  -29.7289   25.4835 H   0  0  0  0  0  0
  -27.8813  -30.4306   23.9597 H   0  0  0  0  0  0
  -27.2607  -33.3704   26.2041 H   0  0  0  0  0  0
  -28.3838  -32.6856   25.0390 H   0  0  0  0  0  0
  -28.0610  -31.8540   26.5503 H   0  0  0  0  0  0
  -28.2621  -38.0093   24.7525 H   0  0  0  0  0  0
  -28.1041  -36.2638   24.6273 H   0  0  0  0  0  0
  -27.2303  -37.1477   25.8871 H   0  0  0  0  0  0
  -20.9473  -29.9004   21.7228 H   0  0  0  0  0  0
  -26.0175  -38.2893   24.1391 H   0  0  0  0  0  0
  -31.8385  -17.7872   24.1210 H   0  0  0  0  0  0
  -31.6176  -20.2198   23.7142 H   0  0  0  0  0  0
  -30.9451  -16.2148   22.6065 H   0  0  0  0  0  0
  -30.3508  -21.0435   21.8653 H   0  0  0  0  0  0
  -27.9277  -22.8849   21.4324 H   0  0  0  0  0  0
  -29.5800  -23.2765   21.2690 H   0  0  0  0  0  0
  -27.2489  -24.3400   19.5041 H   0  0  0  0  0  0
  -28.8776  -24.5765   19.0139 H   0  0  0  0  0  0
  -29.9354  -21.6896   19.3570 H   0  0  0  0  0  0
  -28.2576  -21.6293   19.0718 H   0  0  0  0  0  0
  -28.7324  -16.0951   20.3997 H   0  0  0  0  0  0
  1 25  1  0  0  0
  1 30  2  0  0  0
  1 80  1  0  0  0
  2  3  1  0  0  0
  2 25  1  0  0  0
  2 82  1  0  0  0
  2 83  1  0  0  0
  3  4  1  0  0  0
  3 84  1  0  0  0
  3 85  1  0  0  0
  4  5  1  0  0  0
  4 86  1  0  0  0
  4 87  1  0  0  0
  5  6  1  0  0  0
  5 26  1  0  0  0
  5 88  1  0  0  0
  6 25  1  0  0  0
  6 89  1  0  0  0
  6 90  1  0  0  0
  7  8  2  0  0  0
  7 26  1  0  0  0
  7 29  1  0  0  0
  8  9  1  0  0  0
  8 22  1  0  0  0
  9 10  1  0  0  0
  9 27  2  0  0  0
 10 11  2  0  0  0
 10 15  1  0  0  0
 11 12  1  0  0  0
 11 91  1  0  0  0
 12 13  2  0  0  0
 12 92  1  0  0  0
 13 14  1  0  0  0
 13 31  1  0  0  0
 14 15  2  0  0  0
 14 93  1  0  0  0
 15 94  1  0  0  0
 16 17  2  0  0  0
 16 21  1  0  0  0
 16 31  1  0  0  0
 17 18  1  0  0  0
 17 95  1  0  0  0
 18 19  2  0  0  0
 18 96  1  0  0  0
 19 20  1  0  0  0
 19 24  1  0  0  0
 20 21  2  0  0  0
 20 97  1  0  0  0
 21 23  1  0  0  0
 22 28  1  0  0  0
 22 32  2  0  0  0
 26 27  1  0  0  0
 28 98  1  0  0  0
 28 99  1  0  0  0
 29100  1  0  0  0
 29101  1  0  0  0
 33 34  1  0  0  0
 33 66  1  0  0  0
 33 70  2  0  0  0
 34 36  1  0  0  0
 34 59  1  0  0  0
 34102  1  0  0  0
 35 44  2  0  0  0
 35 45  1  0  0  0
 35 68  1  0  0  0
 36 56  1  0  0  0
 36103  1  0  0  0
 37 39  1  0  0  0
 37 47  1  0  0  0
 37 66  1  0  0  0
 37104  1  0  0  0
 38 43  2  0  0  0
 38 46  1  0  0  0
 38 47  1  0  0  0
 39 64  1  0  0  0
 39 67  2  0  0  0
 40 52  1  0  0  0
 40 53  2  0  0  0
 40 58  1  0  0  0
 41105  1  0  0  0
 41106  1  0  0  0
 41107  1  0  0  0
 41 48  1  0  0  0
 42 43  1  0  0  0
 42 66  1  0  0  0
 42108  1  0  0  0
 42109  1  0  0  0
 43 44  1  0  0  0
 44110  1  0  0  0
 45 46  2  0  0  0
 45111  1  0  0  0
 46112  1  0  0  0
 47113  1  0  0  0
 47114  1  0  0  0
 48 56  1  0  0  0
 48 65  1  0  0  0
 48115  1  0  0  0
 49 50  1  0  0  0
 49 53  1  0  0  0
 49 64  1  0  0  0
 49116  1  0  0  0
 50 51  1  0  0  0
 50117  1  0  0  0
 50118  1  0  0  0
 51 52  1  0  0  0
 51119  1  0  0  0
 51120  1  0  0  0
 52121  1  0  0  0
 52122  1  0  0  0
 53 54  1  0  0  0
 54 55  2  0  0  0
 54123  1  0  0  0
 55 57  1  0  0  0
 55124  1  0  0  0
 56 69  2  0  0  0
 57 58  2  0  0  0
 57125  1  0  0  0
 58126  1  0  0  0
 59 60  1  0  0  0
 59 61  1  0  0  0
 59 62  1  0  0  0
 60127  1  0  0  0
 60128  1  0  0  0
 60129  1  0  0  0
 61130  1  0  0  0
 61131  1  0  0  0
 61132  1  0  0  0
 62133  1  0  0  0
 62134  1  0  0  0
 62135  1  0  0  0
 63 65  1  0  0  0
 63136  1  0  0  0
 63137  1  0  0  0
 63138  1  0  0  0
 64139  1  0  0  0
 65140  1  0  0  0
 68 78  1  0  0  0
 71 72  2  0  0  0
 71 73  1  0  0  0
 71141  1  0  0  0
 72 74  1  0  0  0
 72142  1  0  0  0
 73 75  2  0  0  0
 73143  1  0  0  0
 74 76  2  0  0  0
 74144  1  0  0  0
 75 76  1  0  0  0
 75 80  1  0  0  0
 76 81  1  0  0  0
 77 78  1  0  0  0
 77 79  1  0  0  0
 77145  1  0  0  0
 77146  1  0  0  0
 78147  1  0  0  0
 78148  1  0  0  0
 79 81  1  0  0  0
 79149  1  0  0  0
 79150  1  0  0  0
 80151  1  0  0  0
M  ISO  4   1 100  68 101  78 101  80 100
M  END
> <chiral flag>
0

> <version>
0

> <s_m_source_file>
/data/baiqing/PycharmProjects/Reinvent-master-3.2/result/LINK_invent/BTK/process_docking_weight1_custom_sum_contain_oxygen_bond_distance_aromatic_linkinvent_7_9_3/rearranged_h_0001.sdf

> <i_m_source_file_index>
6

> <r_mmod_Potential_Energy-OPLS-2005>
873.905090332031

> <r_mmod_Stretch_Energy-OPLS-2005>
387.765472412109

> <r_mmod_Bend_Energy-OPLS-2005>
439.809753417969

> <r_mmod_Torsional_Energy-OPLS-2005>
243.070327758789

> <r_mmod_Improper_Torsional_Energy-OPLS-2005>
6.96536016464233

> <r_mmod_Van_der_Waal_Energy-OPLS-2005>
144.070739746094

> <r_mmod_Electrostatic_Energy-OPLS-2005>
-383.493530273438

> <r_mmod_Solvation_Energy-OPLS-2005>
-217.433380126953

> <b_mmod_Minimization_Converged-OPLS-2005>
0

> <r_mmod_RMS_Derivative-OPLS-2005>
8.36663627624512

$$$$
6
                    3D
 Structure written by MMmdl.
151158  0  0  1  0            999 V2000
  -30.6553  -14.5615   20.5164 C   0  0  0  0  0  0
  -30.4343  -12.3448   19.4472 C   0  0  0  0  0  0
  -29.5058  -12.5000   18.2222 C   0  0  0  0  0  0
  -28.0269  -12.3522   18.6318 C   0  0  0  0  0  0
  -27.6599  -13.2100   19.8722 C   0  0  2  0  0  0
  -28.7030  -13.0341   21.0011 C   0  0  0  0  0  0
  -25.2584  -13.8162   20.5687 C   0  0  0  0  0  0
  -24.1839  -13.0436   20.9184 C   0  0  0  0  0  0
  -24.6399  -11.6904   20.8735 C   0  0  0  0  0  0
  -23.9065  -10.4291   21.0404 C   0  0  0  0  0  0
  -24.3613   -9.4209   21.9185 C   0  0  0  0  0  0
  -23.6290   -8.2244   22.0754 C   0  0  0  0  0  0
  -22.4274   -8.0280   21.3544 C   0  0  0  0  0  0
  -21.9908   -9.0255   20.4647 C   0  0  0  0  0  0
  -22.7234  -10.2136   20.3058 C   0  0  0  0  0  0
  -21.6852   -6.0737   22.5281 C   0  0  0  0  0  0
  -21.4013   -6.5642   23.8214 C   0  0  0  0  0  0
  -21.3659   -5.6793   24.9176 C   0  0  0  0  0  0
  -21.6042   -4.3056   24.7226 C   0  0  0  0  0  0
  -21.8819   -3.8149   23.4347 C   0  0  0  0  0  0
  -21.9193   -4.6966   22.3403 C   0  0  0  0  0  0
  -22.7864  -13.5235   21.1847 C   0  0  0  0  0  0
  -22.1662   -4.2151   21.0980 F   0  0  0  0  0  0
  -21.5628   -3.4539   25.7739 F   0  0  0  0  0  0
  -30.0293  -13.3503   20.4461 N   0  0  0  0  0  0
  -26.3021  -12.9338   20.3357 N   0  0  0  0  0  0
  -25.9330  -11.6495   20.5769 N   0  0  0  0  0  0
  -22.0500  -12.8230   22.0403 N   0  0  0  0  0  0
  -25.4306  -15.1882   20.4098 N   0  0  0  0  0  0
  -31.7943  -14.7459   20.0817 O   0  0  0  0  0  0
  -21.6637   -6.8878   21.4242 O   0  0  0  0  0  0
  -22.3554  -14.5544   20.6697 O   0  0  0  0  0  0
  -24.6214  -31.8639   23.2075 C   0  0  0  0  0  0
  -25.9085  -32.4801   23.8384 C   0  0  1  0  0  0
  -27.2255  -27.3712   20.1033 C   0  0  0  0  0  0
  -25.5919  -33.8602   24.2308 N   0  0  0  0  0  0
  -23.4114  -30.4896   21.5492 C   0  0  2  0  0  0
  -24.8565  -28.9542   20.1093 C   0  0  0  0  0  0
  -22.7445  -29.4644   22.4958 C   0  0  0  0  0  0
  -18.0278  -28.1380   22.8491 C   0  0  0  0  0  0
  -24.1487  -36.7311   23.2637 C   0  0  0  0  0  0
  -25.9475  -30.8102   21.3710 C   0  0  0  0  0  0
  -26.0215  -29.4415   20.7145 C   0  0  0  0  0  0
  -27.2071  -28.6586   20.7081 C   0  0  0  0  0  0
  -26.0402  -26.9304   19.4662 C   0  0  0  0  0  0
  -24.8648  -27.7015   19.4786 C   0  0  0  0  0  0
  -23.6224  -29.8285   20.1616 C   0  0  0  0  0  0
  -25.4106  -36.3097   24.0333 C   0  0  1  0  0  0
  -20.5876  -28.3678   23.1297 C   0  0  2  0  0  0
  -20.6771  -26.9407   22.5414 C   0  0  0  0  0  0
  -19.5748  -26.6385   21.5213 C   0  0  0  0  0  0
  -18.1926  -26.7925   22.1623 C   0  0  0  0  0  0
  -19.1531  -28.8844   23.2893 C   0  0  0  0  0  0
  -18.9454  -30.1447   23.8907 C   0  0  0  0  0  0
  -17.6457  -30.6586   24.0563 C   0  0  0  0  0  0
  -25.9042  -34.9465   23.5117 C   0  0  0  0  0  0
  -16.5347  -29.9089   23.6325 C   0  0  0  0  0  0
  -16.7266  -28.6504   23.0347 C   0  0  0  0  0  0
  -26.4492  -31.6591   25.0732 C   0  0  0  0  0  0
  -25.3750  -31.3715   26.1476 C   0  0  0  0  0  0
  -27.0327  -30.3021   24.6144 C   0  0  0  0  0  0
  -27.6054  -32.4318   25.7506 C   0  0  0  0  0  0
  -27.5575  -37.1810   24.8463 C   0  0  0  0  0  0
  -21.4166  -29.3041   22.3700 N   0  0  0  0  0  0
  -26.4286  -37.3783   23.9409 N   0  0  0  0  0  0
  -24.6785  -31.0701   22.1001 N   0  0  0  0  0  0
  -23.4196  -28.8175   23.3006 O   0  0  0  0  0  0
  -28.3648  -26.5671   20.1596 O   0  0  0  0  0  0
  -26.5600  -34.8920   22.4678 O   0  0  0  0  0  0
  -23.5393  -32.1416   23.7435 O   0  0  0  0  0  0
  -29.9427  -17.0084   20.3659 C   0  0  0  0  0  0
  -30.2398  -18.1042   21.4380 C   0  0  0  0  0  0
  -28.2075  -25.1343   19.9110 C   0  0  0  0  0  0
  -29.2662  -24.1793   20.5573 C   0  0  0  0  0  0
  -29.9175  -20.3642   20.4052 C   0  0  0  0  0  0
  -29.8174  -21.8260   20.9840 C   0  0  0  0  0  0
  -29.8654  -15.6054   20.8638 N   0  0  0  0  0  0
  -29.4912  -19.3441   21.3363 O   0  0  0  0  0  0
  -29.0968  -22.7873   20.1739 O   0  0  0  0  0  0
  -31.4781  -12.4560   19.1472 H   0  0  0  0  0  0
  -30.3514  -11.3425   19.8699 H   0  0  0  0  0  0
  -29.7587  -11.7587   17.4631 H   0  0  0  0  0  0
  -29.6633  -13.4758   17.7598 H   0  0  0  0  0  0
  -27.8494  -11.2980   18.8472 H   0  0  0  0  0  0
  -27.3765  -12.6041   17.7933 H   0  0  0  0  0  0
  -27.6900  -14.2503   19.5482 H   0  0  0  0  0  0
  -28.6939  -12.0094   21.3754 H   0  0  0  0  0  0
  -28.4608  -13.6637   21.8586 H   0  0  0  0  0  0
  -25.2760   -9.5685   22.4755 H   0  0  0  0  0  0
  -24.0002   -7.4637   22.7472 H   0  0  0  0  0  0
  -21.0840   -8.8774   19.8954 H   0  0  0  0  0  0
  -22.3696  -10.9673   19.6164 H   0  0  0  0  0  0
  -21.2005   -7.6149   23.9717 H   0  0  0  0  0  0
  -21.1480   -6.0523   25.9077 H   0  0  0  0  0  0
  -22.0598   -2.7611   23.2847 H   0  0  0  0  0  0
  -22.4113  -11.9886   22.4785 H   0  0  0  0  0  0
  -21.1121  -13.1263   22.2609 H   0  0  0  0  0  0
  -24.6640  -15.8434   20.5187 H   0  0  0  0  0  0
  -26.2817  -15.6270   20.0812 H   0  0  0  0  0  0
  -26.7157  -32.5488   23.1142 H   0  0  0  0  0  0
  -25.0089  -33.9756   25.0468 H   0  0  0  0  0  0
  -22.7027  -31.3087   21.4110 H   0  0  0  0  0  0
  -23.3738  -35.9655   23.3305 H   0  0  0  0  0  0
  -24.3581  -36.8924   22.2051 H   0  0  0  0  0  0
  -23.7254  -37.6523   23.6652 H   0  0  0  0  0  0
  -26.0704  -31.5737   20.6015 H   0  0  0  0  0  0
  -26.8328  -30.8610   21.9934 H   0  0  0  0  0  0
  -28.1002  -29.0266   21.1935 H   0  0  0  0  0  0
  -25.9945  -25.9816   18.9532 H   0  0  0  0  0  0
  -23.9737  -27.3260   18.9946 H   0  0  0  0  0  0
  -23.7382  -30.6078   19.4073 H   0  0  0  0  0  0
  -22.7435  -29.2556   19.8597 H   0  0  0  0  0  0
  -25.1283  -36.1955   25.0825 H   0  0  0  0  0  0
  -20.9968  -28.3250   24.1416 H   0  0  0  0  0  0
  -20.5675  -26.2286   23.3609 H   0  0  0  0  0  0
  -21.6641  -26.7445   22.1203 H   0  0  0  0  0  0
  -19.6911  -25.6300   21.1234 H   0  0  0  0  0  0
  -19.6685  -27.3205   20.6752 H   0  0  0  0  0  0
  -17.4196  -26.6671   21.4025 H   0  0  0  0  0  0
  -18.0322  -26.0066   22.9016 H   0  0  0  0  0  0
  -19.7933  -30.7257   24.2281 H   0  0  0  0  0  0
  -17.5015  -31.6265   24.5168 H   0  0  0  0  0  0
  -15.5351  -30.2995   23.7644 H   0  0  0  0  0  0
  -15.8663  -28.0830   22.7056 H   0  0  0  0  0  0
  -24.5923  -30.7058   25.7824 H   0  0  0  0  0  0
  -24.8950  -32.2878   26.4917 H   0  0  0  0  0  0
  -25.8105  -30.8896   27.0238 H   0  0  0  0  0  0
  -26.2885  -29.6782   24.1174 H   0  0  0  0  0  0
  -27.4053  -29.7258   25.4624 H   0  0  0  0  0  0
  -27.8744  -30.4323   23.9335 H   0  0  0  0  0  0
  -27.2656  -33.3602   26.2106 H   0  0  0  0  0  0
  -28.3859  -32.6902   25.0339 H   0  0  0  0  0  0
  -28.0726  -31.8432   26.5410 H   0  0  0  0  0  0
  -28.2595  -38.0105   24.7496 H   0  0  0  0  0  0
  -28.1067  -36.2633   24.6297 H   0  0  0  0  0  0
  -27.2294  -37.1473   25.8868 H   0  0  0  0  0  0
  -20.9327  -29.8783   21.6941 H   0  0  0  0  0  0
  -26.0170  -38.2861   24.1406 H   0  0  0  0  0  0
  -30.6541  -17.0949   19.5428 H   0  0  0  0  0  0
  -28.9678  -17.2228   19.9266 H   0  0  0  0  0  0
  -31.3103  -18.3080   21.4926 H   0  0  0  0  0  0
  -29.9771  -17.6939   22.4136 H   0  0  0  0  0  0
  -27.2444  -24.7911   20.2910 H   0  0  0  0  0  0
  -28.1973  -24.9789   18.8314 H   0  0  0  0  0  0
  -29.1932  -24.2677   21.6418 H   0  0  0  0  0  0
  -30.2711  -24.5014   20.2815 H   0  0  0  0  0  0
  -30.9434  -20.1789   20.0829 H   0  0  0  0  0  0
  -29.3018  -20.2769   19.5094 H   0  0  0  0  0  0
  -30.8295  -22.1951   21.1586 H   0  0  0  0  0  0
  -29.3415  -21.7928   21.9649 H   0  0  0  0  0  0
  -28.9732  -15.3399   21.2544 H   0  0  0  0  0  0
  1 25  1  0  0  0
  1 30  2  0  0  0
  1 77  1  0  0  0
  2  3  1  0  0  0
  2 25  1  0  0  0
  2 80  1  0  0  0
  2 81  1  0  0  0
  3  4  1  0  0  0
  3 82  1  0  0  0
  3 83  1  0  0  0
  4  5  1  0  0  0
  4 84  1  0  0  0
  4 85  1  0  0  0
  5  6  1  0  0  0
  5 26  1  0  0  0
  5 86  1  0  0  0
  6 25  1  0  0  0
  6 87  1  0  0  0
  6 88  1  0  0  0
  7  8  2  0  0  0
  7 26  1  0  0  0
  7 29  1  0  0  0
  8  9  1  0  0  0
  8 22  1  0  0  0
  9 10  1  0  0  0
  9 27  2  0  0  0
 10 11  2  0  0  0
 10 15  1  0  0  0
 11 12  1  0  0  0
 11 89  1  0  0  0
 12 13  2  0  0  0
 12 90  1  0  0  0
 13 14  1  0  0  0
 13 31  1  0  0  0
 14 15  2  0  0  0
 14 91  1  0  0  0
 15 92  1  0  0  0
 16 17  2  0  0  0
 16 21  1  0  0  0
 16 31  1  0  0  0
 17 18  1  0  0  0
 17 93  1  0  0  0
 18 19  2  0  0  0
 18 94  1  0  0  0
 19 20  1  0  0  0
 19 24  1  0  0  0
 20 21  2  0  0  0
 20 95  1  0  0  0
 21 23  1  0  0  0
 22 28  1  0  0  0
 22 32  2  0  0  0
 26 27  1  0  0  0
 28 96  1  0  0  0
 28 97  1  0  0  0
 29 98  1  0  0  0
 29 99  1  0  0  0
 33 34  1  0  0  0
 33 66  1  0  0  0
 33 70  2  0  0  0
 34 36  1  0  0  0
 34 59  1  0  0  0
 34100  1  0  0  0
 35 44  2  0  0  0
 35 45  1  0  0  0
 35 68  1  0  0  0
 36 56  1  0  0  0
 36101  1  0  0  0
 37 39  1  0  0  0
 37 47  1  0  0  0
 37 66  1  0  0  0
 37102  1  0  0  0
 38 43  2  0  0  0
 38 46  1  0  0  0
 38 47  1  0  0  0
 39 64  1  0  0  0
 39 67  2  0  0  0
 40 52  1  0  0  0
 40 53  2  0  0  0
 40 58  1  0  0  0
 41103  1  0  0  0
 41104  1  0  0  0
 41105  1  0  0  0
 41 48  1  0  0  0
 42 43  1  0  0  0
 42 66  1  0  0  0
 42106  1  0  0  0
 42107  1  0  0  0
 43 44  1  0  0  0
 44108  1  0  0  0
 45 46  2  0  0  0
 45109  1  0  0  0
 46110  1  0  0  0
 47111  1  0  0  0
 47112  1  0  0  0
 48 56  1  0  0  0
 48 65  1  0  0  0
 48113  1  0  0  0
 49 50  1  0  0  0
 49 53  1  0  0  0
 49 64  1  0  0  0
 49114  1  0  0  0
 50 51  1  0  0  0
 50115  1  0  0  0
 50116  1  0  0  0
 51 52  1  0  0  0
 51117  1  0  0  0
 51118  1  0  0  0
 52119  1  0  0  0
 52120  1  0  0  0
 53 54  1  0  0  0
 54 55  2  0  0  0
 54121  1  0  0  0
 55 57  1  0  0  0
 55122  1  0  0  0
 56 69  2  0  0  0
 57 58  2  0  0  0
 57123  1  0  0  0
 58124  1  0  0  0
 59 60  1  0  0  0
 59 61  1  0  0  0
 59 62  1  0  0  0
 60125  1  0  0  0
 60126  1  0  0  0
 60127  1  0  0  0
 61128  1  0  0  0
 61129  1  0  0  0
 61130  1  0  0  0
 62131  1  0  0  0
 62132  1  0  0  0
 62133  1  0  0  0
 63 65  1  0  0  0
 63134  1  0  0  0
 63135  1  0  0  0
 63136  1  0  0  0
 64137  1  0  0  0
 65138  1  0  0  0
 68 73  1  0  0  0
 71 72  1  0  0  0
 71 77  1  0  0  0
 71139  1  0  0  0
 71140  1  0  0  0
 72 78  1  0  0  0
 72141  1  0  0  0
 72142  1  0  0  0
 73 74  1  0  0  0
 73143  1  0  0  0
 73144  1  0  0  0
 74 79  1  0  0  0
 74145  1  0  0  0
 74146  1  0  0  0
 75 76  1  0  0  0
 75 78  1  0  0  0
 75147  1  0  0  0
 75148  1  0  0  0
 76 79  1  0  0  0
 76149  1  0  0  0
 76150  1  0  0  0
 77151  1  0  0  0
M  ISO  4   1 100  68 101  73 101  77 100
M  END
> <chiral flag>
0

> <version>
0

> <s_m_source_file>
/data/baiqing/PycharmProjects/Reinvent-master-3.2/result/LINK_invent/BTK/process_docking_weight1_custom_sum_contain_oxygen_bond_distance_aromatic_linkinvent_7_9_3/rearranged_h_0001.sdf

> <i_m_source_file_index>
7

> <r_mmod_Potential_Energy-OPLS-2005>
-33.6661491394043

> <r_mmod_Stretch_Energy-OPLS-2005>
54.1415176391602

> <r_mmod_Bend_Energy-OPLS-2005>
117.664672851562

> <r_mmod_Torsional_Energy-OPLS-2005>
224.785095214844

> <r_mmod_Improper_Torsional_Energy-OPLS-2005>
6.75608205795288

> <r_mmod_Van_der_Waal_Energy-OPLS-2005>
133.051956176758

> <r_mmod_Electrostatic_Energy-OPLS-2005>
-384.544891357422

> <r_mmod_Solvation_Energy-OPLS-2005>
-214.149185180664

> <b_mmod_Minimization_Converged-OPLS-2005>
0

> <r_mmod_RMS_Derivative-OPLS-2005>
0.78693014383316

$$$$
7
                    3D
 Structure written by MMmdl.
137144  0  0  1  0            999 V2000
  -29.9622  -16.5635   20.2664 C   0  0  0  0  0  0
  -30.3146  -13.7964   19.5233 C   0  0  0  0  0  0
  -29.5702  -12.9451   18.4142 C   0  0  0  0  0  0
  -28.2376  -12.3814   18.9086 C   0  0  0  0  0  0
  -27.5746  -13.4257   19.8177 C   0  0  2  0  0  0
  -28.5152  -14.1357   20.8613 C   0  0  0  0  0  0
  -25.2174  -13.8479   20.5951 C   0  0  0  0  0  0
  -24.1675  -13.0467   20.9341 C   0  0  0  0  0  0
  -24.6541  -11.7031   20.8745 C   0  0  0  0  0  0
  -23.9255  -10.4321   21.0342 C   0  0  0  0  0  0
  -24.3739   -9.4228   21.9149 C   0  0  0  0  0  0
  -23.6364   -8.2283   22.0747 C   0  0  0  0  0  0
  -22.4340   -8.0323   21.3544 C   0  0  0  0  0  0
  -22.0014   -9.0304   20.4634 C   0  0  0  0  0  0
  -22.7395  -10.2158   20.3018 C   0  0  0  0  0  0
  -21.6878   -6.0765   22.5277 C   0  0  0  0  0  0
  -21.4033   -6.5657   23.8214 C   0  0  0  0  0  0
  -21.3665   -5.6802   24.9171 C   0  0  0  0  0  0
  -21.6043   -4.3064   24.7217 C   0  0  0  0  0  0
  -21.8816   -3.8163   23.4335 C   0  0  0  0  0  0
  -21.9200   -4.6987   22.3396 C   0  0  0  0  0  0
  -22.7650  -13.5092   21.1938 C   0  0  0  0  0  0
  -22.1663   -4.2170   21.0973 F   0  0  0  0  0  0
  -21.5624   -3.4543   25.7727 F   0  0  0  0  0  0
  -29.5188  -15.0444   20.1465 N   0  0  0  0  0  0
  -26.2805  -13.0063   20.3476 N   0  0  0  0  0  0
  -25.9548  -11.6990   20.5678 N   0  0  0  0  0  0
  -22.0351  -12.8040   22.0489 N   0  0  0  0  0  0
  -25.3555  -15.2242   20.4383 N   0  0  0  0  0  0
  -31.2063  -16.3142   20.2293 O   0  0  0  0  0  0
  -21.6677   -6.8928   21.4248 O   0  0  0  0  0  0
  -22.3283  -14.5375   20.6771 O   0  0  0  0  0  0
  -24.7449  -31.7216   23.0979 C   0  0  0  0  0  0
  -25.9712  -32.4091   23.7768 C   0  0  1  0  0  0
  -27.2626  -26.0606   20.2671 C   0  0  0  0  0  0
  -25.6018  -33.7953   24.1581 N   0  0  0  0  0  0
  -23.5996  -30.2922   21.4680 C   0  0  2  0  0  0
  -25.0624  -28.4936   20.1392 C   0  0  0  0  0  0
  -22.8035  -29.3895   22.4550 C   0  0  0  0  0  0
  -18.0376  -28.1454   22.8421 C   0  0  0  0  0  0
  -24.1496  -36.6992   23.2671 C   0  0  0  0  0  0
  -26.1999  -30.2411   21.4589 C   0  0  0  0  0  0
  -26.2597  -28.7329   20.8212 C   0  0  0  0  0  0
  -27.3097  -27.5690   20.8335 C   0  0  0  0  0  0
  -26.0272  -26.1946   19.5192 C   0  0  0  0  0  0
  -25.0234  -27.2541   19.4619 C   0  0  0  0  0  0
  -23.8874  -29.5253   20.1333 C   0  0  0  0  0  0
  -25.4170  -36.2677   24.0236 C   0  0  1  0  0  0
  -20.6038  -28.3836   23.1031 C   0  0  2  0  0  0
  -20.6806  -26.9436   22.5420 C   0  0  0  0  0  0
  -19.5796  -26.6348   21.5224 C   0  0  0  0  0  0
  -18.1977  -26.7969   22.1607 C   0  0  0  0  0  0
  -19.1657  -28.8984   23.2686 C   0  0  0  0  0  0
  -18.9553  -30.1552   23.8759 C   0  0  0  0  0  0
  -17.6536  -30.6619   24.0537 C   0  0  0  0  0  0
  -25.9187  -34.9084   23.4798 C   0  0  0  0  0  0
  -16.5422  -29.9090   23.6366 C   0  0  0  0  0  0
  -16.7352  -28.6518   23.0376 C   0  0  0  0  0  0
  -26.4693  -31.6408   25.0652 C   0  0  0  0  0  0
  -25.3596  -31.3898   26.1149 C   0  0  0  0  0  0
  -27.0730  -30.2690   24.7003 C   0  0  0  0  0  0
  -27.6017  -32.4426   25.7501 C   0  0  0  0  0  0
  -27.5543  -37.1648   24.8466 C   0  0  0  0  0  0
  -21.4628  -29.2949   22.3282 N   0  0  0  0  0  0
  -26.4242  -37.3509   23.9408 N   0  0  0  0  0  0
  -24.8802  -30.8007   22.0600 N   0  0  0  0  0  0
  -23.4175  -28.7613   23.3197 O   0  0  0  0  0  0
  -28.1668  -24.5661   20.3212 O   0  0  0  0  0  0
  -26.5925  -34.8791   22.4483 O   0  0  0  0  0  0
  -23.6336  -32.0588   23.5524 O   0  0  0  0  0  0
  -29.2006  -20.3375   20.3201 C   0  0  0  0  0  0
  -28.2004  -22.4649   20.2188 C   0  0  0  0  0  0
  -29.3170  -18.2279   20.2702 N   0  0  0  0  0  0
  -31.2155  -14.1817   19.0448 H   0  0  0  0  0  0
  -30.7050  -13.1434   20.3066 H   0  0  0  0  0  0
  -30.2109  -12.1390   18.0541 H   0  0  0  0  0  0
  -29.3823  -13.5901   17.5547 H   0  0  0  0  0  0
  -28.4305  -11.4738   19.4819 H   0  0  0  0  0  0
  -27.5913  -12.1016   18.0755 H   0  0  0  0  0  0
  -27.3204  -14.2160   19.1091 H   0  0  0  0  0  0
  -28.9720  -13.4238   21.5512 H   0  0  0  0  0  0
  -27.9168  -14.7884   21.4973 H   0  0  0  0  0  0
  -25.2871   -9.5690   22.4748 H   0  0  0  0  0  0
  -24.0047   -7.4683   22.7489 H   0  0  0  0  0  0
  -21.0938   -8.8851   19.8945 H   0  0  0  0  0  0
  -22.3854  -10.9697   19.6127 H   0  0  0  0  0  0
  -21.2035   -7.6165   23.9725 H   0  0  0  0  0  0
  -21.1486   -6.0529   25.9075 H   0  0  0  0  0  0
  -22.0587   -2.7625   23.2829 H   0  0  0  0  0  0
  -22.4039  -11.9742   22.4895 H   0  0  0  0  0  0
  -21.0937  -13.0980   22.2674 H   0  0  0  0  0  0
  -24.5768  -15.8638   20.5540 H   0  0  0  0  0  0
  -26.2060  -15.6839   20.1380 H   0  0  0  0  0  0
  -26.7876  -32.4443   23.0543 H   0  0  0  0  0  0
  -24.9961  -33.8879   24.9601 H   0  0  0  0  0  0
  -22.9629  -31.1444   21.2211 H   0  0  0  0  0  0
  -23.3792  -35.9283   23.3224 H   0  0  0  0  0  0
  -24.3542  -36.8804   22.2107 H   0  0  0  0  0  0
  -23.7229  -37.6104   23.6874 H   0  0  0  0  0  0
  -26.4659  -30.9211   20.6487 H   0  0  0  0  0  0
  -27.0298  -30.3291   22.1459 H   0  0  0  0  0  0
  -28.1985  -27.7908   21.4071 H   0  0  0  0  0  0
  -25.7596  -25.3099   18.9588 H   0  0  0  0  0  0
  -24.1415  -27.0455   18.8719 H   0  0  0  0  0  0
  -24.1127  -30.2559   19.3556 H   0  0  0  0  0  0
  -22.9802  -29.0216   19.7958 H   0  0  0  0  0  0
  -25.1411  -36.1346   25.0723 H   0  0  0  0  0  0
  -21.0093  -28.3507   24.1170 H   0  0  0  0  0  0
  -20.5606  -26.2478   23.3738 H   0  0  0  0  0  0
  -21.6663  -26.7276   22.1281 H   0  0  0  0  0  0
  -19.6940  -25.6222   21.1342 H   0  0  0  0  0  0
  -19.6763  -27.3084   20.6699 H   0  0  0  0  0  0
  -17.4253  -26.6718   21.4002 H   0  0  0  0  0  0
  -18.0338  -26.0144   22.9029 H   0  0  0  0  0  0
  -19.8031  -30.7398   24.2071 H   0  0  0  0  0  0
  -17.5087  -31.6284   24.5168 H   0  0  0  0  0  0
  -15.5417  -30.2952   23.7771 H   0  0  0  0  0  0
  -15.8752  -28.0794   22.7169 H   0  0  0  0  0  0
  -24.5845  -30.7190   25.7424 H   0  0  0  0  0  0
  -24.8725  -32.3171   26.4173 H   0  0  0  0  0  0
  -25.7627  -30.9316   27.0189 H   0  0  0  0  0  0
  -26.3552  -29.6093   24.2123 H   0  0  0  0  0  0
  -27.4038  -29.7408   25.5956 H   0  0  0  0  0  0
  -27.9570  -30.3690   24.0706 H   0  0  0  0  0  0
  -27.2476  -33.3875   26.1635 H   0  0  0  0  0  0
  -28.4042  -32.6752   25.0488 H   0  0  0  0  0  0
  -28.0450  -31.8868   26.5774 H   0  0  0  0  0  0
  -28.2488  -38.0006   24.7515 H   0  0  0  0  0  0
  -28.1107  -36.2518   24.6291 H   0  0  0  0  0  0
  -27.2256  -37.1265   25.8866 H   0  0  0  0  0  0
  -21.0089  -29.8498   21.6159 H   0  0  0  0  0  0
  -26.0011  -38.2526   24.1435 H   0  0  0  0  0  0
  -30.0015  -20.5173   19.6027 H   0  0  0  0  0  0
  -29.6902  -20.4553   21.2869 H   0  0  0  0  0  0
  -27.7199  -22.3753   19.2446 H   0  0  0  0  0  0
  -27.3860  -22.2933   20.9225 H   0  0  0  0  0  0
  -30.3181  -18.3884   20.2986 H   0  0  0  0  0  0
  1 25  1  0  0  0
  1 30  2  0  0  0
  1 73  1  0  0  0
  2  3  1  0  0  0
  2 25  1  0  0  0
  2 74  1  0  0  0
  2 75  1  0  0  0
  3  4  1  0  0  0
  3 76  1  0  0  0
  3 77  1  0  0  0
  4  5  1  0  0  0
  4 78  1  0  0  0
  4 79  1  0  0  0
  5  6  1  0  0  0
  5 26  1  0  0  0
  5 80  1  0  0  0
  6 25  1  0  0  0
  6 81  1  0  0  0
  6 82  1  0  0  0
  7  8  2  0  0  0
  7 26  1  0  0  0
  7 29  1  0  0  0
  8  9  1  0  0  0
  8 22  1  0  0  0
  9 10  1  0  0  0
  9 27  2  0  0  0
 10 11  2  0  0  0
 10 15  1  0  0  0
 11 12  1  0  0  0
 11 83  1  0  0  0
 12 13  2  0  0  0
 12 84  1  0  0  0
 13 14  1  0  0  0
 13 31  1  0  0  0
 14 15  2  0  0  0
 14 85  1  0  0  0
 15 86  1  0  0  0
 16 17  2  0  0  0
 16 21  1  0  0  0
 16 31  1  0  0  0
 17 18  1  0  0  0
 17 87  1  0  0  0
 18 19  2  0  0  0
 18 88  1  0  0  0
 19 20  1  0  0  0
 19 24  1  0  0  0
 20 21  2  0  0  0
 20 89  1  0  0  0
 21 23  1  0  0  0
 22 28  1  0  0  0
 22 32  2  0  0  0
 26 27  1  0  0  0
 28 90  1  0  0  0
 28 91  1  0  0  0
 29 92  1  0  0  0
 29 93  1  0  0  0
 33 34  1  0  0  0
 33 66  1  0  0  0
 33 70  2  0  0  0
 34 36  1  0  0  0
 34 59  1  0  0  0
 34 94  1  0  0  0
 35 44  2  0  0  0
 35 45  1  0  0  0
 35 68  1  0  0  0
 36 56  1  0  0  0
 36 95  1  0  0  0
 37 39  1  0  0  0
 37 47  1  0  0  0
 37 66  1  0  0  0
 37 96  1  0  0  0
 38 43  2  0  0  0
 38 46  1  0  0  0
 38 47  1  0  0  0
 39 64  1  0  0  0
 39 67  2  0  0  0
 40 52  1  0  0  0
 40 53  2  0  0  0
 40 58  1  0  0  0
 41 97  1  0  0  0
 41 98  1  0  0  0
 41 99  1  0  0  0
 41 48  1  0  0  0
 42 43  1  0  0  0
 42 66  1  0  0  0
 42100  1  0  0  0
 42101  1  0  0  0
 43 44  1  0  0  0
 44102  1  0  0  0
 45 46  2  0  0  0
 45103  1  0  0  0
 46104  1  0  0  0
 47105  1  0  0  0
 47106  1  0  0  0
 48 56  1  0  0  0
 48 65  1  0  0  0
 48107  1  0  0  0
 49 50  1  0  0  0
 49 53  1  0  0  0
 49 64  1  0  0  0
 49108  1  0  0  0
 50 51  1  0  0  0
 50109  1  0  0  0
 50110  1  0  0  0
 51 52  1  0  0  0
 51111  1  0  0  0
 51112  1  0  0  0
 52113  1  0  0  0
 52114  1  0  0  0
 53 54  1  0  0  0
 54 55  2  0  0  0
 54115  1  0  0  0
 55 57  1  0  0  0
 55116  1  0  0  0
 56 69  2  0  0  0
 57 58  2  0  0  0
 57117  1  0  0  0
 58118  1  0  0  0
 59 60  1  0  0  0
 59 61  1  0  0  0
 59 62  1  0  0  0
 60119  1  0  0  0
 60120  1  0  0  0
 60121  1  0  0  0
 61122  1  0  0  0
 61123  1  0  0  0
 61124  1  0  0  0
 62125  1  0  0  0
 62126  1  0  0  0
 62127  1  0  0  0
 63 65  1  0  0  0
 63128  1  0  0  0
 63129  1  0  0  0
 63130  1  0  0  0
 64131  1  0  0  0
 65132  1  0  0  0
 68 72  1  0  0  0
 71 72  1  0  0  0
 71 73  1  0  0  0
 71133  1  0  0  0
 71134  1  0  0  0
 72135  1  0  0  0
 72136  1  0  0  0
 73137  1  0  0  0
M  ISO  4   1 100  68 101  72 101  73 100
M  END
> <chiral flag>
0

> <version>
0

> <s_m_source_file>
/data/baiqing/PycharmProjects/Reinvent-master-3.2/result/LINK_invent/BTK/process_docking_weight1_custom_sum_contain_oxygen_bond_distance_aromatic_linkinvent_7_9_3/rearranged_h_0001.sdf

> <i_m_source_file_index>
8

> <r_mmod_Potential_Energy-OPLS-2005>
6948.9697265625

> <r_mmod_Stretch_Energy-OPLS-2005>
3136.46411132812

> <r_mmod_Bend_Energy-OPLS-2005>
1268.50207519531

> <r_mmod_Torsional_Energy-OPLS-2005>
217.324829101562

> <r_mmod_Improper_Torsional_Energy-OPLS-2005>
4.82364273071289

> <r_mmod_Van_der_Waal_Energy-OPLS-2005>
120.95548248291

> <r_mmod_Electrostatic_Energy-OPLS-2005>
-391.247985839844

> <r_mmod_Solvation_Energy-OPLS-2005>
-221.174652099609

> <b_mmod_Minimization_Converged-OPLS-2005>
1

> <r_mmod_RMS_Derivative-OPLS-2005>
0.042349461466074

$$$$
8
                    3D
 Structure written by MMmdl.
147154  0  0  1  0            999 V2000
  -30.5494  -14.9320   20.4234 C   0  0  0  0  0  0
  -30.4378  -12.5783   19.4949 C   0  0  0  0  0  0
  -29.5185  -12.5246   18.2532 C   0  0  0  0  0  0
  -28.0519  -12.3128   18.6738 C   0  0  0  0  0  0
  -27.6299  -13.2458   19.8391 C   0  0  2  0  0  0
  -28.6731  -13.2720   20.9761 C   0  0  0  0  0  0
  -25.2471  -13.8215   20.5710 C   0  0  0  0  0  0
  -24.1782  -13.0440   20.9225 C   0  0  0  0  0  0
  -24.6397  -11.6924   20.8759 C   0  0  0  0  0  0
  -23.9082  -10.4296   21.0411 C   0  0  0  0  0  0
  -24.3627   -9.4208   21.9191 C   0  0  0  0  0  0
  -23.6297   -8.2246   22.0762 C   0  0  0  0  0  0
  -22.4281   -8.0284   21.3547 C   0  0  0  0  0  0
  -21.9917   -9.0261   20.4651 C   0  0  0  0  0  0
  -22.7251  -10.2138   20.3063 C   0  0  0  0  0  0
  -21.6851   -6.0737   22.5276 C   0  0  0  0  0  0
  -21.4014   -6.5642   23.8210 C   0  0  0  0  0  0
  -21.3658   -5.6794   24.9171 C   0  0  0  0  0  0
  -21.6044   -4.3057   24.7222 C   0  0  0  0  0  0
  -21.8820   -3.8150   23.4342 C   0  0  0  0  0  0
  -21.9193   -4.6967   22.3399 C   0  0  0  0  0  0
  -22.7803  -13.5213   21.1876 C   0  0  0  0  0  0
  -22.1661   -4.2153   21.0976 F   0  0  0  0  0  0
  -21.5629   -3.4541   25.7734 F   0  0  0  0  0  0
  -29.9487  -13.6771   20.3742 N   0  0  0  0  0  0
  -26.2889  -12.9438   20.3256 N   0  0  0  0  0  0
  -25.9330  -11.6571   20.5754 N   0  0  0  0  0  0
  -22.0459  -12.8204   22.0434 N   0  0  0  0  0  0
  -25.4150  -15.1943   20.4114 N   0  0  0  0  0  0
  -31.7545  -14.9964   20.1635 O   0  0  0  0  0  0
  -21.6642   -6.8883   21.4239 O   0  0  0  0  0  0
  -22.3489  -14.5520   20.6723 O   0  0  0  0  0  0
  -24.6441  -31.8436   23.1869 C   0  0  0  0  0  0
  -25.9210  -32.4694   23.8262 C   0  0  1  0  0  0
  -27.2175  -27.1320   20.1499 C   0  0  0  0  0  0
  -25.5957  -33.8500   24.2180 N   0  0  0  0  0  0
  -23.4488  -30.4620   21.5329 C   0  0  2  0  0  0
  -24.8979  -28.8876   20.1103 C   0  0  0  0  0  0
  -22.7575  -29.4546   22.4854 C   0  0  0  0  0  0
  -18.0308  -28.1394   22.8471 C   0  0  0  0  0  0
  -24.1491  -36.7254   23.2644 C   0  0  0  0  0  0
  -26.0053  -30.7151   21.3874 C   0  0  0  0  0  0
  -26.0761  -29.3263   20.7280 C   0  0  0  0  0  0
  -27.2372  -28.4647   20.7298 C   0  0  0  0  0  0
  -26.0123  -26.7959   19.4940 C   0  0  0  0  0  0
  -24.8789  -27.6358   19.4777 C   0  0  0  0  0  0
  -23.6755  -29.7904   20.1527 C   0  0  0  0  0  0
  -25.4127  -36.3031   24.0313 C   0  0  1  0  0  0
  -20.5920  -28.3726   23.1225 C   0  0  2  0  0  0
  -20.6796  -26.9426   22.5401 C   0  0  0  0  0  0
  -19.5770  -26.6380   21.5210 C   0  0  0  0  0  0
  -18.1947  -26.7934   22.1617 C   0  0  0  0  0  0
  -19.1564  -28.8877   23.2838 C   0  0  0  0  0  0
  -18.9487  -30.1473   23.8867 C   0  0  0  0  0  0
  -17.6485  -30.6592   24.0555 C   0  0  0  0  0  0
  -25.9078  -34.9407   23.5055 C   0  0  0  0  0  0
  -16.5371  -29.9085   23.6337 C   0  0  0  0  0  0
  -16.7293  -28.6503   23.0356 C   0  0  0  0  0  0
  -26.4527  -31.6571   25.0711 C   0  0  0  0  0  0
  -25.3700  -31.3770   26.1398 C   0  0  0  0  0  0
  -27.0404  -30.2967   24.6307 C   0  0  0  0  0  0
  -27.6052  -32.4345   25.7498 C   0  0  0  0  0  0
  -27.5575  -37.1783   24.8468 C   0  0  0  0  0  0
  -21.4266  -29.3053   22.3598 N   0  0  0  0  0  0
  -26.4290  -37.3746   23.9408 N   0  0  0  0  0  0
  -24.7194  -31.0286   22.0907 N   0  0  0  0  0  0
  -23.4213  -28.8094   23.3010 O   0  0  0  0  0  0
  -28.2677  -26.1437   20.2218 O   0  0  0  0  0  0
  -26.5669  -34.8907   22.4636 O   0  0  0  0  0  0
  -23.5557  -32.1319   23.7082 O   0  0  0  0  0  0
  -28.9955  -23.3000   20.3657 C   0  0  0  0  0  0
  -30.1750  -17.6509   20.5177 C   0  0  0  0  0  0
  -27.9775  -24.6166   20.0740 C   0  0  0  0  0  0
  -28.5836  -21.6639   20.2262 C   0  0  0  0  0  0
  -29.1173  -18.9604   20.3693 C   0  0  0  0  0  0
  -29.7798  -16.1188   20.5543 N   0  0  0  0  0  0
  -29.5261  -20.4534   20.4387 O   0  0  0  0  0  0
  -31.4725  -12.7334   19.1851 H   0  0  0  0  0  0
  -30.4263  -11.6266   20.0285 H   0  0  0  0  0  0
  -29.8352  -11.7260   17.5811 H   0  0  0  0  0  0
  -29.6076  -13.4547   17.6890 H   0  0  0  0  0  0
  -27.9474  -11.2717   18.9824 H   0  0  0  0  0  0
  -27.3873  -12.4459   17.8196 H   0  0  0  0  0  0
  -27.5952  -14.2482   19.4117 H   0  0  0  0  0  0
  -28.7583  -12.2984   21.4609 H   0  0  0  0  0  0
  -28.3775  -13.9798   21.7520 H   0  0  0  0  0  0
  -25.2770   -9.5683   22.4767 H   0  0  0  0  0  0
  -24.0001   -7.4639   22.7483 H   0  0  0  0  0  0
  -21.0848   -8.8786   19.8955 H   0  0  0  0  0  0
  -22.3713  -10.9681   19.6175 H   0  0  0  0  0  0
  -21.2007   -7.6150   23.9711 H   0  0  0  0  0  0
  -21.1478   -6.0527   25.9074 H   0  0  0  0  0  0
  -22.0601   -2.7613   23.2841 H   0  0  0  0  0  0
  -22.4079  -11.9853   22.4794 H   0  0  0  0  0  0
  -21.1088  -13.1240   22.2665 H   0  0  0  0  0  0
  -24.6445  -15.8460   20.5140 H   0  0  0  0  0  0
  -26.2563  -15.6311   20.0582 H   0  0  0  0  0  0
  -26.7274  -32.5293   23.0989 H   0  0  0  0  0  0
  -25.0081  -33.9613   25.0311 H   0  0  0  0  0  0
  -22.7524  -31.2884   21.3767 H   0  0  0  0  0  0
  -23.3757  -35.9581   23.3300 H   0  0  0  0  0  0
  -24.3574  -36.8897   22.2060 H   0  0  0  0  0  0
  -23.7239  -37.6445   23.6688 H   0  0  0  0  0  0
  -26.1634  -31.4699   20.6157 H   0  0  0  0  0  0
  -26.8746  -30.7638   22.0320 H   0  0  0  0  0  0
  -28.1345  -28.7940   21.2351 H   0  0  0  0  0  0
  -25.9090  -25.8391   19.0046 H   0  0  0  0  0  0
  -23.9791  -27.2944   18.9840 H   0  0  0  0  0  0
  -23.8129  -30.5642   19.3962 H   0  0  0  0  0  0
  -22.7906  -29.2322   19.8421 H   0  0  0  0  0  0
  -25.1310  -36.1859   25.0805 H   0  0  0  0  0  0
  -21.0009  -28.3322   24.1349 H   0  0  0  0  0  0
  -20.5699  -26.2339   23.3624 H   0  0  0  0  0  0
  -21.6661  -26.7438   22.1193 H   0  0  0  0  0  0
  -19.6938  -25.6286   21.1256 H   0  0  0  0  0  0
  -19.6710  -27.3177   20.6725 H   0  0  0  0  0  0
  -17.4221  -26.6678   21.4015 H   0  0  0  0  0  0
  -18.0339  -26.0083   22.9019 H   0  0  0  0  0  0
  -19.7969  -30.7283   24.2231 H   0  0  0  0  0  0
  -17.5046  -31.6272   24.5159 H   0  0  0  0  0  0
  -15.5373  -30.2976   23.7686 H   0  0  0  0  0  0
  -15.8692  -28.0810   22.7091 H   0  0  0  0  0  0
  -24.5887  -30.7114   25.7710 H   0  0  0  0  0  0
  -24.8877  -32.2957   26.4749 H   0  0  0  0  0  0
  -25.7963  -30.8990   27.0226 H   0  0  0  0  0  0
  -26.3033  -29.6678   24.1301 H   0  0  0  0  0  0
  -27.4006  -29.7279   25.4889 H   0  0  0  0  0  0
  -27.8941  -30.4207   23.9637 H   0  0  0  0  0  0
  -27.2647  -33.3681   26.1994 H   0  0  0  0  0  0
  -28.3901  -32.6856   25.0349 H   0  0  0  0  0  0
  -28.0676  -31.8527   26.5483 H   0  0  0  0  0  0
  -28.2582  -38.0086   24.7514 H   0  0  0  0  0  0
  -28.1077  -36.2616   24.6296 H   0  0  0  0  0  0
  -27.2292  -37.1428   25.8870 H   0  0  0  0  0  0
  -20.9485  -29.8769   21.6772 H   0  0  0  0  0  0
  -26.0155  -38.2813   24.1414 H   0  0  0  0  0  0
  -29.3745  -23.4293   21.3792 H   0  0  0  0  0  0
  -29.8658  -23.4473   19.7263 H   0  0  0  0  0  0
  -30.7379  -17.8179   21.4364 H   0  0  0  0  0  0
  -30.9147  -17.7514   19.7226 H   0  0  0  0  0  0
  -27.0887  -24.4342   20.6791 H   0  0  0  0  0  0
  -27.6485  -24.4879   19.0429 H   0  0  0  0  0  0
  -28.1693  -21.5325   19.2259 H   0  0  0  0  0  0
  -27.7400  -21.4997   20.8976 H   0  0  0  0  0  0
  -28.3436  -18.8318   21.1269 H   0  0  0  0  0  0
  -28.5998  -18.8400   19.4170 H   0  0  0  0  0  0
  -28.7965  -15.9465   20.7048 H   0  0  0  0  0  0
  1 25  1  0  0  0
  1 30  2  0  0  0
  1 76  1  0  0  0
  2  3  1  0  0  0
  2 25  1  0  0  0
  2 78  1  0  0  0
  2 79  1  0  0  0
  3  4  1  0  0  0
  3 80  1  0  0  0
  3 81  1  0  0  0
  4  5  1  0  0  0
  4 82  1  0  0  0
  4 83  1  0  0  0
  5  6  1  0  0  0
  5 26  1  0  0  0
  5 84  1  0  0  0
  6 25  1  0  0  0
  6 85  1  0  0  0
  6 86  1  0  0  0
  7  8  2  0  0  0
  7 26  1  0  0  0
  7 29  1  0  0  0
  8  9  1  0  0  0
  8 22  1  0  0  0
  9 10  1  0  0  0
  9 27  2  0  0  0
 10 11  2  0  0  0
 10 15  1  0  0  0
 11 12  1  0  0  0
 11 87  1  0  0  0
 12 13  2  0  0  0
 12 88  1  0  0  0
 13 14  1  0  0  0
 13 31  1  0  0  0
 14 15  2  0  0  0
 14 89  1  0  0  0
 15 90  1  0  0  0
 16 17  2  0  0  0
 16 21  1  0  0  0
 16 31  1  0  0  0
 17 18  1  0  0  0
 17 91  1  0  0  0
 18 19  2  0  0  0
 18 92  1  0  0  0
 19 20  1  0  0  0
 19 24  1  0  0  0
 20 21  2  0  0  0
 20 93  1  0  0  0
 21 23  1  0  0  0
 22 28  1  0  0  0
 22 32  2  0  0  0
 26 27  1  0  0  0
 28 94  1  0  0  0
 28 95  1  0  0  0
 29 96  1  0  0  0
 29 97  1  0  0  0
 33 34  1  0  0  0
 33 66  1  0  0  0
 33 70  2  0  0  0
 34 36  1  0  0  0
 34 59  1  0  0  0
 34 98  1  0  0  0
 35 44  2  0  0  0
 35 45  1  0  0  0
 35 68  1  0  0  0
 36 56  1  0  0  0
 36 99  1  0  0  0
 37 39  1  0  0  0
 37 47  1  0  0  0
 37 66  1  0  0  0
 37100  1  0  0  0
 38 43  2  0  0  0
 38 46  1  0  0  0
 38 47  1  0  0  0
 39 64  1  0  0  0
 39 67  2  0  0  0
 40 52  1  0  0  0
 40 53  2  0  0  0
 40 58  1  0  0  0
 41101  1  0  0  0
 41102  1  0  0  0
 41103  1  0  0  0
 41 48  1  0  0  0
 42 43  1  0  0  0
 42 66  1  0  0  0
 42104  1  0  0  0
 42105  1  0  0  0
 43 44  1  0  0  0
 44106  1  0  0  0
 45 46  2  0  0  0
 45107  1  0  0  0
 46108  1  0  0  0
 47109  1  0  0  0
 47110  1  0  0  0
 48 56  1  0  0  0
 48 65  1  0  0  0
 48111  1  0  0  0
 49 50  1  0  0  0
 49 53  1  0  0  0
 49 64  1  0  0  0
 49112  1  0  0  0
 50 51  1  0  0  0
 50113  1  0  0  0
 50114  1  0  0  0
 51 52  1  0  0  0
 51115  1  0  0  0
 51116  1  0  0  0
 52117  1  0  0  0
 52118  1  0  0  0
 53 54  1  0  0  0
 54 55  2  0  0  0
 54119  1  0  0  0
 55 57  1  0  0  0
 55120  1  0  0  0
 56 69  2  0  0  0
 57 58  2  0  0  0
 57121  1  0  0  0
 58122  1  0  0  0
 59 60  1  0  0  0
 59 61  1  0  0  0
 59 62  1  0  0  0
 60123  1  0  0  0
 60124  1  0  0  0
 60125  1  0  0  0
 61126  1  0  0  0
 61127  1  0  0  0
 61128  1  0  0  0
 62129  1  0  0  0
 62130  1  0  0  0
 62131  1  0  0  0
 63 65  1  0  0  0
 63132  1  0  0  0
 63133  1  0  0  0
 63134  1  0  0  0
 64135  1  0  0  0
 65136  1  0  0  0
 68 73  1  0  0  0
 71 73  1  0  0  0
 71 74  1  0  0  0
 71137  1  0  0  0
 71138  1  0  0  0
 72 75  1  0  0  0
 72 76  1  0  0  0
 72139  1  0  0  0
 72140  1  0  0  0
 73141  1  0  0  0
 73142  1  0  0  0
 74 77  1  0  0  0
 74143  1  0  0  0
 74144  1  0  0  0
 75 77  1  0  0  0
 75145  1  0  0  0
 75146  1  0  0  0
 76147  1  0  0  0
M  ISO  4   1 100  68 101  73 101  76 100
M  END
> <chiral flag>
0

> <version>
0

> <s_m_source_file>
/data/baiqing/PycharmProjects/Reinvent-master-3.2/result/LINK_invent/BTK/process_docking_weight1_custom_sum_contain_oxygen_bond_distance_aromatic_linkinvent_7_9_3/rearranged_h_0001.sdf

> <i_m_source_file_index>
9

> <r_mmod_Potential_Energy-OPLS-2005>
427.779602050781

> <r_mmod_Stretch_Energy-OPLS-2005>
271.989624023438

> <r_mmod_Bend_Energy-OPLS-2005>
260.346160888672

> <r_mmod_Torsional_Energy-OPLS-2005>
200.160171508789

> <r_mmod_Improper_Torsional_Energy-OPLS-2005>
4.39112663269043

> <r_mmod_Van_der_Waal_Energy-OPLS-2005>
115.448318481445

> <r_mmod_Electrostatic_Energy-OPLS-2005>
-394.917541503906

> <r_mmod_Solvation_Energy-OPLS-2005>
-219.092132568359

> <b_mmod_Minimization_Converged-OPLS-2005>
0

> <r_mmod_RMS_Derivative-OPLS-2005>
0.83473664522171

$$$$
9
                    3D
 Structure written by MMmdl.
140147  0  0  1  0            999 V2000
  -30.1611  -16.0041   20.3080 C   0  0  0  0  0  0
  -30.3940  -13.3709   19.5193 C   0  0  0  0  0  0
  -29.5602  -12.7495   18.3505 C   0  0  0  0  0  0
  -28.1679  -12.3098   18.8207 C   0  0  0  0  0  0
  -27.5837  -13.3431   19.8035 C   0  0  2  0  0  0
  -28.5794  -13.8362   20.8889 C   0  0  0  0  0  0
  -25.2278  -13.8329   20.5856 C   0  0  0  0  0  0
  -24.1700  -13.0433   20.9315 C   0  0  0  0  0  0
  -24.6450  -11.6960   20.8763 C   0  0  0  0  0  0
  -23.9156  -10.4295   21.0384 C   0  0  0  0  0  0
  -24.3676   -9.4207   21.9173 C   0  0  0  0  0  0
  -23.6326   -8.2253   22.0753 C   0  0  0  0  0  0
  -22.4305   -8.0296   21.3544 C   0  0  0  0  0  0
  -21.9960   -9.0273   20.4641 C   0  0  0  0  0  0
  -22.7315  -10.2138   20.3042 C   0  0  0  0  0  0
  -21.6863   -6.0747   22.5279 C   0  0  0  0  0  0
  -21.4022   -6.5646   23.8213 C   0  0  0  0  0  0
  -21.3661   -5.6796   24.9173 C   0  0  0  0  0  0
  -21.6044   -4.3059   24.7222 C   0  0  0  0  0  0
  -21.8818   -3.8153   23.4342 C   0  0  0  0  0  0
  -21.9196   -4.6972   22.3400 C   0  0  0  0  0  0
  -22.7702  -13.5137   21.1934 C   0  0  0  0  0  0
  -22.1662   -4.2158   21.0977 F   0  0  0  0  0  0
  -21.5626   -3.4540   25.7734 F   0  0  0  0  0  0
  -29.6775  -14.5802   20.1919 N   0  0  0  0  0  0
  -26.2769  -12.9729   20.3291 N   0  0  0  0  0  0
  -25.9412  -11.6758   20.5682 N   0  0  0  0  0  0
  -22.0374  -12.8106   22.0483 N   0  0  0  0  0  0
  -25.3817  -15.2078   20.4306 N   0  0  0  0  0  0
  -31.4087  -15.8722   20.2822 O   0  0  0  0  0  0
  -21.6655   -6.8899   21.4244 O   0  0  0  0  0  0
  -22.3368  -14.5432   20.6768 O   0  0  0  0  0  0
  -24.7122  -31.7741   23.1306 C   0  0  0  0  0  0
  -25.9575  -32.4339   23.7956 C   0  0  1  0  0  0
  -27.2357  -26.4414   20.2493 C   0  0  0  0  0  0
  -25.6043  -33.8173   24.1821 N   0  0  0  0  0  0
  -23.5502  -30.3697   21.4913 C   0  0  2  0  0  0
  -25.0042  -28.6446   20.1367 C   0  0  0  0  0  0
  -22.7896  -29.4343   22.4700 C   0  0  0  0  0  0
  -18.0162  -28.1569   22.8214 C   0  0  0  0  0  0
  -24.1498  -36.7093   23.2657 C   0  0  0  0  0  0
  -26.1405  -30.4200   21.4324 C   0  0  0  0  0  0
  -26.2010  -28.9529   20.7936 C   0  0  0  0  0  0
  -27.2917  -27.8910   20.8024 C   0  0  0  0  0  0
  -25.9991  -26.4075   19.5352 C   0  0  0  0  0  0
  -24.9575  -27.3998   19.4818 C   0  0  0  0  0  0
  -23.8153  -29.6344   20.1422 C   0  0  0  0  0  0
  -25.4158  -36.2817   24.0263 C   0  0  1  0  0  0
  -20.6073  -28.3875   23.0881 C   0  0  2  0  0  0
  -20.7786  -26.9756   22.4608 C   0  0  0  0  0  0
  -19.5498  -26.4216   21.7088 C   0  0  0  0  0  0
  -18.1097  -26.8638   22.0237 C   0  0  0  0  0  0
  -19.1588  -28.8842   23.2637 C   0  0  0  0  0  0
  -18.9570  -30.1345   23.8911 C   0  0  0  0  0  0
  -17.6624  -30.6560   24.0765 C   0  0  0  0  0  0
  -25.9160  -34.9216   23.4892 C   0  0  0  0  0  0
  -16.5419  -29.9202   23.6574 C   0  0  0  0  0  0
  -16.7219  -28.6723   23.0397 C   0  0  0  0  0  0
  -26.4648  -31.6466   25.0680 C   0  0  0  0  0  0
  -25.3637  -31.3855   26.1238 C   0  0  0  0  0  0
  -27.0614  -30.2776   24.6755 C   0  0  0  0  0  0
  -27.6047  -32.4377   25.7524 C   0  0  0  0  0  0
  -27.5558  -37.1705   24.8467 C   0  0  0  0  0  0
  -21.4495  -29.3435   22.3578 N   0  0  0  0  0  0
  -26.4262  -37.3606   23.9409 N   0  0  0  0  0  0
  -24.8283  -30.8941   22.0696 N   0  0  0  0  0  0
  -23.4210  -28.7802   23.3033 O   0  0  0  0  0  0
  -28.1967  -25.1262   20.2226 O   0  0  0  0  0  0
  -26.5824  -34.8842   22.4527 O   0  0  0  0  0  0
  -23.6085  -32.0940   23.6097 O   0  0  0  0  0  0
  -28.7705  -21.2825   19.9969 C   0  0  0  0  0  0
  -29.3625  -19.3536   20.6014 C   0  0  0  0  0  0
  -28.2110  -23.2498   20.5175 C   0  0  0  0  0  0
  -29.4079  -17.4693   20.2741 N   0  0  0  0  0  0
  -31.3466  -13.7011   19.1035 H   0  0  0  0  0  0
  -30.6640  -12.6081   20.2520 H   0  0  0  0  0  0
  -30.0920  -11.9085   17.9034 H   0  0  0  0  0  0
  -29.4512  -13.4961   17.5625 H   0  0  0  0  0  0
  -28.2677  -11.3481   19.3257 H   0  0  0  0  0  0
  -27.5014  -12.1499   17.9722 H   0  0  0  0  0  0
  -27.3925  -14.2099   19.1687 H   0  0  0  0  0  0
  -28.9347  -13.0208   21.5211 H   0  0  0  0  0  0
  -28.0774  -14.5353   21.5592 H   0  0  0  0  0  0
  -25.2813   -9.5677   22.4762 H   0  0  0  0  0  0
  -24.0020   -7.4647   22.7483 H   0  0  0  0  0  0
  -21.0888   -8.8807   19.8948 H   0  0  0  0  0  0
  -22.3776  -10.9680   19.6153 H   0  0  0  0  0  0
  -21.2018   -7.6155   23.9719 H   0  0  0  0  0  0
  -21.1482   -6.0525   25.9077 H   0  0  0  0  0  0
  -22.0594   -2.7615   23.2840 H   0  0  0  0  0  0
  -22.4027  -11.9789   22.4882 H   0  0  0  0  0  0
  -21.0974  -13.1085   22.2674 H   0  0  0  0  0  0
  -24.6092  -15.8546   20.5480 H   0  0  0  0  0  0
  -26.2271  -15.6547   20.1017 H   0  0  0  0  0  0
  -26.7689  -32.4750   23.0689 H   0  0  0  0  0  0
  -25.0068  -33.9166   24.9896 H   0  0  0  0  0  0
  -22.8946  -31.2157   21.2742 H   0  0  0  0  0  0
  -23.3788  -35.9392   23.3244 H   0  0  0  0  0  0
  -24.3558  -36.8846   22.2087 H   0  0  0  0  0  0
  -23.7232  -37.6231   23.6804 H   0  0  0  0  0  0
  -26.3681  -31.1235   20.6306 H   0  0  0  0  0  0
  -26.9832  -30.5006   22.1060 H   0  0  0  0  0  0
  -28.1975  -28.1537   21.3305 H   0  0  0  0  0  0
  -25.7911  -25.4872   19.0076 H   0  0  0  0  0  0
  -24.0632  -27.1495   18.9276 H   0  0  0  0  0  0
  -24.0136  -30.3783   19.3698 H   0  0  0  0  0  0
  -22.9130  -29.1146   19.8155 H   0  0  0  0  0  0
  -25.1379  -36.1542   25.0751 H   0  0  0  0  0  0
  -20.9993  -28.3319   24.1064 H   0  0  0  0  0  0
  -21.1583  -26.3040   23.2422 H   0  0  0  0  0  0
  -21.6163  -26.9721   21.7601 H   0  0  0  0  0  0
  -19.3880  -26.0269   22.7114 H   0  0  0  0  0  0
  -19.6128  -27.3462   21.1307 H   0  0  0  0  0  0
  -17.5815  -27.0283   21.0810 H   0  0  0  0  0  0
  -17.5017  -26.0951   22.5175 H   0  0  0  0  0  0
  -19.8097  -30.7074   24.2302 H   0  0  0  0  0  0
  -17.5302  -31.6181   24.5523 H   0  0  0  0  0  0
  -15.5460  -30.3152   23.8048 H   0  0  0  0  0  0
  -15.8546  -28.1225   22.6995 H   0  0  0  0  0  0
  -24.5858  -30.7178   25.7514 H   0  0  0  0  0  0
  -24.8793  -32.3100   26.4389 H   0  0  0  0  0  0
  -25.7743  -30.9184   27.0198 H   0  0  0  0  0  0
  -26.3378  -29.6321   24.1770 H   0  0  0  0  0  0
  -27.3966  -29.7315   25.5583 H   0  0  0  0  0  0
  -27.9387  -30.3845   24.0374 H   0  0  0  0  0  0
  -27.2557  -33.3779   26.1808 H   0  0  0  0  0  0
  -28.4013  -32.6778   25.0469 H   0  0  0  0  0  0
  -28.0543  -31.8704   26.5683 H   0  0  0  0  0  0
  -28.2525  -38.0046   24.7520 H   0  0  0  0  0  0
  -28.1104  -36.2565   24.6288 H   0  0  0  0  0  0
  -27.2271  -37.1326   25.8867 H   0  0  0  0  0  0
  -20.9859  -29.9264   21.6745 H   0  0  0  0  0  0
  -26.0065  -38.2641   24.1431 H   0  0  0  0  0  0
  -27.9479  -21.0312   19.3274 H   0  0  0  0  0  0
  -29.5799  -21.5046   19.3014 H   0  0  0  0  0  0
  -28.8623  -19.3135   21.5693 H   0  0  0  0  0  0
  -30.4044  -19.5229   20.8749 H   0  0  0  0  0  0
  -28.6621  -23.2870   21.5090 H   0  0  0  0  0  0
  -27.1534  -23.1048   20.7380 H   0  0  0  0  0  0
  -28.4467  -17.2150   20.0887 H   0  0  0  0  0  0
  1 25  1  0  0  0
  1 30  2  0  0  0
  1 74  1  0  0  0
  2  3  1  0  0  0
  2 25  1  0  0  0
  2 75  1  0  0  0
  2 76  1  0  0  0
  3  4  1  0  0  0
  3 77  1  0  0  0
  3 78  1  0  0  0
  4  5  1  0  0  0
  4 79  1  0  0  0
  4 80  1  0  0  0
  5  6  1  0  0  0
  5 26  1  0  0  0
  5 81  1  0  0  0
  6 25  1  0  0  0
  6 82  1  0  0  0
  6 83  1  0  0  0
  7  8  2  0  0  0
  7 26  1  0  0  0
  7 29  1  0  0  0
  8  9  1  0  0  0
  8 22  1  0  0  0
  9 10  1  0  0  0
  9 27  2  0  0  0
 10 11  2  0  0  0
 10 15  1  0  0  0
 11 12  1  0  0  0
 11 84  1  0  0  0
 12 13  2  0  0  0
 12 85  1  0  0  0
 13 14  1  0  0  0
 13 31  1  0  0  0
 14 15  2  0  0  0
 14 86  1  0  0  0
 15 87  1  0  0  0
 16 17  2  0  0  0
 16 21  1  0  0  0
 16 31  1  0  0  0
 17 18  1  0  0  0
 17 88  1  0  0  0
 18 19  2  0  0  0
 18 89  1  0  0  0
 19 20  1  0  0  0
 19 24  1  0  0  0
 20 21  2  0  0  0
 20 90  1  0  0  0
 21 23  1  0  0  0
 22 28  1  0  0  0
 22 32  2  0  0  0
 26 27  1  0  0  0
 28 91  1  0  0  0
 28 92  1  0  0  0
 29 93  1  0  0  0
 29 94  1  0  0  0
 33 34  1  0  0  0
 33 66  1  0  0  0
 33 70  2  0  0  0
 34 36  1  0  0  0
 34 59  1  0  0  0
 34 95  1  0  0  0
 35 44  2  0  0  0
 35 45  1  0  0  0
 35 68  1  0  0  0
 36 56  1  0  0  0
 36 96  1  0  0  0
 37 39  1  0  0  0
 37 47  1  0  0  0
 37 66  1  0  0  0
 37 97  1  0  0  0
 38 43  2  0  0  0
 38 46  1  0  0  0
 38 47  1  0  0  0
 39 64  1  0  0  0
 39 67  2  0  0  0
 40 52  1  0  0  0
 40 53  2  0  0  0
 40 58  1  0  0  0
 41 98  1  0  0  0
 41 99  1  0  0  0
 41100  1  0  0  0
 41 48  1  0  0  0
 42 43  1  0  0  0
 42 66  1  0  0  0
 42101  1  0  0  0
 42102  1  0  0  0
 43 44  1  0  0  0
 44103  1  0  0  0
 45 46  2  0  0  0
 45104  1  0  0  0
 46105  1  0  0  0
 47106  1  0  0  0
 47107  1  0  0  0
 48 56  1  0  0  0
 48 65  1  0  0  0
 48108  1  0  0  0
 49 50  1  0  0  0
 49 53  1  0  0  0
 49 64  1  0  0  0
 49109  1  0  0  0
 50 51  1  0  0  0
 50110  1  0  0  0
 50111  1  0  0  0
 51 52  1  0  0  0
 51112  1  0  0  0
 51113  1  0  0  0
 52114  1  0  0  0
 52115  1  0  0  0
 53 54  1  0  0  0
 54 55  2  0  0  0
 54116  1  0  0  0
 55 57  1  0  0  0
 55117  1  0  0  0
 56 69  2  0  0  0
 57 58  2  0  0  0
 57118  1  0  0  0
 58119  1  0  0  0
 59 60  1  0  0  0
 59 61  1  0  0  0
 59 62  1  0  0  0
 60120  1  0  0  0
 60121  1  0  0  0
 60122  1  0  0  0
 61123  1  0  0  0
 61124  1  0  0  0
 61125  1  0  0  0
 62126  1  0  0  0
 62127  1  0  0  0
 62128  1  0  0  0
 63 65  1  0  0  0
 63129  1  0  0  0
 63130  1  0  0  0
 63131  1  0  0  0
 64132  1  0  0  0
 65133  1  0  0  0
 68 73  1  0  0  0
 71 72  1  0  0  0
 71 73  1  0  0  0
 71134  1  0  0  0
 71135  1  0  0  0
 72 74  1  0  0  0
 72136  1  0  0  0
 72137  1  0  0  0
 73138  1  0  0  0
 73139  1  0  0  0
 74140  1  0  0  0
M  ISO  4   1 100  68 101  73 101  74 100
M  END
> <chiral flag>
0

> <version>
0

> <s_m_source_file>
/data/baiqing/PycharmProjects/Reinvent-master-3.2/result/LINK_invent/BTK/process_docking_weight1_custom_sum_contain_oxygen_bond_distance_aromatic_linkinvent_7_9_3/rearranged_h_0001.sdf

> <i_m_source_file_index>
10

> <r_mmod_Potential_Energy-OPLS-2005>
4439.1796875

> <r_mmod_Stretch_Energy-OPLS-2005>
1928.78686523438

> <r_mmod_Bend_Energy-OPLS-2005>
1134.07287597656

> <r_mmod_Torsional_Energy-OPLS-2005>
253.740341186523

> <r_mmod_Improper_Torsional_Energy-OPLS-2005>
5.21059560775757

> <r_mmod_Van_der_Waal_Energy-OPLS-2005>
136.971328735352

> <r_mmod_Electrostatic_Energy-OPLS-2005>
-343.119842529297

> <r_mmod_Solvation_Energy-OPLS-2005>
-223.109710693359

> <b_mmod_Minimization_Converged-OPLS-2005>
0

> <r_mmod_RMS_Derivative-OPLS-2005>
0.0710311159491539

$$$$
10
                    3D
 Structure written by MMmdl.
140147  0  0  1  0            999 V2000
  -30.1611  -16.0041   20.3080 C   0  0  0  0  0  0
  -30.3940  -13.3709   19.5193 C   0  0  0  0  0  0
  -29.5602  -12.7495   18.3505 C   0  0  0  0  0  0
  -28.1679  -12.3098   18.8207 C   0  0  0  0  0  0
  -27.5837  -13.3431   19.8035 C   0  0  2  0  0  0
  -28.5794  -13.8362   20.8889 C   0  0  0  0  0  0
  -25.2278  -13.8329   20.5856 C   0  0  0  0  0  0
  -24.1700  -13.0433   20.9315 C   0  0  0  0  0  0
  -24.6450  -11.6960   20.8763 C   0  0  0  0  0  0
  -23.9156  -10.4295   21.0384 C   0  0  0  0  0  0
  -24.3676   -9.4207   21.9173 C   0  0  0  0  0  0
  -23.6326   -8.2253   22.0753 C   0  0  0  0  0  0
  -22.4305   -8.0296   21.3544 C   0  0  0  0  0  0
  -21.9960   -9.0273   20.4641 C   0  0  0  0  0  0
  -22.7315  -10.2138   20.3042 C   0  0  0  0  0  0
  -21.6863   -6.0747   22.5279 C   0  0  0  0  0  0
  -21.4022   -6.5646   23.8213 C   0  0  0  0  0  0
  -21.3661   -5.6796   24.9173 C   0  0  0  0  0  0
  -21.6044   -4.3059   24.7222 C   0  0  0  0  0  0
  -21.8818   -3.8153   23.4342 C   0  0  0  0  0  0
  -21.9196   -4.6972   22.3400 C   0  0  0  0  0  0
  -22.7702  -13.5137   21.1934 C   0  0  0  0  0  0
  -22.1662   -4.2158   21.0977 F   0  0  0  0  0  0
  -21.5626   -3.4540   25.7734 F   0  0  0  0  0  0
  -29.6775  -14.5802   20.1919 N   0  0  0  0  0  0
  -26.2769  -12.9729   20.3291 N   0  0  0  0  0  0
  -25.9412  -11.6758   20.5682 N   0  0  0  0  0  0
  -22.0374  -12.8106   22.0483 N   0  0  0  0  0  0
  -25.3817  -15.2078   20.4306 N   0  0  0  0  0  0
  -31.4087  -15.8722   20.2822 O   0  0  0  0  0  0
  -21.6655   -6.8899   21.4244 O   0  0  0  0  0  0
  -22.3368  -14.5432   20.6768 O   0  0  0  0  0  0
  -24.7122  -31.7741   23.1306 C   0  0  0  0  0  0
  -25.9575  -32.4339   23.7956 C   0  0  1  0  0  0
  -27.2357  -26.4414   20.2493 C   0  0  0  0  0  0
  -25.6043  -33.8173   24.1821 N   0  0  0  0  0  0
  -23.5502  -30.3697   21.4913 C   0  0  2  0  0  0
  -25.0042  -28.6446   20.1367 C   0  0  0  0  0  0
  -22.7896  -29.4343   22.4700 C   0  0  0  0  0  0
  -18.0162  -28.1569   22.8214 C   0  0  0  0  0  0
  -24.1498  -36.7093   23.2657 C   0  0  0  0  0  0
  -26.1405  -30.4200   21.4324 C   0  0  0  0  0  0
  -26.2010  -28.9529   20.7936 C   0  0  0  0  0  0
  -27.2917  -27.8910   20.8024 C   0  0  0  0  0  0
  -25.9991  -26.4075   19.5352 C   0  0  0  0  0  0
  -24.9575  -27.3998   19.4818 C   0  0  0  0  0  0
  -23.8153  -29.6344   20.1422 C   0  0  0  0  0  0
  -25.4158  -36.2817   24.0263 C   0  0  1  0  0  0
  -20.6073  -28.3875   23.0881 C   0  0  2  0  0  0
  -20.7786  -26.9756   22.4608 C   0  0  0  0  0  0
  -19.5498  -26.4216   21.7088 C   0  0  0  0  0  0
  -18.1097  -26.8638   22.0237 C   0  0  0  0  0  0
  -19.1588  -28.8842   23.2637 C   0  0  0  0  0  0
  -18.9570  -30.1345   23.8911 C   0  0  0  0  0  0
  -17.6624  -30.6560   24.0765 C   0  0  0  0  0  0
  -25.9160  -34.9216   23.4892 C   0  0  0  0  0  0
  -16.5419  -29.9202   23.6574 C   0  0  0  0  0  0
  -16.7219  -28.6723   23.0397 C   0  0  0  0  0  0
  -26.4648  -31.6466   25.0680 C   0  0  0  0  0  0
  -25.3637  -31.3855   26.1238 C   0  0  0  0  0  0
  -27.0614  -30.2776   24.6755 C   0  0  0  0  0  0
  -27.6047  -32.4377   25.7524 C   0  0  0  0  0  0
  -27.5558  -37.1705   24.8467 C   0  0  0  0  0  0
  -21.4495  -29.3435   22.3578 N   0  0  0  0  0  0
  -26.4262  -37.3606   23.9409 N   0  0  0  0  0  0
  -24.8283  -30.8941   22.0696 N   0  0  0  0  0  0
  -23.4210  -28.7802   23.3033 O   0  0  0  0  0  0
  -28.1967  -25.1262   20.2226 O   0  0  0  0  0  0
  -26.5824  -34.8842   22.4527 O   0  0  0  0  0  0
  -23.6085  -32.0940   23.6097 O   0  0  0  0  0  0
  -28.7705  -21.2825   19.9969 C   0  0  0  0  0  0
  -29.3625  -19.3536   20.6014 C   0  0  0  0  0  0
  -28.2110  -23.2498   20.5175 C   0  0  0  0  0  0
  -29.4079  -17.4693   20.2741 N   0  0  0  0  0  0
  -31.3466  -13.7011   19.1035 H   0  0  0  0  0  0
  -30.6640  -12.6081   20.2520 H   0  0  0  0  0  0
  -30.0920  -11.9085   17.9034 H   0  0  0  0  0  0
  -29.4512  -13.4961   17.5625 H   0  0  0  0  0  0
  -28.2677  -11.3481   19.3257 H   0  0  0  0  0  0
  -27.5014  -12.1499   17.9722 H   0  0  0  0  0  0
  -27.3925  -14.2099   19.1687 H   0  0  0  0  0  0
  -28.9347  -13.0208   21.5211 H   0  0  0  0  0  0
  -28.0774  -14.5353   21.5592 H   0  0  0  0  0  0
  -25.2813   -9.5677   22.4762 H   0  0  0  0  0  0
  -24.0020   -7.4647   22.7483 H   0  0  0  0  0  0
  -21.0888   -8.8807   19.8948 H   0  0  0  0  0  0
  -22.3776  -10.9680   19.6153 H   0  0  0  0  0  0
  -21.2018   -7.6155   23.9719 H   0  0  0  0  0  0
  -21.1482   -6.0525   25.9077 H   0  0  0  0  0  0
  -22.0594   -2.7615   23.2840 H   0  0  0  0  0  0
  -22.4027  -11.9789   22.4882 H   0  0  0  0  0  0
  -21.0974  -13.1085   22.2674 H   0  0  0  0  0  0
  -24.6092  -15.8546   20.5480 H   0  0  0  0  0  0
  -26.2271  -15.6547   20.1017 H   0  0  0  0  0  0
  -26.7689  -32.4750   23.0689 H   0  0  0  0  0  0
  -25.0068  -33.9166   24.9896 H   0  0  0  0  0  0
  -22.8946  -31.2157   21.2742 H   0  0  0  0  0  0
  -23.3788  -35.9392   23.3244 H   0  0  0  0  0  0
  -24.3558  -36.8846   22.2087 H   0  0  0  0  0  0
  -23.7232  -37.6231   23.6804 H   0  0  0  0  0  0
  -26.3681  -31.1235   20.6306 H   0  0  0  0  0  0
  -26.9832  -30.5006   22.1060 H   0  0  0  0  0  0
  -28.1975  -28.1537   21.3305 H   0  0  0  0  0  0
  -25.7911  -25.4872   19.0076 H   0  0  0  0  0  0
  -24.0632  -27.1495   18.9276 H   0  0  0  0  0  0
  -24.0136  -30.3783   19.3698 H   0  0  0  0  0  0
  -22.9130  -29.1146   19.8155 H   0  0  0  0  0  0
  -25.1379  -36.1542   25.0751 H   0  0  0  0  0  0
  -20.9993  -28.3319   24.1064 H   0  0  0  0  0  0
  -21.1583  -26.3040   23.2422 H   0  0  0  0  0  0
  -21.6163  -26.9721   21.7601 H   0  0  0  0  0  0
  -19.3880  -26.0269   22.7114 H   0  0  0  0  0  0
  -19.6128  -27.3462   21.1307 H   0  0  0  0  0  0
  -17.5815  -27.0283   21.0810 H   0  0  0  0  0  0
  -17.5017  -26.0951   22.5175 H   0  0  0  0  0  0
  -19.8097  -30.7074   24.2302 H   0  0  0  0  0  0
  -17.5302  -31.6181   24.5523 H   0  0  0  0  0  0
  -15.5460  -30.3152   23.8048 H   0  0  0  0  0  0
  -15.8546  -28.1225   22.6995 H   0  0  0  0  0  0
  -24.5858  -30.7178   25.7514 H   0  0  0  0  0  0
  -24.8793  -32.3100   26.4389 H   0  0  0  0  0  0
  -25.7743  -30.9184   27.0198 H   0  0  0  0  0  0
  -26.3378  -29.6321   24.1770 H   0  0  0  0  0  0
  -27.3966  -29.7315   25.5583 H   0  0  0  0  0  0
  -27.9387  -30.3845   24.0374 H   0  0  0  0  0  0
  -27.2557  -33.3779   26.1808 H   0  0  0  0  0  0
  -28.4013  -32.6778   25.0469 H   0  0  0  0  0  0
  -28.0543  -31.8704   26.5683 H   0  0  0  0  0  0
  -28.2525  -38.0046   24.7520 H   0  0  0  0  0  0
  -28.1104  -36.2565   24.6288 H   0  0  0  0  0  0
  -27.2271  -37.1326   25.8867 H   0  0  0  0  0  0
  -20.9859  -29.9264   21.6745 H   0  0  0  0  0  0
  -26.0065  -38.2641   24.1431 H   0  0  0  0  0  0
  -27.9479  -21.0312   19.3274 H   0  0  0  0  0  0
  -29.5799  -21.5046   19.3014 H   0  0  0  0  0  0
  -28.8623  -19.3135   21.5693 H   0  0  0  0  0  0
  -30.4044  -19.5229   20.8749 H   0  0  0  0  0  0
  -28.6621  -23.2870   21.5090 H   0  0  0  0  0  0
  -27.1534  -23.1048   20.7380 H   0  0  0  0  0  0
  -28.4467  -17.2150   20.0887 H   0  0  0  0  0  0
  1 25  1  0  0  0
  1 30  2  0  0  0
  1 74  1  0  0  0
  2  3  1  0  0  0
  2 25  1  0  0  0
  2 75  1  0  0  0
  2 76  1  0  0  0
  3  4  1  0  0  0
  3 77  1  0  0  0
  3 78  1  0  0  0
  4  5  1  0  0  0
  4 79  1  0  0  0
  4 80  1  0  0  0
  5  6  1  0  0  0
  5 26  1  0  0  0
  5 81  1  0  0  0
  6 25  1  0  0  0
  6 82  1  0  0  0
  6 83  1  0  0  0
  7  8  2  0  0  0
  7 26  1  0  0  0
  7 29  1  0  0  0
  8  9  1  0  0  0
  8 22  1  0  0  0
  9 10  1  0  0  0
  9 27  2  0  0  0
 10 11  2  0  0  0
 10 15  1  0  0  0
 11 12  1  0  0  0
 11 84  1  0  0  0
 12 13  2  0  0  0
 12 85  1  0  0  0
 13 14  1  0  0  0
 13 31  1  0  0  0
 14 15  2  0  0  0
 14 86  1  0  0  0
 15 87  1  0  0  0
 16 17  2  0  0  0
 16 21  1  0  0  0
 16 31  1  0  0  0
 17 18  1  0  0  0
 17 88  1  0  0  0
 18 19  2  0  0  0
 18 89  1  0  0  0
 19 20  1  0  0  0
 19 24  1  0  0  0
 20 21  2  0  0  0
 20 90  1  0  0  0
 21 23  1  0  0  0
 22 28  1  0  0  0
 22 32  2  0  0  0
 26 27  1  0  0  0
 28 91  1  0  0  0
 28 92  1  0  0  0
 29 93  1  0  0  0
 29 94  1  0  0  0
 33 34  1  0  0  0
 33 66  1  0  0  0
 33 70  2  0  0  0
 34 36  1  0  0  0
 34 59  1  0  0  0
 34 95  1  0  0  0
 35 44  2  0  0  0
 35 45  1  0  0  0
 35 68  1  0  0  0
 36 56  1  0  0  0
 36 96  1  0  0  0
 37 39  1  0  0  0
 37 47  1  0  0  0
 37 66  1  0  0  0
 37 97  1  0  0  0
 38 43  2  0  0  0
 38 46  1  0  0  0
 38 47  1  0  0  0
 39 64  1  0  0  0
 39 67  2  0  0  0
 40 52  1  0  0  0
 40 53  2  0  0  0
 40 58  1  0  0  0
 41 98  1  0  0  0
 41 99  1  0  0  0
 41100  1  0  0  0
 41 48  1  0  0  0
 42 43  1  0  0  0
 42 66  1  0  0  0
 42101  1  0  0  0
 42102  1  0  0  0
 43 44  1  0  0  0
 44103  1  0  0  0
 45 46  2  0  0  0
 45104  1  0  0  0
 46105  1  0  0  0
 47106  1  0  0  0
 47107  1  0  0  0
 48 56  1  0  0  0
 48 65  1  0  0  0
 48108  1  0  0  0
 49 50  1  0  0  0
 49 53  1  0  0  0
 49 64  1  0  0  0
 49109  1  0  0  0
 50 51  1  0  0  0
 50110  1  0  0  0
 50111  1  0  0  0
 51 52  1  0  0  0
 51112  1  0  0  0
 51113  1  0  0  0
 52114  1  0  0  0
 52115  1  0  0  0
 53 54  1  0  0  0
 54 55  2  0  0  0
 54116  1  0  0  0
 55 57  1  0  0  0
 55117  1  0  0  0
 56 69  2  0  0  0
 57 58  2  0  0  0
 57118  1  0  0  0
 58119  1  0  0  0
 59 60  1  0  0  0
 59 61  1  0  0  0
 59 62  1  0  0  0
 60120  1  0  0  0
 60121  1  0  0  0
 60122  1  0  0  0
 61123  1  0  0  0
 61124  1  0  0  0
 61125  1  0  0  0
 62126  1  0  0  0
 62127  1  0  0  0
 62128  1  0  0  0
 63 65  1  0  0  0
 63129  1  0  0  0
 63130  1  0  0  0
 63131  1  0  0  0
 64132  1  0  0  0
 65133  1  0  0  0
 68 73  1  0  0  0
 71 72  1  0  0  0
 71 73  1  0  0  0
 71134  1  0  0  0
 71135  1  0  0  0
 72 74  1  0  0  0
 72136  1  0  0  0
 72137  1  0  0  0
 73138  1  0  0  0
 73139  1  0  0  0
 74140  1  0  0  0
M  ISO  4   1 100  68 101  73 101  74 100
M  END
> <chiral flag>
0

> <version>
0

> <s_m_source_file>
/data/baiqing/PycharmProjects/Reinvent-master-3.2/result/LINK_invent/BTK/process_docking_weight1_custom_sum_contain_oxygen_bond_distance_aromatic_linkinvent_7_9_3/rearranged_h_0001.sdf

> <i_m_source_file_index>
11

> <r_mmod_Potential_Energy-OPLS-2005>
4439.1796875

> <r_mmod_Stretch_Energy-OPLS-2005>
1928.78686523438

> <r_mmod_Bend_Energy-OPLS-2005>
1134.07287597656

> <r_mmod_Torsional_Energy-OPLS-2005>
253.740341186523

> <r_mmod_Improper_Torsional_Energy-OPLS-2005>
5.21059560775757

> <r_mmod_Van_der_Waal_Energy-OPLS-2005>
136.971328735352

> <r_mmod_Electrostatic_Energy-OPLS-2005>
-343.119842529297

> <r_mmod_Solvation_Energy-OPLS-2005>
-223.109710693359

> <b_mmod_Minimization_Converged-OPLS-2005>
0

> <r_mmod_RMS_Derivative-OPLS-2005>
0.0710311159491539

$$$$
11
                    3D
 Structure written by MMmdl.
151159  0  0  1  0            999 V2000
  -30.6183  -14.6884   20.5139 C   0  0  0  0  0  0
  -30.4359  -12.4337   19.4638 C   0  0  0  0  0  0
  -29.5135  -12.5566   18.2311 C   0  0  0  0  0  0
  -28.0372  -12.3840   18.6297 C   0  0  0  0  0  0
  -27.6555  -13.2329   19.8715 C   0  0  2  0  0  0
  -28.6981  -13.0967   21.0054 C   0  0  0  0  0  0
  -25.2556  -13.8210   20.5713 C   0  0  0  0  0  0
  -24.1819  -13.0449   20.9188 C   0  0  0  0  0  0
  -24.6435  -11.6934   20.8744 C   0  0  0  0  0  0
  -23.9092  -10.4291   21.0363 C   0  0  0  0  0  0
  -24.3651   -9.4206   21.9131 C   0  0  0  0  0  0
  -23.6309   -8.2257   22.0720 C   0  0  0  0  0  0
  -22.4288   -8.0293   21.3541 C   0  0  0  0  0  0
  -21.9934   -9.0258   20.4628 C   0  0  0  0  0  0
  -22.7273  -10.2129   20.3016 C   0  0  0  0  0  0
  -21.6874   -6.0737   22.5277 C   0  0  0  0  0  0
  -21.4030   -6.5634   23.8203 C   0  0  0  0  0  0
  -21.3679   -5.6772   24.9165 C   0  0  0  0  0  0
  -21.6040   -4.3054   24.7207 C   0  0  0  0  0  0
  -21.8837   -3.8139   23.4323 C   0  0  0  0  0  0
  -21.9204   -4.6962   22.3389 C   0  0  0  0  0  0
  -22.7831  -13.5241   21.1808 C   0  0  0  0  0  0
  -22.1651   -4.2152   21.0969 F   0  0  0  0  0  0
  -21.5636   -3.4527   25.7714 F   0  0  0  0  0  0
  -30.0159  -13.4528   20.4529 N   0  0  0  0  0  0
  -26.3007  -12.9411   20.3353 N   0  0  0  0  0  0
  -25.9377  -11.6563   20.5761 N   0  0  0  0  0  0
  -22.0454  -12.8264   22.0419 N   0  0  0  0  0  0
  -25.4261  -15.1926   20.4188 N   0  0  0  0  0  0
  -31.7466  -14.8581   20.0396 O   0  0  0  0  0  0
  -21.6664   -6.8882   21.4224 O   0  0  0  0  0  0
  -22.3495  -14.5516   20.6631 O   0  0  0  0  0  0
  -24.6263  -31.8598   23.1996 C   0  0  0  0  0  0
  -25.9118  -32.4779   23.8327 C   0  0  1  0  0  0
  -27.2440  -27.3066   20.1323 C   0  0  0  0  0  0
  -25.5949  -33.8587   24.2276 N   0  0  0  0  0  0
  -23.4204  -30.4782   21.5458 C   0  0  2  0  0  0
  -24.8716  -28.9196   20.1219 C   0  0  0  0  0  0
  -22.7472  -29.4642   22.4998 C   0  0  0  0  0  0
  -18.0303  -28.1373   22.8479 C   0  0  0  0  0  0
  -24.1504  -36.7279   23.2632 C   0  0  0  0  0  0
  -25.9629  -30.7810   21.3774 C   0  0  0  0  0  0
  -26.0393  -29.4068   20.7226 C   0  0  0  0  0  0
  -27.2260  -28.6130   20.7158 C   0  0  0  0  0  0
  -26.0486  -26.8692   19.5151 C   0  0  0  0  0  0
  -24.8787  -27.6550   19.5111 C   0  0  0  0  0  0
  -23.6351  -29.7970   20.1681 C   0  0  0  0  0  0
  -25.4137  -36.3092   24.0332 C   0  0  1  0  0  0
  -20.5892  -28.3685   23.1288 C   0  0  2  0  0  0
  -20.6825  -26.9422   22.5401 C   0  0  0  0  0  0
  -19.5800  -26.6366   21.5226 C   0  0  0  0  0  0
  -18.1971  -26.7919   22.1604 C   0  0  0  0  0  0
  -19.1543  -28.8850   23.2867 C   0  0  0  0  0  0
  -18.9471  -30.1464   23.8859 C   0  0  0  0  0  0
  -17.6464  -30.6574   24.0553 C   0  0  0  0  0  0
  -25.9078  -34.9468   23.5103 C   0  0  0  0  0  0
  -16.5364  -29.9063   23.6332 C   0  0  0  0  0  0
  -16.7285  -28.6480   23.0351 C   0  0  0  0  0  0
  -26.4481  -31.6589   25.0709 C   0  0  0  0  0  0
  -25.3699  -31.3732   26.1424 C   0  0  0  0  0  0
  -27.0354  -30.3025   24.6179 C   0  0  0  0  0  0
  -27.6045  -32.4320   25.7470 C   0  0  0  0  0  0
  -27.5609  -37.1794   24.8455 C   0  0  0  0  0  0
  -21.4202  -29.3019   22.3689 N   0  0  0  0  0  0
  -26.4304  -37.3797   23.9413 N   0  0  0  0  0  0
  -24.6886  -31.0584   22.0967 N   0  0  0  0  0  0
  -23.4166  -28.8224   23.3136 O   0  0  0  0  0  0
  -28.3839  -26.4785   20.1614 O   0  0  0  0  0  0
  -26.5641  -34.8918   22.4668 O   0  0  0  0  0  0
  -23.5438  -32.1430   23.7307 O   0  0  0  0  0  0
  -30.3063  -17.7857   19.5591 C   0  0  0  0  0  0
  -29.3834  -18.0960   21.7608 C   0  0  0  0  0  0
  -30.1503  -19.1846   19.3131 C   0  0  0  0  0  0
  -29.2632  -19.5058   21.5264 C   0  0  0  0  0  0
  -29.9033  -17.1873   20.7885 C   0  0  0  0  0  0
  -29.6223  -20.0930   20.2781 C   0  0  0  0  0  0
  -29.4960  -24.0739   20.3620 C   0  0  0  0  0  0
  -29.4037  -22.5508   20.8796 C   0  0  0  0  0  0
  -28.2090  -25.0020   20.2058 C   0  0  0  0  0  0
  -29.8978  -15.7332   21.0433 N   0  0  0  0  0  0
  -29.4531  -21.4503   19.9079 O   0  0  0  0  0  0
  -31.4753  -12.5568   19.1615 H   0  0  0  0  0  0
  -30.3658  -11.4324   19.8887 H   0  0  0  0  0  0
  -29.7913  -11.8247   17.4695 H   0  0  0  0  0  0
  -29.6525  -13.5380   17.7753 H   0  0  0  0  0  0
  -27.8735  -11.3263   18.8296 H   0  0  0  0  0  0
  -27.3910  -12.6356   17.7882 H   0  0  0  0  0  0
  -27.6693  -14.2727   19.5484 H   0  0  0  0  0  0
  -28.7155  -12.0734   21.3863 H   0  0  0  0  0  0
  -28.4291  -13.7289   21.8511 H   0  0  0  0  0  0
  -25.2775   -9.5720   22.4711 H   0  0  0  0  0  0
  -24.0047   -7.4666   22.7467 H   0  0  0  0  0  0
  -21.0850   -8.8770   19.8950 H   0  0  0  0  0  0
  -22.3685  -10.9673   19.6153 H   0  0  0  0  0  0
  -21.2008   -7.6126   23.9721 H   0  0  0  0  0  0
  -21.1483   -6.0488   25.9079 H   0  0  0  0  0  0
  -22.0594   -2.7597   23.2816 H   0  0  0  0  0  0
  -22.4062  -11.9965   22.4895 H   0  0  0  0  0  0
  -21.1051  -13.1241   22.2523 H   0  0  0  0  0  0
  -24.6665  -15.8532   20.5436 H   0  0  0  0  0  0
  -26.2856  -15.6363   20.1247 H   0  0  0  0  0  0
  -26.7180  -32.5417   23.1067 H   0  0  0  0  0  0
  -25.0177  -33.9724   25.0473 H   0  0  0  0  0  0
  -22.7144  -31.2989   21.3978 H   0  0  0  0  0  0
  -23.3803  -35.9568   23.3274 H   0  0  0  0  0  0
  -24.3602  -36.8921   22.2046 H   0  0  0  0  0  0
  -23.7201  -37.6453   23.6661 H   0  0  0  0  0  0
  -26.1067  -31.5404   20.6075 H   0  0  0  0  0  0
  -26.8363  -30.8237   22.0166 H   0  0  0  0  0  0
  -28.1177  -28.9868   21.2001 H   0  0  0  0  0  0
  -25.9934  -25.9038   19.0360 H   0  0  0  0  0  0
  -23.9843  -27.2690   19.0415 H   0  0  0  0  0  0
  -23.7403  -30.5632   19.4004 H   0  0  0  0  0  0
  -22.7556  -29.2188   19.8770 H   0  0  0  0  0  0
  -25.1316  -36.1953   25.0827 H   0  0  0  0  0  0
  -20.9965  -28.3272   24.1415 H   0  0  0  0  0  0
  -20.5799  -26.2308   23.3595 H   0  0  0  0  0  0
  -21.6692  -26.7520   22.1159 H   0  0  0  0  0  0
  -19.6998  -25.6281   21.1261 H   0  0  0  0  0  0
  -19.6737  -27.3157   20.6745 H   0  0  0  0  0  0
  -17.4273  -26.6667   21.3983 H   0  0  0  0  0  0
  -18.0346  -26.0029   22.8950 H   0  0  0  0  0  0
  -19.7957  -30.7303   24.2150 H   0  0  0  0  0  0
  -17.5032  -31.6249   24.5162 H   0  0  0  0  0  0
  -15.5365  -30.2946   23.7697 H   0  0  0  0  0  0
  -15.8687  -28.0785   22.7088 H   0  0  0  0  0  0
  -24.5841  -30.7139   25.7725 H   0  0  0  0  0  0
  -24.8923  -32.2906   26.4872 H   0  0  0  0  0  0
  -25.7975  -30.8855   27.0188 H   0  0  0  0  0  0
  -26.2957  -29.6747   24.1210 H   0  0  0  0  0  0
  -27.4094  -29.7292   25.4666 H   0  0  0  0  0  0
  -27.8785  -30.4337   23.9399 H   0  0  0  0  0  0
  -27.2672  -33.3616   26.2050 H   0  0  0  0  0  0
  -28.3834  -32.6889   25.0286 H   0  0  0  0  0  0
  -28.0734  -31.8453   26.5370 H   0  0  0  0  0  0
  -28.2593  -38.0129   24.7612 H   0  0  0  0  0  0
  -28.1151  -36.2687   24.6170 H   0  0  0  0  0  0
  -27.2338  -37.1292   25.8850 H   0  0  0  0  0  0
  -20.9436  -29.8639   21.6781 H   0  0  0  0  0  0
  -26.0207  -38.2871   24.1430 H   0  0  0  0  0  0
  -30.7036  -17.1789   18.7545 H   0  0  0  0  0  0
  -29.0400  -17.7192   22.7203 H   0  0  0  0  0  0
  -30.4406  -19.5683   18.3432 H   0  0  0  0  0  0
  -28.8440  -20.1135   22.3196 H   0  0  0  0  0  0
  -30.0759  -24.0950   19.4386 H   0  0  0  0  0  0
  -30.1279  -24.5954   21.0820 H   0  0  0  0  0  0
  -28.5720  -22.4378   21.5775 H   0  0  0  0  0  0
  -30.3014  -22.3971   21.4825 H   0  0  0  0  0  0
  -27.5390  -24.7864   21.0384 H   0  0  0  0  0  0
  -27.7049  -24.6696   19.3012 H   0  0  0  0  0  0
  -29.1493  -15.4223   21.6469 H   0  0  0  0  0  0
  1 25  1  0  0  0
  1 30  2  0  0  0
  1 80  1  0  0  0
  2  3  1  0  0  0
  2 25  1  0  0  0
  2 82  1  0  0  0
  2 83  1  0  0  0
  3  4  1  0  0  0
  3 84  1  0  0  0
  3 85  1  0  0  0
  4  5  1  0  0  0
  4 86  1  0  0  0
  4 87  1  0  0  0
  5  6  1  0  0  0
  5 26  1  0  0  0
  5 88  1  0  0  0
  6 25  1  0  0  0
  6 89  1  0  0  0
  6 90  1  0  0  0
  7  8  2  0  0  0
  7 26  1  0  0  0
  7 29  1  0  0  0
  8  9  1  0  0  0
  8 22  1  0  0  0
  9 10  1  0  0  0
  9 27  2  0  0  0
 10 11  2  0  0  0
 10 15  1  0  0  0
 11 12  1  0  0  0
 11 91  1  0  0  0
 12 13  2  0  0  0
 12 92  1  0  0  0
 13 14  1  0  0  0
 13 31  1  0  0  0
 14 15  2  0  0  0
 14 93  1  0  0  0
 15 94  1  0  0  0
 16 17  2  0  0  0
 16 21  1  0  0  0
 16 31  1  0  0  0
 17 18  1  0  0  0
 17 95  1  0  0  0
 18 19  2  0  0  0
 18 96  1  0  0  0
 19 20  1  0  0  0
 19 24  1  0  0  0
 20 21  2  0  0  0
 20 97  1  0  0  0
 21 23  1  0  0  0
 22 28  1  0  0  0
 22 32  2  0  0  0
 26 27  1  0  0  0
 28 98  1  0  0  0
 28 99  1  0  0  0
 29100  1  0  0  0
 29101  1  0  0  0
 33 34  1  0  0  0
 33 66  1  0  0  0
 33 70  2  0  0  0
 34 36  1  0  0  0
 34 59  1  0  0  0
 34102  1  0  0  0
 35 44  2  0  0  0
 35 45  1  0  0  0
 35 68  1  0  0  0
 36 56  1  0  0  0
 36103  1  0  0  0
 37 39  1  0  0  0
 37 47  1  0  0  0
 37 66  1  0  0  0
 37104  1  0  0  0
 38 43  2  0  0  0
 38 46  1  0  0  0
 38 47  1  0  0  0
 39 64  1  0  0  0
 39 67  2  0  0  0
 40 52  1  0  0  0
 40 53  2  0  0  0
 40 58  1  0  0  0
 41105  1  0  0  0
 41106  1  0  0  0
 41107  1  0  0  0
 41 48  1  0  0  0
 42 43  1  0  0  0
 42 66  1  0  0  0
 42108  1  0  0  0
 42109  1  0  0  0
 43 44  1  0  0  0
 44110  1  0  0  0
 45 46  2  0  0  0
 45111  1  0  0  0
 46112  1  0  0  0
 47113  1  0  0  0
 47114  1  0  0  0
 48 56  1  0  0  0
 48 65  1  0  0  0
 48115  1  0  0  0
 49 50  1  0  0  0
 49 53  1  0  0  0
 49 64  1  0  0  0
 49116  1  0  0  0
 50 51  1  0  0  0
 50117  1  0  0  0
 50118  1  0  0  0
 51 52  1  0  0  0
 51119  1  0  0  0
 51120  1  0  0  0
 52121  1  0  0  0
 52122  1  0  0  0
 53 54  1  0  0  0
 54 55  2  0  0  0
 54123  1  0  0  0
 55 57  1  0  0  0
 55124  1  0  0  0
 56 69  2  0  0  0
 57 58  2  0  0  0
 57125  1  0  0  0
 58126  1  0  0  0
 59 60  1  0  0  0
 59 61  1  0  0  0
 59 62  1  0  0  0
 60127  1  0  0  0
 60128  1  0  0  0
 60129  1  0  0  0
 61130  1  0  0  0
 61131  1  0  0  0
 61132  1  0  0  0
 62133  1  0  0  0
 62134  1  0  0  0
 62135  1  0  0  0
 63 65  1  0  0  0
 63136  1  0  0  0
 63137  1  0  0  0
 63138  1  0  0  0
 64139  1  0  0  0
 65140  1  0  0  0
 68 79  1  0  0  0
 71 73  2  0  0  0
 71 75  1  0  0  0
 71141  1  0  0  0
 72 74  1  0  0  0
 72 75  2  0  0  0
 72142  1  0  0  0
 73 76  1  0  0  0
 73143  1  0  0  0
 74 76  2  0  0  0
 74144  1  0  0  0
 75 80  1  0  0  0
 76 81  1  0  0  0
 77 78  1  0  0  0
 77 79  1  0  0  0
 77145  1  0  0  0
 77146  1  0  0  0
 78 81  1  0  0  0
 78147  1  0  0  0
 78148  1  0  0  0
 79149  1  0  0  0
 79150  1  0  0  0
 80151  1  0  0  0
M  ISO  4   1 100  68 101  79 101  80 100
M  END
> <chiral flag>
0

> <version>
0

> <s_m_source_file>
/data/baiqing/PycharmProjects/Reinvent-master-3.2/result/LINK_invent/BTK/process_docking_weight1_custom_sum_contain_oxygen_bond_distance_aromatic_linkinvent_7_9_3/rearranged_h_0001.sdf

> <i_m_source_file_index>
12

> <r_mmod_Potential_Energy-OPLS-2005>
87.3086853027344

> <r_mmod_Stretch_Energy-OPLS-2005>
91.08984375

> <r_mmod_Bend_Energy-OPLS-2005>
159.319290161133

> <r_mmod_Torsional_Energy-OPLS-2005>
236.013916015625

> <r_mmod_Improper_Torsional_Energy-OPLS-2005>
3.05807876586914

> <r_mmod_Van_der_Waal_Energy-OPLS-2005>
138.714782714844

> <r_mmod_Electrostatic_Energy-OPLS-2005>
-383.976654052734

> <r_mmod_Solvation_Energy-OPLS-2005>
-214.270523071289

> <b_mmod_Minimization_Converged-OPLS-2005>
0

> <r_mmod_RMS_Derivative-OPLS-2005>
5.72391843795776

$$$$
12
                    3D
 Structure written by MMmdl.
150157  0  0  1  0            999 V2000
  -30.6252  -14.6883   20.4813 C   0  0  0  0  0  0
  -30.4338  -12.4235   19.4557 C   0  0  0  0  0  0
  -29.5070  -12.5028   18.2232 C   0  0  0  0  0  0
  -28.0315  -12.3358   18.6383 C   0  0  0  0  0  0
  -27.6454  -13.2249   19.8514 C   0  0  2  0  0  0
  -28.6917  -13.1265   20.9826 C   0  0  0  0  0  0
  -25.2528  -13.8188   20.5686 C   0  0  0  0  0  0
  -24.1808  -13.0442   20.9197 C   0  0  0  0  0  0
  -24.6390  -11.6916   20.8740 C   0  0  0  0  0  0
  -23.9069  -10.4293   21.0406 C   0  0  0  0  0  0
  -24.3624   -9.4206   21.9184 C   0  0  0  0  0  0
  -23.6294   -8.2242   22.0754 C   0  0  0  0  0  0
  -22.4276   -8.0283   21.3544 C   0  0  0  0  0  0
  -21.9910   -9.0258   20.4648 C   0  0  0  0  0  0
  -22.7243  -10.2136   20.3053 C   0  0  0  0  0  0
  -21.6855   -6.0738   22.5277 C   0  0  0  0  0  0
  -21.4018   -6.5638   23.8215 C   0  0  0  0  0  0
  -21.3658   -5.6789   24.9173 C   0  0  0  0  0  0
  -21.6041   -4.3050   24.7222 C   0  0  0  0  0  0
  -21.8820   -3.8146   23.4340 C   0  0  0  0  0  0
  -21.9195   -4.6963   22.3400 C   0  0  0  0  0  0
  -22.7830  -13.5228   21.1854 C   0  0  0  0  0  0
  -22.1660   -4.2149   21.0976 F   0  0  0  0  0  0
  -21.5629   -3.4534   25.7736 F   0  0  0  0  0  0
  -29.9964  -13.4705   20.4022 N   0  0  0  0  0  0
  -26.2952  -12.9383   20.3277 N   0  0  0  0  0  0
  -25.9316  -11.6533   20.5739 N   0  0  0  0  0  0
  -22.0474  -12.8225   22.0416 N   0  0  0  0  0  0
  -25.4225  -15.1913   20.4104 N   0  0  0  0  0  0
  -31.8122  -14.8052   20.1669 O   0  0  0  0  0  0
  -21.6637   -6.8880   21.4241 O   0  0  0  0  0  0
  -22.3513  -14.5535   20.6699 O   0  0  0  0  0  0
  -24.6270  -31.8576   23.1995 C   0  0  0  0  0  0
  -25.9106  -32.4769   23.8337 C   0  0  1  0  0  0
  -27.2262  -27.2983   20.1344 C   0  0  0  0  0  0
  -25.5914  -33.8571   24.2264 N   0  0  0  0  0  0
  -23.4229  -30.4781   21.5422 C   0  0  2  0  0  0
  -24.8716  -28.9228   20.1163 C   0  0  0  0  0  0
  -22.7479  -29.4608   22.4929 C   0  0  0  0  0  0
  -18.0286  -28.1387   22.8488 C   0  0  0  0  0  0
  -24.1489  -36.7290   23.2639 C   0  0  0  0  0  0
  -25.9641  -30.7831   21.3718 C   0  0  0  0  0  0
  -26.0406  -29.4058   20.7192 C   0  0  0  0  0  0
  -27.2242  -28.6071   20.7127 C   0  0  0  0  0  0
  -26.0370  -26.8637   19.5150 C   0  0  0  0  0  0
  -24.8721  -27.6577   19.5045 C   0  0  0  0  0  0
  -23.6406  -29.8068   20.1599 C   0  0  0  0  0  0
  -25.4115  -36.3079   24.0327 C   0  0  1  0  0  0
  -20.5885  -28.3690   23.1285 C   0  0  2  0  0  0
  -20.6777  -26.9413   22.5413 C   0  0  0  0  0  0
  -19.5755  -26.6385   21.5215 C   0  0  0  0  0  0
  -18.1935  -26.7930   22.1626 C   0  0  0  0  0  0
  -19.1538  -28.8855   23.2883 C   0  0  0  0  0  0
  -18.9459  -30.1457   23.8901 C   0  0  0  0  0  0
  -17.6460  -30.6590   24.0560 C   0  0  0  0  0  0
  -25.9050  -34.9448   23.5100 C   0  0  0  0  0  0
  -16.5351  -29.9087   23.6328 C   0  0  0  0  0  0
  -16.7274  -28.6502   23.0354 C   0  0  0  0  0  0
  -26.4490  -31.6586   25.0714 C   0  0  0  0  0  0
  -25.3722  -31.3728   26.1440 C   0  0  0  0  0  0
  -27.0328  -30.3008   24.6169 C   0  0  0  0  0  0
  -27.6047  -32.4325   25.7488 C   0  0  0  0  0  0
  -27.5578  -37.1802   24.8465 C   0  0  0  0  0  0
  -21.4190  -29.3041   22.3675 N   0  0  0  0  0  0
  -26.4292  -37.3774   23.9408 N   0  0  0  0  0  0
  -24.6904  -31.0567   22.0951 N   0  0  0  0  0  0
  -23.4191  -28.8155   23.3024 O   0  0  0  0  0  0
  -28.3407  -26.4449   20.1292 O   0  0  0  0  0  0
  -26.5622  -34.8918   22.4669 O   0  0  0  0  0  0
  -23.5430  -32.1378   23.7312 O   0  0  0  0  0  0
  -29.3901  -18.4411   20.2863 C   0  0  0  0  0  0
  -28.6693  -23.7546   19.9436 C   0  0  0  0  0  0
  -30.2543  -17.2489   20.9403 C   0  0  0  0  0  0
  -29.5858  -19.9433   20.8393 C   0  0  0  0  0  0
  -28.2078  -25.0840   20.7238 C   0  0  0  0  0  0
  -28.8816  -22.3943   20.7837 C   0  0  0  0  0  0
  -29.8465  -15.7982   20.7341 N   0  0  0  0  0  0
  -29.0350  -21.0953   20.0840 O   0  0  0  0  0  0
  -31.4749  -12.5484   19.1524 H   0  0  0  0  0  0
  -30.3733  -11.4395   19.9230 H   0  0  0  0  0  0
  -29.7806  -11.7374   17.4955 H   0  0  0  0  0  0
  -29.6420  -13.4627   17.7227 H   0  0  0  0  0  0
  -27.8782  -11.2855   18.8885 H   0  0  0  0  0  0
  -27.3762  -12.5438   17.7918 H   0  0  0  0  0  0
  -27.6497  -14.2523   19.4870 H   0  0  0  0  0  0
  -28.7146  -12.1195   21.4020 H   0  0  0  0  0  0
  -28.4350  -13.7933   21.8073 H   0  0  0  0  0  0
  -25.2775   -9.5681   22.4751 H   0  0  0  0  0  0
  -24.0005   -7.4634   22.7471 H   0  0  0  0  0  0
  -21.0843   -8.8780   19.8953 H   0  0  0  0  0  0
  -22.3707  -10.9673   19.6156 H   0  0  0  0  0  0
  -21.2010   -7.6147   23.9717 H   0  0  0  0  0  0
  -21.1481   -6.0518   25.9078 H   0  0  0  0  0  0
  -22.0601   -2.7607   23.2839 H   0  0  0  0  0  0
  -22.4095  -11.9895   22.4816 H   0  0  0  0  0  0
  -21.1089  -13.1249   22.2616 H   0  0  0  0  0  0
  -24.6541  -15.8444   20.5198 H   0  0  0  0  0  0
  -26.2673  -15.6313   20.0688 H   0  0  0  0  0  0
  -26.7171  -32.5438   23.1084 H   0  0  0  0  0  0
  -25.0060  -33.9714   25.0406 H   0  0  0  0  0  0
  -22.7175  -31.2988   21.3948 H   0  0  0  0  0  0
  -23.3752  -35.9622   23.3308 H   0  0  0  0  0  0
  -24.3578  -36.8907   22.2053 H   0  0  0  0  0  0
  -23.7243  -37.6493   23.6660 H   0  0  0  0  0  0
  -26.0932  -31.5431   20.5999 H   0  0  0  0  0  0
  -26.8451  -30.8371   22.0003 H   0  0  0  0  0  0
  -28.1249  -28.9757   21.1834 H   0  0  0  0  0  0
  -26.0073  -25.8915   19.0433 H   0  0  0  0  0  0
  -23.9758  -27.2810   19.0311 H   0  0  0  0  0  0
  -23.7635  -30.5805   19.4013 H   0  0  0  0  0  0
  -22.7605  -29.2370   19.8569 H   0  0  0  0  0  0
  -25.1298  -36.1931   25.0820 H   0  0  0  0  0  0
  -20.9978  -28.3269   24.1405 H   0  0  0  0  0  0
  -20.5687  -26.2297   23.3611 H   0  0  0  0  0  0
  -21.6646  -26.7451   22.1201 H   0  0  0  0  0  0
  -19.6917  -25.6295   21.1249 H   0  0  0  0  0  0
  -19.6695  -27.3191   20.6743 H   0  0  0  0  0  0
  -17.4203  -26.6673   21.4030 H   0  0  0  0  0  0
  -18.0337  -26.0074   22.9025 H   0  0  0  0  0  0
  -19.7936  -30.7270   24.2275 H   0  0  0  0  0  0
  -17.5016  -31.6272   24.5159 H   0  0  0  0  0  0
  -15.5354  -30.2991   23.7650 H   0  0  0  0  0  0
  -15.8673  -28.0821   22.7073 H   0  0  0  0  0  0
  -24.5896  -30.7077   25.7772 H   0  0  0  0  0  0
  -24.8910  -32.2891   26.4869 H   0  0  0  0  0  0
  -25.8043  -30.8904   27.0215 H   0  0  0  0  0  0
  -26.2893  -29.6769   24.1189 H   0  0  0  0  0  0
  -27.4018  -29.7260   25.4675 H   0  0  0  0  0  0
  -27.8772  -30.4298   23.9393 H   0  0  0  0  0  0
  -27.2654  -33.3628   26.2060 H   0  0  0  0  0  0
  -28.3860  -32.6882   25.0317 H   0  0  0  0  0  0
  -28.0709  -31.8451   26.5409 H   0  0  0  0  0  0
  -28.2601  -38.0095   24.7505 H   0  0  0  0  0  0
  -28.1070  -36.2624   24.6303 H   0  0  0  0  0  0
  -27.2292  -37.1466   25.8867 H   0  0  0  0  0  0
  -20.9368  -29.8749   21.6871 H   0  0  0  0  0  0
  -26.0174  -38.2850   24.1407 H   0  0  0  0  0  0
  -28.3323  -18.1932   20.3746 H   0  0  0  0  0  0
  -29.5957  -18.4440   19.2158 H   0  0  0  0  0  0
  -29.6044  -23.9722   19.4271 H   0  0  0  0  0  0
  -27.9408  -23.5647   19.1551 H   0  0  0  0  0  0
  -30.2631  -17.4005   22.0202 H   0  0  0  0  0  0
  -31.2939  -17.3713   20.6317 H   0  0  0  0  0  0
  -30.6539  -20.1294   20.9605 H   0  0  0  0  0  0
  -29.1688  -19.9755   21.8468 H   0  0  0  0  0  0
  -28.7980  -25.1282   21.6394 H   0  0  0  0  0  0
  -27.1853  -24.9316   21.0723 H   0  0  0  0  0  0
  -28.0405  -22.2810   21.4689 H   0  0  0  0  0  0
  -29.7578  -22.5342   21.4186 H   0  0  0  0  0  0
  -28.8740  -15.5927   20.9077 H   0  0  0  0  0  0
  1 25  1  0  0  0
  1 30  2  0  0  0
  1 77  1  0  0  0
  2  3  1  0  0  0
  2 25  1  0  0  0
  2 79  1  0  0  0
  2 80  1  0  0  0
  3  4  1  0  0  0
  3 81  1  0  0  0
  3 82  1  0  0  0
  4  5  1  0  0  0
  4 83  1  0  0  0
  4 84  1  0  0  0
  5  6  1  0  0  0
  5 26  1  0  0  0
  5 85  1  0  0  0
  6 25  1  0  0  0
  6 86  1  0  0  0
  6 87  1  0  0  0
  7  8  2  0  0  0
  7 26  1  0  0  0
  7 29  1  0  0  0
  8  9  1  0  0  0
  8 22  1  0  0  0
  9 10  1  0  0  0
  9 27  2  0  0  0
 10 11  2  0  0  0
 10 15  1  0  0  0
 11 12  1  0  0  0
 11 88  1  0  0  0
 12 13  2  0  0  0
 12 89  1  0  0  0
 13 14  1  0  0  0
 13 31  1  0  0  0
 14 15  2  0  0  0
 14 90  1  0  0  0
 15 91  1  0  0  0
 16 17  2  0  0  0
 16 21  1  0  0  0
 16 31  1  0  0  0
 17 18  1  0  0  0
 17 92  1  0  0  0
 18 19  2  0  0  0
 18 93  1  0  0  0
 19 20  1  0  0  0
 19 24  1  0  0  0
 20 21  2  0  0  0
 20 94  1  0  0  0
 21 23  1  0  0  0
 22 28  1  0  0  0
 22 32  2  0  0  0
 26 27  1  0  0  0
 28 95  1  0  0  0
 28 96  1  0  0  0
 29 97  1  0  0  0
 29 98  1  0  0  0
 33 34  1  0  0  0
 33 66  1  0  0  0
 33 70  2  0  0  0
 34 36  1  0  0  0
 34 59  1  0  0  0
 34 99  1  0  0  0
 35 44  2  0  0  0
 35 45  1  0  0  0
 35 68  1  0  0  0
 36 56  1  0  0  0
 36100  1  0  0  0
 37 39  1  0  0  0
 37 47  1  0  0  0
 37 66  1  0  0  0
 37101  1  0  0  0
 38 43  2  0  0  0
 38 46  1  0  0  0
 38 47  1  0  0  0
 39 64  1  0  0  0
 39 67  2  0  0  0
 40 52  1  0  0  0
 40 53  2  0  0  0
 40 58  1  0  0  0
 41102  1  0  0  0
 41103  1  0  0  0
 41104  1  0  0  0
 41 48  1  0  0  0
 42 43  1  0  0  0
 42 66  1  0  0  0
 42105  1  0  0  0
 42106  1  0  0  0
 43 44  1  0  0  0
 44107  1  0  0  0
 45 46  2  0  0  0
 45108  1  0  0  0
 46109  1  0  0  0
 47110  1  0  0  0
 47111  1  0  0  0
 48 56  1  0  0  0
 48 65  1  0  0  0
 48112  1  0  0  0
 49 50  1  0  0  0
 49 53  1  0  0  0
 49 64  1  0  0  0
 49113  1  0  0  0
 50 51  1  0  0  0
 50114  1  0  0  0
 50115  1  0  0  0
 51 52  1  0  0  0
 51116  1  0  0  0
 51117  1  0  0  0
 52118  1  0  0  0
 52119  1  0  0  0
 53 54  1  0  0  0
 54 55  2  0  0  0
 54120  1  0  0  0
 55 57  1  0  0  0
 55121  1  0  0  0
 56 69  2  0  0  0
 57 58  2  0  0  0
 57122  1  0  0  0
 58123  1  0  0  0
 59 60  1  0  0  0
 59 61  1  0  0  0
 59 62  1  0  0  0
 60124  1  0  0  0
 60125  1  0  0  0
 60126  1  0  0  0
 61127  1  0  0  0
 61128  1  0  0  0
 61129  1  0  0  0
 62130  1  0  0  0
 62131  1  0  0  0
 62132  1  0  0  0
 63 65  1  0  0  0
 63133  1  0  0  0
 63134  1  0  0  0
 63135  1  0  0  0
 64136  1  0  0  0
 65137  1  0  0  0
 68 75  1  0  0  0
 71 73  1  0  0  0
 71 74  1  0  0  0
 71138  1  0  0  0
 71139  1  0  0  0
 72 75  1  0  0  0
 72 76  1  0  0  0
 72140  1  0  0  0
 72141  1  0  0  0
 73 77  1  0  0  0
 73142  1  0  0  0
 73143  1  0  0  0
 74 78  1  0  0  0
 74144  1  0  0  0
 74145  1  0  0  0
 75146  1  0  0  0
 75147  1  0  0  0
 76 78  1  0  0  0
 76148  1  0  0  0
 76149  1  0  0  0
 77150  1  0  0  0
M  ISO  4   1 100  68 101  75 101  77 100
M  END
> <chiral flag>
0

> <version>
0

> <s_m_source_file>
/data/baiqing/PycharmProjects/Reinvent-master-3.2/result/LINK_invent/BTK/process_docking_weight1_custom_sum_contain_oxygen_bond_distance_aromatic_linkinvent_7_9_3/rearranged_h_0001.sdf

> <i_m_source_file_index>
13

> <r_mmod_Potential_Energy-OPLS-2005>
94.6526336669922

> <r_mmod_Stretch_Energy-OPLS-2005>
103.187034606934

> <r_mmod_Bend_Energy-OPLS-2005>
151.712387084961

> <r_mmod_Torsional_Energy-OPLS-2005>
225.690048217773

> <r_mmod_Improper_Torsional_Energy-OPLS-2005>
4.12854099273682

> <r_mmod_Van_der_Waal_Energy-OPLS-2005>
117.486457824707

> <r_mmod_Electrostatic_Energy-OPLS-2005>
-354.946533203125

> <r_mmod_Solvation_Energy-OPLS-2005>
-214.53239440918

> <b_mmod_Minimization_Converged-OPLS-2005>
0

> <r_mmod_RMS_Derivative-OPLS-2005>
0.831159591674805

$$$$
13
                    3D
 Structure written by MMmdl.
143150  0  0  1  0            999 V2000
  -30.3355  -15.5533   20.3377 C   0  0  0  0  0  0
  -30.4278  -13.0206   19.5356 C   0  0  0  0  0  0
  -29.5464  -12.6353   18.3151 C   0  0  0  0  0  0
  -28.1142  -12.2965   18.7563 C   0  0  0  0  0  0
  -27.5983  -13.2998   19.8136 C   0  0  2  0  0  0
  -28.6188  -13.6020   20.9348 C   0  0  0  0  0  0
  -25.2335  -13.8272   20.5783 C   0  0  0  0  0  0
  -24.1716  -13.0431   20.9280 C   0  0  0  0  0  0
  -24.6407  -11.6939   20.8763 C   0  0  0  0  0  0
  -23.9108  -10.4290   21.0398 C   0  0  0  0  0  0
  -24.3646   -9.4204   21.9179 C   0  0  0  0  0  0
  -23.6308   -8.2245   22.0753 C   0  0  0  0  0  0
  -22.4289   -8.0285   21.3544 C   0  0  0  0  0  0
  -21.9934   -9.0259   20.4644 C   0  0  0  0  0  0
  -22.7275  -10.2132   20.3050 C   0  0  0  0  0  0
  -21.6858   -6.0738   22.5278 C   0  0  0  0  0  0
  -21.4019   -6.5642   23.8212 C   0  0  0  0  0  0
  -21.3660   -5.6794   24.9173 C   0  0  0  0  0  0
  -21.6043   -4.3057   24.7224 C   0  0  0  0  0  0
  -21.8819   -3.8148   23.4345 C   0  0  0  0  0  0
  -21.9194   -4.6965   22.3402 C   0  0  0  0  0  0
  -22.7731  -13.5167   21.1917 C   0  0  0  0  0  0
  -22.1662   -4.2150   21.0979 F   0  0  0  0  0  0
  -21.5626   -3.4540   25.7737 F   0  0  0  0  0  0
  -29.8047  -14.1993   20.2827 N   0  0  0  0  0  0
  -26.2777  -12.9589   20.3227 N   0  0  0  0  0  0
  -25.9352  -11.6669   20.5705 N   0  0  0  0  0  0
  -22.0396  -12.8145   22.0471 N   0  0  0  0  0  0
  -25.3934  -15.2012   20.4226 N   0  0  0  0  0  0
  -31.5687  -15.5024   20.1771 O   0  0  0  0  0  0
  -21.6647   -6.8885   21.4242 O   0  0  0  0  0  0
  -22.3406  -14.5465   20.6752 O   0  0  0  0  0  0
  -24.6800  -31.8038   23.1543 C   0  0  0  0  0  0
  -25.9399  -32.4487   23.8074 C   0  0  1  0  0  0
  -27.2247  -26.7418   20.2123 C   0  0  0  0  0  0
  -25.5993  -33.8310   24.1966 N   0  0  0  0  0  0
  -23.5038  -30.4073   21.5074 C   0  0  2  0  0  0
  -24.9602  -28.7545   20.1181 C   0  0  0  0  0  0
  -22.7746  -29.4338   22.4723 C   0  0  0  0  0  0
  -18.0336  -28.1422   22.8456 C   0  0  0  0  0  0
  -24.1495  -36.7162   23.2653 C   0  0  0  0  0  0
  -26.0826  -30.5501   21.4119 C   0  0  0  0  0  0
  -26.1487  -29.1190   20.7619 C   0  0  0  0  0  0
  -27.2682  -28.1399   20.7756 C   0  0  0  0  0  0
  -26.0029  -26.5744   19.5148 C   0  0  0  0  0  0
  -24.9238  -27.5069   19.4714 C   0  0  0  0  0  0
  -23.7552  -29.7060   20.1417 C   0  0  0  0  0  0
  -25.4144  -36.2907   24.0285 C   0  0  1  0  0  0
  -20.5969  -28.3778   23.1151 C   0  0  2  0  0  0
  -20.6806  -26.9441   22.5404 C   0  0  0  0  0  0
  -19.5783  -26.6372   21.5218 C   0  0  0  0  0  0
  -18.1963  -26.7949   22.1618 C   0  0  0  0  0  0
  -19.1601  -28.8923   23.2785 C   0  0  0  0  0  0
  -18.9509  -30.1507   23.8830 C   0  0  0  0  0  0
  -17.6500  -30.6605   24.0552 C   0  0  0  0  0  0
  -25.9122  -34.9297   23.4960 C   0  0  0  0  0  0
  -16.5389  -29.9089   23.6351 C   0  0  0  0  0  0
  -16.7316  -28.6511   23.0366 C   0  0  0  0  0  0
  -26.4590  -31.6507   25.0681 C   0  0  0  0  0  0
  -25.3664  -31.3815   26.1302 C   0  0  0  0  0  0
  -27.0517  -30.2851   24.6551 C   0  0  0  0  0  0
  -27.6045  -32.4359   25.7497 C   0  0  0  0  0  0
  -27.5563  -37.1737   24.8467 C   0  0  0  0  0  0
  -21.4398  -29.3031   22.3473 N   0  0  0  0  0  0
  -26.4272  -37.3665   23.9408 N   0  0  0  0  0  0
  -24.7786  -30.9523   22.0774 N   0  0  0  0  0  0
  -23.4209  -28.7935   23.3052 O   0  0  0  0  0  0
  -28.2041  -25.5512   20.2801 O   0  0  0  0  0  0
  -26.5758  -34.8869   22.4574 O   0  0  0  0  0  0
  -23.5828  -32.1094   23.6523 O   0  0  0  0  0  0
  -28.7651  -20.2674   20.2904 C   0  0  0  0  0  0
  -29.0007  -22.1779   20.3080 C   0  0  0  0  0  0
  -29.8051  -18.6520   20.3467 C   0  0  0  0  0  0
  -28.0034  -23.8204   20.2032 C   0  0  0  0  0  0
  -29.5782  -16.9027   20.3825 N   0  0  0  0  0  0
  -31.4268  -13.2705   19.1767 H   0  0  0  0  0  0
  -30.5690  -12.1647   20.1980 H   0  0  0  0  0  0
  -29.9845  -11.7945   17.7757 H   0  0  0  0  0  0
  -29.5210  -13.4708   17.6137 H   0  0  0  0  0  0
  -28.1271  -11.2932   19.1840 H   0  0  0  0  0  0
  -27.4439  -12.2569   17.8969 H   0  0  0  0  0  0
  -27.4709  -14.2301   19.2582 H   0  0  0  0  0  0
  -28.8604  -12.7103   21.5153 H   0  0  0  0  0  0
  -28.2012  -14.3242   21.6380 H   0  0  0  0  0  0
  -25.2785   -9.5679   22.4764 H   0  0  0  0  0  0
  -24.0009   -7.4638   22.7481 H   0  0  0  0  0  0
  -21.0862   -8.8785   19.8952 H   0  0  0  0  0  0
  -22.3730  -10.9673   19.6163 H   0  0  0  0  0  0
  -21.2015   -7.6151   23.9715 H   0  0  0  0  0  0
  -21.1481   -6.0525   25.9076 H   0  0  0  0  0  0
  -22.0596   -2.7611   23.2846 H   0  0  0  0  0  0
  -22.4039  -11.9821   22.4865 H   0  0  0  0  0  0
  -21.1004  -13.1141   22.2671 H   0  0  0  0  0  0
  -24.6207  -15.8487   20.5359 H   0  0  0  0  0  0
  -26.2324  -15.6443   20.0726 H   0  0  0  0  0  0
  -26.7477  -32.4971   23.0784 H   0  0  0  0  0  0
  -25.0059  -33.9354   25.0062 H   0  0  0  0  0  0
  -22.8274  -31.2439   21.3201 H   0  0  0  0  0  0
  -23.3774  -35.9475   23.3272 H   0  0  0  0  0  0
  -24.3562  -36.8864   22.2076 H   0  0  0  0  0  0
  -23.7238  -37.6325   23.6753 H   0  0  0  0  0  0
  -26.2810  -31.2776   20.6238 H   0  0  0  0  0  0
  -26.9354  -30.6164   22.0750 H   0  0  0  0  0  0
  -28.1647  -28.4248   21.3080 H   0  0  0  0  0  0
  -25.8443  -25.6278   19.0182 H   0  0  0  0  0  0
  -24.0252  -27.2191   18.9430 H   0  0  0  0  0  0
  -23.9278  -30.4668   19.3796 H   0  0  0  0  0  0
  -22.8607  -29.1707   19.8189 H   0  0  0  0  0  0
  -25.1351  -36.1675   25.0775 H   0  0  0  0  0  0
  -21.0052  -28.3402   24.1277 H   0  0  0  0  0  0
  -20.5676  -26.2401   23.3662 H   0  0  0  0  0  0
  -21.6667  -26.7393   22.1218 H   0  0  0  0  0  0
  -19.6942  -25.6265   21.1292 H   0  0  0  0  0  0
  -19.6728  -27.3145   20.6718 H   0  0  0  0  0  0
  -17.4233  -26.6692   21.4021 H   0  0  0  0  0  0
  -18.0352  -26.0108   22.9031 H   0  0  0  0  0  0
  -19.7986  -30.7339   24.2170 H   0  0  0  0  0  0
  -17.5053  -31.6279   24.5166 H   0  0  0  0  0  0
  -15.5388  -30.2971   23.7716 H   0  0  0  0  0  0
  -15.8715  -28.0809   22.7122 H   0  0  0  0  0  0
  -24.5873  -30.7140   25.7600 H   0  0  0  0  0  0
  -24.8826  -32.3036   26.4537 H   0  0  0  0  0  0
  -25.7846  -30.9101   27.0204 H   0  0  0  0  0  0
  -26.3228  -29.6473   24.1543 H   0  0  0  0  0  0
  -27.3966  -29.7288   25.5278 H   0  0  0  0  0  0
  -27.9198  -30.3989   24.0055 H   0  0  0  0  0  0
  -27.2593  -33.3729   26.1879 H   0  0  0  0  0  0
  -28.3955  -32.6809   25.0396 H   0  0  0  0  0  0
  -28.0603  -31.8616   26.5574 H   0  0  0  0  0  0
  -28.2553  -38.0057   24.7511 H   0  0  0  0  0  0
  -28.1085  -36.2580   24.6299 H   0  0  0  0  0  0
  -27.2276  -37.1380   25.8868 H   0  0  0  0  0  0
  -20.9695  -29.8687   21.6544 H   0  0  0  0  0  0
  -26.0103  -38.2714   24.1421 H   0  0  0  0  0  0
  -28.1541  -20.1192   19.3998 H   0  0  0  0  0  0
  -28.0571  -20.1169   21.1057 H   0  0  0  0  0  0
  -29.7448  -22.3205   19.5244 H   0  0  0  0  0  0
  -29.5730  -22.3235   21.2244 H   0  0  0  0  0  0
  -30.4440  -18.8018   21.2176 H   0  0  0  0  0  0
  -30.4945  -18.7676   19.5099 H   0  0  0  0  0  0
  -27.2299  -23.6732   20.9571 H   0  0  0  0  0  0
  -27.4624  -23.7113   19.2633 H   0  0  0  0  0  0
  -28.5926  -16.6942   20.4591 H   0  0  0  0  0  0
  1 25  1  0  0  0
  1 30  2  0  0  0
  1 75  1  0  0  0
  2  3  1  0  0  0
  2 25  1  0  0  0
  2 76  1  0  0  0
  2 77  1  0  0  0
  3  4  1  0  0  0
  3 78  1  0  0  0
  3 79  1  0  0  0
  4  5  1  0  0  0
  4 80  1  0  0  0
  4 81  1  0  0  0
  5  6  1  0  0  0
  5 26  1  0  0  0
  5 82  1  0  0  0
  6 25  1  0  0  0
  6 83  1  0  0  0
  6 84  1  0  0  0
  7  8  2  0  0  0
  7 26  1  0  0  0
  7 29  1  0  0  0
  8  9  1  0  0  0
  8 22  1  0  0  0
  9 10  1  0  0  0
  9 27  2  0  0  0
 10 11  2  0  0  0
 10 15  1  0  0  0
 11 12  1  0  0  0
 11 85  1  0  0  0
 12 13  2  0  0  0
 12 86  1  0  0  0
 13 14  1  0  0  0
 13 31  1  0  0  0
 14 15  2  0  0  0
 14 87  1  0  0  0
 15 88  1  0  0  0
 16 17  2  0  0  0
 16 21  1  0  0  0
 16 31  1  0  0  0
 17 18  1  0  0  0
 17 89  1  0  0  0
 18 19  2  0  0  0
 18 90  1  0  0  0
 19 20  1  0  0  0
 19 24  1  0  0  0
 20 21  2  0  0  0
 20 91  1  0  0  0
 21 23  1  0  0  0
 22 28  1  0  0  0
 22 32  2  0  0  0
 26 27  1  0  0  0
 28 92  1  0  0  0
 28 93  1  0  0  0
 29 94  1  0  0  0
 29 95  1  0  0  0
 33 34  1  0  0  0
 33 66  1  0  0  0
 33 70  2  0  0  0
 34 36  1  0  0  0
 34 59  1  0  0  0
 34 96  1  0  0  0
 35 44  2  0  0  0
 35 45  1  0  0  0
 35 68  1  0  0  0
 36 56  1  0  0  0
 36 97  1  0  0  0
 37 39  1  0  0  0
 37 47  1  0  0  0
 37 66  1  0  0  0
 37 98  1  0  0  0
 38 43  2  0  0  0
 38 46  1  0  0  0
 38 47  1  0  0  0
 39 64  1  0  0  0
 39 67  2  0  0  0
 40 52  1  0  0  0
 40 53  2  0  0  0
 40 58  1  0  0  0
 41 99  1  0  0  0
 41100  1  0  0  0
 41101  1  0  0  0
 41 48  1  0  0  0
 42 43  1  0  0  0
 42 66  1  0  0  0
 42102  1  0  0  0
 42103  1  0  0  0
 43 44  1  0  0  0
 44104  1  0  0  0
 45 46  2  0  0  0
 45105  1  0  0  0
 46106  1  0  0  0
 47107  1  0  0  0
 47108  1  0  0  0
 48 56  1  0  0  0
 48 65  1  0  0  0
 48109  1  0  0  0
 49 50  1  0  0  0
 49 53  1  0  0  0
 49 64  1  0  0  0
 49110  1  0  0  0
 50 51  1  0  0  0
 50111  1  0  0  0
 50112  1  0  0  0
 51 52  1  0  0  0
 51113  1  0  0  0
 51114  1  0  0  0
 52115  1  0  0  0
 52116  1  0  0  0
 53 54  1  0  0  0
 54 55  2  0  0  0
 54117  1  0  0  0
 55 57  1  0  0  0
 55118  1  0  0  0
 56 69  2  0  0  0
 57 58  2  0  0  0
 57119  1  0  0  0
 58120  1  0  0  0
 59 60  1  0  0  0
 59 61  1  0  0  0
 59 62  1  0  0  0
 60121  1  0  0  0
 60122  1  0  0  0
 60123  1  0  0  0
 61124  1  0  0  0
 61125  1  0  0  0
 61126  1  0  0  0
 62127  1  0  0  0
 62128  1  0  0  0
 62129  1  0  0  0
 63 65  1  0  0  0
 63130  1  0  0  0
 63131  1  0  0  0
 63132  1  0  0  0
 64133  1  0  0  0
 65134  1  0  0  0
 68 74  1  0  0  0
 71 72  1  0  0  0
 71 73  1  0  0  0
 71135  1  0  0  0
 71136  1  0  0  0
 72 74  1  0  0  0
 72137  1  0  0  0
 72138  1  0  0  0
 73 75  1  0  0  0
 73139  1  0  0  0
 73140  1  0  0  0
 74141  1  0  0  0
 74142  1  0  0  0
 75143  1  0  0  0
M  ISO  4   1 100  68 101  74 101  75 100
M  END
> <chiral flag>
0

> <version>
0

> <s_m_source_file>
/data/baiqing/PycharmProjects/Reinvent-master-3.2/result/LINK_invent/BTK/process_docking_weight1_custom_sum_contain_oxygen_bond_distance_aromatic_linkinvent_7_9_3/rearranged_h_0001.sdf

> <i_m_source_file_index>
14

> <r_mmod_Potential_Energy-OPLS-2005>
2236.59155273438

> <r_mmod_Stretch_Energy-OPLS-2005>
1088.18041992188

> <r_mmod_Bend_Energy-OPLS-2005>
600.093139648438

> <r_mmod_Torsional_Energy-OPLS-2005>
206.369812011719

> <r_mmod_Improper_Torsional_Energy-OPLS-2005>
3.66827178001404

> <r_mmod_Van_der_Waal_Energy-OPLS-2005>
110.215888977051

> <r_mmod_Electrostatic_Energy-OPLS-2005>
-352.887237548828

> <r_mmod_Solvation_Energy-OPLS-2005>
-215.827575683594

> <b_mmod_Minimization_Converged-OPLS-2005>
0

> <r_mmod_RMS_Derivative-OPLS-2005>
0.268112510442734

$$$$
14
                    3D
 Structure written by MMmdl.
143150  0  0  1  0            999 V2000
  -30.3355  -15.5533   20.3377 C   0  0  0  0  0  0
  -30.4278  -13.0206   19.5356 C   0  0  0  0  0  0
  -29.5464  -12.6353   18.3151 C   0  0  0  0  0  0
  -28.1142  -12.2965   18.7563 C   0  0  0  0  0  0
  -27.5983  -13.2998   19.8136 C   0  0  2  0  0  0
  -28.6188  -13.6020   20.9348 C   0  0  0  0  0  0
  -25.2335  -13.8272   20.5783 C   0  0  0  0  0  0
  -24.1716  -13.0431   20.9280 C   0  0  0  0  0  0
  -24.6407  -11.6939   20.8763 C   0  0  0  0  0  0
  -23.9108  -10.4290   21.0398 C   0  0  0  0  0  0
  -24.3646   -9.4204   21.9179 C   0  0  0  0  0  0
  -23.6308   -8.2245   22.0753 C   0  0  0  0  0  0
  -22.4289   -8.0285   21.3544 C   0  0  0  0  0  0
  -21.9934   -9.0259   20.4644 C   0  0  0  0  0  0
  -22.7275  -10.2132   20.3050 C   0  0  0  0  0  0
  -21.6858   -6.0738   22.5278 C   0  0  0  0  0  0
  -21.4019   -6.5642   23.8212 C   0  0  0  0  0  0
  -21.3660   -5.6794   24.9173 C   0  0  0  0  0  0
  -21.6043   -4.3057   24.7224 C   0  0  0  0  0  0
  -21.8819   -3.8148   23.4345 C   0  0  0  0  0  0
  -21.9194   -4.6965   22.3402 C   0  0  0  0  0  0
  -22.7731  -13.5167   21.1917 C   0  0  0  0  0  0
  -22.1662   -4.2150   21.0979 F   0  0  0  0  0  0
  -21.5626   -3.4540   25.7737 F   0  0  0  0  0  0
  -29.8047  -14.1993   20.2827 N   0  0  0  0  0  0
  -26.2777  -12.9589   20.3227 N   0  0  0  0  0  0
  -25.9352  -11.6669   20.5705 N   0  0  0  0  0  0
  -22.0396  -12.8145   22.0471 N   0  0  0  0  0  0
  -25.3934  -15.2012   20.4226 N   0  0  0  0  0  0
  -31.5687  -15.5024   20.1771 O   0  0  0  0  0  0
  -21.6647   -6.8885   21.4242 O   0  0  0  0  0  0
  -22.3406  -14.5465   20.6752 O   0  0  0  0  0  0
  -24.6800  -31.8038   23.1543 C   0  0  0  0  0  0
  -25.9399  -32.4487   23.8074 C   0  0  1  0  0  0
  -27.2247  -26.7418   20.2123 C   0  0  0  0  0  0
  -25.5993  -33.8310   24.1966 N   0  0  0  0  0  0
  -23.5038  -30.4073   21.5074 C   0  0  2  0  0  0
  -24.9602  -28.7545   20.1181 C   0  0  0  0  0  0
  -22.7746  -29.4338   22.4723 C   0  0  0  0  0  0
  -18.0336  -28.1422   22.8456 C   0  0  0  0  0  0
  -24.1495  -36.7162   23.2653 C   0  0  0  0  0  0
  -26.0826  -30.5501   21.4119 C   0  0  0  0  0  0
  -26.1487  -29.1190   20.7619 C   0  0  0  0  0  0
  -27.2682  -28.1399   20.7756 C   0  0  0  0  0  0
  -26.0029  -26.5744   19.5148 C   0  0  0  0  0  0
  -24.9238  -27.5069   19.4714 C   0  0  0  0  0  0
  -23.7552  -29.7060   20.1417 C   0  0  0  0  0  0
  -25.4144  -36.2907   24.0285 C   0  0  1  0  0  0
  -20.5969  -28.3778   23.1151 C   0  0  2  0  0  0
  -20.6806  -26.9441   22.5404 C   0  0  0  0  0  0
  -19.5783  -26.6372   21.5218 C   0  0  0  0  0  0
  -18.1963  -26.7949   22.1618 C   0  0  0  0  0  0
  -19.1601  -28.8923   23.2785 C   0  0  0  0  0  0
  -18.9509  -30.1507   23.8830 C   0  0  0  0  0  0
  -17.6500  -30.6605   24.0552 C   0  0  0  0  0  0
  -25.9122  -34.9297   23.4960 C   0  0  0  0  0  0
  -16.5389  -29.9089   23.6351 C   0  0  0  0  0  0
  -16.7316  -28.6511   23.0366 C   0  0  0  0  0  0
  -26.4590  -31.6507   25.0681 C   0  0  0  0  0  0
  -25.3664  -31.3815   26.1302 C   0  0  0  0  0  0
  -27.0517  -30.2851   24.6551 C   0  0  0  0  0  0
  -27.6045  -32.4359   25.7497 C   0  0  0  0  0  0
  -27.5563  -37.1737   24.8467 C   0  0  0  0  0  0
  -21.4398  -29.3031   22.3473 N   0  0  0  0  0  0
  -26.4272  -37.3665   23.9408 N   0  0  0  0  0  0
  -24.7786  -30.9523   22.0774 N   0  0  0  0  0  0
  -23.4209  -28.7935   23.3052 O   0  0  0  0  0  0
  -28.2041  -25.5512   20.2801 O   0  0  0  0  0  0
  -26.5758  -34.8869   22.4574 O   0  0  0  0  0  0
  -23.5828  -32.1094   23.6523 O   0  0  0  0  0  0
  -28.7651  -20.2674   20.2904 C   0  0  0  0  0  0
  -29.0007  -22.1779   20.3080 C   0  0  0  0  0  0
  -29.8051  -18.6520   20.3467 C   0  0  0  0  0  0
  -28.0034  -23.8204   20.2032 C   0  0  0  0  0  0
  -29.5782  -16.9027   20.3825 N   0  0  0  0  0  0
  -31.4268  -13.2705   19.1767 H   0  0  0  0  0  0
  -30.5690  -12.1647   20.1980 H   0  0  0  0  0  0
  -29.9845  -11.7945   17.7757 H   0  0  0  0  0  0
  -29.5210  -13.4708   17.6137 H   0  0  0  0  0  0
  -28.1271  -11.2932   19.1840 H   0  0  0  0  0  0
  -27.4439  -12.2569   17.8969 H   0  0  0  0  0  0
  -27.4709  -14.2301   19.2582 H   0  0  0  0  0  0
  -28.8604  -12.7103   21.5153 H   0  0  0  0  0  0
  -28.2012  -14.3242   21.6380 H   0  0  0  0  0  0
  -25.2785   -9.5679   22.4764 H   0  0  0  0  0  0
  -24.0009   -7.4638   22.7481 H   0  0  0  0  0  0
  -21.0862   -8.8785   19.8952 H   0  0  0  0  0  0
  -22.3730  -10.9673   19.6163 H   0  0  0  0  0  0
  -21.2015   -7.6151   23.9715 H   0  0  0  0  0  0
  -21.1481   -6.0525   25.9076 H   0  0  0  0  0  0
  -22.0596   -2.7611   23.2846 H   0  0  0  0  0  0
  -22.4039  -11.9821   22.4865 H   0  0  0  0  0  0
  -21.1004  -13.1141   22.2671 H   0  0  0  0  0  0
  -24.6207  -15.8487   20.5359 H   0  0  0  0  0  0
  -26.2324  -15.6443   20.0726 H   0  0  0  0  0  0
  -26.7477  -32.4971   23.0784 H   0  0  0  0  0  0
  -25.0059  -33.9354   25.0062 H   0  0  0  0  0  0
  -22.8274  -31.2439   21.3201 H   0  0  0  0  0  0
  -23.3774  -35.9475   23.3272 H   0  0  0  0  0  0
  -24.3562  -36.8864   22.2076 H   0  0  0  0  0  0
  -23.7238  -37.6325   23.6753 H   0  0  0  0  0  0
  -26.2810  -31.2776   20.6238 H   0  0  0  0  0  0
  -26.9354  -30.6164   22.0750 H   0  0  0  0  0  0
  -28.1647  -28.4248   21.3080 H   0  0  0  0  0  0
  -25.8443  -25.6278   19.0182 H   0  0  0  0  0  0
  -24.0252  -27.2191   18.9430 H   0  0  0  0  0  0
  -23.9278  -30.4668   19.3796 H   0  0  0  0  0  0
  -22.8607  -29.1707   19.8189 H   0  0  0  0  0  0
  -25.1351  -36.1675   25.0775 H   0  0  0  0  0  0
  -21.0052  -28.3402   24.1277 H   0  0  0  0  0  0
  -20.5676  -26.2401   23.3662 H   0  0  0  0  0  0
  -21.6667  -26.7393   22.1218 H   0  0  0  0  0  0
  -19.6942  -25.6265   21.1292 H   0  0  0  0  0  0
  -19.6728  -27.3145   20.6718 H   0  0  0  0  0  0
  -17.4233  -26.6692   21.4021 H   0  0  0  0  0  0
  -18.0352  -26.0108   22.9031 H   0  0  0  0  0  0
  -19.7986  -30.7339   24.2170 H   0  0  0  0  0  0
  -17.5053  -31.6279   24.5166 H   0  0  0  0  0  0
  -15.5388  -30.2971   23.7716 H   0  0  0  0  0  0
  -15.8715  -28.0809   22.7122 H   0  0  0  0  0  0
  -24.5873  -30.7140   25.7600 H   0  0  0  0  0  0
  -24.8826  -32.3036   26.4537 H   0  0  0  0  0  0
  -25.7846  -30.9101   27.0204 H   0  0  0  0  0  0
  -26.3228  -29.6473   24.1543 H   0  0  0  0  0  0
  -27.3966  -29.7288   25.5278 H   0  0  0  0  0  0
  -27.9198  -30.3989   24.0055 H   0  0  0  0  0  0
  -27.2593  -33.3729   26.1879 H   0  0  0  0  0  0
  -28.3955  -32.6809   25.0396 H   0  0  0  0  0  0
  -28.0603  -31.8616   26.5574 H   0  0  0  0  0  0
  -28.2553  -38.0057   24.7511 H   0  0  0  0  0  0
  -28.1085  -36.2580   24.6299 H   0  0  0  0  0  0
  -27.2276  -37.1380   25.8868 H   0  0  0  0  0  0
  -20.9695  -29.8687   21.6544 H   0  0  0  0  0  0
  -26.0103  -38.2714   24.1421 H   0  0  0  0  0  0
  -28.1541  -20.1192   19.3998 H   0  0  0  0  0  0
  -28.0571  -20.1169   21.1057 H   0  0  0  0  0  0
  -29.7448  -22.3205   19.5244 H   0  0  0  0  0  0
  -29.5730  -22.3235   21.2244 H   0  0  0  0  0  0
  -30.4440  -18.8018   21.2176 H   0  0  0  0  0  0
  -30.4945  -18.7676   19.5099 H   0  0  0  0  0  0
  -27.2299  -23.6732   20.9571 H   0  0  0  0  0  0
  -27.4624  -23.7113   19.2633 H   0  0  0  0  0  0
  -28.5926  -16.6942   20.4591 H   0  0  0  0  0  0
  1 25  1  0  0  0
  1 30  2  0  0  0
  1 75  1  0  0  0
  2  3  1  0  0  0
  2 25  1  0  0  0
  2 76  1  0  0  0
  2 77  1  0  0  0
  3  4  1  0  0  0
  3 78  1  0  0  0
  3 79  1  0  0  0
  4  5  1  0  0  0
  4 80  1  0  0  0
  4 81  1  0  0  0
  5  6  1  0  0  0
  5 26  1  0  0  0
  5 82  1  0  0  0
  6 25  1  0  0  0
  6 83  1  0  0  0
  6 84  1  0  0  0
  7  8  2  0  0  0
  7 26  1  0  0  0
  7 29  1  0  0  0
  8  9  1  0  0  0
  8 22  1  0  0  0
  9 10  1  0  0  0
  9 27  2  0  0  0
 10 11  2  0  0  0
 10 15  1  0  0  0
 11 12  1  0  0  0
 11 85  1  0  0  0
 12 13  2  0  0  0
 12 86  1  0  0  0
 13 14  1  0  0  0
 13 31  1  0  0  0
 14 15  2  0  0  0
 14 87  1  0  0  0
 15 88  1  0  0  0
 16 17  2  0  0  0
 16 21  1  0  0  0
 16 31  1  0  0  0
 17 18  1  0  0  0
 17 89  1  0  0  0
 18 19  2  0  0  0
 18 90  1  0  0  0
 19 20  1  0  0  0
 19 24  1  0  0  0
 20 21  2  0  0  0
 20 91  1  0  0  0
 21 23  1  0  0  0
 22 28  1  0  0  0
 22 32  2  0  0  0
 26 27  1  0  0  0
 28 92  1  0  0  0
 28 93  1  0  0  0
 29 94  1  0  0  0
 29 95  1  0  0  0
 33 34  1  0  0  0
 33 66  1  0  0  0
 33 70  2  0  0  0
 34 36  1  0  0  0
 34 59  1  0  0  0
 34 96  1  0  0  0
 35 44  2  0  0  0
 35 45  1  0  0  0
 35 68  1  0  0  0
 36 56  1  0  0  0
 36 97  1  0  0  0
 37 39  1  0  0  0
 37 47  1  0  0  0
 37 66  1  0  0  0
 37 98  1  0  0  0
 38 43  2  0  0  0
 38 46  1  0  0  0
 38 47  1  0  0  0
 39 64  1  0  0  0
 39 67  2  0  0  0
 40 52  1  0  0  0
 40 53  2  0  0  0
 40 58  1  0  0  0
 41 99  1  0  0  0
 41100  1  0  0  0
 41101  1  0  0  0
 41 48  1  0  0  0
 42 43  1  0  0  0
 42 66  1  0  0  0
 42102  1  0  0  0
 42103  1  0  0  0
 43 44  1  0  0  0
 44104  1  0  0  0
 45 46  2  0  0  0
 45105  1  0  0  0
 46106  1  0  0  0
 47107  1  0  0  0
 47108  1  0  0  0
 48 56  1  0  0  0
 48 65  1  0  0  0
 48109  1  0  0  0
 49 50  1  0  0  0
 49 53  1  0  0  0
 49 64  1  0  0  0
 49110  1  0  0  0
 50 51  1  0  0  0
 50111  1  0  0  0
 50112  1  0  0  0
 51 52  1  0  0  0
 51113  1  0  0  0
 51114  1  0  0  0
 52115  1  0  0  0
 52116  1  0  0  0
 53 54  1  0  0  0
 54 55  2  0  0  0
 54117  1  0  0  0
 55 57  1  0  0  0
 55118  1  0  0  0
 56 69  2  0  0  0
 57 58  2  0  0  0
 57119  1  0  0  0
 58120  1  0  0  0
 59 60  1  0  0  0
 59 61  1  0  0  0
 59 62  1  0  0  0
 60121  1  0  0  0
 60122  1  0  0  0
 60123  1  0  0  0
 61124  1  0  0  0
 61125  1  0  0  0
 61126  1  0  0  0
 62127  1  0  0  0
 62128  1  0  0  0
 62129  1  0  0  0
 63 65  1  0  0  0
 63130  1  0  0  0
 63131  1  0  0  0
 63132  1  0  0  0
 64133  1  0  0  0
 65134  1  0  0  0
 68 74  1  0  0  0
 71 72  1  0  0  0
 71 73  1  0  0  0
 71135  1  0  0  0
 71136  1  0  0  0
 72 74  1  0  0  0
 72137  1  0  0  0
 72138  1  0  0  0
 73 75  1  0  0  0
 73139  1  0  0  0
 73140  1  0  0  0
 74141  1  0  0  0
 74142  1  0  0  0
 75143  1  0  0  0
M  ISO  4   1 100  68 101  74 101  75 100
M  END
> <chiral flag>
0

> <version>
0

> <s_m_source_file>
/data/baiqing/PycharmProjects/Reinvent-master-3.2/result/LINK_invent/BTK/process_docking_weight1_custom_sum_contain_oxygen_bond_distance_aromatic_linkinvent_7_9_3/rearranged_h_0001.sdf

> <i_m_source_file_index>
15

> <r_mmod_Potential_Energy-OPLS-2005>
2236.59155273438

> <r_mmod_Stretch_Energy-OPLS-2005>
1088.18041992188

> <r_mmod_Bend_Energy-OPLS-2005>
600.093139648438

> <r_mmod_Torsional_Energy-OPLS-2005>
206.369812011719

> <r_mmod_Improper_Torsional_Energy-OPLS-2005>
3.66827178001404

> <r_mmod_Van_der_Waal_Energy-OPLS-2005>
110.215888977051

> <r_mmod_Electrostatic_Energy-OPLS-2005>
-352.887237548828

> <r_mmod_Solvation_Energy-OPLS-2005>
-215.827575683594

> <b_mmod_Minimization_Converged-OPLS-2005>
0

> <r_mmod_RMS_Derivative-OPLS-2005>
0.268112510442734

$$$$
15
                    3D
 Structure written by MMmdl.
156163  0  0  1  0            999 V2000
  -30.6675  -14.4217   20.6218 C   0  0  0  0  0  0
  -30.4452  -12.2874   19.4130 C   0  0  0  0  0  0
  -29.5094  -12.5030   18.2038 C   0  0  0  0  0  0
  -28.0256  -12.3578   18.6119 C   0  0  0  0  0  0
  -27.6673  -13.1873   19.8769 C   0  0  2  0  0  0
  -28.7037  -12.8913   20.9865 C   0  0  0  0  0  0
  -25.2597  -13.8116   20.5625 C   0  0  0  0  0  0
  -24.1808  -13.0424   20.9095 C   0  0  0  0  0  0
  -24.6326  -11.6885   20.8630 C   0  0  0  0  0  0
  -23.8968  -10.4294   21.0316 C   0  0  0  0  0  0
  -24.3533   -9.4226   21.9101 C   0  0  0  0  0  0
  -23.6239   -8.2250   22.0715 C   0  0  0  0  0  0
  -22.4216   -8.0245   21.3513 C   0  0  0  0  0  0
  -21.9809   -9.0201   20.4618 C   0  0  0  0  0  0
  -22.7112  -10.2096   20.2984 C   0  0  0  0  0  0
  -21.6849   -6.0691   22.5265 C   0  0  0  0  0  0
  -21.4039   -6.5609   23.8193 C   0  0  0  0  0  0
  -21.3660   -5.6754   24.9158 C   0  0  0  0  0  0
  -21.6019   -4.3015   24.7205 C   0  0  0  0  0  0
  -21.8831   -3.8111   23.4344 C   0  0  0  0  0  0
  -21.9206   -4.6926   22.3393 C   0  0  0  0  0  0
  -22.7834  -13.5243   21.1783 C   0  0  0  0  0  0
  -22.1658   -4.2113   21.0969 F   0  0  0  0  0  0
  -21.5630   -3.4498   25.7729 F   0  0  0  0  0  0
  -30.0363  -13.2338   20.4588 N   0  0  0  0  0  0
  -26.3024  -12.9255   20.3290 N   0  0  0  0  0  0
  -25.9235  -11.6432   20.5616 N   0  0  0  0  0  0
  -22.0465  -12.8291   22.0379 N   0  0  0  0  0  0
  -25.4354  -15.1827   20.4098 N   0  0  0  0  0  0
  -31.7614  -14.6868   20.1085 O   0  0  0  0  0  0
  -21.6618   -6.8820   21.4215 O   0  0  0  0  0  0
  -22.3523  -14.5545   20.6622 O   0  0  0  0  0  0
  -24.6186  -31.8698   23.2085 C   0  0  0  0  0  0
  -25.9065  -32.4819   23.8395 C   0  0  1  0  0  0
  -27.2265  -27.4280   20.0640 C   0  0  0  0  0  0
  -25.5913  -33.8617   24.2321 N   0  0  0  0  0  0
  -23.4041  -30.4969   21.5520 C   0  0  2  0  0  0
  -24.8414  -28.9596   20.1153 C   0  0  0  0  0  0
  -22.7415  -29.4685   22.4981 C   0  0  0  0  0  0
  -18.0273  -28.1396   22.8490 C   0  0  0  0  0  0
  -24.1481  -36.7334   23.2636 C   0  0  0  0  0  0
  -25.9353  -30.8258   21.3632 C   0  0  0  0  0  0
  -26.0055  -29.4582   20.7133 C   0  0  0  0  0  0
  -27.1961  -28.6962   20.6911 C   0  0  0  0  0  0
  -26.0298  -26.9389   19.4810 C   0  0  0  0  0  0
  -24.8485  -27.6967   19.5048 C   0  0  0  0  0  0
  -23.6118  -29.8360   20.1640 C   0  0  0  0  0  0
  -25.4100  -36.3117   24.0342 C   0  0  1  0  0  0
  -20.5865  -28.3689   23.1309 C   0  0  2  0  0  0
  -20.6760  -26.9423   22.5413 C   0  0  0  0  0  0
  -19.5738  -26.6402   21.5208 C   0  0  0  0  0  0
  -18.1921  -26.7938   22.1620 C   0  0  0  0  0  0
  -19.1519  -28.8856   23.2903 C   0  0  0  0  0  0
  -18.9452  -30.1446   23.8934 C   0  0  0  0  0  0
  -17.6466  -30.6601   24.0577 C   0  0  0  0  0  0
  -25.9037  -34.9479   23.5137 C   0  0  0  0  0  0
  -16.5345  -29.9113   23.6306 C   0  0  0  0  0  0
  -16.7273  -28.6514   23.0340 C   0  0  0  0  0  0
  -26.4485  -31.6599   25.0730 C   0  0  0  0  0  0
  -25.3754  -31.3709   26.1490 C   0  0  0  0  0  0
  -27.0295  -30.3036   24.6102 C   0  0  0  0  0  0
  -27.6062  -32.4317   25.7491 C   0  0  0  0  0  0
  -27.5578  -37.1822   24.8469 C   0  0  0  0  0  0
  -21.4148  -29.3069   22.3729 N   0  0  0  0  0  0
  -26.4283  -37.3799   23.9410 N   0  0  0  0  0  0
  -24.6714  -31.0780   22.0998 N   0  0  0  0  0  0
  -23.4201  -28.8223   23.3025 O   0  0  0  0  0  0
  -28.4099  -26.7123   20.0355 O   0  0  0  0  0  0
  -26.5601  -34.8935   22.4698 O   0  0  0  0  0  0
  -23.5375  -32.1457   23.7477 O   0  0  0  0  0  0
  -30.0059  -23.4734   19.6822 C   0  0  0  0  0  0
  -29.8793  -24.9183   19.1740 C   0  0  0  0  0  0
  -30.5785  -18.9148   20.1086 C   0  0  0  0  0  0
  -29.8465  -20.1183   19.4780 C   0  0  0  0  0  0
  -29.7126  -17.6568   20.3309 C   0  0  0  0  0  0
  -30.8438  -21.2145   19.0517 C   0  0  0  0  0  0
  -30.3221  -16.7560   21.4327 C   0  0  0  0  0  0
  -28.4605  -25.5250   19.2241 C   0  0  0  0  0  0
  -30.2275  -22.5141   18.7685 N   0  0  0  0  0  0
  -29.9604  -15.3471   21.2938 N   0  0  0  0  0  0
  -30.0024  -23.2411   20.8943 O   0  0  0  0  0  0
  -31.4896  -12.4239   19.1211 H   0  0  0  0  0  0
  -30.3814  -11.2641   19.7833 H   0  0  0  0  0  0
  -29.7604  -11.8028   17.4042 H   0  0  0  0  0  0
  -29.6760  -13.4995   17.7940 H   0  0  0  0  0  0
  -27.8310  -11.3000   18.7968 H   0  0  0  0  0  0
  -27.3845  -12.6376   17.7742 H   0  0  0  0  0  0
  -27.7384  -14.2389   19.5988 H   0  0  0  0  0  0
  -28.6814  -11.8252   21.2194 H   0  0  0  0  0  0
  -28.4640  -13.3896   21.9254 H   0  0  0  0  0  0
  -25.2672   -9.5772   22.4660 H   0  0  0  0  0  0
  -23.9961   -7.4679   22.7457 H   0  0  0  0  0  0
  -21.0722   -8.8669   19.8971 H   0  0  0  0  0  0
  -22.3490  -10.9588   19.6094 H   0  0  0  0  0  0
  -21.2039   -7.6116   23.9692 H   0  0  0  0  0  0
  -21.1464   -6.0477   25.9048 H   0  0  0  0  0  0
  -22.0621   -2.7579   23.2831 H   0  0  0  0  0  0
  -22.4054  -11.9983   22.4854 H   0  0  0  0  0  0
  -21.1083  -13.1375   22.2549 H   0  0  0  0  0  0
  -24.6755  -15.8436   20.5152 H   0  0  0  0  0  0
  -26.2929  -15.6202   20.0992 H   0  0  0  0  0  0
  -26.7146  -32.5516   23.1159 H   0  0  0  0  0  0
  -25.0026  -33.9773   25.0453 H   0  0  0  0  0  0
  -22.6927  -31.3154   21.4164 H   0  0  0  0  0  0
  -23.3717  -35.9691   23.3322 H   0  0  0  0  0  0
  -24.3575  -36.8927   22.2045 H   0  0  0  0  0  0
  -23.7259  -37.6562   23.6638 H   0  0  0  0  0  0
  -26.0479  -31.5841   20.5876 H   0  0  0  0  0  0
  -26.8259  -30.8816   21.9772 H   0  0  0  0  0  0
  -28.0978  -29.0840   21.1454 H   0  0  0  0  0  0
  -25.9780  -25.9755   18.9966 H   0  0  0  0  0  0
  -23.9499  -27.3075   19.0430 H   0  0  0  0  0  0
  -23.7332  -30.6165   19.4119 H   0  0  0  0  0  0
  -22.7302  -29.2700   19.8598 H   0  0  0  0  0  0
  -25.1261  -36.1982   25.0833 H   0  0  0  0  0  0
  -20.9959  -28.3258   24.1425 H   0  0  0  0  0  0
  -20.5655  -26.2308   23.3610 H   0  0  0  0  0  0
  -21.6639  -26.7462   22.1211 H   0  0  0  0  0  0
  -19.6897  -25.6313   21.1233 H   0  0  0  0  0  0
  -19.6665  -27.3217   20.6741 H   0  0  0  0  0  0
  -17.4186  -26.6696   21.4029 H   0  0  0  0  0  0
  -18.0316  -26.0084   22.9021 H   0  0  0  0  0  0
  -19.7938  -30.7237   24.2350 H   0  0  0  0  0  0
  -17.5028  -31.6275   24.5179 H   0  0  0  0  0  0
  -15.5363  -30.3041   23.7595 H   0  0  0  0  0  0
  -15.8665  -28.0855   22.7049 H   0  0  0  0  0  0
  -24.5918  -30.7060   25.7841 H   0  0  0  0  0  0
  -24.8956  -32.2865   26.4958 H   0  0  0  0  0  0
  -25.8128  -30.8871   27.0237 H   0  0  0  0  0  0
  -26.2823  -29.6807   24.1167 H   0  0  0  0  0  0
  -27.4073  -29.7260   25.4552 H   0  0  0  0  0  0
  -27.8664  -30.4346   23.9232 H   0  0  0  0  0  0
  -27.2677  -33.3597   26.2112 H   0  0  0  0  0  0
  -28.3842  -32.6918   25.0301 H   0  0  0  0  0  0
  -28.0768  -31.8419   26.5370 H   0  0  0  0  0  0
  -28.2613  -38.0101   24.7480 H   0  0  0  0  0  0
  -28.1055  -36.2634   24.6318 H   0  0  0  0  0  0
  -27.2313  -37.1512   25.8880 H   0  0  0  0  0  0
  -20.9306  -29.8843   21.6984 H   0  0  0  0  0  0
  -26.0179  -38.2884   24.1389 H   0  0  0  0  0  0
  -30.2721  -24.9748   18.1582 H   0  0  0  0  0  0
  -30.5522  -25.5273   19.7764 H   0  0  0  0  0  0
  -30.9908  -19.2381   21.0659 H   0  0  0  0  0  0
  -31.4466  -18.6439   19.5006 H   0  0  0  0  0  0
  -29.1364  -20.5142   20.2083 H   0  0  0  0  0  0
  -29.2611  -19.8097   18.6099 H   0  0  0  0  0  0
  -29.6243  -17.1168   19.3845 H   0  0  0  0  0  0
  -28.6914  -17.9349   20.6079 H   0  0  0  0  0  0
  -31.3753  -20.8854   18.1558 H   0  0  0  0  0  0
  -31.6189  -21.3478   19.8118 H   0  0  0  0  0  0
  -29.9879  -17.1076   22.4115 H   0  0  0  0  0  0
  -31.4107  -16.8478   21.4387 H   0  0  0  0  0  0
  -27.7408  -24.7820   19.5749 H   0  0  0  0  0  0
  -28.1789  -25.7924   18.2047 H   0  0  0  0  0  0
  -30.1469  -22.7740   17.7921 H   0  0  0  0  0  0
  -29.0847  -15.0498   21.7056 H   0  0  0  0  0  0
  1 25  1  0  0  0
  1 30  2  0  0  0
  1 80  1  0  0  0
  2  3  1  0  0  0
  2 25  1  0  0  0
  2 82  1  0  0  0
  2 83  1  0  0  0
  3  4  1  0  0  0
  3 84  1  0  0  0
  3 85  1  0  0  0
  4  5  1  0  0  0
  4 86  1  0  0  0
  4 87  1  0  0  0
  5  6  1  0  0  0
  5 26  1  0  0  0
  5 88  1  0  0  0
  6 25  1  0  0  0
  6 89  1  0  0  0
  6 90  1  0  0  0
  7  8  2  0  0  0
  7 26  1  0  0  0
  7 29  1  0  0  0
  8  9  1  0  0  0
  8 22  1  0  0  0
  9 10  1  0  0  0
  9 27  2  0  0  0
 10 11  2  0  0  0
 10 15  1  0  0  0
 11 12  1  0  0  0
 11 91  1  0  0  0
 12 13  2  0  0  0
 12 92  1  0  0  0
 13 14  1  0  0  0
 13 31  1  0  0  0
 14 15  2  0  0  0
 14 93  1  0  0  0
 15 94  1  0  0  0
 16 17  2  0  0  0
 16 21  1  0  0  0
 16 31  1  0  0  0
 17 18  1  0  0  0
 17 95  1  0  0  0
 18 19  2  0  0  0
 18 96  1  0  0  0
 19 20  1  0  0  0
 19 24  1  0  0  0
 20 21  2  0  0  0
 20 97  1  0  0  0
 21 23  1  0  0  0
 22 28  1  0  0  0
 22 32  2  0  0  0
 26 27  1  0  0  0
 28 98  1  0  0  0
 28 99  1  0  0  0
 29100  1  0  0  0
 29101  1  0  0  0
 33 34  1  0  0  0
 33 66  1  0  0  0
 33 70  2  0  0  0
 34 36  1  0  0  0
 34 59  1  0  0  0
 34102  1  0  0  0
 35 44  2  0  0  0
 35 45  1  0  0  0
 35 68  1  0  0  0
 36 56  1  0  0  0
 36103  1  0  0  0
 37 39  1  0  0  0
 37 47  1  0  0  0
 37 66  1  0  0  0
 37104  1  0  0  0
 38 43  2  0  0  0
 38 46  1  0  0  0
 38 47  1  0  0  0
 39 64  1  0  0  0
 39 67  2  0  0  0
 40 52  1  0  0  0
 40 53  2  0  0  0
 40 58  1  0  0  0
 41105  1  0  0  0
 41106  1  0  0  0
 41107  1  0  0  0
 41 48  1  0  0  0
 42 43  1  0  0  0
 42 66  1  0  0  0
 42108  1  0  0  0
 42109  1  0  0  0
 43 44  1  0  0  0
 44110  1  0  0  0
 45 46  2  0  0  0
 45111  1  0  0  0
 46112  1  0  0  0
 47113  1  0  0  0
 47114  1  0  0  0
 48 56  1  0  0  0
 48 65  1  0  0  0
 48115  1  0  0  0
 49 50  1  0  0  0
 49 53  1  0  0  0
 49 64  1  0  0  0
 49116  1  0  0  0
 50 51  1  0  0  0
 50117  1  0  0  0
 50118  1  0  0  0
 51 52  1  0  0  0
 51119  1  0  0  0
 51120  1  0  0  0
 52121  1  0  0  0
 52122  1  0  0  0
 53 54  1  0  0  0
 54 55  2  0  0  0
 54123  1  0  0  0
 55 57  1  0  0  0
 55124  1  0  0  0
 56 69  2  0  0  0
 57 58  2  0  0  0
 57125  1  0  0  0
 58126  1  0  0  0
 59 60  1  0  0  0
 59 61  1  0  0  0
 59 62  1  0  0  0
 60127  1  0  0  0
 60128  1  0  0  0
 60129  1  0  0  0
 61130  1  0  0  0
 61131  1  0  0  0
 61132  1  0  0  0
 62133  1  0  0  0
 62134  1  0  0  0
 62135  1  0  0  0
 63 65  1  0  0  0
 63136  1  0  0  0
 63137  1  0  0  0
 63138  1  0  0  0
 64139  1  0  0  0
 65140  1  0  0  0
 68 78  1  0  0  0
 71 72  1  0  0  0
 71 79  1  0  0  0
 71 81  2  0  0  0
 72 78  1  0  0  0
 72141  1  0  0  0
 72142  1  0  0  0
 73 74  1  0  0  0
 73 75  1  0  0  0
 73143  1  0  0  0
 73144  1  0  0  0
 74 76  1  0  0  0
 74145  1  0  0  0
 74146  1  0  0  0
 75 77  1  0  0  0
 75147  1  0  0  0
 75148  1  0  0  0
 76 79  1  0  0  0
 76149  1  0  0  0
 76150  1  0  0  0
 77 80  1  0  0  0
 77151  1  0  0  0
 77152  1  0  0  0
 78153  1  0  0  0
 78154  1  0  0  0
 79155  1  0  0  0
 80156  1  0  0  0
M  ISO  4   1 100  68 101  78 101  80 100
M  END
> <chiral flag>
0

> <version>
0

> <s_m_source_file>
/data/baiqing/PycharmProjects/Reinvent-master-3.2/result/LINK_invent/BTK/process_docking_weight1_custom_sum_contain_oxygen_bond_distance_aromatic_linkinvent_7_9_3/rearranged_h_0001.sdf

> <i_m_source_file_index>
16

> <r_mmod_Potential_Energy-OPLS-2005>
-155.077362060547

> <r_mmod_Stretch_Energy-OPLS-2005>
33.8367347717285

> <r_mmod_Bend_Energy-OPLS-2005>
94.5148391723633

> <r_mmod_Torsional_Energy-OPLS-2005>
205.612670898438

> <r_mmod_Improper_Torsional_Energy-OPLS-2005>
4.00549697875977

> <r_mmod_Van_der_Waal_Energy-OPLS-2005>
140.405456542969

> <r_mmod_Electrostatic_Energy-OPLS-2005>
-402.295471191406

> <r_mmod_Solvation_Energy-OPLS-2005>
-243.163909912109

> <b_mmod_Minimization_Converged-OPLS-2005>
0

> <r_mmod_RMS_Derivative-OPLS-2005>
4.59572124481201

$$$$
16
                    3D
 Structure written by MMmdl.
148156  0  0  1  0            999 V2000
  -30.5205  -15.0264   20.4016 C   0  0  0  0  0  0
  -30.4388  -12.6399   19.5030 C   0  0  0  0  0  0
  -29.5228  -12.5359   18.2613 C   0  0  0  0  0  0
  -28.0594  -12.3085   18.6834 C   0  0  0  0  0  0
  -27.6237  -13.2547   19.8321 C   0  0  2  0  0  0
  -28.6657  -13.3235   20.9682 C   0  0  0  0  0  0
  -25.2437  -13.8224   20.5717 C   0  0  0  0  0  0
  -24.1766  -13.0437   20.9241 C   0  0  0  0  0  0
  -24.6393  -11.6927   20.8761 C   0  0  0  0  0  0
  -23.9081  -10.4293   21.0409 C   0  0  0  0  0  0
  -24.3628   -9.4206   21.9186 C   0  0  0  0  0  0
  -23.6298   -8.2243   22.0754 C   0  0  0  0  0  0
  -22.4281   -8.0282   21.3544 C   0  0  0  0  0  0
  -21.9920   -9.0257   20.4646 C   0  0  0  0  0  0
  -22.7253  -10.2134   20.3057 C   0  0  0  0  0  0
  -21.6855   -6.0736   22.5278 C   0  0  0  0  0  0
  -21.4016   -6.5640   23.8211 C   0  0  0  0  0  0
  -21.3659   -5.6792   24.9173 C   0  0  0  0  0  0
  -21.6044   -4.3055   24.7224 C   0  0  0  0  0  0
  -21.8819   -3.8146   23.4346 C   0  0  0  0  0  0
  -21.9193   -4.6963   22.3401 C   0  0  0  0  0  0
  -22.7786  -13.5202   21.1892 C   0  0  0  0  0  0
  -22.1661   -4.2149   21.0980 F   0  0  0  0  0  0
  -21.5628   -3.4538   25.7738 F   0  0  0  0  0  0
  -29.9294  -13.7564   20.3577 N   0  0  0  0  0  0
  -26.2861  -12.9466   20.3233 N   0  0  0  0  0  0
  -25.9326  -11.6590   20.5739 N   0  0  0  0  0  0
  -22.0439  -12.8187   22.0446 N   0  0  0  0  0  0
  -25.4080  -15.1955   20.4126 N   0  0  0  0  0  0
  -31.7341  -15.0537   20.1650 O   0  0  0  0  0  0
  -21.6642   -6.8880   21.4240 O   0  0  0  0  0  0
  -22.3467  -14.5505   20.6734 O   0  0  0  0  0  0
  -24.6491  -31.8384   23.1832 C   0  0  0  0  0  0
  -25.9238  -32.4664   23.8242 C   0  0  1  0  0  0
  -27.2152  -27.0784   20.1593 C   0  0  0  0  0  0
  -25.5962  -33.8472   24.2155 N   0  0  0  0  0  0
  -23.4556  -30.4559   21.5300 C   0  0  2  0  0  0
  -24.9054  -28.8722   20.1108 C   0  0  0  0  0  0
  -22.7597  -29.4517   22.4836 C   0  0  0  0  0  0
  -18.0309  -28.1399   22.8473 C   0  0  0  0  0  0
  -24.1492  -36.7241   23.2644 C   0  0  0  0  0  0
  -26.0157  -30.6939   21.3903 C   0  0  0  0  0  0
  -26.0858  -29.2996   20.7319 C   0  0  0  0  0  0
  -27.2411  -28.4207   20.7352 C   0  0  0  0  0  0
  -26.0064  -26.7659   19.4989 C   0  0  0  0  0  0
  -24.8820  -27.6210   19.4772 C   0  0  0  0  0  0
  -23.6855  -29.7822   20.1511 C   0  0  0  0  0  0
  -25.4127  -36.3013   24.0311 C   0  0  1  0  0  0
  -20.5926  -28.3729   23.1221 C   0  0  2  0  0  0
  -20.6792  -26.9426   22.5402 C   0  0  0  0  0  0
  -19.5765  -26.6380   21.5212 C   0  0  0  0  0  0
  -18.1946  -26.7934   22.1624 C   0  0  0  0  0  0
  -19.1567  -28.8883   23.2836 C   0  0  0  0  0  0
  -18.9483  -30.1477   23.8866 C   0  0  0  0  0  0
  -17.6479  -30.6594   24.0557 C   0  0  0  0  0  0
  -25.9082  -34.9391   23.5047 C   0  0  0  0  0  0
  -16.5369  -29.9084   23.6340 C   0  0  0  0  0  0
  -16.7293  -28.6504   23.0359 C   0  0  0  0  0  0
  -26.4538  -31.6555   25.0710 C   0  0  0  0  0  0
  -25.3705  -31.3765   26.1393 C   0  0  0  0  0  0
  -27.0414  -30.2943   24.6337 C   0  0  0  0  0  0
  -27.6054  -32.4336   25.7503 C   0  0  0  0  0  0
  -27.5574  -37.1776   24.8466 C   0  0  0  0  0  0
  -21.4282  -29.3046   22.3587 N   0  0  0  0  0  0
  -26.4284  -37.3733   23.9409 N   0  0  0  0  0  0
  -24.7272  -31.0188   22.0892 N   0  0  0  0  0  0
  -23.4213  -28.8070   23.3012 O   0  0  0  0  0  0
  -28.2523  -26.0582   20.2291 O   0  0  0  0  0  0
  -26.5674  -34.8900   22.4630 O   0  0  0  0  0  0
  -23.5597  -32.1286   23.7018 O   0  0  0  0  0  0
  -31.7700  -19.5441   20.5721 C   0  0  0  0  0  0
  -31.3857  -18.1810   20.5604 C   0  0  0  0  0  0
  -30.8520  -20.6180   20.4816 C   0  0  0  0  0  0
  -29.1018  -18.9472   20.3640 C   0  0  0  0  0  0
  -30.0374  -17.7691   20.4575 C   0  0  0  0  0  0
  -29.4615  -20.4115   20.3680 C   0  0  0  0  0  0
  -27.9614  -24.5038   20.1070 C   0  0  0  0  0  0
  -28.9765  -23.1286   20.3248 C   0  0  0  0  0  0
  -29.7366  -16.2366   20.4835 N   0  0  0  0  0  0
  -28.5804  -21.6011   20.2654 O   0  0  0  0  0  0
  -31.4693  -12.8061   19.1854 H   0  0  0  0  0  0
  -30.4485  -11.7011   20.0590 H   0  0  0  0  0  0
  -29.8554  -11.7267   17.6098 H   0  0  0  0  0  0
  -29.5967  -13.4529   17.6746 H   0  0  0  0  0  0
  -27.9707  -11.2716   19.0096 H   0  0  0  0  0  0
  -27.3938  -12.4159   17.8261 H   0  0  0  0  0  0
  -27.5734  -14.2472   19.3833 H   0  0  0  0  0  0
  -28.7736  -12.3592   21.4670 H   0  0  0  0  0  0
  -28.3527  -14.0363   21.7330 H   0  0  0  0  0  0
  -25.2770   -9.5681   22.4766 H   0  0  0  0  0  0
  -24.0004   -7.4634   22.7476 H   0  0  0  0  0  0
  -21.0852   -8.8780   19.8951 H   0  0  0  0  0  0
  -22.3712  -10.9674   19.6168 H   0  0  0  0  0  0
  -21.2010   -7.6148   23.9715 H   0  0  0  0  0  0
  -21.1481   -6.0522   25.9077 H   0  0  0  0  0  0
  -22.0598   -2.7609   23.2846 H   0  0  0  0  0  0
  -22.4066  -11.9853   22.4835 H   0  0  0  0  0  0
  -21.1053  -13.1199   22.2651 H   0  0  0  0  0  0
  -24.6338  -15.8423   20.5186 H   0  0  0  0  0  0
  -26.2411  -15.6362   20.0460 H   0  0  0  0  0  0
  -26.7302  -32.5250   23.0964 H   0  0  0  0  0  0
  -25.0079  -33.9576   25.0283 H   0  0  0  0  0  0
  -22.7612  -31.2836   21.3714 H   0  0  0  0  0  0
  -23.3762  -35.9565   23.3289 H   0  0  0  0  0  0
  -24.3575  -36.8895   22.2061 H   0  0  0  0  0  0
  -23.7242  -37.6428   23.6698 H   0  0  0  0  0  0
  -26.1785  -31.4453   20.6166 H   0  0  0  0  0  0
  -26.8831  -30.7448   22.0368 H   0  0  0  0  0  0
  -28.1389  -28.7436   21.2432 H   0  0  0  0  0  0
  -25.8933  -25.8099   19.0111 H   0  0  0  0  0  0
  -23.9815  -27.2887   18.9791 H   0  0  0  0  0  0
  -23.8280  -30.5554   19.3951 H   0  0  0  0  0  0
  -22.7984  -29.2283   19.8384 H   0  0  0  0  0  0
  -25.1317  -36.1831   25.0803 H   0  0  0  0  0  0
  -21.0014  -28.3324   24.1344 H   0  0  0  0  0  0
  -20.5683  -26.2343   23.3628 H   0  0  0  0  0  0
  -21.6656  -26.7424   22.1200 H   0  0  0  0  0  0
  -19.6927  -25.6283   21.1261 H   0  0  0  0  0  0
  -19.6704  -27.3175   20.6729 H   0  0  0  0  0  0
  -17.4214  -26.6677   21.4029 H   0  0  0  0  0  0
  -18.0345  -26.0085   22.9030 H   0  0  0  0  0  0
  -19.7960  -30.7300   24.2221 H   0  0  0  0  0  0
  -17.5033  -31.6271   24.5163 H   0  0  0  0  0  0
  -15.5368  -30.2975   23.7683 H   0  0  0  0  0  0
  -15.8694  -28.0812   22.7090 H   0  0  0  0  0  0
  -24.5893  -30.7105   25.7712 H   0  0  0  0  0  0
  -24.8886  -32.2953   26.4742 H   0  0  0  0  0  0
  -25.7970  -30.8987   27.0222 H   0  0  0  0  0  0
  -26.3047  -29.6649   24.1331 H   0  0  0  0  0  0
  -27.3989  -29.7263   25.4937 H   0  0  0  0  0  0
  -27.8970  -30.4161   23.9693 H   0  0  0  0  0  0
  -27.2638  -33.3668   26.1994 H   0  0  0  0  0  0
  -28.3910  -32.6847   25.0363 H   0  0  0  0  0  0
  -28.0671  -31.8519   26.5491 H   0  0  0  0  0  0
  -28.2576  -38.0085   24.7513 H   0  0  0  0  0  0
  -28.1083  -36.2614   24.6292 H   0  0  0  0  0  0
  -27.2290  -37.1419   25.8868 H   0  0  0  0  0  0
  -20.9504  -29.8756   21.6755 H   0  0  0  0  0  0
  -26.0146  -38.2798   24.1416 H   0  0  0  0  0  0
  -32.8222  -19.7769   20.6574 H   0  0  0  0  0  0
  -32.1724  -17.4461   20.6451 H   0  0  0  0  0  0
  -31.2468  -21.6234   20.4994 H   0  0  0  0  0  0
  -28.0487  -18.7195   20.2832 H   0  0  0  0  0  0
  -27.1135  -24.3371   20.7719 H   0  0  0  0  0  0
  -27.5561  -24.3759   19.1037 H   0  0  0  0  0  0
  -29.4489  -23.2554   21.2989 H   0  0  0  0  0  0
  -29.7877  -23.2451   19.6062 H   0  0  0  0  0  0
  -28.7533  -16.0263   20.5640 H   0  0  0  0  0  0
  1 25  1  0  0  0
  1 30  2  0  0  0
  1 79  1  0  0  0
  2  3  1  0  0  0
  2 25  1  0  0  0
  2 81  1  0  0  0
  2 82  1  0  0  0
  3  4  1  0  0  0
  3 83  1  0  0  0
  3 84  1  0  0  0
  4  5  1  0  0  0
  4 85  1  0  0  0
  4 86  1  0  0  0
  5  6  1  0  0  0
  5 26  1  0  0  0
  5 87  1  0  0  0
  6 25  1  0  0  0
  6 88  1  0  0  0
  6 89  1  0  0  0
  7  8  2  0  0  0
  7 26  1  0  0  0
  7 29  1  0  0  0
  8  9  1  0  0  0
  8 22  1  0  0  0
  9 10  1  0  0  0
  9 27  2  0  0  0
 10 11  2  0  0  0
 10 15  1  0  0  0
 11 12  1  0  0  0
 11 90  1  0  0  0
 12 13  2  0  0  0
 12 91  1  0  0  0
 13 14  1  0  0  0
 13 31  1  0  0  0
 14 15  2  0  0  0
 14 92  1  0  0  0
 15 93  1  0  0  0
 16 17  2  0  0  0
 16 21  1  0  0  0
 16 31  1  0  0  0
 17 18  1  0  0  0
 17 94  1  0  0  0
 18 19  2  0  0  0
 18 95  1  0  0  0
 19 20  1  0  0  0
 19 24  1  0  0  0
 20 21  2  0  0  0
 20 96  1  0  0  0
 21 23  1  0  0  0
 22 28  1  0  0  0
 22 32  2  0  0  0
 26 27  1  0  0  0
 28 97  1  0  0  0
 28 98  1  0  0  0
 29 99  1  0  0  0
 29100  1  0  0  0
 33 34  1  0  0  0
 33 66  1  0  0  0
 33 70  2  0  0  0
 34 36  1  0  0  0
 34 59  1  0  0  0
 34101  1  0  0  0
 35 44  2  0  0  0
 35 45  1  0  0  0
 35 68  1  0  0  0
 36 56  1  0  0  0
 36102  1  0  0  0
 37 39  1  0  0  0
 37 47  1  0  0  0
 37 66  1  0  0  0
 37103  1  0  0  0
 38 43  2  0  0  0
 38 46  1  0  0  0
 38 47  1  0  0  0
 39 64  1  0  0  0
 39 67  2  0  0  0
 40 52  1  0  0  0
 40 53  2  0  0  0
 40 58  1  0  0  0
 41104  1  0  0  0
 41105  1  0  0  0
 41106  1  0  0  0
 41 48  1  0  0  0
 42 43  1  0  0  0
 42 66  1  0  0  0
 42107  1  0  0  0
 42108  1  0  0  0
 43 44  1  0  0  0
 44109  1  0  0  0
 45 46  2  0  0  0
 45110  1  0  0  0
 46111  1  0  0  0
 47112  1  0  0  0
 47113  1  0  0  0
 48 56  1  0  0  0
 48 65  1  0  0  0
 48114  1  0  0  0
 49 50  1  0  0  0
 49 53  1  0  0  0
 49 64  1  0  0  0
 49115  1  0  0  0
 50 51  1  0  0  0
 50116  1  0  0  0
 50117  1  0  0  0
 51 52  1  0  0  0
 51118  1  0  0  0
 51119  1  0  0  0
 52120  1  0  0  0
 52121  1  0  0  0
 53 54  1  0  0  0
 54 55  2  0  0  0
 54122  1  0  0  0
 55 57  1  0  0  0
 55123  1  0  0  0
 56 69  2  0  0  0
 57 58  2  0  0  0
 57124  1  0  0  0
 58125  1  0  0  0
 59 60  1  0  0  0
 59 61  1  0  0  0
 59 62  1  0  0  0
 60126  1  0  0  0
 60127  1  0  0  0
 60128  1  0  0  0
 61129  1  0  0  0
 61130  1  0  0  0
 61131  1  0  0  0
 62132  1  0  0  0
 62133  1  0  0  0
 62134  1  0  0  0
 63 65  1  0  0  0
 63135  1  0  0  0
 63136  1  0  0  0
 63137  1  0  0  0
 64138  1  0  0  0
 65139  1  0  0  0
 68 77  1  0  0  0
 71 72  2  0  0  0
 71 73  1  0  0  0
 71140  1  0  0  0
 72 75  1  0  0  0
 72141  1  0  0  0
 73 76  2  0  0  0
 73142  1  0  0  0
 74 75  2  0  0  0
 74 76  1  0  0  0
 74143  1  0  0  0
 75 79  1  0  0  0
 76 80  1  0  0  0
 77 78  1  0  0  0
 77144  1  0  0  0
 77145  1  0  0  0
 78 80  1  0  0  0
 78146  1  0  0  0
 78147  1  0  0  0
 79148  1  0  0  0
M  ISO  4   1 100  68 101  77 101  79 100
M  END
> <chiral flag>
0

> <version>
0

> <s_m_source_file>
/data/baiqing/PycharmProjects/Reinvent-master-3.2/result/LINK_invent/BTK/process_docking_weight1_custom_sum_contain_oxygen_bond_distance_aromatic_linkinvent_7_9_3/rearranged_h_0001.sdf

> <i_m_source_file_index>
17

> <r_mmod_Potential_Energy-OPLS-2005>
646.360778808594

> <r_mmod_Stretch_Energy-OPLS-2005>
330.501342773438

> <r_mmod_Bend_Energy-OPLS-2005>
281.674163818359

> <r_mmod_Torsional_Energy-OPLS-2005>
210.216598510742

> <r_mmod_Improper_Torsional_Energy-OPLS-2005>
4.87754726409912

> <r_mmod_Van_der_Waal_Energy-OPLS-2005>
132.894073486328

> <r_mmod_Electrostatic_Energy-OPLS-2005>
-348.155517578125

> <r_mmod_Solvation_Energy-OPLS-2005>
-214.931076049805

> <b_mmod_Minimization_Converged-OPLS-2005>
0

> <r_mmod_RMS_Derivative-OPLS-2005>
0.254653602838516

$$$$
17
                    3D
 Structure written by MMmdl.
144151  0  0  1  0            999 V2000
  -30.4369  -15.2511   20.3767 C   0  0  0  0  0  0
  -30.4407  -12.8036   19.5103 C   0  0  0  0  0  0
  -29.5321  -12.5695   18.2777 C   0  0  0  0  0  0
  -28.0806  -12.2958   18.7105 C   0  0  0  0  0  0
  -27.6107  -13.2711   19.8186 C   0  0  2  0  0  0
  -28.6480  -13.4407   20.9474 C   0  0  0  0  0  0
  -25.2393  -13.8238   20.5742 C   0  0  0  0  0  0
  -24.1743  -13.0431   20.9260 C   0  0  0  0  0  0
  -24.6395  -11.6928   20.8764 C   0  0  0  0  0  0
  -23.9090  -10.4290   21.0409 C   0  0  0  0  0  0
  -24.3635   -9.4203   21.9186 C   0  0  0  0  0  0
  -23.6303   -8.2241   22.0755 C   0  0  0  0  0  0
  -22.4284   -8.0282   21.3545 C   0  0  0  0  0  0
  -21.9926   -9.0257   20.4646 C   0  0  0  0  0  0
  -22.7261  -10.2132   20.3056 C   0  0  0  0  0  0
  -21.6855   -6.0737   22.5279 C   0  0  0  0  0  0
  -21.4016   -6.5641   23.8212 C   0  0  0  0  0  0
  -21.3660   -5.6793   24.9174 C   0  0  0  0  0  0
  -21.6044   -4.3056   24.7225 C   0  0  0  0  0  0
  -21.8819   -3.8148   23.4346 C   0  0  0  0  0  0
  -21.9193   -4.6965   22.3402 C   0  0  0  0  0  0
  -22.7761  -13.5187   21.1906 C   0  0  0  0  0  0
  -22.1661   -4.2150   21.0980 F   0  0  0  0  0  0
  -21.5628   -3.4540   25.7737 F   0  0  0  0  0  0
  -29.8748  -13.9472   20.3118 N   0  0  0  0  0  0
  -26.2814  -12.9504   20.3207 N   0  0  0  0  0  0
  -25.9329  -11.6614   20.5719 N   0  0  0  0  0  0
  -22.0419  -12.8169   22.0460 N   0  0  0  0  0  0
  -25.4019  -15.1973   20.4173 N   0  0  0  0  0  0
  -31.6652  -15.2598   20.2187 O   0  0  0  0  0  0
  -21.6644   -6.8882   21.4242 O   0  0  0  0  0  0
  -22.3441  -14.5488   20.6746 O   0  0  0  0  0  0
  -24.6622  -31.8245   23.1706 C   0  0  0  0  0  0
  -25.9306  -32.4593   23.8170 C   0  0  1  0  0  0
  -27.2187  -26.9359   20.1919 C   0  0  0  0  0  0
  -25.5976  -33.8406   24.2077 N   0  0  0  0  0  0
  -23.4761  -30.4358   21.5204 C   0  0  2  0  0  0
  -24.9283  -28.8193   20.1193 C   0  0  0  0  0  0
  -22.7660  -29.4449   22.4794 C   0  0  0  0  0  0
  -18.0321  -28.1408   22.8468 C   0  0  0  0  0  0
  -24.1493  -36.7209   23.2648 C   0  0  0  0  0  0
  -26.0446  -30.6350   21.3978 C   0  0  0  0  0  0
  -26.1136  -29.2235   20.7468 C   0  0  0  0  0  0
  -27.2569  -28.3054   20.7517 C   0  0  0  0  0  0
  -26.0019  -26.6767   19.5243 C   0  0  0  0  0  0
  -24.8966  -27.5655   19.4877 C   0  0  0  0  0  0
  -23.7155  -29.7482   20.1484 C   0  0  0  0  0  0
  -25.4134  -36.2970   24.0300 C   0  0  1  0  0  0
  -20.5944  -28.3752   23.1192 C   0  0  2  0  0  0
  -20.6798  -26.9435   22.5403 C   0  0  0  0  0  0
  -19.5772  -26.6378   21.5214 C   0  0  0  0  0  0
  -18.1954  -26.7942   22.1623 C   0  0  0  0  0  0
  -19.1582  -28.8901   23.2817 C   0  0  0  0  0  0
  -18.9493  -30.1491   23.8852 C   0  0  0  0  0  0
  -17.6486  -30.6598   24.0556 C   0  0  0  0  0  0
  -25.9098  -34.9353   23.5010 C   0  0  0  0  0  0
  -16.5376  -29.9085   23.6343 C   0  0  0  0  0  0
  -16.7303  -28.6506   23.0363 C   0  0  0  0  0  0
  -26.4559  -31.6536   25.0696 C   0  0  0  0  0  0
  -25.3687  -31.3784   26.1354 C   0  0  0  0  0  0
  -27.0455  -30.2904   24.6421 C   0  0  0  0  0  0
  -27.6050  -32.4345   25.7500 C   0  0  0  0  0  0
  -27.5569  -37.1762   24.8467 C   0  0  0  0  0  0
  -21.4331  -29.3044   22.3542 N   0  0  0  0  0  0
  -26.4280  -37.3705   23.9407 N   0  0  0  0  0  0
  -24.7491  -30.9919   22.0835 N   0  0  0  0  0  0
  -23.4211  -28.8021   23.3034 O   0  0  0  0  0  0
  -28.2432  -25.8546   20.1976 O   0  0  0  0  0  0
  -26.5710  -34.8888   22.4606 O   0  0  0  0  0  0
  -23.5694  -32.1209   23.6807 O   0  0  0  0  0  0
  -29.9032  -18.1505   20.6487 C   0  0  0  0  0  0
  -29.0916  -19.6523   20.0641 C   0  0  0  0  0  0
  -28.0410  -24.2465   20.5108 C   0  0  0  0  0  0
  -28.7182  -22.6665   19.9472 C   0  0  0  0  0  0
  -29.6593  -16.5123   20.4191 N   0  0  0  0  0  0
  -28.9892  -21.1936   20.6301 O   0  0  0  0  0  0
  -31.4561  -13.0183   19.1742 H   0  0  0  0  0  0
  -30.5160  -11.9000   20.1175 H   0  0  0  0  0  0
  -29.9090  -11.7401   17.6776 H   0  0  0  0  0  0
  -29.5601  -13.4510   17.6352 H   0  0  0  0  0  0
  -28.0368  -11.2719   19.0838 H   0  0  0  0  0  0
  -27.4101  -12.3372   17.8514 H   0  0  0  0  0  0
  -27.5259  -14.2383   19.3215 H   0  0  0  0  0  0
  -28.8185  -12.5046   21.4812 H   0  0  0  0  0  0
  -28.2924  -14.1615   21.6855 H   0  0  0  0  0  0
  -25.2776   -9.5679   22.4767 H   0  0  0  0  0  0
  -24.0007   -7.4633   22.7477 H   0  0  0  0  0  0
  -21.0856   -8.8780   19.8952 H   0  0  0  0  0  0
  -22.3719  -10.9674   19.6169 H   0  0  0  0  0  0
  -21.2009   -7.6149   23.9716 H   0  0  0  0  0  0
  -21.1482   -6.0524   25.9077 H   0  0  0  0  0  0
  -22.0597   -2.7610   23.2846 H   0  0  0  0  0  0
  -22.4051  -11.9839   22.4851 H   0  0  0  0  0  0
  -21.1031  -13.1176   22.2665 H   0  0  0  0  0  0
  -24.6298  -15.8453   20.5309 H   0  0  0  0  0  0
  -26.2396  -15.6403   20.0642 H   0  0  0  0  0  0
  -26.7377  -32.5137   23.0887 H   0  0  0  0  0  0
  -25.0070  -33.9485   25.0192 H   0  0  0  0  0  0
  -22.7891  -31.2670   21.3485 H   0  0  0  0  0  0
  -23.3765  -35.9530   23.3283 H   0  0  0  0  0  0
  -24.3569  -36.8881   22.2067 H   0  0  0  0  0  0
  -23.7242  -37.6387   23.6720 H   0  0  0  0  0  0
  -26.2213  -31.3747   20.6158 H   0  0  0  0  0  0
  -26.9062  -30.6947   22.0510 H   0  0  0  0  0  0
  -28.1614  -28.6200   21.2530 H   0  0  0  0  0  0
  -25.8841  -25.7202   19.0350 H   0  0  0  0  0  0
  -23.9962  -27.2498   18.9788 H   0  0  0  0  0  0
  -23.8728  -30.5146   19.3885 H   0  0  0  0  0  0
  -22.8250  -29.2028   19.8311 H   0  0  0  0  0  0
  -25.1332  -36.1767   25.0791 H   0  0  0  0  0  0
  -21.0032  -28.3358   24.1316 H   0  0  0  0  0  0
  -20.5680  -26.2370   23.3642 H   0  0  0  0  0  0
  -21.6662  -26.7414   22.1208 H   0  0  0  0  0  0
  -19.6931  -25.6277   21.1274 H   0  0  0  0  0  0
  -19.6710  -27.3164   20.6724 H   0  0  0  0  0  0
  -17.4222  -26.6685   21.4027 H   0  0  0  0  0  0
  -18.0350  -26.0095   22.9030 H   0  0  0  0  0  0
  -19.7968  -30.7320   24.2201 H   0  0  0  0  0  0
  -17.5037  -31.6274   24.5166 H   0  0  0  0  0  0
  -15.5375  -30.2973   23.7693 H   0  0  0  0  0  0
  -15.8704  -28.0808   22.7105 H   0  0  0  0  0  0
  -24.5885  -30.7117   25.7664 H   0  0  0  0  0  0
  -24.8859  -32.2984   26.4657 H   0  0  0  0  0  0
  -25.7920  -30.9033   27.0213 H   0  0  0  0  0  0
  -26.3120  -29.6580   24.1408 H   0  0  0  0  0  0
  -27.3971  -29.7268   25.5074 H   0  0  0  0  0  0
  -27.9066  -30.4088   23.9841 H   0  0  0  0  0  0
  -27.2619  -33.3690   26.1952 H   0  0  0  0  0  0
  -28.3927  -32.6835   25.0377 H   0  0  0  0  0  0
  -28.0645  -31.8555   26.5522 H   0  0  0  0  0  0
  -28.2572  -38.0071   24.7508 H   0  0  0  0  0  0
  -28.1079  -36.2597   24.6302 H   0  0  0  0  0  0
  -27.2284  -37.1414   25.8869 H   0  0  0  0  0  0
  -20.9586  -29.8729   21.6666 H   0  0  0  0  0  0
  -26.0128  -38.2764   24.1412 H   0  0  0  0  0  0
  -29.8343  -18.2328   21.7336 H   0  0  0  0  0  0
  -30.9655  -18.2990   20.4516 H   0  0  0  0  0  0
  -28.0459  -19.3727   19.9349 H   0  0  0  0  0  0
  -29.4521  -19.7769   19.0427 H   0  0  0  0  0  0
  -28.2693  -24.2286   21.5764 H   0  0  0  0  0  0
  -26.9610  -24.1021   20.4918 H   0  0  0  0  0  0
  -29.7032  -22.9230   19.5574 H   0  0  0  0  0  0
  -28.1449  -22.4326   19.0499 H   0  0  0  0  0  0
  -28.6725  -16.2975   20.4101 H   0  0  0  0  0  0
  1 25  1  0  0  0
  1 30  2  0  0  0
  1 75  1  0  0  0
  2  3  1  0  0  0
  2 25  1  0  0  0
  2 77  1  0  0  0
  2 78  1  0  0  0
  3  4  1  0  0  0
  3 79  1  0  0  0
  3 80  1  0  0  0
  4  5  1  0  0  0
  4 81  1  0  0  0
  4 82  1  0  0  0
  5  6  1  0  0  0
  5 26  1  0  0  0
  5 83  1  0  0  0
  6 25  1  0  0  0
  6 84  1  0  0  0
  6 85  1  0  0  0
  7  8  2  0  0  0
  7 26  1  0  0  0
  7 29  1  0  0  0
  8  9  1  0  0  0
  8 22  1  0  0  0
  9 10  1  0  0  0
  9 27  2  0  0  0
 10 11  2  0  0  0
 10 15  1  0  0  0
 11 12  1  0  0  0
 11 86  1  0  0  0
 12 13  2  0  0  0
 12 87  1  0  0  0
 13 14  1  0  0  0
 13 31  1  0  0  0
 14 15  2  0  0  0
 14 88  1  0  0  0
 15 89  1  0  0  0
 16 17  2  0  0  0
 16 21  1  0  0  0
 16 31  1  0  0  0
 17 18  1  0  0  0
 17 90  1  0  0  0
 18 19  2  0  0  0
 18 91  1  0  0  0
 19 20  1  0  0  0
 19 24  1  0  0  0
 20 21  2  0  0  0
 20 92  1  0  0  0
 21 23  1  0  0  0
 22 28  1  0  0  0
 22 32  2  0  0  0
 26 27  1  0  0  0
 28 93  1  0  0  0
 28 94  1  0  0  0
 29 95  1  0  0  0
 29 96  1  0  0  0
 33 34  1  0  0  0
 33 66  1  0  0  0
 33 70  2  0  0  0
 34 36  1  0  0  0
 34 59  1  0  0  0
 34 97  1  0  0  0
 35 44  2  0  0  0
 35 45  1  0  0  0
 35 68  1  0  0  0
 36 56  1  0  0  0
 36 98  1  0  0  0
 37 39  1  0  0  0
 37 47  1  0  0  0
 37 66  1  0  0  0
 37 99  1  0  0  0
 38 43  2  0  0  0
 38 46  1  0  0  0
 38 47  1  0  0  0
 39 64  1  0  0  0
 39 67  2  0  0  0
 40 52  1  0  0  0
 40 53  2  0  0  0
 40 58  1  0  0  0
 41100  1  0  0  0
 41101  1  0  0  0
 41102  1  0  0  0
 41 48  1  0  0  0
 42 43  1  0  0  0
 42 66  1  0  0  0
 42103  1  0  0  0
 42104  1  0  0  0
 43 44  1  0  0  0
 44105  1  0  0  0
 45 46  2  0  0  0
 45106  1  0  0  0
 46107  1  0  0  0
 47108  1  0  0  0
 47109  1  0  0  0
 48 56  1  0  0  0
 48 65  1  0  0  0
 48110  1  0  0  0
 49 50  1  0  0  0
 49 53  1  0  0  0
 49 64  1  0  0  0
 49111  1  0  0  0
 50 51  1  0  0  0
 50112  1  0  0  0
 50113  1  0  0  0
 51 52  1  0  0  0
 51114  1  0  0  0
 51115  1  0  0  0
 52116  1  0  0  0
 52117  1  0  0  0
 53 54  1  0  0  0
 54 55  2  0  0  0
 54118  1  0  0  0
 55 57  1  0  0  0
 55119  1  0  0  0
 56 69  2  0  0  0
 57 58  2  0  0  0
 57120  1  0  0  0
 58121  1  0  0  0
 59 60  1  0  0  0
 59 61  1  0  0  0
 59 62  1  0  0  0
 60122  1  0  0  0
 60123  1  0  0  0
 60124  1  0  0  0
 61125  1  0  0  0
 61126  1  0  0  0
 61127  1  0  0  0
 62128  1  0  0  0
 62129  1  0  0  0
 62130  1  0  0  0
 63 65  1  0  0  0
 63131  1  0  0  0
 63132  1  0  0  0
 63133  1  0  0  0
 64134  1  0  0  0
 65135  1  0  0  0
 68 73  1  0  0  0
 71 72  1  0  0  0
 71 75  1  0  0  0
 71136  1  0  0  0
 71137  1  0  0  0
 72 76  1  0  0  0
 72138  1  0  0  0
 72139  1  0  0  0
 73 74  1  0  0  0
 73140  1  0  0  0
 73141  1  0  0  0
 74 76  1  0  0  0
 74142  1  0  0  0
 74143  1  0  0  0
 75144  1  0  0  0
M  ISO  4   1 100  68 101  73 101  75 100
M  END
> <chiral flag>
0

> <version>
0

> <s_m_source_file>
/data/baiqing/PycharmProjects/Reinvent-master-3.2/result/LINK_invent/BTK/process_docking_weight1_custom_sum_contain_oxygen_bond_distance_aromatic_linkinvent_7_9_3/rearranged_h_0001.sdf

> <i_m_source_file_index>
18

> <r_mmod_Potential_Energy-OPLS-2005>
1272.39196777344

> <r_mmod_Stretch_Energy-OPLS-2005>
620.559265136719

> <r_mmod_Bend_Energy-OPLS-2005>
470.408538818359

> <r_mmod_Torsional_Energy-OPLS-2005>
228.680725097656

> <r_mmod_Improper_Torsional_Energy-OPLS-2005>
4.08042764663696

> <r_mmod_Van_der_Waal_Energy-OPLS-2005>
109.728851318359

> <r_mmod_Electrostatic_Energy-OPLS-2005>
-380.777038574219

> <r_mmod_Solvation_Energy-OPLS-2005>
-221.878372192383

> <b_mmod_Minimization_Converged-OPLS-2005>
0

> <r_mmod_RMS_Derivative-OPLS-2005>
0.0835052877664566

$$$$
18
                    3D
 Structure written by MMmdl.
140148  0  0  1  0            999 V2000
  -30.2654  -15.7045   20.3221 C   0  0  0  0  0  0
  -30.4238  -13.1302   19.5423 C   0  0  0  0  0  0
  -29.5554  -12.6731   18.3322 C   0  0  0  0  0  0
  -28.1333  -12.3014   18.7774 C   0  0  0  0  0  0
  -27.5950  -13.3133   19.8126 C   0  0  2  0  0  0
  -28.6072  -13.6700   20.9286 C   0  0  0  0  0  0
  -25.2316  -13.8289   20.5797 C   0  0  0  0  0  0
  -24.1714  -13.0432   20.9297 C   0  0  0  0  0  0
  -24.6422  -11.6945   20.8766 C   0  0  0  0  0  0
  -23.9125  -10.4291   21.0396 C   0  0  0  0  0  0
  -24.3657   -9.4204   21.9179 C   0  0  0  0  0  0
  -23.6316   -8.2247   22.0754 C   0  0  0  0  0  0
  -22.4296   -8.0288   21.3544 C   0  0  0  0  0  0
  -21.9944   -9.0264   20.4643 C   0  0  0  0  0  0
  -22.7290  -10.2134   20.3049 C   0  0  0  0  0  0
  -21.6859   -6.0742   22.5279 C   0  0  0  0  0  0
  -21.4019   -6.5643   23.8213 C   0  0  0  0  0  0
  -21.3661   -5.6794   24.9174 C   0  0  0  0  0  0
  -21.6044   -4.3057   24.7223 C   0  0  0  0  0  0
  -21.8818   -3.8150   23.4344 C   0  0  0  0  0  0
  -21.9194   -4.6969   22.3401 C   0  0  0  0  0  0
  -22.7723  -13.5158   21.1927 C   0  0  0  0  0  0
  -22.1662   -4.2154   21.0978 F   0  0  0  0  0  0
  -21.5627   -3.4540   25.7735 F   0  0  0  0  0  0
  -29.7717  -14.3166   20.2724 N   0  0  0  0  0  0
  -26.2773  -12.9631   20.3236 N   0  0  0  0  0  0
  -25.9371  -11.6697   20.5696 N   0  0  0  0  0  0
  -22.0389  -12.8133   22.0477 N   0  0  0  0  0  0
  -25.3887  -15.2031   20.4220 N   0  0  0  0  0  0
  -31.5032  -15.6462   20.1620 O   0  0  0  0  0  0
  -21.6649   -6.8890   21.4243 O   0  0  0  0  0  0
  -22.3397  -14.5456   20.6761 O   0  0  0  0  0  0
  -24.6898  -31.7930   23.1466 C   0  0  0  0  0  0
  -25.9449  -32.4433   23.8035 C   0  0  1  0  0  0
  -27.2302  -26.6432   20.2194 C   0  0  0  0  0  0
  -25.6002  -33.8261   24.1916 N   0  0  0  0  0  0
  -23.5191  -30.3923   21.5019 C   0  0  2  0  0  0
  -24.9784  -28.7220   20.1193 C   0  0  0  0  0  0
  -22.7796  -29.4278   22.4692 C   0  0  0  0  0  0
  -18.0343  -28.1425   22.8452 C   0  0  0  0  0  0
  -24.1495  -36.7138   23.2654 C   0  0  0  0  0  0
  -26.1028  -30.5062   21.4208 C   0  0  0  0  0  0
  -26.1687  -29.0646   20.7716 C   0  0  0  0  0  0
  -27.2770  -28.0550   20.7879 C   0  0  0  0  0  0
  -26.0067  -26.5276   19.5068 C   0  0  0  0  0  0
  -24.9402  -27.4798   19.4625 C   0  0  0  0  0  0
  -23.7771  -29.6842   20.1398 C   0  0  0  0  0  0
  -25.4148  -36.2875   24.0277 C   0  0  1  0  0  0
  -20.5983  -28.3789   23.1129 C   0  0  2  0  0  0
  -20.6807  -26.9441   22.5404 C   0  0  0  0  0  0
  -19.5783  -26.6369   21.5217 C   0  0  0  0  0  0
  -18.1966  -26.7951   22.1619 C   0  0  0  0  0  0
  -19.1611  -28.8933   23.2769 C   0  0  0  0  0  0
  -18.9515  -30.1514   23.8818 C   0  0  0  0  0  0
  -17.6504  -30.6606   24.0549 C   0  0  0  0  0  0
  -25.9132  -34.9267   23.4938 C   0  0  0  0  0  0
  -16.5393  -29.9086   23.6352 C   0  0  0  0  0  0
  -16.7323  -28.6509   23.0369 C   0  0  0  0  0  0
  -26.4607  -31.6493   25.0684 C   0  0  0  0  0  0
  -25.3655  -31.3829   26.1286 C   0  0  0  0  0  0
  -27.0550  -30.2824   24.6631 C   0  0  0  0  0  0
  -27.6041  -32.4370   25.7507 C   0  0  0  0  0  0
  -27.5562  -37.1726   24.8466 C   0  0  0  0  0  0
  -21.4437  -29.3023   22.3441 N   0  0  0  0  0  0
  -26.4269  -37.3643   23.9407 N   0  0  0  0  0  0
  -24.7947  -30.9316   22.0754 N   0  0  0  0  0  0
  -23.4210  -28.7887   23.3065 O   0  0  0  0  0  0
  -28.1707  -25.3847   20.2968 O   0  0  0  0  0  0
  -26.5781  -34.8856   22.4561 O   0  0  0  0  0  0
  -23.5903  -32.1032   23.6380 O   0  0  0  0  0  0
  -30.0024  -21.3255   20.1653 C   0  0  0  0  0  0
  -28.6969  -21.9281   20.2595 C   0  0  0  0  0  0
  -29.3696  -18.8013   20.3224 C   0  0  0  0  0  0
  -27.8585  -23.6396   20.1149 C   0  0  0  0  0  0
  -30.3201  -19.8222   20.2069 N   0  0  0  0  0  0
  -29.4496  -17.0524   20.3713 N   0  0  0  0  0  0
  -27.8982  -20.1359   20.3946 S   0  0  0  0  0  0
  -31.4107  -13.4063   19.1694 H   0  0  0  0  0  0
  -30.6046  -12.2981   20.2250 H   0  0  0  0  0  0
  -30.0233  -11.8311   17.8204 H   0  0  0  0  0  0
  -29.5047  -13.4845   17.6047 H   0  0  0  0  0  0
  -28.1719  -11.3085   19.2272 H   0  0  0  0  0  0
  -27.4650  -12.2270   17.9186 H   0  0  0  0  0  0
  -27.4497  -14.2265   19.2338 H   0  0  0  0  0  0
  -28.8826  -12.7964   21.5216 H   0  0  0  0  0  0
  -28.1602  -14.3817   21.6242 H   0  0  0  0  0  0
  -25.2796   -9.5677   22.4765 H   0  0  0  0  0  0
  -24.0015   -7.4639   22.7480 H   0  0  0  0  0  0
  -21.0873   -8.8794   19.8950 H   0  0  0  0  0  0
  -22.3749  -10.9676   19.6161 H   0  0  0  0  0  0
  -21.2014   -7.6152   23.9718 H   0  0  0  0  0  0
  -21.1482   -6.0524   25.9077 H   0  0  0  0  0  0
  -22.0596   -2.7613   23.2843 H   0  0  0  0  0  0
  -22.4033  -11.9810   22.4873 H   0  0  0  0  0  0
  -21.0994  -13.1124   22.2673 H   0  0  0  0  0  0
  -24.6099  -15.8449   20.5249 H   0  0  0  0  0  0
  -26.2142  -15.6421   20.0383 H   0  0  0  0  0  0
  -26.7537  -32.4891   23.0751 H   0  0  0  0  0  0
  -25.0050  -33.9289   25.0003 H   0  0  0  0  0  0
  -22.8479  -31.2313   21.3067 H   0  0  0  0  0  0
  -23.3777  -35.9446   23.3261 H   0  0  0  0  0  0
  -24.3561  -36.8860   22.2079 H   0  0  0  0  0  0
  -23.7236  -37.6292   23.6772 H   0  0  0  0  0  0
  -26.3125  -31.2273   20.6298 H   0  0  0  0  0  0
  -26.9510  -30.5762   22.0892 H   0  0  0  0  0  0
  -28.1696  -28.3250   21.3343 H   0  0  0  0  0  0
  -25.8275  -25.5911   18.9982 H   0  0  0  0  0  0
  -24.0441  -27.2075   18.9218 H   0  0  0  0  0  0
  -23.9571  -30.4421   19.3765 H   0  0  0  0  0  0
  -22.8808  -29.1536   19.8139 H   0  0  0  0  0  0
  -25.1361  -36.1628   25.0767 H   0  0  0  0  0  0
  -21.0063  -28.3419   24.1256 H   0  0  0  0  0  0
  -20.5664  -26.2415   23.3672 H   0  0  0  0  0  0
  -21.6667  -26.7374   22.1226 H   0  0  0  0  0  0
  -19.6938  -25.6259   21.1299 H   0  0  0  0  0  0
  -19.6728  -27.3135   20.6712 H   0  0  0  0  0  0
  -17.4236  -26.6694   21.4022 H   0  0  0  0  0  0
  -18.0352  -26.0113   22.9033 H   0  0  0  0  0  0
  -19.7990  -30.7351   24.2153 H   0  0  0  0  0  0
  -17.5054  -31.6277   24.5167 H   0  0  0  0  0  0
  -15.5390  -30.2963   23.7722 H   0  0  0  0  0  0
  -15.8724  -28.0800   22.7130 H   0  0  0  0  0  0
  -24.5870  -30.7147   25.7583 H   0  0  0  0  0  0
  -24.8811  -32.3056   26.4490 H   0  0  0  0  0  0
  -25.7817  -30.9137   27.0209 H   0  0  0  0  0  0
  -26.3281  -29.6418   24.1628 H   0  0  0  0  0  0
  -27.3956  -29.7297   25.5397 H   0  0  0  0  0  0
  -27.9269  -30.3934   24.0183 H   0  0  0  0  0  0
  -27.2572  -33.3749   26.1856 H   0  0  0  0  0  0
  -28.3969  -32.6808   25.0422 H   0  0  0  0  0  0
  -28.0581  -31.8654   26.5612 H   0  0  0  0  0  0
  -28.2544  -38.0054   24.7515 H   0  0  0  0  0  0
  -28.1093  -36.2575   24.6294 H   0  0  0  0  0  0
  -27.2276  -37.1360   25.8867 H   0  0  0  0  0  0
  -20.9757  -29.8670   21.6489 H   0  0  0  0  0  0
  -26.0090  -38.2687   24.1423 H   0  0  0  0  0  0
  -30.8820  -21.9389   20.0277 H   0  0  0  0  0  0
  -26.9758  -23.5345   20.7456 H   0  0  0  0  0  0
  -27.4376  -23.6211   19.1097 H   0  0  0  0  0  0
  -28.4977  -16.7334   20.4664 H   0  0  0  0  0  0
  1 25  1  0  0  0
  1 30  2  0  0  0
  1 76  1  0  0  0
  2  3  1  0  0  0
  2 25  1  0  0  0
  2 78  1  0  0  0
  2 79  1  0  0  0
  3  4  1  0  0  0
  3 80  1  0  0  0
  3 81  1  0  0  0
  4  5  1  0  0  0
  4 82  1  0  0  0
  4 83  1  0  0  0
  5  6  1  0  0  0
  5 26  1  0  0  0
  5 84  1  0  0  0
  6 25  1  0  0  0
  6 85  1  0  0  0
  6 86  1  0  0  0
  7  8  2  0  0  0
  7 26  1  0  0  0
  7 29  1  0  0  0
  8  9  1  0  0  0
  8 22  1  0  0  0
  9 10  1  0  0  0
  9 27  2  0  0  0
 10 11  2  0  0  0
 10 15  1  0  0  0
 11 12  1  0  0  0
 11 87  1  0  0  0
 12 13  2  0  0  0
 12 88  1  0  0  0
 13 14  1  0  0  0
 13 31  1  0  0  0
 14 15  2  0  0  0
 14 89  1  0  0  0
 15 90  1  0  0  0
 16 17  2  0  0  0
 16 21  1  0  0  0
 16 31  1  0  0  0
 17 18  1  0  0  0
 17 91  1  0  0  0
 18 19  2  0  0  0
 18 92  1  0  0  0
 19 20  1  0  0  0
 19 24  1  0  0  0
 20 21  2  0  0  0
 20 93  1  0  0  0
 21 23  1  0  0  0
 22 28  1  0  0  0
 22 32  2  0  0  0
 26 27  1  0  0  0
 28 94  1  0  0  0
 28 95  1  0  0  0
 29 96  1  0  0  0
 29 97  1  0  0  0
 33 34  1  0  0  0
 33 66  1  0  0  0
 33 70  2  0  0  0
 34 36  1  0  0  0
 34 59  1  0  0  0
 34 98  1  0  0  0
 35 44  2  0  0  0
 35 45  1  0  0  0
 35 68  1  0  0  0
 36 56  1  0  0  0
 36 99  1  0  0  0
 37 39  1  0  0  0
 37 47  1  0  0  0
 37 66  1  0  0  0
 37100  1  0  0  0
 38 43  2  0  0  0
 38 46  1  0  0  0
 38 47  1  0  0  0
 39 64  1  0  0  0
 39 67  2  0  0  0
 40 52  1  0  0  0
 40 53  2  0  0  0
 40 58  1  0  0  0
 41101  1  0  0  0
 41102  1  0  0  0
 41103  1  0  0  0
 41 48  1  0  0  0
 42 43  1  0  0  0
 42 66  1  0  0  0
 42104  1  0  0  0
 42105  1  0  0  0
 43 44  1  0  0  0
 44106  1  0  0  0
 45 46  2  0  0  0
 45107  1  0  0  0
 46108  1  0  0  0
 47109  1  0  0  0
 47110  1  0  0  0
 48 56  1  0  0  0
 48 65  1  0  0  0
 48111  1  0  0  0
 49 50  1  0  0  0
 49 53  1  0  0  0
 49 64  1  0  0  0
 49112  1  0  0  0
 50 51  1  0  0  0
 50113  1  0  0  0
 50114  1  0  0  0
 51 52  1  0  0  0
 51115  1  0  0  0
 51116  1  0  0  0
 52117  1  0  0  0
 52118  1  0  0  0
 53 54  1  0  0  0
 54 55  2  0  0  0
 54119  1  0  0  0
 55 57  1  0  0  0
 55120  1  0  0  0
 56 69  2  0  0  0
 57 58  2  0  0  0
 57121  1  0  0  0
 58122  1  0  0  0
 59 60  1  0  0  0
 59 61  1  0  0  0
 59 62  1  0  0  0
 60123  1  0  0  0
 60124  1  0  0  0
 60125  1  0  0  0
 61126  1  0  0  0
 61127  1  0  0  0
 61128  1  0  0  0
 62129  1  0  0  0
 62130  1  0  0  0
 62131  1  0  0  0
 63 65  1  0  0  0
 63132  1  0  0  0
 63133  1  0  0  0
 63134  1  0  0  0
 64135  1  0  0  0
 65136  1  0  0  0
 68 74  1  0  0  0
 71 72  2  0  0  0
 71 75  1  0  0  0
 71137  1  0  0  0
 72 74  1  0  0  0
 72 77  1  0  0  0
 73 75  2  0  0  0
 73 76  1  0  0  0
 73 77  1  0  0  0
 74138  1  0  0  0
 74139  1  0  0  0
 76140  1  0  0  0
M  ISO  4   1 100  68 101  74 101  76 100
M  END
> <chiral flag>
0

> <version>
0

> <s_m_source_file>
/data/baiqing/PycharmProjects/Reinvent-master-3.2/result/LINK_invent/BTK/process_docking_weight1_custom_sum_contain_oxygen_bond_distance_aromatic_linkinvent_7_9_3/rearranged_h_0001.sdf

> <i_m_source_file_index>
19

> <r_mmod_Potential_Energy-OPLS-2005>
2603.859375

> <r_mmod_Stretch_Energy-OPLS-2005>
1099.6884765625

> <r_mmod_Bend_Energy-OPLS-2005>
765.150451660156

> <r_mmod_Torsional_Energy-OPLS-2005>
212.874938964844

> <r_mmod_Improper_Torsional_Energy-OPLS-2005>
4.11663103103638

> <r_mmod_Van_der_Waal_Energy-OPLS-2005>
108.794136047363

> <r_mmod_Electrostatic_Energy-OPLS-2005>
-374.752685546875

> <r_mmod_Solvation_Energy-OPLS-2005>
-234.200210571289

> <b_mmod_Minimization_Converged-OPLS-2005>
1

> <r_mmod_RMS_Derivative-OPLS-2005>
0.0483931414783001

$$$$
19
                    3D
 Structure written by MMmdl.
147154  0  0  1  0            999 V2000
  -30.5488  -14.9370   20.4143 C   0  0  0  0  0  0
  -30.4391  -12.5794   19.4908 C   0  0  0  0  0  0
  -29.5177  -12.5211   18.2503 C   0  0  0  0  0  0
  -28.0505  -12.3124   18.6705 C   0  0  0  0  0  0
  -27.6301  -13.2460   19.8363 C   0  0  2  0  0  0
  -28.6749  -13.2707   20.9717 C   0  0  0  0  0  0
  -25.2481  -13.8209   20.5722 C   0  0  0  0  0  0
  -24.1797  -13.0438   20.9232 C   0  0  0  0  0  0
  -24.6402  -11.6919   20.8748 C   0  0  0  0  0  0
  -23.9086  -10.4291   21.0409 C   0  0  0  0  0  0
  -24.3631   -9.4203   21.9189 C   0  0  0  0  0  0
  -23.6301   -8.2239   22.0759 C   0  0  0  0  0  0
  -22.4282   -8.0280   21.3549 C   0  0  0  0  0  0
  -21.9921   -9.0257   20.4649 C   0  0  0  0  0  0
  -22.7254  -10.2136   20.3058 C   0  0  0  0  0  0
  -21.6852   -6.0743   22.5284 C   0  0  0  0  0  0
  -21.4014   -6.5651   23.8216 C   0  0  0  0  0  0
  -21.3655   -5.6802   24.9175 C   0  0  0  0  0  0
  -21.6036   -4.3064   24.7226 C   0  0  0  0  0  0
  -21.8816   -3.8158   23.4350 C   0  0  0  0  0  0
  -21.9197   -4.6973   22.3405 C   0  0  0  0  0  0
  -22.7817  -13.5210   21.1888 C   0  0  0  0  0  0
  -22.1665   -4.2160   21.0981 F   0  0  0  0  0  0
  -21.5624   -3.4543   25.7737 F   0  0  0  0  0  0
  -29.9491  -13.6799   20.3691 N   0  0  0  0  0  0
  -26.2895  -12.9438   20.3239 N   0  0  0  0  0  0
  -25.9333  -11.6569   20.5731 N   0  0  0  0  0  0
  -22.0470  -12.8187   22.0432 N   0  0  0  0  0  0
  -25.4153  -15.1935   20.4164 N   0  0  0  0  0  0
  -31.7548  -14.9978   20.1573 O   0  0  0  0  0  0
  -21.6644   -6.8881   21.4245 O   0  0  0  0  0  0
  -22.3496  -14.5516   20.6734 O   0  0  0  0  0  0
  -24.6421  -31.8453   23.1869 C   0  0  0  0  0  0
  -25.9196  -32.4705   23.8262 C   0  0  1  0  0  0
  -27.2149  -27.1362   20.1552 C   0  0  0  0  0  0
  -25.5957  -33.8511   24.2184 N   0  0  0  0  0  0
  -23.4452  -30.4633   21.5330 C   0  0  2  0  0  0
  -24.8949  -28.8894   20.1102 C   0  0  0  0  0  0
  -22.7560  -29.4553   22.4864 C   0  0  0  0  0  0
  -18.0304  -28.1399   22.8478 C   0  0  0  0  0  0
  -24.1484  -36.7253   23.2641 C   0  0  0  0  0  0
  -25.9999  -30.7193   21.3843 C   0  0  0  0  0  0
  -26.0720  -29.3291   20.7285 C   0  0  0  0  0  0
  -27.2331  -28.4685   20.7346 C   0  0  0  0  0  0
  -26.0131  -26.7994   19.4947 C   0  0  0  0  0  0
  -24.8778  -27.6380   19.4766 C   0  0  0  0  0  0
  -23.6712  -29.7911   20.1524 C   0  0  0  0  0  0
  -25.4113  -36.3034   24.0315 C   0  0  1  0  0  0
  -20.5914  -28.3725   23.1240 C   0  0  2  0  0  0
  -20.6790  -26.9431   22.5408 C   0  0  0  0  0  0
  -19.5764  -26.6382   21.5215 C   0  0  0  0  0  0
  -18.1943  -26.7934   22.1621 C   0  0  0  0  0  0
  -19.1561  -28.8874   23.2850 C   0  0  0  0  0  0
  -18.9485  -30.1472   23.8880 C   0  0  0  0  0  0
  -17.6484  -30.6598   24.0564 C   0  0  0  0  0  0
  -25.9066  -34.9415   23.5050 C   0  0  0  0  0  0
  -16.5374  -29.9094   23.6347 C   0  0  0  0  0  0
  -16.7290  -28.6511   23.0365 C   0  0  0  0  0  0
  -26.4518  -31.6575   25.0705 C   0  0  0  0  0  0
  -25.3702  -31.3775   26.1405 C   0  0  0  0  0  0
  -27.0387  -30.2978   24.6275 C   0  0  0  0  0  0
  -27.6054  -32.4341   25.7491 C   0  0  0  0  0  0
  -27.5557  -37.1778   24.8468 C   0  0  0  0  0  0
  -21.4254  -29.3051   22.3613 N   0  0  0  0  0  0
  -26.4270  -37.3754   23.9418 N   0  0  0  0  0  0
  -24.7160  -31.0301   22.0904 N   0  0  0  0  0  0
  -23.4209  -28.8109   23.3017 O   0  0  0  0  0  0
  -28.2670  -26.1518   20.2341 O   0  0  0  0  0  0
  -26.5656  -34.8921   22.4630 O   0  0  0  0  0  0
  -23.5544  -32.1330   23.7089 O   0  0  0  0  0  0
  -29.4455  -20.5553   20.3843 C   0  0  0  0  0  0
  -28.6519  -21.7361   20.4136 C   0  0  0  0  0  0
  -29.0600  -18.9495   20.4047 C   0  0  0  0  0  0
  -29.0295  -23.3433   20.4457 C   0  0  0  0  0  0
  -30.1556  -17.6623   20.4409 C   0  0  0  0  0  0
  -27.9858  -24.6236   20.1021 C   0  0  0  0  0  0
  -29.7768  -16.1271   20.5359 N   0  0  0  0  0  0
  -31.4721  -12.7355   19.1758 H   0  0  0  0  0  0
  -30.4325  -11.6282   20.0250 H   0  0  0  0  0  0
  -29.8308  -11.7152   17.5850 H   0  0  0  0  0  0
  -29.6096  -13.4465   17.6790 H   0  0  0  0  0  0
  -27.9444  -11.2715   18.9782 H   0  0  0  0  0  0
  -27.3858  -12.4448   17.8153 H   0  0  0  0  0  0
  -27.5935  -14.2477   19.4079 H   0  0  0  0  0  0
  -28.7599  -12.2934   21.4486 H   0  0  0  0  0  0
  -28.3803  -13.9709   21.7544 H   0  0  0  0  0  0
  -25.2771   -9.5677   22.4769 H   0  0  0  0  0  0
  -24.0006   -7.4630   22.7479 H   0  0  0  0  0  0
  -21.0853   -8.8774   19.8956 H   0  0  0  0  0  0
  -22.3709  -10.9676   19.6166 H   0  0  0  0  0  0
  -21.2001   -7.6158   23.9722 H   0  0  0  0  0  0
  -21.1476   -6.0534   25.9077 H   0  0  0  0  0  0
  -22.0595   -2.7623   23.2850 H   0  0  0  0  0  0
  -22.4097  -11.9835   22.4792 H   0  0  0  0  0  0
  -21.1087  -13.1205   22.2642 H   0  0  0  0  0  0
  -24.6479  -15.8456   20.5334 H   0  0  0  0  0  0
  -26.2570  -15.6348   20.0698 H   0  0  0  0  0  0
  -26.7260  -32.5317   23.0990 H   0  0  0  0  0  0
  -25.0125  -33.9635   25.0346 H   0  0  0  0  0  0
  -22.7479  -31.2893   21.3773 H   0  0  0  0  0  0
  -23.3757  -35.9575   23.3294 H   0  0  0  0  0  0
  -24.3565  -36.8886   22.2057 H   0  0  0  0  0  0
  -23.7224  -37.6438   23.6681 H   0  0  0  0  0  0
  -26.1495  -31.4713   20.6087 H   0  0  0  0  0  0
  -26.8728  -30.7760   22.0228 H   0  0  0  0  0  0
  -28.1277  -28.7985   21.2439 H   0  0  0  0  0  0
  -25.9148  -25.8437   19.0030 H   0  0  0  0  0  0
  -23.9791  -27.2970   18.9797 H   0  0  0  0  0  0
  -23.8078  -30.5650   19.3967 H   0  0  0  0  0  0
  -22.7866  -29.2318   19.8419 H   0  0  0  0  0  0
  -25.1294  -36.1860   25.0803 H   0  0  0  0  0  0
  -21.0001  -28.3314   24.1364 H   0  0  0  0  0  0
  -20.5688  -26.2343   23.3626 H   0  0  0  0  0  0
  -21.6655  -26.7444   22.1200 H   0  0  0  0  0  0
  -19.6937  -25.6285   21.1259 H   0  0  0  0  0  0
  -19.6696  -27.3184   20.6735 H   0  0  0  0  0  0
  -17.4212  -26.6687   21.4026 H   0  0  0  0  0  0
  -18.0344  -26.0073   22.9015 H   0  0  0  0  0  0
  -19.7967  -30.7286   24.2237 H   0  0  0  0  0  0
  -17.5052  -31.6283   24.5166 H   0  0  0  0  0  0
  -15.5380  -30.3005   23.7671 H   0  0  0  0  0  0
  -15.8686  -28.0828   22.7097 H   0  0  0  0  0  0
  -24.5907  -30.7083   25.7730 H   0  0  0  0  0  0
  -24.8862  -32.2966   26.4728 H   0  0  0  0  0  0
  -25.7983  -30.9028   27.0244 H   0  0  0  0  0  0
  -26.3000  -29.6709   24.1268 H   0  0  0  0  0  0
  -27.4004  -29.7266   25.4833 H   0  0  0  0  0  0
  -27.8904  -30.4225   23.9581 H   0  0  0  0  0  0
  -27.2654  -33.3685   26.1971 H   0  0  0  0  0  0
  -28.3909  -32.6829   25.0342 H   0  0  0  0  0  0
  -28.0671  -31.8530   26.5482 H   0  0  0  0  0  0
  -28.2580  -38.0071   24.7509 H   0  0  0  0  0  0
  -28.1044  -36.2600   24.6295 H   0  0  0  0  0  0
  -27.2281  -37.1418   25.8875 H   0  0  0  0  0  0
  -20.9471  -29.8764   21.6789 H   0  0  0  0  0  0
  -26.0136  -38.2817   24.1444 H   0  0  0  0  0  0
  -30.5140  -20.7191   20.3465 H   0  0  0  0  0  0
  -27.5838  -21.5717   20.4601 H   0  0  0  0  0  0
  -28.4288  -18.8000   19.5280 H   0  0  0  0  0  0
  -28.3855  -18.8228   21.2521 H   0  0  0  0  0  0
  -29.9202  -23.4648   19.8293 H   0  0  0  0  0  0
  -29.3761  -23.5166   21.4658 H   0  0  0  0  0  0
  -30.8337  -17.8460   21.2752 H   0  0  0  0  0  0
  -30.7851  -17.7561   19.5549 H   0  0  0  0  0  0
  -27.0880  -24.4423   20.6937 H   0  0  0  0  0  0
  -27.6779  -24.4726   19.0674 H   0  0  0  0  0  0
  -28.7958  -15.9503   20.6932 H   0  0  0  0  0  0
  1 25  1  0  0  0
  1 30  2  0  0  0
  1 77  1  0  0  0
  2  3  1  0  0  0
  2 25  1  0  0  0
  2 78  1  0  0  0
  2 79  1  0  0  0
  3  4  1  0  0  0
  3 80  1  0  0  0
  3 81  1  0  0  0
  4  5  1  0  0  0
  4 82  1  0  0  0
  4 83  1  0  0  0
  5  6  1  0  0  0
  5 26  1  0  0  0
  5 84  1  0  0  0
  6 25  1  0  0  0
  6 85  1  0  0  0
  6 86  1  0  0  0
  7  8  2  0  0  0
  7 26  1  0  0  0
  7 29  1  0  0  0
  8  9  1  0  0  0
  8 22  1  0  0  0
  9 10  1  0  0  0
  9 27  2  0  0  0
 10 11  2  0  0  0
 10 15  1  0  0  0
 11 12  1  0  0  0
 11 87  1  0  0  0
 12 13  2  0  0  0
 12 88  1  0  0  0
 13 14  1  0  0  0
 13 31  1  0  0  0
 14 15  2  0  0  0
 14 89  1  0  0  0
 15 90  1  0  0  0
 16 17  2  0  0  0
 16 21  1  0  0  0
 16 31  1  0  0  0
 17 18  1  0  0  0
 17 91  1  0  0  0
 18 19  2  0  0  0
 18 92  1  0  0  0
 19 20  1  0  0  0
 19 24  1  0  0  0
 20 21  2  0  0  0
 20 93  1  0  0  0
 21 23  1  0  0  0
 22 28  1  0  0  0
 22 32  2  0  0  0
 26 27  1  0  0  0
 28 94  1  0  0  0
 28 95  1  0  0  0
 29 96  1  0  0  0
 29 97  1  0  0  0
 33 34  1  0  0  0
 33 66  1  0  0  0
 33 70  2  0  0  0
 34 36  1  0  0  0
 34 59  1  0  0  0
 34 98  1  0  0  0
 35 44  2  0  0  0
 35 45  1  0  0  0
 35 68  1  0  0  0
 36 56  1  0  0  0
 36 99  1  0  0  0
 37 39  1  0  0  0
 37 47  1  0  0  0
 37 66  1  0  0  0
 37100  1  0  0  0
 38 43  2  0  0  0
 38 46  1  0  0  0
 38 47  1  0  0  0
 39 64  1  0  0  0
 39 67  2  0  0  0
 40 52  1  0  0  0
 40 53  2  0  0  0
 40 58  1  0  0  0
 41101  1  0  0  0
 41102  1  0  0  0
 41103  1  0  0  0
 41 48  1  0  0  0
 42 43  1  0  0  0
 42 66  1  0  0  0
 42104  1  0  0  0
 42105  1  0  0  0
 43 44  1  0  0  0
 44106  1  0  0  0
 45 46  2  0  0  0
 45107  1  0  0  0
 46108  1  0  0  0
 47109  1  0  0  0
 47110  1  0  0  0
 48 56  1  0  0  0
 48 65  1  0  0  0
 48111  1  0  0  0
 49 50  1  0  0  0
 49 53  1  0  0  0
 49 64  1  0  0  0
 49112  1  0  0  0
 50 51  1  0  0  0
 50113  1  0  0  0
 50114  1  0  0  0
 51 52  1  0  0  0
 51115  1  0  0  0
 51116  1  0  0  0
 52117  1  0  0  0
 52118  1  0  0  0
 53 54  1  0  0  0
 54 55  2  0  0  0
 54119  1  0  0  0
 55 57  1  0  0  0
 55120  1  0  0  0
 56 69  2  0  0  0
 57 58  2  0  0  0
 57121  1  0  0  0
 58122  1  0  0  0
 59 60  1  0  0  0
 59 61  1  0  0  0
 59 62  1  0  0  0
 60123  1  0  0  0
 60124  1  0  0  0
 60125  1  0  0  0
 61126  1  0  0  0
 61127  1  0  0  0
 61128  1  0  0  0
 62129  1  0  0  0
 62130  1  0  0  0
 62131  1  0  0  0
 63 65  1  0  0  0
 63132  1  0  0  0
 63133  1  0  0  0
 63134  1  0  0  0
 64135  1  0  0  0
 65136  1  0  0  0
 68 76  1  0  0  0
 71 72  2  0  0  0
 71 73  1  0  0  0
 71137  1  0  0  0
 72 74  1  0  0  0
 72138  1  0  0  0
 73 75  1  0  0  0
 73139  1  0  0  0
 73140  1  0  0  0
 74 76  1  0  0  0
 74141  1  0  0  0
 74142  1  0  0  0
 75 77  1  0  0  0
 75143  1  0  0  0
 75144  1  0  0  0
 76145  1  0  0  0
 76146  1  0  0  0
 77147  1  0  0  0
M  ISO  4   1 100  68 101  76 101  77 100
M  END
> <chiral flag>
0

> <version>
0

> <s_m_source_file>
/data/baiqing/PycharmProjects/Reinvent-master-3.2/result/LINK_invent/BTK/process_docking_weight1_custom_sum_contain_oxygen_bond_distance_aromatic_linkinvent_7_9_3/rearranged_h_0001.sdf

> <i_m_source_file_index>
20

> <r_mmod_Potential_Energy-OPLS-2005>
453.205963134766

> <r_mmod_Stretch_Energy-OPLS-2005>
259.095153808594

> <r_mmod_Bend_Energy-OPLS-2005>
235.670013427734

> <r_mmod_Torsional_Energy-OPLS-2005>
209.226776123047

> <r_mmod_Improper_Torsional_Energy-OPLS-2005>
4.53717231750488

> <r_mmod_Van_der_Waal_Energy-OPLS-2005>
114.339729309082

> <r_mmod_Electrostatic_Energy-OPLS-2005>
-351.092102050781

> <r_mmod_Solvation_Energy-OPLS-2005>
-207.432357788086

> <b_mmod_Minimization_Converged-OPLS-2005>
0

> <r_mmod_RMS_Derivative-OPLS-2005>
1.41952419281006

$$$$
20
                    3D
 Structure written by MMmdl.
136143  0  0  1  0            999 V2000
  -30.0547  -16.4460   20.2582 C   0  0  0  0  0  0
  -30.3444  -13.6555   19.5669 C   0  0  0  0  0  0
  -29.5809  -12.8853   18.4207 C   0  0  0  0  0  0
  -28.2217  -12.3612   18.8918 C   0  0  0  0  0  0
  -27.5631  -13.4089   19.8053 C   0  0  2  0  0  0
  -28.4871  -14.0783   20.8756 C   0  0  0  0  0  0
  -25.2124  -13.8445   20.5879 C   0  0  0  0  0  0
  -24.1631  -13.0454   20.9323 C   0  0  0  0  0  0
  -24.6478  -11.7012   20.8735 C   0  0  0  0  0  0
  -23.9208  -10.4312   21.0352 C   0  0  0  0  0  0
  -24.3712   -9.4224   21.9154 C   0  0  0  0  0  0
  -23.6350   -8.2274   22.0747 C   0  0  0  0  0  0
  -22.4327   -8.0310   21.3544 C   0  0  0  0  0  0
  -21.9989   -9.0286   20.4636 C   0  0  0  0  0  0
  -22.7356  -10.2146   20.3023 C   0  0  0  0  0  0
  -21.6873   -6.0757   22.5279 C   0  0  0  0  0  0
  -21.4030   -6.5652   23.8214 C   0  0  0  0  0  0
  -21.3664   -5.6799   24.9172 C   0  0  0  0  0  0
  -21.6043   -4.3062   24.7220 C   0  0  0  0  0  0
  -21.8817   -3.8158   23.4339 C   0  0  0  0  0  0
  -21.9199   -4.6980   22.3398 C   0  0  0  0  0  0
  -22.7623  -13.5099   21.1948 C   0  0  0  0  0  0
  -22.1663   -4.2164   21.0975 F   0  0  0  0  0  0
  -21.5624   -3.4542   25.7730 F   0  0  0  0  0  0
  -29.5648  -14.8881   20.1934 N   0  0  0  0  0  0
  -26.2690  -12.9979   20.3316 N   0  0  0  0  0  0
  -25.9458  -11.6933   20.5620 N   0  0  0  0  0  0
  -22.0330  -12.8049   22.0506 N   0  0  0  0  0  0
  -25.3551  -15.2209   20.4332 N   0  0  0  0  0  0
  -31.3003  -16.2597   20.1575 O   0  0  0  0  0  0
  -21.6670   -6.8914   21.4248 O   0  0  0  0  0  0
  -22.3263  -14.5387   20.6788 O   0  0  0  0  0  0
  -24.7357  -31.7341   23.1059 C   0  0  0  0  0  0
  -25.9670  -32.4148   23.7810 C   0  0  1  0  0  0
  -27.2554  -26.1545   20.2647 C   0  0  0  0  0  0
  -25.6019  -33.8005   24.1636 N   0  0  0  0  0  0
  -23.5864  -30.3096   21.4734 C   0  0  2  0  0  0
  -25.0488  -28.5320   20.1367 C   0  0  0  0  0  0
  -22.7997  -29.3962   22.4572 C   0  0  0  0  0  0
  -18.0371  -28.1449   22.8427 C   0  0  0  0  0  0
  -24.1496  -36.7016   23.2667 C   0  0  0  0  0  0
  -26.1849  -30.2853   21.4529 C   0  0  0  0  0  0
  -26.2453  -28.7877   20.8145 C   0  0  0  0  0  0
  -27.3043  -27.6477   20.8288 C   0  0  0  0  0  0
  -26.0211  -26.2482   19.5206 C   0  0  0  0  0  0
  -25.0086  -27.2921   19.4634 C   0  0  0  0  0  0
  -23.8699  -29.5528   20.1341 C   0  0  0  0  0  0
  -25.4166  -36.2710   24.0243 C   0  0  1  0  0  0
  -20.6030  -28.3829   23.1046 C   0  0  2  0  0  0
  -20.6807  -26.9438   22.5415 C   0  0  0  0  0  0
  -19.5794  -26.6351   21.5223 C   0  0  0  0  0  0
  -18.1976  -26.7965   22.1609 C   0  0  0  0  0  0
  -19.1650  -28.8976   23.2700 C   0  0  0  0  0  0
  -18.9547  -30.1546   23.8768 C   0  0  0  0  0  0
  -17.6531  -30.6617   24.0538 C   0  0  0  0  0  0
  -25.9179  -34.9115   23.4820 C   0  0  0  0  0  0
  -16.5417  -29.9089   23.6364 C   0  0  0  0  0  0
  -16.7348  -28.6515   23.0376 C   0  0  0  0  0  0
  -26.4679  -31.6422   25.0657 C   0  0  0  0  0  0
  -25.3605  -31.3885   26.1171 C   0  0  0  0  0  0
  -27.0702  -30.2710   24.6944 C   0  0  0  0  0  0
  -27.6020  -32.4417   25.7503 C   0  0  0  0  0  0
  -27.5548  -37.1658   24.8464 C   0  0  0  0  0  0
  -21.4597  -29.2964   22.3307 N   0  0  0  0  0  0
  -26.4245  -37.3533   23.9412 N   0  0  0  0  0  0
  -24.8663  -30.8232   22.0623 N   0  0  0  0  0  0
  -23.4182  -28.7660   23.3173 O   0  0  0  0  0  0
  -28.1678  -24.6999   20.3196 O   0  0  0  0  0  0
  -26.5902  -34.8802   22.4495 O   0  0  0  0  0  0
  -23.6262  -32.0669   23.5664 O   0  0  0  0  0  0
  -28.1629  -22.6483   20.2373 C   0  0  0  0  0  0
  -29.1091  -20.5560   20.2925 C   0  0  0  0  0  0
  -29.0728  -18.5061   20.3040 O   0  0  0  0  0  0
  -31.2793  -14.0166   19.1378 H   0  0  0  0  0  0
  -30.6607  -12.9592   20.3459 H   0  0  0  0  0  0
  -30.1896  -12.0655   18.0370 H   0  0  0  0  0  0
  -29.4281  -13.5693   17.5846 H   0  0  0  0  0  0
  -28.3815  -11.4407   19.4547 H   0  0  0  0  0  0
  -27.5814  -12.1081   18.0457 H   0  0  0  0  0  0
  -27.3265  -14.2135   19.1067 H   0  0  0  0  0  0
  -28.8858  -13.3440   21.5777 H   0  0  0  0  0  0
  -27.9070  -14.7721   21.4846 H   0  0  0  0  0  0
  -25.2846   -9.5695   22.4747 H   0  0  0  0  0  0
  -24.0041   -7.4673   22.7486 H   0  0  0  0  0  0
  -21.0914   -8.8825   19.8947 H   0  0  0  0  0  0
  -22.3812  -10.9684   19.6133 H   0  0  0  0  0  0
  -21.2030   -7.6161   23.9723 H   0  0  0  0  0  0
  -21.1485   -6.0527   25.9076 H   0  0  0  0  0  0
  -22.0589   -2.7620   23.2834 H   0  0  0  0  0  0
  -22.4016  -11.9744   22.4901 H   0  0  0  0  0  0
  -21.0923  -13.0998   22.2709 H   0  0  0  0  0  0
  -24.5800  -15.8636   20.5550 H   0  0  0  0  0  0
  -26.2054  -15.6770   20.1269 H   0  0  0  0  0  0
  -26.7818  -32.4511   23.0570 H   0  0  0  0  0  0
  -24.9980  -33.8948   24.9669 H   0  0  0  0  0  0
  -22.9439  -31.1599   21.2351 H   0  0  0  0  0  0
  -23.3793  -35.9306   23.3221 H   0  0  0  0  0  0
  -24.3548  -36.8822   22.2104 H   0  0  0  0  0  0
  -23.7225  -37.6129   23.6862 H   0  0  0  0  0  0
  -26.4415  -30.9714   20.6448 H   0  0  0  0  0  0
  -27.0177  -30.3722   22.1369 H   0  0  0  0  0  0
  -28.1948  -27.8773   21.3966 H   0  0  0  0  0  0
  -25.7671  -25.3538   18.9693 H   0  0  0  0  0  0
  -24.1239  -27.0740   18.8809 H   0  0  0  0  0  0
  -24.0885  -30.2879   19.3588 H   0  0  0  0  0  0
  -22.9643  -29.0451   19.7982 H   0  0  0  0  0  0
  -25.1401  -36.1390   25.0729 H   0  0  0  0  0  0
  -21.0090  -28.3493   24.1183 H   0  0  0  0  0  0
  -20.5619  -26.2468   23.3725 H   0  0  0  0  0  0
  -21.6665  -26.7295   22.1268 H   0  0  0  0  0  0
  -19.6940  -25.6228   21.1334 H   0  0  0  0  0  0
  -19.6756  -27.3093   20.6701 H   0  0  0  0  0  0
  -17.4250  -26.6713   21.4007 H   0  0  0  0  0  0
  -18.0342  -26.0138   22.9031 H   0  0  0  0  0  0
  -19.8024  -30.7391   24.2084 H   0  0  0  0  0  0
  -17.5081  -31.6283   24.5167 H   0  0  0  0  0  0
  -15.5413  -30.2952   23.7763 H   0  0  0  0  0  0
  -15.8748  -28.0793   22.7164 H   0  0  0  0  0  0
  -24.5850  -30.7181   25.7447 H   0  0  0  0  0  0
  -24.8737  -32.3150   26.4225 H   0  0  0  0  0  0
  -25.7657  -30.9283   27.0191 H   0  0  0  0  0  0
  -26.3513  -29.6145   24.2036 H   0  0  0  0  0  0
  -27.4018  -29.7386   25.5869 H   0  0  0  0  0  0
  -27.9529  -30.3726   24.0630 H   0  0  0  0  0  0
  -27.2489  -33.3854   26.1674 H   0  0  0  0  0  0
  -28.4028  -32.6764   25.0478 H   0  0  0  0  0  0
  -28.0471  -31.8833   26.5748 H   0  0  0  0  0  0
  -28.2488  -38.0022   24.7530 H   0  0  0  0  0  0
  -28.1119  -36.2537   24.6267 H   0  0  0  0  0  0
  -27.2264  -37.1249   25.8865 H   0  0  0  0  0  0
  -21.0034  -29.8530   21.6213 H   0  0  0  0  0  0
  -26.0021  -38.2552   24.1448 H   0  0  0  0  0  0
  -27.4076  -22.4986   21.0086 H   0  0  0  0  0  0
  -27.6029  -22.5536   19.3072 H   0  0  0  0  0  0
  -29.8290  -20.6743   19.4829 H   0  0  0  0  0  0
  -29.7129  -20.6754   21.1918 H   0  0  0  0  0  0
  1 25  1  0  0  0
  1 30  2  0  0  0
  1 73  1  0  0  0
  2  3  1  0  0  0
  2 25  1  0  0  0
  2 74  1  0  0  0
  2 75  1  0  0  0
  3  4  1  0  0  0
  3 76  1  0  0  0
  3 77  1  0  0  0
  4  5  1  0  0  0
  4 78  1  0  0  0
  4 79  1  0  0  0
  5  6  1  0  0  0
  5 26  1  0  0  0
  5 80  1  0  0  0
  6 25  1  0  0  0
  6 81  1  0  0  0
  6 82  1  0  0  0
  7  8  2  0  0  0
  7 26  1  0  0  0
  7 29  1  0  0  0
  8  9  1  0  0  0
  8 22  1  0  0  0
  9 10  1  0  0  0
  9 27  2  0  0  0
 10 11  2  0  0  0
 10 15  1  0  0  0
 11 12  1  0  0  0
 11 83  1  0  0  0
 12 13  2  0  0  0
 12 84  1  0  0  0
 13 14  1  0  0  0
 13 31  1  0  0  0
 14 15  2  0  0  0
 14 85  1  0  0  0
 15 86  1  0  0  0
 16 17  2  0  0  0
 16 21  1  0  0  0
 16 31  1  0  0  0
 17 18  1  0  0  0
 17 87  1  0  0  0
 18 19  2  0  0  0
 18 88  1  0  0  0
 19 20  1  0  0  0
 19 24  1  0  0  0
 20 21  2  0  0  0
 20 89  1  0  0  0
 21 23  1  0  0  0
 22 28  1  0  0  0
 22 32  2  0  0  0
 26 27  1  0  0  0
 28 90  1  0  0  0
 28 91  1  0  0  0
 29 92  1  0  0  0
 29 93  1  0  0  0
 33 34  1  0  0  0
 33 66  1  0  0  0
 33 70  2  0  0  0
 34 36  1  0  0  0
 34 59  1  0  0  0
 34 94  1  0  0  0
 35 44  2  0  0  0
 35 45  1  0  0  0
 35 68  1  0  0  0
 36 56  1  0  0  0
 36 95  1  0  0  0
 37 39  1  0  0  0
 37 47  1  0  0  0
 37 66  1  0  0  0
 37 96  1  0  0  0
 38 43  2  0  0  0
 38 46  1  0  0  0
 38 47  1  0  0  0
 39 64  1  0  0  0
 39 67  2  0  0  0
 40 52  1  0  0  0
 40 53  2  0  0  0
 40 58  1  0  0  0
 41 97  1  0  0  0
 41 98  1  0  0  0
 41 99  1  0  0  0
 41 48  1  0  0  0
 42 43  1  0  0  0
 42 66  1  0  0  0
 42100  1  0  0  0
 42101  1  0  0  0
 43 44  1  0  0  0
 44102  1  0  0  0
 45 46  2  0  0  0
 45103  1  0  0  0
 46104  1  0  0  0
 47105  1  0  0  0
 47106  1  0  0  0
 48 56  1  0  0  0
 48 65  1  0  0  0
 48107  1  0  0  0
 49 50  1  0  0  0
 49 53  1  0  0  0
 49 64  1  0  0  0
 49108  1  0  0  0
 50 51  1  0  0  0
 50109  1  0  0  0
 50110  1  0  0  0
 51 52  1  0  0  0
 51111  1  0  0  0
 51112  1  0  0  0
 52113  1  0  0  0
 52114  1  0  0  0
 53 54  1  0  0  0
 54 55  2  0  0  0
 54115  1  0  0  0
 55 57  1  0  0  0
 55116  1  0  0  0
 56 69  2  0  0  0
 57 58  2  0  0  0
 57117  1  0  0  0
 58118  1  0  0  0
 59 60  1  0  0  0
 59 61  1  0  0  0
 59 62  1  0  0  0
 60119  1  0  0  0
 60120  1  0  0  0
 60121  1  0  0  0
 61122  1  0  0  0
 61123  1  0  0  0
 61124  1  0  0  0
 62125  1  0  0  0
 62126  1  0  0  0
 62127  1  0  0  0
 63 65  1  0  0  0
 63128  1  0  0  0
 63129  1  0  0  0
 63130  1  0  0  0
 64131  1  0  0  0
 65132  1  0  0  0
 68 71  1  0  0  0
 71 72  1  0  0  0
 71133  1  0  0  0
 71134  1  0  0  0
 72 73  1  0  0  0
 72135  1  0  0  0
 72136  1  0  0  0
M  ISO  4   1 100  68 101  71 101  73 100
M  END
> <chiral flag>
0

> <version>
0

> <s_m_source_file>
/data/baiqing/PycharmProjects/Reinvent-master-3.2/result/LINK_invent/BTK/process_docking_weight1_custom_sum_contain_oxygen_bond_distance_aromatic_linkinvent_7_9_3/rearranged_h_0001.sdf

> <i_m_source_file_index>
21

> <r_mmod_Potential_Energy-OPLS-2005>
6478.73583984375

> <r_mmod_Stretch_Energy-OPLS-2005>
3177.73461914062

> <r_mmod_Bend_Energy-OPLS-2005>
1063.67736816406

> <r_mmod_Torsional_Energy-OPLS-2005>
189.976089477539

> <r_mmod_Improper_Torsional_Energy-OPLS-2005>
3.2452130317688

> <r_mmod_Van_der_Waal_Energy-OPLS-2005>
117.621681213379

> <r_mmod_Electrostatic_Energy-OPLS-2005>
-321.906036376953

> <r_mmod_Solvation_Energy-OPLS-2005>
-209.133285522461

> <b_mmod_Minimization_Converged-OPLS-2005>
1

> <r_mmod_RMS_Derivative-OPLS-2005>
0.0454980842769146

$$$$
21
                    3D
 Structure written by MMmdl.
141148  0  0  1  0            999 V2000
  -30.3884  -15.5210   20.3293 C   0  0  0  0  0  0
  -30.4292  -12.9599   19.5680 C   0  0  0  0  0  0
  -29.5548  -12.6217   18.3288 C   0  0  0  0  0  0
  -28.1128  -12.2988   18.7519 C   0  0  0  0  0  0
  -27.5912  -13.3043   19.8063 C   0  0  2  0  0  0
  -28.5901  -13.6025   20.9425 C   0  0  0  0  0  0
  -25.2301  -13.8296   20.5755 C   0  0  0  0  0  0
  -24.1689  -13.0445   20.9254 C   0  0  0  0  0  0
  -24.6384  -11.6953   20.8737 C   0  0  0  0  0  0
  -23.9098  -10.4298   21.0391 C   0  0  0  0  0  0
  -24.3643   -9.4215   21.9174 C   0  0  0  0  0  0
  -23.6311   -8.2252   22.0751 C   0  0  0  0  0  0
  -22.4291   -8.0286   21.3544 C   0  0  0  0  0  0
  -21.9930   -9.0258   20.4643 C   0  0  0  0  0  0
  -22.7265  -10.2133   20.3046 C   0  0  0  0  0  0
  -21.6860   -6.0740   22.5279 C   0  0  0  0  0  0
  -21.4020   -6.5642   23.8213 C   0  0  0  0  0  0
  -21.3661   -5.6794   24.9174 C   0  0  0  0  0  0
  -21.6044   -4.3056   24.7224 C   0  0  0  0  0  0
  -21.8819   -3.8149   23.4345 C   0  0  0  0  0  0
  -21.9195   -4.6967   22.3402 C   0  0  0  0  0  0
  -22.7710  -13.5176   21.1919 C   0  0  0  0  0  0
  -22.1662   -4.2152   21.0979 F   0  0  0  0  0  0
  -21.5627   -3.4539   25.7736 F   0  0  0  0  0  0
  -29.8157  -14.1290   20.3237 N   0  0  0  0  0  0
  -26.2713  -12.9611   20.3130 N   0  0  0  0  0  0
  -25.9316  -11.6688   20.5642 N   0  0  0  0  0  0
  -22.0388  -12.8147   22.0477 N   0  0  0  0  0  0
  -25.3951  -15.2040   20.4271 N   0  0  0  0  0  0
  -31.6108  -15.5046   20.1156 O   0  0  0  0  0  0
  -21.6650   -6.8885   21.4243 O   0  0  0  0  0  0
  -22.3379  -14.5476   20.6765 O   0  0  0  0  0  0
  -24.6780  -31.8068   23.1579 C   0  0  0  0  0  0
  -25.9390  -32.4502   23.8100 C   0  0  1  0  0  0
  -27.2228  -26.7623   20.2042 C   0  0  0  0  0  0
  -25.5994  -33.8325   24.1989 N   0  0  0  0  0  0
  -23.5013  -30.4122   21.5103 C   0  0  2  0  0  0
  -24.9581  -28.7674   20.1173 C   0  0  0  0  0  0
  -22.7741  -29.4351   22.4729 C   0  0  0  0  0  0
  -18.0335  -28.1418   22.8458 C   0  0  0  0  0  0
  -24.1496  -36.7169   23.2651 C   0  0  0  0  0  0
  -26.0794  -30.5575   21.4163 C   0  0  0  0  0  0
  -26.1448  -29.1287   20.7668 C   0  0  0  0  0  0
  -27.2626  -28.1500   20.7868 C   0  0  0  0  0  0
  -26.0045  -26.6004   19.4985 C   0  0  0  0  0  0
  -24.9226  -27.5264   19.4615 C   0  0  0  0  0  0
  -23.7524  -29.7160   20.1427 C   0  0  0  0  0  0
  -25.4143  -36.2916   24.0286 C   0  0  1  0  0  0
  -20.5968  -28.3774   23.1153 C   0  0  2  0  0  0
  -20.6805  -26.9440   22.5401 C   0  0  0  0  0  0
  -19.5779  -26.6373   21.5215 C   0  0  0  0  0  0
  -18.1962  -26.7947   22.1620 C   0  0  0  0  0  0
  -19.1600  -28.8920   23.2788 C   0  0  0  0  0  0
  -18.9506  -30.1505   23.8831 C   0  0  0  0  0  0
  -17.6497  -30.6602   24.0551 C   0  0  0  0  0  0
  -25.9119  -34.9303   23.4969 C   0  0  0  0  0  0
  -16.5387  -29.9085   23.6348 C   0  0  0  0  0  0
  -16.7315  -28.6507   23.0365 C   0  0  0  0  0  0
  -26.4587  -31.6512   25.0697 C   0  0  0  0  0  0
  -25.3667  -31.3812   26.1321 C   0  0  0  0  0  0
  -27.0512  -30.2855   24.6560 C   0  0  0  0  0  0
  -27.6045  -32.4361   25.7511 C   0  0  0  0  0  0
  -27.5565  -37.1744   24.8467 C   0  0  0  0  0  0
  -21.4394  -29.3035   22.3481 N   0  0  0  0  0  0
  -26.4275  -37.3669   23.9405 N   0  0  0  0  0  0
  -24.7757  -30.9570   22.0807 N   0  0  0  0  0  0
  -23.4214  -28.7937   23.3041 O   0  0  0  0  0  0
  -28.1804  -25.5581   20.2659 O   0  0  0  0  0  0
  -26.5750  -34.8868   22.4580 O   0  0  0  0  0  0
  -23.5812  -32.1118   23.6567 O   0  0  0  0  0  0
  -27.9018  -23.7724   20.2544 C   0  0  0  0  0  0
  -28.9719  -22.2856   20.3020 C   0  0  0  0  0  0
  -28.7164  -20.3925   20.3531 C   0  0  0  0  0  0
  -29.7037  -18.7567   20.3424 C   0  0  0  0  0  0
  -26.7149  -23.4441   20.2054 O   0  0  0  0  0  0
  -29.4472  -17.0506   20.4444 O   0  0  0  0  0  0
  -31.4417  -13.1948   19.2379 H   0  0  0  0  0  0
  -30.5294  -12.0898   20.2192 H   0  0  0  0  0  0
  -29.9823  -11.7843   17.7756 H   0  0  0  0  0  0
  -29.5523  -13.4729   17.6463 H   0  0  0  0  0  0
  -28.1097  -11.2932   19.1741 H   0  0  0  0  0  0
  -27.4531  -12.2706   17.8838 H   0  0  0  0  0  0
  -27.4708  -14.2369   19.2531 H   0  0  0  0  0  0
  -28.7882  -12.7148   21.5452 H   0  0  0  0  0  0
  -28.1814  -14.3555   21.6182 H   0  0  0  0  0  0
  -25.2784   -9.5696   22.4755 H   0  0  0  0  0  0
  -24.0017   -7.4647   22.7476 H   0  0  0  0  0  0
  -21.0860   -8.8779   19.8951 H   0  0  0  0  0  0
  -22.3718  -10.9671   19.6157 H   0  0  0  0  0  0
  -21.2015   -7.6151   23.9718 H   0  0  0  0  0  0
  -21.1483   -6.0523   25.9077 H   0  0  0  0  0  0
  -22.0595   -2.7611   23.2844 H   0  0  0  0  0  0
  -22.4038  -11.9820   22.4861 H   0  0  0  0  0  0
  -21.0999  -13.1141   22.2693 H   0  0  0  0  0  0
  -24.6348  -15.8612   20.5634 H   0  0  0  0  0  0
  -26.2581  -15.6494   20.1397 H   0  0  0  0  0  0
  -26.7467  -32.4990   23.0811 H   0  0  0  0  0  0
  -25.0064  -33.9376   25.0089 H   0  0  0  0  0  0
  -22.8233  -31.2482   21.3262 H   0  0  0  0  0  0
  -23.3772  -35.9483   23.3272 H   0  0  0  0  0  0
  -24.3564  -36.8867   22.2073 H   0  0  0  0  0  0
  -23.7241  -37.6334   23.6748 H   0  0  0  0  0  0
  -26.2778  -31.2857   20.6288 H   0  0  0  0  0  0
  -26.9325  -30.6226   22.0794 H   0  0  0  0  0  0
  -28.1552  -28.4278   21.3291 H   0  0  0  0  0  0
  -25.8484  -25.6604   18.9893 H   0  0  0  0  0  0
  -24.0266  -27.2415   18.9273 H   0  0  0  0  0  0
  -23.9238  -30.4791   19.3827 H   0  0  0  0  0  0
  -22.8584  -29.1803   19.8187 H   0  0  0  0  0  0
  -25.1351  -36.1689   25.0777 H   0  0  0  0  0  0
  -21.0052  -28.3395   24.1278 H   0  0  0  0  0  0
  -20.5673  -26.2397   23.3658 H   0  0  0  0  0  0
  -21.6666  -26.7391   22.1216 H   0  0  0  0  0  0
  -19.6936  -25.6266   21.1288 H   0  0  0  0  0  0
  -19.6721  -27.3146   20.6715 H   0  0  0  0  0  0
  -17.4231  -26.6688   21.4024 H   0  0  0  0  0  0
  -18.0354  -26.0105   22.9032 H   0  0  0  0  0  0
  -19.7981  -30.7338   24.2171 H   0  0  0  0  0  0
  -17.5047  -31.6275   24.5167 H   0  0  0  0  0  0
  -15.5384  -30.2965   23.7710 H   0  0  0  0  0  0
  -15.8717  -28.0802   22.7118 H   0  0  0  0  0  0
  -24.5875  -30.7136   25.7623 H   0  0  0  0  0  0
  -24.8830  -32.3029   26.4565 H   0  0  0  0  0  0
  -25.7857  -30.9096   27.0218 H   0  0  0  0  0  0
  -26.3219  -29.6482   24.1549 H   0  0  0  0  0  0
  -27.3953  -29.7284   25.5285 H   0  0  0  0  0  0
  -27.9197  -30.3991   24.0070 H   0  0  0  0  0  0
  -27.2590  -33.3726   26.1903 H   0  0  0  0  0  0
  -28.3952  -32.6821   25.0411 H   0  0  0  0  0  0
  -28.0608  -31.8616   26.5582 H   0  0  0  0  0  0
  -28.2558  -38.0060   24.7507 H   0  0  0  0  0  0
  -28.1085  -36.2583   24.6306 H   0  0  0  0  0  0
  -27.2278  -37.1394   25.8869 H   0  0  0  0  0  0
  -20.9685  -29.8704   21.6568 H   0  0  0  0  0  0
  -26.0108  -38.2720   24.1412 H   0  0  0  0  0  0
  -29.6240  -22.4945   21.1498 H   0  0  0  0  0  0
  -29.6168  -22.4438   19.4380 H   0  0  0  0  0  0
  -28.0084  -20.2377   19.5390 H   0  0  0  0  0  0
  -28.0973  -20.2764   21.2425 H   0  0  0  0  0  0
  -30.2968  -18.8315   19.4309 H   0  0  0  0  0  0
  -30.4379  -18.9081   21.1337 H   0  0  0  0  0  0
  1 25  1  0  0  0
  1 30  2  0  0  0
  1 76  1  0  0  0
  2  3  1  0  0  0
  2 25  1  0  0  0
  2 77  1  0  0  0
  2 78  1  0  0  0
  3  4  1  0  0  0
  3 79  1  0  0  0
  3 80  1  0  0  0
  4  5  1  0  0  0
  4 81  1  0  0  0
  4 82  1  0  0  0
  5  6  1  0  0  0
  5 26  1  0  0  0
  5 83  1  0  0  0
  6 25  1  0  0  0
  6 84  1  0  0  0
  6 85  1  0  0  0
  7  8  2  0  0  0
  7 26  1  0  0  0
  7 29  1  0  0  0
  8  9  1  0  0  0
  8 22  1  0  0  0
  9 10  1  0  0  0
  9 27  2  0  0  0
 10 11  2  0  0  0
 10 15  1  0  0  0
 11 12  1  0  0  0
 11 86  1  0  0  0
 12 13  2  0  0  0
 12 87  1  0  0  0
 13 14  1  0  0  0
 13 31  1  0  0  0
 14 15  2  0  0  0
 14 88  1  0  0  0
 15 89  1  0  0  0
 16 17  2  0  0  0
 16 21  1  0  0  0
 16 31  1  0  0  0
 17 18  1  0  0  0
 17 90  1  0  0  0
 18 19  2  0  0  0
 18 91  1  0  0  0
 19 20  1  0  0  0
 19 24  1  0  0  0
 20 21  2  0  0  0
 20 92  1  0  0  0
 21 23  1  0  0  0
 22 28  1  0  0  0
 22 32  2  0  0  0
 26 27  1  0  0  0
 28 93  1  0  0  0
 28 94  1  0  0  0
 29 95  1  0  0  0
 29 96  1  0  0  0
 33 34  1  0  0  0
 33 66  1  0  0  0
 33 70  2  0  0  0
 34 36  1  0  0  0
 34 59  1  0  0  0
 34 97  1  0  0  0
 35 44  2  0  0  0
 35 45  1  0  0  0
 35 68  1  0  0  0
 36 56  1  0  0  0
 36 98  1  0  0  0
 37 39  1  0  0  0
 37 47  1  0  0  0
 37 66  1  0  0  0
 37 99  1  0  0  0
 38 43  2  0  0  0
 38 46  1  0  0  0
 38 47  1  0  0  0
 39 64  1  0  0  0
 39 67  2  0  0  0
 40 52  1  0  0  0
 40 53  2  0  0  0
 40 58  1  0  0  0
 41100  1  0  0  0
 41101  1  0  0  0
 41102  1  0  0  0
 41 48  1  0  0  0
 42 43  1  0  0  0
 42 66  1  0  0  0
 42103  1  0  0  0
 42104  1  0  0  0
 43 44  1  0  0  0
 44105  1  0  0  0
 45 46  2  0  0  0
 45106  1  0  0  0
 46107  1  0  0  0
 47108  1  0  0  0
 47109  1  0  0  0
 48 56  1  0  0  0
 48 65  1  0  0  0
 48110  1  0  0  0
 49 50  1  0  0  0
 49 53  1  0  0  0
 49 64  1  0  0  0
 49111  1  0  0  0
 50 51  1  0  0  0
 50112  1  0  0  0
 50113  1  0  0  0
 51 52  1  0  0  0
 51114  1  0  0  0
 51115  1  0  0  0
 52116  1  0  0  0
 52117  1  0  0  0
 53 54  1  0  0  0
 54 55  2  0  0  0
 54118  1  0  0  0
 55 57  1  0  0  0
 55119  1  0  0  0
 56 69  2  0  0  0
 57 58  2  0  0  0
 57120  1  0  0  0
 58121  1  0  0  0
 59 60  1  0  0  0
 59 61  1  0  0  0
 59 62  1  0  0  0
 60122  1  0  0  0
 60123  1  0  0  0
 60124  1  0  0  0
 61125  1  0  0  0
 61126  1  0  0  0
 61127  1  0  0  0
 62128  1  0  0  0
 62129  1  0  0  0
 62130  1  0  0  0
 63 65  1  0  0  0
 63131  1  0  0  0
 63132  1  0  0  0
 63133  1  0  0  0
 64134  1  0  0  0
 65135  1  0  0  0
 68 71  1  0  0  0
 71 72  1  0  0  0
 71 75  2  0  0  0
 72 73  1  0  0  0
 72136  1  0  0  0
 72137  1  0  0  0
 73 74  1  0  0  0
 73138  1  0  0  0
 73139  1  0  0  0
 74 76  1  0  0  0
 74140  1  0  0  0
 74141  1  0  0  0
M  ISO  4   1 100  68 101  71 101  76 100
M  END
> <chiral flag>
0

> <version>
0

> <s_m_source_file>
/data/baiqing/PycharmProjects/Reinvent-master-3.2/result/LINK_invent/BTK/process_docking_weight1_custom_sum_contain_oxygen_bond_distance_aromatic_linkinvent_7_9_3/rearranged_h_0001.sdf

> <i_m_source_file_index>
22

> <r_mmod_Potential_Energy-OPLS-2005>
2236.69995117188

> <r_mmod_Stretch_Energy-OPLS-2005>
1169.49536132812

> <r_mmod_Bend_Energy-OPLS-2005>
574.778747558594

> <r_mmod_Torsional_Energy-OPLS-2005>
166.942825317383

> <r_mmod_Improper_Torsional_Energy-OPLS-2005>
2.59073185920715

> <r_mmod_Van_der_Waal_Energy-OPLS-2005>
108.714179992676

> <r_mmod_Electrostatic_Energy-OPLS-2005>
-333.104919433594

> <r_mmod_Solvation_Energy-OPLS-2005>
-201.926712036133

> <b_mmod_Minimization_Converged-OPLS-2005>
1

> <r_mmod_RMS_Derivative-OPLS-2005>
0.0445126406848431

$$$$
22
                    3D
 Structure written by MMmdl.
137144  0  0  1  0            999 V2000
  -29.9622  -16.5635   20.2664 C   0  0  0  0  0  0
  -30.3146  -13.7964   19.5233 C   0  0  0  0  0  0
  -29.5702  -12.9451   18.4142 C   0  0  0  0  0  0
  -28.2376  -12.3814   18.9086 C   0  0  0  0  0  0
  -27.5746  -13.4257   19.8177 C   0  0  2  0  0  0
  -28.5152  -14.1357   20.8613 C   0  0  0  0  0  0
  -25.2174  -13.8479   20.5951 C   0  0  0  0  0  0
  -24.1675  -13.0467   20.9341 C   0  0  0  0  0  0
  -24.6541  -11.7031   20.8745 C   0  0  0  0  0  0
  -23.9255  -10.4321   21.0342 C   0  0  0  0  0  0
  -24.3739   -9.4228   21.9149 C   0  0  0  0  0  0
  -23.6364   -8.2283   22.0747 C   0  0  0  0  0  0
  -22.4340   -8.0323   21.3544 C   0  0  0  0  0  0
  -22.0014   -9.0304   20.4634 C   0  0  0  0  0  0
  -22.7395  -10.2158   20.3018 C   0  0  0  0  0  0
  -21.6878   -6.0765   22.5277 C   0  0  0  0  0  0
  -21.4033   -6.5657   23.8214 C   0  0  0  0  0  0
  -21.3665   -5.6802   24.9171 C   0  0  0  0  0  0
  -21.6043   -4.3064   24.7217 C   0  0  0  0  0  0
  -21.8816   -3.8163   23.4335 C   0  0  0  0  0  0
  -21.9200   -4.6987   22.3396 C   0  0  0  0  0  0
  -22.7650  -13.5092   21.1938 C   0  0  0  0  0  0
  -22.1663   -4.2170   21.0973 F   0  0  0  0  0  0
  -21.5624   -3.4543   25.7727 F   0  0  0  0  0  0
  -29.5188  -15.0444   20.1465 N   0  0  0  0  0  0
  -26.2805  -13.0063   20.3476 N   0  0  0  0  0  0
  -25.9548  -11.6990   20.5678 N   0  0  0  0  0  0
  -22.0351  -12.8040   22.0489 N   0  0  0  0  0  0
  -25.3555  -15.2242   20.4383 N   0  0  0  0  0  0
  -31.2063  -16.3142   20.2293 O   0  0  0  0  0  0
  -21.6677   -6.8928   21.4248 O   0  0  0  0  0  0
  -22.3283  -14.5375   20.6771 O   0  0  0  0  0  0
  -24.7449  -31.7216   23.0979 C   0  0  0  0  0  0
  -25.9712  -32.4091   23.7768 C   0  0  1  0  0  0
  -27.2626  -26.0606   20.2671 C   0  0  0  0  0  0
  -25.6018  -33.7953   24.1581 N   0  0  0  0  0  0
  -23.5996  -30.2922   21.4680 C   0  0  2  0  0  0
  -25.0624  -28.4936   20.1392 C   0  0  0  0  0  0
  -22.8035  -29.3895   22.4550 C   0  0  0  0  0  0
  -18.0376  -28.1454   22.8421 C   0  0  0  0  0  0
  -24.1496  -36.6992   23.2671 C   0  0  0  0  0  0
  -26.1999  -30.2411   21.4589 C   0  0  0  0  0  0
  -26.2597  -28.7329   20.8212 C   0  0  0  0  0  0
  -27.3097  -27.5690   20.8335 C   0  0  0  0  0  0
  -26.0272  -26.1946   19.5192 C   0  0  0  0  0  0
  -25.0234  -27.2541   19.4619 C   0  0  0  0  0  0
  -23.8874  -29.5253   20.1333 C   0  0  0  0  0  0
  -25.4170  -36.2677   24.0236 C   0  0  1  0  0  0
  -20.6038  -28.3836   23.1031 C   0  0  2  0  0  0
  -20.6806  -26.9436   22.5420 C   0  0  0  0  0  0
  -19.5796  -26.6348   21.5224 C   0  0  0  0  0  0
  -18.1977  -26.7969   22.1607 C   0  0  0  0  0  0
  -19.1657  -28.8984   23.2686 C   0  0  0  0  0  0
  -18.9553  -30.1552   23.8759 C   0  0  0  0  0  0
  -17.6536  -30.6619   24.0537 C   0  0  0  0  0  0
  -25.9187  -34.9084   23.4798 C   0  0  0  0  0  0
  -16.5422  -29.9090   23.6366 C   0  0  0  0  0  0
  -16.7352  -28.6518   23.0376 C   0  0  0  0  0  0
  -26.4693  -31.6408   25.0652 C   0  0  0  0  0  0
  -25.3596  -31.3898   26.1149 C   0  0  0  0  0  0
  -27.0730  -30.2690   24.7003 C   0  0  0  0  0  0
  -27.6017  -32.4426   25.7501 C   0  0  0  0  0  0
  -27.5543  -37.1648   24.8466 C   0  0  0  0  0  0
  -21.4628  -29.2949   22.3282 N   0  0  0  0  0  0
  -26.4242  -37.3509   23.9408 N   0  0  0  0  0  0
  -24.8802  -30.8007   22.0600 N   0  0  0  0  0  0
  -23.4175  -28.7613   23.3197 O   0  0  0  0  0  0
  -28.1668  -24.5661   20.3212 O   0  0  0  0  0  0
  -26.5925  -34.8791   22.4483 O   0  0  0  0  0  0
  -23.6336  -32.0588   23.5524 O   0  0  0  0  0  0
  -29.2006  -20.3375   20.3201 C   0  0  0  0  0  0
  -28.2004  -22.4649   20.2188 C   0  0  0  0  0  0
  -29.3170  -18.2279   20.2702 N   0  0  0  0  0  0
  -31.2155  -14.1817   19.0448 H   0  0  0  0  0  0
  -30.7050  -13.1434   20.3066 H   0  0  0  0  0  0
  -30.2109  -12.1390   18.0541 H   0  0  0  0  0  0
  -29.3823  -13.5901   17.5547 H   0  0  0  0  0  0
  -28.4305  -11.4738   19.4819 H   0  0  0  0  0  0
  -27.5913  -12.1016   18.0755 H   0  0  0  0  0  0
  -27.3204  -14.2160   19.1091 H   0  0  0  0  0  0
  -28.9720  -13.4238   21.5512 H   0  0  0  0  0  0
  -27.9168  -14.7884   21.4973 H   0  0  0  0  0  0
  -25.2871   -9.5690   22.4748 H   0  0  0  0  0  0
  -24.0047   -7.4683   22.7489 H   0  0  0  0  0  0
  -21.0938   -8.8851   19.8945 H   0  0  0  0  0  0
  -22.3854  -10.9697   19.6127 H   0  0  0  0  0  0
  -21.2035   -7.6165   23.9725 H   0  0  0  0  0  0
  -21.1486   -6.0529   25.9075 H   0  0  0  0  0  0
  -22.0587   -2.7625   23.2829 H   0  0  0  0  0  0
  -22.4039  -11.9742   22.4895 H   0  0  0  0  0  0
  -21.0937  -13.0980   22.2674 H   0  0  0  0  0  0
  -24.5768  -15.8638   20.5540 H   0  0  0  0  0  0
  -26.2060  -15.6839   20.1380 H   0  0  0  0  0  0
  -26.7876  -32.4443   23.0543 H   0  0  0  0  0  0
  -24.9961  -33.8879   24.9601 H   0  0  0  0  0  0
  -22.9629  -31.1444   21.2211 H   0  0  0  0  0  0
  -23.3792  -35.9283   23.3224 H   0  0  0  0  0  0
  -24.3542  -36.8804   22.2107 H   0  0  0  0  0  0
  -23.7229  -37.6104   23.6874 H   0  0  0  0  0  0
  -26.4659  -30.9211   20.6487 H   0  0  0  0  0  0
  -27.0298  -30.3291   22.1459 H   0  0  0  0  0  0
  -28.1985  -27.7908   21.4071 H   0  0  0  0  0  0
  -25.7596  -25.3099   18.9588 H   0  0  0  0  0  0
  -24.1415  -27.0455   18.8719 H   0  0  0  0  0  0
  -24.1127  -30.2559   19.3556 H   0  0  0  0  0  0
  -22.9802  -29.0216   19.7958 H   0  0  0  0  0  0
  -25.1411  -36.1346   25.0723 H   0  0  0  0  0  0
  -21.0093  -28.3507   24.1170 H   0  0  0  0  0  0
  -20.5606  -26.2478   23.3738 H   0  0  0  0  0  0
  -21.6663  -26.7276   22.1281 H   0  0  0  0  0  0
  -19.6940  -25.6222   21.1342 H   0  0  0  0  0  0
  -19.6763  -27.3084   20.6699 H   0  0  0  0  0  0
  -17.4253  -26.6718   21.4002 H   0  0  0  0  0  0
  -18.0338  -26.0144   22.9029 H   0  0  0  0  0  0
  -19.8031  -30.7398   24.2071 H   0  0  0  0  0  0
  -17.5087  -31.6284   24.5168 H   0  0  0  0  0  0
  -15.5417  -30.2952   23.7771 H   0  0  0  0  0  0
  -15.8752  -28.0794   22.7169 H   0  0  0  0  0  0
  -24.5845  -30.7190   25.7424 H   0  0  0  0  0  0
  -24.8725  -32.3171   26.4173 H   0  0  0  0  0  0
  -25.7627  -30.9316   27.0189 H   0  0  0  0  0  0
  -26.3552  -29.6093   24.2123 H   0  0  0  0  0  0
  -27.4038  -29.7408   25.5956 H   0  0  0  0  0  0
  -27.9570  -30.3690   24.0706 H   0  0  0  0  0  0
  -27.2476  -33.3875   26.1635 H   0  0  0  0  0  0
  -28.4042  -32.6752   25.0488 H   0  0  0  0  0  0
  -28.0450  -31.8868   26.5774 H   0  0  0  0  0  0
  -28.2488  -38.0006   24.7515 H   0  0  0  0  0  0
  -28.1107  -36.2518   24.6291 H   0  0  0  0  0  0
  -27.2256  -37.1265   25.8866 H   0  0  0  0  0  0
  -21.0089  -29.8498   21.6159 H   0  0  0  0  0  0
  -26.0011  -38.2526   24.1435 H   0  0  0  0  0  0
  -30.0015  -20.5173   19.6027 H   0  0  0  0  0  0
  -29.6902  -20.4553   21.2869 H   0  0  0  0  0  0
  -27.7199  -22.3753   19.2446 H   0  0  0  0  0  0
  -27.3860  -22.2933   20.9225 H   0  0  0  0  0  0
  -30.3181  -18.3884   20.2986 H   0  0  0  0  0  0
  1 25  1  0  0  0
  1 30  2  0  0  0
  1 73  1  0  0  0
  2  3  1  0  0  0
  2 25  1  0  0  0
  2 74  1  0  0  0
  2 75  1  0  0  0
  3  4  1  0  0  0
  3 76  1  0  0  0
  3 77  1  0  0  0
  4  5  1  0  0  0
  4 78  1  0  0  0
  4 79  1  0  0  0
  5  6  1  0  0  0
  5 26  1  0  0  0
  5 80  1  0  0  0
  6 25  1  0  0  0
  6 81  1  0  0  0
  6 82  1  0  0  0
  7  8  2  0  0  0
  7 26  1  0  0  0
  7 29  1  0  0  0
  8  9  1  0  0  0
  8 22  1  0  0  0
  9 10  1  0  0  0
  9 27  2  0  0  0
 10 11  2  0  0  0
 10 15  1  0  0  0
 11 12  1  0  0  0
 11 83  1  0  0  0
 12 13  2  0  0  0
 12 84  1  0  0  0
 13 14  1  0  0  0
 13 31  1  0  0  0
 14 15  2  0  0  0
 14 85  1  0  0  0
 15 86  1  0  0  0
 16 17  2  0  0  0
 16 21  1  0  0  0
 16 31  1  0  0  0
 17 18  1  0  0  0
 17 87  1  0  0  0
 18 19  2  0  0  0
 18 88  1  0  0  0
 19 20  1  0  0  0
 19 24  1  0  0  0
 20 21  2  0  0  0
 20 89  1  0  0  0
 21 23  1  0  0  0
 22 28  1  0  0  0
 22 32  2  0  0  0
 26 27  1  0  0  0
 28 90  1  0  0  0
 28 91  1  0  0  0
 29 92  1  0  0  0
 29 93  1  0  0  0
 33 34  1  0  0  0
 33 66  1  0  0  0
 33 70  2  0  0  0
 34 36  1  0  0  0
 34 59  1  0  0  0
 34 94  1  0  0  0
 35 44  2  0  0  0
 35 45  1  0  0  0
 35 68  1  0  0  0
 36 56  1  0  0  0
 36 95  1  0  0  0
 37 39  1  0  0  0
 37 47  1  0  0  0
 37 66  1  0  0  0
 37 96  1  0  0  0
 38 43  2  0  0  0
 38 46  1  0  0  0
 38 47  1  0  0  0
 39 64  1  0  0  0
 39 67  2  0  0  0
 40 52  1  0  0  0
 40 53  2  0  0  0
 40 58  1  0  0  0
 41 97  1  0  0  0
 41 98  1  0  0  0
 41 99  1  0  0  0
 41 48  1  0  0  0
 42 43  1  0  0  0
 42 66  1  0  0  0
 42100  1  0  0  0
 42101  1  0  0  0
 43 44  1  0  0  0
 44102  1  0  0  0
 45 46  2  0  0  0
 45103  1  0  0  0
 46104  1  0  0  0
 47105  1  0  0  0
 47106  1  0  0  0
 48 56  1  0  0  0
 48 65  1  0  0  0
 48107  1  0  0  0
 49 50  1  0  0  0
 49 53  1  0  0  0
 49 64  1  0  0  0
 49108  1  0  0  0
 50 51  1  0  0  0
 50109  1  0  0  0
 50110  1  0  0  0
 51 52  1  0  0  0
 51111  1  0  0  0
 51112  1  0  0  0
 52113  1  0  0  0
 52114  1  0  0  0
 53 54  1  0  0  0
 54 55  2  0  0  0
 54115  1  0  0  0
 55 57  1  0  0  0
 55116  1  0  0  0
 56 69  2  0  0  0
 57 58  2  0  0  0
 57117  1  0  0  0
 58118  1  0  0  0
 59 60  1  0  0  0
 59 61  1  0  0  0
 59 62  1  0  0  0
 60119  1  0  0  0
 60120  1  0  0  0
 60121  1  0  0  0
 61122  1  0  0  0
 61123  1  0  0  0
 61124  1  0  0  0
 62125  1  0  0  0
 62126  1  0  0  0
 62127  1  0  0  0
 63 65  1  0  0  0
 63128  1  0  0  0
 63129  1  0  0  0
 63130  1  0  0  0
 64131  1  0  0  0
 65132  1  0  0  0
 68 72  1  0  0  0
 71 72  1  0  0  0
 71 73  1  0  0  0
 71133  1  0  0  0
 71134  1  0  0  0
 72135  1  0  0  0
 72136  1  0  0  0
 73137  1  0  0  0
M  ISO  4   1 100  68 101  72 101  73 100
M  END
> <chiral flag>
0

> <version>
0

> <s_m_source_file>
/data/baiqing/PycharmProjects/Reinvent-master-3.2/result/LINK_invent/BTK/process_docking_weight1_custom_sum_contain_oxygen_bond_distance_aromatic_linkinvent_7_9_3/rearranged_h_0001.sdf

> <i_m_source_file_index>
23

> <r_mmod_Potential_Energy-OPLS-2005>
6948.9697265625

> <r_mmod_Stretch_Energy-OPLS-2005>
3136.46411132812

> <r_mmod_Bend_Energy-OPLS-2005>
1268.50207519531

> <r_mmod_Torsional_Energy-OPLS-2005>
217.324829101562

> <r_mmod_Improper_Torsional_Energy-OPLS-2005>
4.82364273071289

> <r_mmod_Van_der_Waal_Energy-OPLS-2005>
120.95548248291

> <r_mmod_Electrostatic_Energy-OPLS-2005>
-391.247985839844

> <r_mmod_Solvation_Energy-OPLS-2005>
-221.174652099609

> <b_mmod_Minimization_Converged-OPLS-2005>
1

> <r_mmod_RMS_Derivative-OPLS-2005>
0.042349461466074

$$$$
23
                    3D
 Structure written by MMmdl.
148156  0  0  1  0            999 V2000
  -30.5066  -14.9122   20.4364 C   0  0  0  0  0  0
  -30.4572  -12.5594   19.4935 C   0  0  0  0  0  0
  -29.5282  -12.5199   18.2554 C   0  0  0  0  0  0
  -28.0576  -12.3117   18.6710 C   0  0  0  0  0  0
  -27.6394  -13.2328   19.8459 C   0  0  2  0  0  0
  -28.6827  -13.2097   20.9842 C   0  0  0  0  0  0
  -25.2503  -13.8179   20.5680 C   0  0  0  0  0  0
  -24.1804  -13.0432   20.9234 C   0  0  0  0  0  0
  -24.6391  -11.6909   20.8755 C   0  0  0  0  0  0
  -23.9061  -10.4290   21.0411 C   0  0  0  0  0  0
  -24.3611   -9.4205   21.9186 C   0  0  0  0  0  0
  -23.6288   -8.2238   22.0750 C   0  0  0  0  0  0
  -22.4271   -8.0275   21.3541 C   0  0  0  0  0  0
  -21.9904   -9.0252   20.4648 C   0  0  0  0  0  0
  -22.7230  -10.2135   20.3062 C   0  0  0  0  0  0
  -21.6854   -6.0729   22.5277 C   0  0  0  0  0  0
  -21.4013   -6.5632   23.8208 C   0  0  0  0  0  0
  -21.3661   -5.6786   24.9171 C   0  0  0  0  0  0
  -21.6045   -4.3047   24.7224 C   0  0  0  0  0  0
  -21.8820   -3.8140   23.4344 C   0  0  0  0  0  0
  -21.9192   -4.6957   22.3400 C   0  0  0  0  0  0
  -22.7825  -13.5222   21.1889 C   0  0  0  0  0  0
  -22.1662   -4.2144   21.0978 F   0  0  0  0  0  0
  -21.5632   -3.4531   25.7736 F   0  0  0  0  0  0
  -29.9671  -13.6300   20.4031 N   0  0  0  0  0  0
  -26.2923  -12.9383   20.3242 N   0  0  0  0  0  0
  -25.9319  -11.6532   20.5738 N   0  0  0  0  0  0
  -22.0468  -12.8219   22.0447 N   0  0  0  0  0  0
  -25.4177  -15.1897   20.4031 N   0  0  0  0  0  0
  -31.6939  -15.0568   20.1209 O   0  0  0  0  0  0
  -21.6638   -6.8871   21.4237 O   0  0  0  0  0  0
  -22.3514  -14.5527   20.6726 O   0  0  0  0  0  0
  -24.6416  -31.8453   23.1901 C   0  0  0  0  0  0
  -25.9200  -32.4701   23.8277 C   0  0  1  0  0  0
  -27.2194  -27.1518   20.1453 C   0  0  0  0  0  0
  -25.5965  -33.8506   24.2202 N   0  0  0  0  0  0
  -23.4439  -30.4666   21.5351 C   0  0  2  0  0  0
  -24.8937  -28.8974   20.1099 C   0  0  0  0  0  0
  -22.7560  -29.4552   22.4860 C   0  0  0  0  0  0
  -18.0312  -28.1393   22.8469 C   0  0  0  0  0  0
  -24.1494  -36.7247   23.2641 C   0  0  0  0  0  0
  -25.9996  -30.7244   21.3866 C   0  0  0  0  0  0
  -26.0718  -29.3381   20.7263 C   0  0  0  0  0  0
  -27.2360  -28.4820   20.7257 C   0  0  0  0  0  0
  -26.0120  -26.8101   19.4939 C   0  0  0  0  0  0
  -24.8768  -27.6464   19.4781 C   0  0  0  0  0  0
  -23.6696  -29.7981   20.1537 C   0  0  0  0  0  0
  -25.4127  -36.3034   24.0317 C   0  0  1  0  0  0
  -20.5919  -28.3710   23.1237 C   0  0  2  0  0  0
  -20.6792  -26.9413   22.5410 C   0  0  0  0  0  0
  -19.5774  -26.6379   21.5205 C   0  0  0  0  0  0
  -18.1953  -26.7936   22.1610 C   0  0  0  0  0  0
  -19.1566  -28.8871   23.2846 C   0  0  0  0  0  0
  -18.9483  -30.1470   23.8866 C   0  0  0  0  0  0
  -17.6479  -30.6586   24.0558 C   0  0  0  0  0  0
  -25.9073  -34.9409   23.5067 C   0  0  0  0  0  0
  -16.5370  -29.9077   23.6341 C   0  0  0  0  0  0
  -16.7296  -28.6502   23.0351 C   0  0  0  0  0  0
  -26.4529  -31.6562   25.0707 C   0  0  0  0  0  0
  -25.3724  -31.3768   26.1419 C   0  0  0  0  0  0
  -27.0377  -30.2956   24.6276 C   0  0  0  0  0  0
  -27.6086  -32.4308   25.7471 C   0  0  0  0  0  0
  -27.5583  -37.1776   24.8464 C   0  0  0  0  0  0
  -21.4255  -29.3039   22.3609 N   0  0  0  0  0  0
  -26.4289  -37.3749   23.9414 N   0  0  0  0  0  0
  -24.7147  -31.0329   22.0924 N   0  0  0  0  0  0
  -23.4217  -28.8100   23.2999 O   0  0  0  0  0  0
  -28.2775  -26.1735   20.2098 O   0  0  0  0  0  0
  -26.5645  -34.8903   22.4634 O   0  0  0  0  0  0
  -23.5543  -32.1324   23.7138 O   0  0  0  0  0  0
  -28.2153  -18.0953   20.7491 C   0  0  0  0  0  0
  -30.4833  -18.5413   20.2926 C   0  0  0  0  0  0
  -27.9193  -19.5039   20.6778 C   0  0  0  0  0  0
  -30.1796  -19.9799   20.2323 C   0  0  0  0  0  0
  -29.5053  -17.5105   20.5545 C   0  0  0  0  0  0
  -28.8633  -20.5436   20.4177 C   0  0  0  0  0  0
  -28.9684  -23.3056   20.2949 C   0  0  0  0  0  0
  -27.9754  -24.6526   20.0919 C   0  0  0  0  0  0
  -29.6169  -15.9865   20.6674 N   0  0  0  0  0  0
  -28.3409  -21.9105   20.3531 O   0  0  0  0  0  0
  -31.4885  -12.7346   19.1825 H   0  0  0  0  0  0
  -30.4604  -11.5956   20.0058 H   0  0  0  0  0  0
  -29.8405  -11.7242   17.5774 H   0  0  0  0  0  0
  -29.6216  -13.4520   17.6963 H   0  0  0  0  0  0
  -27.9473  -11.2684   18.9696 H   0  0  0  0  0  0
  -27.3947  -12.4547   17.8166 H   0  0  0  0  0  0
  -27.6179  -14.2430   19.4364 H   0  0  0  0  0  0
  -28.7602  -12.2129   21.4208 H   0  0  0  0  0  0
  -28.3848  -13.8728   21.7977 H   0  0  0  0  0  0
  -25.2756   -9.5682   22.4757 H   0  0  0  0  0  0
  -24.0001   -7.4627   22.7461 H   0  0  0  0  0  0
  -21.0838   -8.8770   19.8954 H   0  0  0  0  0  0
  -22.3684  -10.9672   19.6174 H   0  0  0  0  0  0
  -21.2003   -7.6140   23.9709 H   0  0  0  0  0  0
  -21.1487   -6.0516   25.9075 H   0  0  0  0  0  0
  -22.0599   -2.7601   23.2843 H   0  0  0  0  0  0
  -22.4081  -11.9886   22.4849 H   0  0  0  0  0  0
  -21.1085  -13.1247   22.2656 H   0  0  0  0  0  0
  -24.6341  -15.8285   20.4849 H   0  0  0  0  0  0
  -26.2245  -15.6094   19.9608 H   0  0  0  0  0  0
  -26.7255  -32.5312   23.0996 H   0  0  0  0  0  0
  -25.0126  -33.9625   25.0360 H   0  0  0  0  0  0
  -22.7454  -31.2921   21.3833 H   0  0  0  0  0  0
  -23.3765  -35.9568   23.3292 H   0  0  0  0  0  0
  -24.3585  -36.8891   22.2059 H   0  0  0  0  0  0
  -23.7234  -37.6436   23.6677 H   0  0  0  0  0  0
  -26.1556  -31.4817   20.6172 H   0  0  0  0  0  0
  -26.8696  -30.7724   22.0293 H   0  0  0  0  0  0
  -28.1328  -28.8166   21.2280 H   0  0  0  0  0  0
  -25.9048  -25.8561   19.0019 H   0  0  0  0  0  0
  -23.9779  -27.3044   18.9838 H   0  0  0  0  0  0
  -23.8045  -30.5736   19.3988 H   0  0  0  0  0  0
  -22.7847  -29.2399   19.8437 H   0  0  0  0  0  0
  -25.1317  -36.1861   25.0809 H   0  0  0  0  0  0
  -21.0016  -28.3300   24.1354 H   0  0  0  0  0  0
  -20.5666  -26.2323   23.3628 H   0  0  0  0  0  0
  -21.6663  -26.7413   22.1221 H   0  0  0  0  0  0
  -19.6932  -25.6284   21.1253 H   0  0  0  0  0  0
  -19.6722  -27.3173   20.6721 H   0  0  0  0  0  0
  -17.4228  -26.6678   21.4008 H   0  0  0  0  0  0
  -18.0350  -26.0083   22.9011 H   0  0  0  0  0  0
  -19.7958  -30.7296   24.2215 H   0  0  0  0  0  0
  -17.5033  -31.6263   24.5169 H   0  0  0  0  0  0
  -15.5368  -30.2966   23.7685 H   0  0  0  0  0  0
  -15.8700  -28.0816   22.7066 H   0  0  0  0  0  0
  -24.5925  -30.7071   25.7773 H   0  0  0  0  0  0
  -24.8874  -32.2948   26.4746 H   0  0  0  0  0  0
  -25.8030  -30.9039   27.0255 H   0  0  0  0  0  0
  -26.2979  -29.6681   24.1289 H   0  0  0  0  0  0
  -27.4002  -29.7261   25.4844 H   0  0  0  0  0  0
  -27.8892  -30.4194   23.9579 H   0  0  0  0  0  0
  -27.2718  -33.3642   26.1990 H   0  0  0  0  0  0
  -28.3920  -32.6807   25.0300 H   0  0  0  0  0  0
  -28.0715  -31.8451   26.5425 H   0  0  0  0  0  0
  -28.2603  -38.0072   24.7518 H   0  0  0  0  0  0
  -28.1082  -36.2608   24.6283 H   0  0  0  0  0  0
  -27.2305  -37.1418   25.8868 H   0  0  0  0  0  0
  -20.9454  -29.8756   21.6799 H   0  0  0  0  0  0
  -26.0160  -38.2816   24.1435 H   0  0  0  0  0  0
  -27.3841  -17.4389   20.9640 H   0  0  0  0  0  0
  -31.5080  -18.2375   20.1325 H   0  0  0  0  0  0
  -26.8912  -19.7983   20.8356 H   0  0  0  0  0  0
  -30.9941  -20.6580   20.0223 H   0  0  0  0  0  0
  -29.5285  -23.4334   21.2214 H   0  0  0  0  0  0
  -29.7148  -23.2995   19.5002 H   0  0  0  0  0  0
  -27.1411  -24.4904   20.7758 H   0  0  0  0  0  0
  -27.5573  -24.5134   19.0959 H   0  0  0  0  0  0
  -28.7281  -15.5826   20.9203 H   0  0  0  0  0  0
  1 25  1  0  0  0
  1 30  2  0  0  0
  1 79  1  0  0  0
  2  3  1  0  0  0
  2 25  1  0  0  0
  2 81  1  0  0  0
  2 82  1  0  0  0
  3  4  1  0  0  0
  3 83  1  0  0  0
  3 84  1  0  0  0
  4  5  1  0  0  0
  4 85  1  0  0  0
  4 86  1  0  0  0
  5  6  1  0  0  0
  5 26  1  0  0  0
  5 87  1  0  0  0
  6 25  1  0  0  0
  6 88  1  0  0  0
  6 89  1  0  0  0
  7  8  2  0  0  0
  7 26  1  0  0  0
  7 29  1  0  0  0
  8  9  1  0  0  0
  8 22  1  0  0  0
  9 10  1  0  0  0
  9 27  2  0  0  0
 10 11  2  0  0  0
 10 15  1  0  0  0
 11 12  1  0  0  0
 11 90  1  0  0  0
 12 13  2  0  0  0
 12 91  1  0  0  0
 13 14  1  0  0  0
 13 31  1  0  0  0
 14 15  2  0  0  0
 14 92  1  0  0  0
 15 93  1  0  0  0
 16 17  2  0  0  0
 16 21  1  0  0  0
 16 31  1  0  0  0
 17 18  1  0  0  0
 17 94  1  0  0  0
 18 19  2  0  0  0
 18 95  1  0  0  0
 19 20  1  0  0  0
 19 24  1  0  0  0
 20 21  2  0  0  0
 20 96  1  0  0  0
 21 23  1  0  0  0
 22 28  1  0  0  0
 22 32  2  0  0  0
 26 27  1  0  0  0
 28 97  1  0  0  0
 28 98  1  0  0  0
 29 99  1  0  0  0
 29100  1  0  0  0
 33 34  1  0  0  0
 33 66  1  0  0  0
 33 70  2  0  0  0
 34 36  1  0  0  0
 34 59  1  0  0  0
 34101  1  0  0  0
 35 44  2  0  0  0
 35 45  1  0  0  0
 35 68  1  0  0  0
 36 56  1  0  0  0
 36102  1  0  0  0
 37 39  1  0  0  0
 37 47  1  0  0  0
 37 66  1  0  0  0
 37103  1  0  0  0
 38 43  2  0  0  0
 38 46  1  0  0  0
 38 47  1  0  0  0
 39 64  1  0  0  0
 39 67  2  0  0  0
 40 52  1  0  0  0
 40 53  2  0  0  0
 40 58  1  0  0  0
 41104  1  0  0  0
 41105  1  0  0  0
 41106  1  0  0  0
 41 48  1  0  0  0
 42 43  1  0  0  0
 42 66  1  0  0  0
 42107  1  0  0  0
 42108  1  0  0  0
 43 44  1  0  0  0
 44109  1  0  0  0
 45 46  2  0  0  0
 45110  1  0  0  0
 46111  1  0  0  0
 47112  1  0  0  0
 47113  1  0  0  0
 48 56  1  0  0  0
 48 65  1  0  0  0
 48114  1  0  0  0
 49 50  1  0  0  0
 49 53  1  0  0  0
 49 64  1  0  0  0
 49115  1  0  0  0
 50 51  1  0  0  0
 50116  1  0  0  0
 50117  1  0  0  0
 51 52  1  0  0  0
 51118  1  0  0  0
 51119  1  0  0  0
 52120  1  0  0  0
 52121  1  0  0  0
 53 54  1  0  0  0
 54 55  2  0  0  0
 54122  1  0  0  0
 55 57  1  0  0  0
 55123  1  0  0  0
 56 69  2  0  0  0
 57 58  2  0  0  0
 57124  1  0  0  0
 58125  1  0  0  0
 59 60  1  0  0  0
 59 61  1  0  0  0
 59 62  1  0  0  0
 60126  1  0  0  0
 60127  1  0  0  0
 60128  1  0  0  0
 61129  1  0  0  0
 61130  1  0  0  0
 61131  1  0  0  0
 62132  1  0  0  0
 62133  1  0  0  0
 62134  1  0  0  0
 63 65  1  0  0  0
 63135  1  0  0  0
 63136  1  0  0  0
 63137  1  0  0  0
 64138  1  0  0  0
 65139  1  0  0  0
 68 78  1  0  0  0
 71 73  2  0  0  0
 71 75  1  0  0  0
 71140  1  0  0  0
 72 74  1  0  0  0
 72 75  2  0  0  0
 72141  1  0  0  0
 73 76  1  0  0  0
 73142  1  0  0  0
 74 76  2  0  0  0
 74143  1  0  0  0
 75 79  1  0  0  0
 76 80  1  0  0  0
 77 78  1  0  0  0
 77 80  1  0  0  0
 77144  1  0  0  0
 77145  1  0  0  0
 78146  1  0  0  0
 78147  1  0  0  0
 79148  1  0  0  0
M  ISO  4   1 100  68 101  78 101  79 100
M  END
> <chiral flag>
0

> <version>
0

> <s_m_source_file>
/data/baiqing/PycharmProjects/Reinvent-master-3.2/result/LINK_invent/BTK/process_docking_weight1_custom_sum_contain_oxygen_bond_distance_aromatic_linkinvent_7_9_3/rearranged_h_0001.sdf

> <i_m_source_file_index>
24

> <r_mmod_Potential_Energy-OPLS-2005>
453.292022705078

> <r_mmod_Stretch_Energy-OPLS-2005>
216.148208618164

> <r_mmod_Bend_Energy-OPLS-2005>
303.559814453125

> <r_mmod_Torsional_Energy-OPLS-2005>
210.8935546875

> <r_mmod_Improper_Torsional_Energy-OPLS-2005>
4.47378873825073

> <r_mmod_Van_der_Waal_Energy-OPLS-2005>
131.151794433594

> <r_mmod_Electrostatic_Energy-OPLS-2005>
-373.256744384766

> <r_mmod_Solvation_Energy-OPLS-2005>
-214.08235168457

> <b_mmod_Minimization_Converged-OPLS-2005>
0

> <r_mmod_RMS_Derivative-OPLS-2005>
0.848834156990051

$$$$
24
                    3D
 Structure written by MMmdl.
137144  0  0  1  0            999 V2000
  -29.9622  -16.5635   20.2664 C   0  0  0  0  0  0
  -30.3146  -13.7964   19.5233 C   0  0  0  0  0  0
  -29.5702  -12.9451   18.4142 C   0  0  0  0  0  0
  -28.2376  -12.3814   18.9086 C   0  0  0  0  0  0
  -27.5746  -13.4257   19.8177 C   0  0  2  0  0  0
  -28.5152  -14.1357   20.8613 C   0  0  0  0  0  0
  -25.2174  -13.8479   20.5951 C   0  0  0  0  0  0
  -24.1675  -13.0467   20.9341 C   0  0  0  0  0  0
  -24.6541  -11.7031   20.8745 C   0  0  0  0  0  0
  -23.9255  -10.4321   21.0342 C   0  0  0  0  0  0
  -24.3739   -9.4228   21.9149 C   0  0  0  0  0  0
  -23.6364   -8.2283   22.0747 C   0  0  0  0  0  0
  -22.4340   -8.0323   21.3544 C   0  0  0  0  0  0
  -22.0014   -9.0304   20.4634 C   0  0  0  0  0  0
  -22.7395  -10.2158   20.3018 C   0  0  0  0  0  0
  -21.6878   -6.0765   22.5277 C   0  0  0  0  0  0
  -21.4033   -6.5657   23.8214 C   0  0  0  0  0  0
  -21.3665   -5.6802   24.9171 C   0  0  0  0  0  0
  -21.6043   -4.3064   24.7217 C   0  0  0  0  0  0
  -21.8816   -3.8163   23.4335 C   0  0  0  0  0  0
  -21.9200   -4.6987   22.3396 C   0  0  0  0  0  0
  -22.7650  -13.5092   21.1938 C   0  0  0  0  0  0
  -22.1663   -4.2170   21.0973 F   0  0  0  0  0  0
  -21.5624   -3.4543   25.7727 F   0  0  0  0  0  0
  -29.5188  -15.0444   20.1465 N   0  0  0  0  0  0
  -26.2805  -13.0063   20.3476 N   0  0  0  0  0  0
  -25.9548  -11.6990   20.5678 N   0  0  0  0  0  0
  -22.0351  -12.8040   22.0489 N   0  0  0  0  0  0
  -25.3555  -15.2242   20.4383 N   0  0  0  0  0  0
  -31.2063  -16.3142   20.2293 O   0  0  0  0  0  0
  -21.6677   -6.8928   21.4248 O   0  0  0  0  0  0
  -22.3283  -14.5375   20.6771 O   0  0  0  0  0  0
  -24.7449  -31.7216   23.0979 C   0  0  0  0  0  0
  -25.9712  -32.4091   23.7768 C   0  0  1  0  0  0
  -27.2626  -26.0606   20.2671 C   0  0  0  0  0  0
  -25.6018  -33.7953   24.1581 N   0  0  0  0  0  0
  -23.5996  -30.2922   21.4680 C   0  0  2  0  0  0
  -25.0624  -28.4936   20.1392 C   0  0  0  0  0  0
  -22.8035  -29.3895   22.4550 C   0  0  0  0  0  0
  -18.0376  -28.1454   22.8421 C   0  0  0  0  0  0
  -24.1496  -36.6992   23.2671 C   0  0  0  0  0  0
  -26.1999  -30.2411   21.4589 C   0  0  0  0  0  0
  -26.2597  -28.7329   20.8212 C   0  0  0  0  0  0
  -27.3097  -27.5690   20.8335 C   0  0  0  0  0  0
  -26.0272  -26.1946   19.5192 C   0  0  0  0  0  0
  -25.0234  -27.2541   19.4619 C   0  0  0  0  0  0
  -23.8874  -29.5253   20.1333 C   0  0  0  0  0  0
  -25.4170  -36.2677   24.0236 C   0  0  1  0  0  0
  -20.6038  -28.3836   23.1031 C   0  0  2  0  0  0
  -20.6806  -26.9436   22.5420 C   0  0  0  0  0  0
  -19.5796  -26.6348   21.5224 C   0  0  0  0  0  0
  -18.1977  -26.7969   22.1607 C   0  0  0  0  0  0
  -19.1657  -28.8984   23.2686 C   0  0  0  0  0  0
  -18.9553  -30.1552   23.8759 C   0  0  0  0  0  0
  -17.6536  -30.6619   24.0537 C   0  0  0  0  0  0
  -25.9187  -34.9084   23.4798 C   0  0  0  0  0  0
  -16.5422  -29.9090   23.6366 C   0  0  0  0  0  0
  -16.7352  -28.6518   23.0376 C   0  0  0  0  0  0
  -26.4693  -31.6408   25.0652 C   0  0  0  0  0  0
  -25.3596  -31.3898   26.1149 C   0  0  0  0  0  0
  -27.0730  -30.2690   24.7003 C   0  0  0  0  0  0
  -27.6017  -32.4426   25.7501 C   0  0  0  0  0  0
  -27.5543  -37.1648   24.8466 C   0  0  0  0  0  0
  -21.4628  -29.2949   22.3282 N   0  0  0  0  0  0
  -26.4242  -37.3509   23.9408 N   0  0  0  0  0  0
  -24.8802  -30.8007   22.0600 N   0  0  0  0  0  0
  -23.4175  -28.7613   23.3197 O   0  0  0  0  0  0
  -28.1668  -24.5661   20.3212 O   0  0  0  0  0  0
  -26.5925  -34.8791   22.4483 O   0  0  0  0  0  0
  -23.6336  -32.0588   23.5524 O   0  0  0  0  0  0
  -29.2006  -20.3375   20.3201 C   0  0  0  0  0  0
  -28.2004  -22.4649   20.2188 C   0  0  0  0  0  0
  -29.3170  -18.2279   20.2702 N   0  0  0  0  0  0
  -31.2155  -14.1817   19.0448 H   0  0  0  0  0  0
  -30.7050  -13.1434   20.3066 H   0  0  0  0  0  0
  -30.2109  -12.1390   18.0541 H   0  0  0  0  0  0
  -29.3823  -13.5901   17.5547 H   0  0  0  0  0  0
  -28.4305  -11.4738   19.4819 H   0  0  0  0  0  0
  -27.5913  -12.1016   18.0755 H   0  0  0  0  0  0
  -27.3204  -14.2160   19.1091 H   0  0  0  0  0  0
  -28.9720  -13.4238   21.5512 H   0  0  0  0  0  0
  -27.9168  -14.7884   21.4973 H   0  0  0  0  0  0
  -25.2871   -9.5690   22.4748 H   0  0  0  0  0  0
  -24.0047   -7.4683   22.7489 H   0  0  0  0  0  0
  -21.0938   -8.8851   19.8945 H   0  0  0  0  0  0
  -22.3854  -10.9697   19.6127 H   0  0  0  0  0  0
  -21.2035   -7.6165   23.9725 H   0  0  0  0  0  0
  -21.1486   -6.0529   25.9075 H   0  0  0  0  0  0
  -22.0587   -2.7625   23.2829 H   0  0  0  0  0  0
  -22.4039  -11.9742   22.4895 H   0  0  0  0  0  0
  -21.0937  -13.0980   22.2674 H   0  0  0  0  0  0
  -24.5768  -15.8638   20.5540 H   0  0  0  0  0  0
  -26.2060  -15.6839   20.1380 H   0  0  0  0  0  0
  -26.7876  -32.4443   23.0543 H   0  0  0  0  0  0
  -24.9961  -33.8879   24.9601 H   0  0  0  0  0  0
  -22.9629  -31.1444   21.2211 H   0  0  0  0  0  0
  -23.3792  -35.9283   23.3224 H   0  0  0  0  0  0
  -24.3542  -36.8804   22.2107 H   0  0  0  0  0  0
  -23.7229  -37.6104   23.6874 H   0  0  0  0  0  0
  -26.4659  -30.9211   20.6487 H   0  0  0  0  0  0
  -27.0298  -30.3291   22.1459 H   0  0  0  0  0  0
  -28.1985  -27.7908   21.4071 H   0  0  0  0  0  0
  -25.7596  -25.3099   18.9588 H   0  0  0  0  0  0
  -24.1415  -27.0455   18.8719 H   0  0  0  0  0  0
  -24.1127  -30.2559   19.3556 H   0  0  0  0  0  0
  -22.9802  -29.0216   19.7958 H   0  0  0  0  0  0
  -25.1411  -36.1346   25.0723 H   0  0  0  0  0  0
  -21.0093  -28.3507   24.1170 H   0  0  0  0  0  0
  -20.5606  -26.2478   23.3738 H   0  0  0  0  0  0
  -21.6663  -26.7276   22.1281 H   0  0  0  0  0  0
  -19.6940  -25.6222   21.1342 H   0  0  0  0  0  0
  -19.6763  -27.3084   20.6699 H   0  0  0  0  0  0
  -17.4253  -26.6718   21.4002 H   0  0  0  0  0  0
  -18.0338  -26.0144   22.9029 H   0  0  0  0  0  0
  -19.8031  -30.7398   24.2071 H   0  0  0  0  0  0
  -17.5087  -31.6284   24.5168 H   0  0  0  0  0  0
  -15.5417  -30.2952   23.7771 H   0  0  0  0  0  0
  -15.8752  -28.0794   22.7169 H   0  0  0  0  0  0
  -24.5845  -30.7190   25.7424 H   0  0  0  0  0  0
  -24.8725  -32.3171   26.4173 H   0  0  0  0  0  0
  -25.7627  -30.9316   27.0189 H   0  0  0  0  0  0
  -26.3552  -29.6093   24.2123 H   0  0  0  0  0  0
  -27.4038  -29.7408   25.5956 H   0  0  0  0  0  0
  -27.9570  -30.3690   24.0706 H   0  0  0  0  0  0
  -27.2476  -33.3875   26.1635 H   0  0  0  0  0  0
  -28.4042  -32.6752   25.0488 H   0  0  0  0  0  0
  -28.0450  -31.8868   26.5774 H   0  0  0  0  0  0
  -28.2488  -38.0006   24.7515 H   0  0  0  0  0  0
  -28.1107  -36.2518   24.6291 H   0  0  0  0  0  0
  -27.2256  -37.1265   25.8866 H   0  0  0  0  0  0
  -21.0089  -29.8498   21.6159 H   0  0  0  0  0  0
  -26.0011  -38.2526   24.1435 H   0  0  0  0  0  0
  -30.0015  -20.5173   19.6027 H   0  0  0  0  0  0
  -29.6902  -20.4553   21.2869 H   0  0  0  0  0  0
  -27.7199  -22.3753   19.2446 H   0  0  0  0  0  0
  -27.3860  -22.2933   20.9225 H   0  0  0  0  0  0
  -30.3181  -18.3884   20.2986 H   0  0  0  0  0  0
  1 25  1  0  0  0
  1 30  2  0  0  0
  1 73  1  0  0  0
  2  3  1  0  0  0
  2 25  1  0  0  0
  2 74  1  0  0  0
  2 75  1  0  0  0
  3  4  1  0  0  0
  3 76  1  0  0  0
  3 77  1  0  0  0
  4  5  1  0  0  0
  4 78  1  0  0  0
  4 79  1  0  0  0
  5  6  1  0  0  0
  5 26  1  0  0  0
  5 80  1  0  0  0
  6 25  1  0  0  0
  6 81  1  0  0  0
  6 82  1  0  0  0
  7  8  2  0  0  0
  7 26  1  0  0  0
  7 29  1  0  0  0
  8  9  1  0  0  0
  8 22  1  0  0  0
  9 10  1  0  0  0
  9 27  2  0  0  0
 10 11  2  0  0  0
 10 15  1  0  0  0
 11 12  1  0  0  0
 11 83  1  0  0  0
 12 13  2  0  0  0
 12 84  1  0  0  0
 13 14  1  0  0  0
 13 31  1  0  0  0
 14 15  2  0  0  0
 14 85  1  0  0  0
 15 86  1  0  0  0
 16 17  2  0  0  0
 16 21  1  0  0  0
 16 31  1  0  0  0
 17 18  1  0  0  0
 17 87  1  0  0  0
 18 19  2  0  0  0
 18 88  1  0  0  0
 19 20  1  0  0  0
 19 24  1  0  0  0
 20 21  2  0  0  0
 20 89  1  0  0  0
 21 23  1  0  0  0
 22 28  1  0  0  0
 22 32  2  0  0  0
 26 27  1  0  0  0
 28 90  1  0  0  0
 28 91  1  0  0  0
 29 92  1  0  0  0
 29 93  1  0  0  0
 33 34  1  0  0  0
 33 66  1  0  0  0
 33 70  2  0  0  0
 34 36  1  0  0  0
 34 59  1  0  0  0
 34 94  1  0  0  0
 35 44  2  0  0  0
 35 45  1  0  0  0
 35 68  1  0  0  0
 36 56  1  0  0  0
 36 95  1  0  0  0
 37 39  1  0  0  0
 37 47  1  0  0  0
 37 66  1  0  0  0
 37 96  1  0  0  0
 38 43  2  0  0  0
 38 46  1  0  0  0
 38 47  1  0  0  0
 39 64  1  0  0  0
 39 67  2  0  0  0
 40 52  1  0  0  0
 40 53  2  0  0  0
 40 58  1  0  0  0
 41 97  1  0  0  0
 41 98  1  0  0  0
 41 99  1  0  0  0
 41 48  1  0  0  0
 42 43  1  0  0  0
 42 66  1  0  0  0
 42100  1  0  0  0
 42101  1  0  0  0
 43 44  1  0  0  0
 44102  1  0  0  0
 45 46  2  0  0  0
 45103  1  0  0  0
 46104  1  0  0  0
 47105  1  0  0  0
 47106  1  0  0  0
 48 56  1  0  0  0
 48 65  1  0  0  0
 48107  1  0  0  0
 49 50  1  0  0  0
 49 53  1  0  0  0
 49 64  1  0  0  0
 49108  1  0  0  0
 50 51  1  0  0  0
 50109  1  0  0  0
 50110  1  0  0  0
 51 52  1  0  0  0
 51111  1  0  0  0
 51112  1  0  0  0
 52113  1  0  0  0
 52114  1  0  0  0
 53 54  1  0  0  0
 54 55  2  0  0  0
 54115  1  0  0  0
 55 57  1  0  0  0
 55116  1  0  0  0
 56 69  2  0  0  0
 57 58  2  0  0  0
 57117  1  0  0  0
 58118  1  0  0  0
 59 60  1  0  0  0
 59 61  1  0  0  0
 59 62  1  0  0  0
 60119  1  0  0  0
 60120  1  0  0  0
 60121  1  0  0  0
 61122  1  0  0  0
 61123  1  0  0  0
 61124  1  0  0  0
 62125  1  0  0  0
 62126  1  0  0  0
 62127  1  0  0  0
 63 65  1  0  0  0
 63128  1  0  0  0
 63129  1  0  0  0
 63130  1  0  0  0
 64131  1  0  0  0
 65132  1  0  0  0
 68 72  1  0  0  0
 71 72  1  0  0  0
 71 73  1  0  0  0
 71133  1  0  0  0
 71134  1  0  0  0
 72135  1  0  0  0
 72136  1  0  0  0
 73137  1  0  0  0
M  ISO  4   1 100  68 101  72 101  73 100
M  END
> <chiral flag>
0

> <version>
0

> <s_m_source_file>
/data/baiqing/PycharmProjects/Reinvent-master-3.2/result/LINK_invent/BTK/process_docking_weight1_custom_sum_contain_oxygen_bond_distance_aromatic_linkinvent_7_9_3/rearranged_h_0001.sdf

> <i_m_source_file_index>
25

> <r_mmod_Potential_Energy-OPLS-2005>
6948.9697265625

> <r_mmod_Stretch_Energy-OPLS-2005>
3136.46411132812

> <r_mmod_Bend_Energy-OPLS-2005>
1268.50207519531

> <r_mmod_Torsional_Energy-OPLS-2005>
217.324829101562

> <r_mmod_Improper_Torsional_Energy-OPLS-2005>
4.82364273071289

> <r_mmod_Van_der_Waal_Energy-OPLS-2005>
120.95548248291

> <r_mmod_Electrostatic_Energy-OPLS-2005>
-391.247985839844

> <r_mmod_Solvation_Energy-OPLS-2005>
-221.174652099609

> <b_mmod_Minimization_Converged-OPLS-2005>
1

> <r_mmod_RMS_Derivative-OPLS-2005>
0.042349461466074

$$$$
25
                    3D
 Structure written by MMmdl.
143150  0  0  1  0            999 V2000
  -30.3355  -15.5533   20.3377 C   0  0  0  0  0  0
  -30.4278  -13.0206   19.5356 C   0  0  0  0  0  0
  -29.5464  -12.6353   18.3151 C   0  0  0  0  0  0
  -28.1142  -12.2965   18.7563 C   0  0  0  0  0  0
  -27.5983  -13.2998   19.8136 C   0  0  2  0  0  0
  -28.6188  -13.6020   20.9348 C   0  0  0  0  0  0
  -25.2335  -13.8272   20.5783 C   0  0  0  0  0  0
  -24.1716  -13.0431   20.9280 C   0  0  0  0  0  0
  -24.6407  -11.6939   20.8763 C   0  0  0  0  0  0
  -23.9108  -10.4290   21.0398 C   0  0  0  0  0  0
  -24.3646   -9.4204   21.9179 C   0  0  0  0  0  0
  -23.6308   -8.2245   22.0753 C   0  0  0  0  0  0
  -22.4289   -8.0285   21.3544 C   0  0  0  0  0  0
  -21.9934   -9.0259   20.4644 C   0  0  0  0  0  0
  -22.7275  -10.2132   20.3050 C   0  0  0  0  0  0
  -21.6858   -6.0738   22.5278 C   0  0  0  0  0  0
  -21.4019   -6.5642   23.8212 C   0  0  0  0  0  0
  -21.3660   -5.6794   24.9173 C   0  0  0  0  0  0
  -21.6043   -4.3057   24.7224 C   0  0  0  0  0  0
  -21.8819   -3.8148   23.4345 C   0  0  0  0  0  0
  -21.9194   -4.6965   22.3402 C   0  0  0  0  0  0
  -22.7731  -13.5167   21.1917 C   0  0  0  0  0  0
  -22.1662   -4.2150   21.0979 F   0  0  0  0  0  0
  -21.5626   -3.4540   25.7737 F   0  0  0  0  0  0
  -29.8047  -14.1993   20.2827 N   0  0  0  0  0  0
  -26.2777  -12.9589   20.3227 N   0  0  0  0  0  0
  -25.9352  -11.6669   20.5705 N   0  0  0  0  0  0
  -22.0396  -12.8145   22.0471 N   0  0  0  0  0  0
  -25.3934  -15.2012   20.4226 N   0  0  0  0  0  0
  -31.5687  -15.5024   20.1771 O   0  0  0  0  0  0
  -21.6647   -6.8885   21.4242 O   0  0  0  0  0  0
  -22.3406  -14.5465   20.6752 O   0  0  0  0  0  0
  -24.6800  -31.8038   23.1543 C   0  0  0  0  0  0
  -25.9399  -32.4487   23.8074 C   0  0  1  0  0  0
  -27.2247  -26.7418   20.2123 C   0  0  0  0  0  0
  -25.5993  -33.8310   24.1966 N   0  0  0  0  0  0
  -23.5038  -30.4073   21.5074 C   0  0  2  0  0  0
  -24.9602  -28.7545   20.1181 C   0  0  0  0  0  0
  -22.7746  -29.4338   22.4723 C   0  0  0  0  0  0
  -18.0336  -28.1422   22.8456 C   0  0  0  0  0  0
  -24.1495  -36.7162   23.2653 C   0  0  0  0  0  0
  -26.0826  -30.5501   21.4119 C   0  0  0  0  0  0
  -26.1487  -29.1190   20.7619 C   0  0  0  0  0  0
  -27.2682  -28.1399   20.7756 C   0  0  0  0  0  0
  -26.0029  -26.5744   19.5148 C   0  0  0  0  0  0
  -24.9238  -27.5069   19.4714 C   0  0  0  0  0  0
  -23.7552  -29.7060   20.1417 C   0  0  0  0  0  0
  -25.4144  -36.2907   24.0285 C   0  0  1  0  0  0
  -20.5969  -28.3778   23.1151 C   0  0  2  0  0  0
  -20.6806  -26.9441   22.5404 C   0  0  0  0  0  0
  -19.5783  -26.6372   21.5218 C   0  0  0  0  0  0
  -18.1963  -26.7949   22.1618 C   0  0  0  0  0  0
  -19.1601  -28.8923   23.2785 C   0  0  0  0  0  0
  -18.9509  -30.1507   23.8830 C   0  0  0  0  0  0
  -17.6500  -30.6605   24.0552 C   0  0  0  0  0  0
  -25.9122  -34.9297   23.4960 C   0  0  0  0  0  0
  -16.5389  -29.9089   23.6351 C   0  0  0  0  0  0
  -16.7316  -28.6511   23.0366 C   0  0  0  0  0  0
  -26.4590  -31.6507   25.0681 C   0  0  0  0  0  0
  -25.3664  -31.3815   26.1302 C   0  0  0  0  0  0
  -27.0517  -30.2851   24.6551 C   0  0  0  0  0  0
  -27.6045  -32.4359   25.7497 C   0  0  0  0  0  0
  -27.5563  -37.1737   24.8467 C   0  0  0  0  0  0
  -21.4398  -29.3031   22.3473 N   0  0  0  0  0  0
  -26.4272  -37.3665   23.9408 N   0  0  0  0  0  0
  -24.7786  -30.9523   22.0774 N   0  0  0  0  0  0
  -23.4209  -28.7935   23.3052 O   0  0  0  0  0  0
  -28.2041  -25.5512   20.2801 O   0  0  0  0  0  0
  -26.5758  -34.8869   22.4574 O   0  0  0  0  0  0
  -23.5828  -32.1094   23.6523 O   0  0  0  0  0  0
  -28.7651  -20.2674   20.2904 C   0  0  0  0  0  0
  -29.0007  -22.1779   20.3080 C   0  0  0  0  0  0
  -29.8051  -18.6520   20.3467 C   0  0  0  0  0  0
  -28.0034  -23.8204   20.2032 C   0  0  0  0  0  0
  -29.5782  -16.9027   20.3825 N   0  0  0  0  0  0
  -31.4268  -13.2705   19.1767 H   0  0  0  0  0  0
  -30.5690  -12.1647   20.1980 H   0  0  0  0  0  0
  -29.9845  -11.7945   17.7757 H   0  0  0  0  0  0
  -29.5210  -13.4708   17.6137 H   0  0  0  0  0  0
  -28.1271  -11.2932   19.1840 H   0  0  0  0  0  0
  -27.4439  -12.2569   17.8969 H   0  0  0  0  0  0
  -27.4709  -14.2301   19.2582 H   0  0  0  0  0  0
  -28.8604  -12.7103   21.5153 H   0  0  0  0  0  0
  -28.2012  -14.3242   21.6380 H   0  0  0  0  0  0
  -25.2785   -9.5679   22.4764 H   0  0  0  0  0  0
  -24.0009   -7.4638   22.7481 H   0  0  0  0  0  0
  -21.0862   -8.8785   19.8952 H   0  0  0  0  0  0
  -22.3730  -10.9673   19.6163 H   0  0  0  0  0  0
  -21.2015   -7.6151   23.9715 H   0  0  0  0  0  0
  -21.1481   -6.0525   25.9076 H   0  0  0  0  0  0
  -22.0596   -2.7611   23.2846 H   0  0  0  0  0  0
  -22.4039  -11.9821   22.4865 H   0  0  0  0  0  0
  -21.1004  -13.1141   22.2671 H   0  0  0  0  0  0
  -24.6207  -15.8487   20.5359 H   0  0  0  0  0  0
  -26.2324  -15.6443   20.0726 H   0  0  0  0  0  0
  -26.7477  -32.4971   23.0784 H   0  0  0  0  0  0
  -25.0059  -33.9354   25.0062 H   0  0  0  0  0  0
  -22.8274  -31.2439   21.3201 H   0  0  0  0  0  0
  -23.3774  -35.9475   23.3272 H   0  0  0  0  0  0
  -24.3562  -36.8864   22.2076 H   0  0  0  0  0  0
  -23.7238  -37.6325   23.6753 H   0  0  0  0  0  0
  -26.2810  -31.2776   20.6238 H   0  0  0  0  0  0
  -26.9354  -30.6164   22.0750 H   0  0  0  0  0  0
  -28.1647  -28.4248   21.3080 H   0  0  0  0  0  0
  -25.8443  -25.6278   19.0182 H   0  0  0  0  0  0
  -24.0252  -27.2191   18.9430 H   0  0  0  0  0  0
  -23.9278  -30.4668   19.3796 H   0  0  0  0  0  0
  -22.8607  -29.1707   19.8189 H   0  0  0  0  0  0
  -25.1351  -36.1675   25.0775 H   0  0  0  0  0  0
  -21.0052  -28.3402   24.1277 H   0  0  0  0  0  0
  -20.5676  -26.2401   23.3662 H   0  0  0  0  0  0
  -21.6667  -26.7393   22.1218 H   0  0  0  0  0  0
  -19.6942  -25.6265   21.1292 H   0  0  0  0  0  0
  -19.6728  -27.3145   20.6718 H   0  0  0  0  0  0
  -17.4233  -26.6692   21.4021 H   0  0  0  0  0  0
  -18.0352  -26.0108   22.9031 H   0  0  0  0  0  0
  -19.7986  -30.7339   24.2170 H   0  0  0  0  0  0
  -17.5053  -31.6279   24.5166 H   0  0  0  0  0  0
  -15.5388  -30.2971   23.7716 H   0  0  0  0  0  0
  -15.8715  -28.0809   22.7122 H   0  0  0  0  0  0
  -24.5873  -30.7140   25.7600 H   0  0  0  0  0  0
  -24.8826  -32.3036   26.4537 H   0  0  0  0  0  0
  -25.7846  -30.9101   27.0204 H   0  0  0  0  0  0
  -26.3228  -29.6473   24.1543 H   0  0  0  0  0  0
  -27.3966  -29.7288   25.5278 H   0  0  0  0  0  0
  -27.9198  -30.3989   24.0055 H   0  0  0  0  0  0
  -27.2593  -33.3729   26.1879 H   0  0  0  0  0  0
  -28.3955  -32.6809   25.0396 H   0  0  0  0  0  0
  -28.0603  -31.8616   26.5574 H   0  0  0  0  0  0
  -28.2553  -38.0057   24.7511 H   0  0  0  0  0  0
  -28.1085  -36.2580   24.6299 H   0  0  0  0  0  0
  -27.2276  -37.1380   25.8868 H   0  0  0  0  0  0
  -20.9695  -29.8687   21.6544 H   0  0  0  0  0  0
  -26.0103  -38.2714   24.1421 H   0  0  0  0  0  0
  -28.1541  -20.1192   19.3998 H   0  0  0  0  0  0
  -28.0571  -20.1169   21.1057 H   0  0  0  0  0  0
  -29.7448  -22.3205   19.5244 H   0  0  0  0  0  0
  -29.5730  -22.3235   21.2244 H   0  0  0  0  0  0
  -30.4440  -18.8018   21.2176 H   0  0  0  0  0  0
  -30.4945  -18.7676   19.5099 H   0  0  0  0  0  0
  -27.2299  -23.6732   20.9571 H   0  0  0  0  0  0
  -27.4624  -23.7113   19.2633 H   0  0  0  0  0  0
  -28.5926  -16.6942   20.4591 H   0  0  0  0  0  0
  1 25  1  0  0  0
  1 30  2  0  0  0
  1 75  1  0  0  0
  2  3  1  0  0  0
  2 25  1  0  0  0
  2 76  1  0  0  0
  2 77  1  0  0  0
  3  4  1  0  0  0
  3 78  1  0  0  0
  3 79  1  0  0  0
  4  5  1  0  0  0
  4 80  1  0  0  0
  4 81  1  0  0  0
  5  6  1  0  0  0
  5 26  1  0  0  0
  5 82  1  0  0  0
  6 25  1  0  0  0
  6 83  1  0  0  0
  6 84  1  0  0  0
  7  8  2  0  0  0
  7 26  1  0  0  0
  7 29  1  0  0  0
  8  9  1  0  0  0
  8 22  1  0  0  0
  9 10  1  0  0  0
  9 27  2  0  0  0
 10 11  2  0  0  0
 10 15  1  0  0  0
 11 12  1  0  0  0
 11 85  1  0  0  0
 12 13  2  0  0  0
 12 86  1  0  0  0
 13 14  1  0  0  0
 13 31  1  0  0  0
 14 15  2  0  0  0
 14 87  1  0  0  0
 15 88  1  0  0  0
 16 17  2  0  0  0
 16 21  1  0  0  0
 16 31  1  0  0  0
 17 18  1  0  0  0
 17 89  1  0  0  0
 18 19  2  0  0  0
 18 90  1  0  0  0
 19 20  1  0  0  0
 19 24  1  0  0  0
 20 21  2  0  0  0
 20 91  1  0  0  0
 21 23  1  0  0  0
 22 28  1  0  0  0
 22 32  2  0  0  0
 26 27  1  0  0  0
 28 92  1  0  0  0
 28 93  1  0  0  0
 29 94  1  0  0  0
 29 95  1  0  0  0
 33 34  1  0  0  0
 33 66  1  0  0  0
 33 70  2  0  0  0
 34 36  1  0  0  0
 34 59  1  0  0  0
 34 96  1  0  0  0
 35 44  2  0  0  0
 35 45  1  0  0  0
 35 68  1  0  0  0
 36 56  1  0  0  0
 36 97  1  0  0  0
 37 39  1  0  0  0
 37 47  1  0  0  0
 37 66  1  0  0  0
 37 98  1  0  0  0
 38 43  2  0  0  0
 38 46  1  0  0  0
 38 47  1  0  0  0
 39 64  1  0  0  0
 39 67  2  0  0  0
 40 52  1  0  0  0
 40 53  2  0  0  0
 40 58  1  0  0  0
 41 99  1  0  0  0
 41100  1  0  0  0
 41101  1  0  0  0
 41 48  1  0  0  0
 42 43  1  0  0  0
 42 66  1  0  0  0
 42102  1  0  0  0
 42103  1  0  0  0
 43 44  1  0  0  0
 44104  1  0  0  0
 45 46  2  0  0  0
 45105  1  0  0  0
 46106  1  0  0  0
 47107  1  0  0  0
 47108  1  0  0  0
 48 56  1  0  0  0
 48 65  1  0  0  0
 48109  1  0  0  0
 49 50  1  0  0  0
 49 53  1  0  0  0
 49 64  1  0  0  0
 49110  1  0  0  0
 50 51  1  0  0  0
 50111  1  0  0  0
 50112  1  0  0  0
 51 52  1  0  0  0
 51113  1  0  0  0
 51114  1  0  0  0
 52115  1  0  0  0
 52116  1  0  0  0
 53 54  1  0  0  0
 54 55  2  0  0  0
 54117  1  0  0  0
 55 57  1  0  0  0
 55118  1  0  0  0
 56 69  2  0  0  0
 57 58  2  0  0  0
 57119  1  0  0  0
 58120  1  0  0  0
 59 60  1  0  0  0
 59 61  1  0  0  0
 59 62  1  0  0  0
 60121  1  0  0  0
 60122  1  0  0  0
 60123  1  0  0  0
 61124  1  0  0  0
 61125  1  0  0  0
 61126  1  0  0  0
 62127  1  0  0  0
 62128  1  0  0  0
 62129  1  0  0  0
 63 65  1  0  0  0
 63130  1  0  0  0
 63131  1  0  0  0
 63132  1  0  0  0
 64133  1  0  0  0
 65134  1  0  0  0
 68 74  1  0  0  0
 71 72  1  0  0  0
 71 73  1  0  0  0
 71135  1  0  0  0
 71136  1  0  0  0
 72 74  1  0  0  0
 72137  1  0  0  0
 72138  1  0  0  0
 73 75  1  0  0  0
 73139  1  0  0  0
 73140  1  0  0  0
 74141  1  0  0  0
 74142  1  0  0  0
 75143  1  0  0  0
M  ISO  4   1 100  68 101  74 101  75 100
M  END
> <chiral flag>
0

> <version>
0

> <s_m_source_file>
/data/baiqing/PycharmProjects/Reinvent-master-3.2/result/LINK_invent/BTK/process_docking_weight1_custom_sum_contain_oxygen_bond_distance_aromatic_linkinvent_7_9_3/rearranged_h_0001.sdf

> <i_m_source_file_index>
26

> <r_mmod_Potential_Energy-OPLS-2005>
2236.59155273438

> <r_mmod_Stretch_Energy-OPLS-2005>
1088.18041992188

> <r_mmod_Bend_Energy-OPLS-2005>
600.093139648438

> <r_mmod_Torsional_Energy-OPLS-2005>
206.369812011719

> <r_mmod_Improper_Torsional_Energy-OPLS-2005>
3.66827178001404

> <r_mmod_Van_der_Waal_Energy-OPLS-2005>
110.215888977051

> <r_mmod_Electrostatic_Energy-OPLS-2005>
-352.887237548828

> <r_mmod_Solvation_Energy-OPLS-2005>
-215.827575683594

> <b_mmod_Minimization_Converged-OPLS-2005>
0

> <r_mmod_RMS_Derivative-OPLS-2005>
0.268112510442734

$$$$
26
                    3D
 Structure written by MMmdl.
149156  0  0  1  0            999 V2000
  -30.6431  -14.6755   20.4844 C   0  0  0  0  0  0
  -30.4377  -12.3959   19.4567 C   0  0  0  0  0  0
  -29.5067  -12.5072   18.2275 C   0  0  0  0  0  0
  -28.0291  -12.3495   18.6398 C   0  0  0  0  0  0
  -27.6467  -13.2294   19.8590 C   0  0  2  0  0  0
  -28.6837  -13.1123   20.9928 C   0  0  0  0  0  0
  -25.2524  -13.8212   20.5705 C   0  0  0  0  0  0
  -24.1808  -13.0454   20.9179 C   0  0  0  0  0  0
  -24.6397  -11.6926   20.8751 C   0  0  0  0  0  0
  -23.9089  -10.4306   21.0428 C   0  0  0  0  0  0
  -24.3628   -9.4215   21.9202 C   0  0  0  0  0  0
  -23.6294   -8.2256   22.0770 C   0  0  0  0  0  0
  -22.4275   -8.0300   21.3559 C   0  0  0  0  0  0
  -21.9932   -9.0281   20.4661 C   0  0  0  0  0  0
  -22.7266  -10.2154   20.3077 C   0  0  0  0  0  0
  -21.6858   -6.0743   22.5287 C   0  0  0  0  0  0
  -21.4010   -6.5642   23.8219 C   0  0  0  0  0  0
  -21.3653   -5.6798   24.9181 C   0  0  0  0  0  0
  -21.6036   -4.3063   24.7229 C   0  0  0  0  0  0
  -21.8823   -3.8150   23.4357 C   0  0  0  0  0  0
  -21.9190   -4.6968   22.3406 C   0  0  0  0  0  0
  -22.7826  -13.5239   21.1823 C   0  0  0  0  0  0
  -22.1668   -4.2150   21.0983 F   0  0  0  0  0  0
  -21.5628   -3.4549   25.7733 F   0  0  0  0  0  0
  -30.0012  -13.4142   20.4284 N   0  0  0  0  0  0
  -26.2955  -12.9426   20.3308 N   0  0  0  0  0  0
  -25.9320  -11.6562   20.5763 N   0  0  0  0  0  0
  -22.0476  -12.8253   22.0387 N   0  0  0  0  0  0
  -25.4271  -15.1933   20.4148 N   0  0  0  0  0  0
  -31.8129  -14.8482   20.1411 O   0  0  0  0  0  0
  -21.6639   -6.8897   21.4250 O   0  0  0  0  0  0
  -22.3519  -14.5563   20.6694 O   0  0  0  0  0  0
  -24.6323  -31.8557   23.2039 C   0  0  0  0  0  0
  -25.9158  -32.4751   23.8367 C   0  0  1  0  0  0
  -27.1979  -27.2618   20.1084 C   0  0  0  0  0  0
  -25.5954  -33.8555   24.2269 N   0  0  0  0  0  0
  -23.4248  -30.4825   21.5533 C   0  0  2  0  0  0
  -24.8623  -28.9341   20.1162 C   0  0  0  0  0  0
  -22.7500  -29.4598   22.4978 C   0  0  0  0  0  0
  -18.0290  -28.1367   22.8476 C   0  0  0  0  0  0
  -24.1489  -36.7284   23.2636 C   0  0  0  0  0  0
  -25.9755  -30.7623   21.3869 C   0  0  0  0  0  0
  -26.0403  -29.3891   20.7221 C   0  0  0  0  0  0
  -27.2123  -28.5658   20.7094 C   0  0  0  0  0  0
  -25.9898  -26.8772   19.4802 C   0  0  0  0  0  0
  -24.8416  -27.6842   19.4871 C   0  0  0  0  0  0
  -23.6376  -29.8254   20.1674 C   0  0  0  0  0  0
  -25.4112  -36.3073   24.0326 C   0  0  1  0  0  0
  -20.5891  -28.3669   23.1281 C   0  0  2  0  0  0
  -20.6787  -26.9396   22.5404 C   0  0  0  0  0  0
  -19.5762  -26.6361   21.5214 C   0  0  0  0  0  0
  -18.1935  -26.7911   22.1618 C   0  0  0  0  0  0
  -19.1542  -28.8845   23.2861 C   0  0  0  0  0  0
  -18.9467  -30.1458   23.8850 C   0  0  0  0  0  0
  -17.6461  -30.6570   24.0554 C   0  0  0  0  0  0
  -25.9057  -34.9444   23.5100 C   0  0  0  0  0  0
  -16.5348  -29.9056   23.6350 C   0  0  0  0  0  0
  -16.7278  -28.6486   23.0346 C   0  0  0  0  0  0
  -26.4508  -31.6576   25.0758 C   0  0  0  0  0  0
  -25.3730  -31.3747   26.1485 C   0  0  0  0  0  0
  -27.0361  -30.2987   24.6272 C   0  0  0  0  0  0
  -27.6039  -32.4336   25.7536 C   0  0  0  0  0  0
  -27.5580  -37.1795   24.8460 C   0  0  0  0  0  0
  -21.4216  -29.3013   22.3690 N   0  0  0  0  0  0
  -26.4276  -37.3776   23.9414 N   0  0  0  0  0  0
  -24.6973  -31.0516   22.1029 N   0  0  0  0  0  0
  -23.4205  -28.8124   23.3053 O   0  0  0  0  0  0
  -28.2882  -26.3593   20.1339 O   0  0  0  0  0  0
  -26.5634  -34.8915   22.4670 O   0  0  0  0  0  0
  -23.5477  -32.1392   23.7334 O   0  0  0  0  0  0
  -28.7673  -22.2805   20.6768 C   0  0  0  0  0  0
  -29.1159  -23.7408   20.1355 C   0  0  0  0  0  0
  -29.5765  -18.4020   20.2667 C   0  0  0  0  0  0
  -29.6090  -19.8349   21.0024 C   0  0  0  0  0  0
  -27.9832  -24.8838   20.1252 C   0  0  0  0  0  0
  -30.1969  -17.1446   21.0603 C   0  0  0  0  0  0
  -29.4285  -21.1463   20.2457 N   0  0  0  0  0  0
  -27.9291  -22.1860   21.5745 O   0  0  0  0  0  0
  -29.7615  -15.7541   20.7996 O   0  0  0  0  0  0
  -31.4769  -12.5383   19.1552 H   0  0  0  0  0  0
  -30.3806  -11.4025   19.9040 H   0  0  0  0  0  0
  -29.7683  -11.7553   17.4820 H   0  0  0  0  0  0
  -29.6479  -13.4783   17.7471 H   0  0  0  0  0  0
  -27.8637  -11.2985   18.8784 H   0  0  0  0  0  0
  -27.3778  -12.5770   17.7953 H   0  0  0  0  0  0
  -27.6624  -14.2630   19.5124 H   0  0  0  0  0  0
  -28.6832  -12.1076   21.4160 H   0  0  0  0  0  0
  -28.4404  -13.7898   21.8122 H   0  0  0  0  0  0
  -25.2784   -9.5679   22.4767 H   0  0  0  0  0  0
  -23.9995   -7.4648   22.7499 H   0  0  0  0  0  0
  -21.0861   -8.8828   19.8960 H   0  0  0  0  0  0
  -22.3755  -10.9703   19.6184 H   0  0  0  0  0  0
  -21.2013   -7.6151   23.9724 H   0  0  0  0  0  0
  -21.1468   -6.0523   25.9078 H   0  0  0  0  0  0
  -22.0605   -2.7610   23.2854 H   0  0  0  0  0  0
  -22.4091  -11.9901   22.4769 H   0  0  0  0  0  0
  -21.1115  -13.1318   22.2627 H   0  0  0  0  0  0
  -24.6737  -15.8611   20.5419 H   0  0  0  0  0  0
  -26.2975  -15.6277   20.1299 H   0  0  0  0  0  0
  -26.7213  -32.5384   23.1089 H   0  0  0  0  0  0
  -25.0118  -33.9693   25.0434 H   0  0  0  0  0  0
  -22.7207  -31.3057   21.4166 H   0  0  0  0  0  0
  -23.3755  -35.9612   23.3283 H   0  0  0  0  0  0
  -24.3581  -36.8926   22.2054 H   0  0  0  0  0  0
  -23.7230  -37.6471   23.6678 H   0  0  0  0  0  0
  -26.1243  -31.5205   20.6171 H   0  0  0  0  0  0
  -26.8505  -30.8007   22.0245 H   0  0  0  0  0  0
  -28.1134  -28.9050   21.2012 H   0  0  0  0  0  0
  -25.8792  -25.9342   18.9708 H   0  0  0  0  0  0
  -23.9385  -27.3292   19.0089 H   0  0  0  0  0  0
  -23.7659  -30.6074   19.4176 H   0  0  0  0  0  0
  -22.7518  -29.2664   19.8611 H   0  0  0  0  0  0
  -25.1290  -36.1919   25.0814 H   0  0  0  0  0  0
  -20.9961  -28.3236   24.1416 H   0  0  0  0  0  0
  -20.5732  -26.2262   23.3593 H   0  0  0  0  0  0
  -21.6650  -26.7452   22.1171 H   0  0  0  0  0  0
  -19.6926  -25.6278   21.1237 H   0  0  0  0  0  0
  -19.6699  -27.3181   20.6756 H   0  0  0  0  0  0
  -17.4214  -26.6657   21.4013 H   0  0  0  0  0  0
  -18.0325  -26.0049   22.9011 H   0  0  0  0  0  0
  -19.7944  -30.7296   24.2160 H   0  0  0  0  0  0
  -17.5019  -31.6257   24.5146 H   0  0  0  0  0  0
  -15.5348  -30.2939   23.7708 H   0  0  0  0  0  0
  -15.8677  -28.0807   22.7054 H   0  0  0  0  0  0
  -24.5859  -30.7141   25.7829 H   0  0  0  0  0  0
  -24.8979  -32.2939   26.4936 H   0  0  0  0  0  0
  -25.8036  -30.8896   27.0258 H   0  0  0  0  0  0
  -26.2974  -29.6723   24.1252 H   0  0  0  0  0  0
  -27.3984  -29.7245   25.4812 H   0  0  0  0  0  0
  -27.8887  -30.4242   23.9582 H   0  0  0  0  0  0
  -27.2605  -33.3609   26.2135 H   0  0  0  0  0  0
  -28.3842  -32.6936   25.0371 H   0  0  0  0  0  0
  -28.0734  -31.8467   26.5443 H   0  0  0  0  0  0
  -28.2572  -38.0116   24.7541 H   0  0  0  0  0  0
  -28.1094  -36.2646   24.6243 H   0  0  0  0  0  0
  -27.2307  -37.1408   25.8862 H   0  0  0  0  0  0
  -20.9398  -29.8724   21.6883 H   0  0  0  0  0  0
  -26.0156  -38.2838   24.1441 H   0  0  0  0  0  0
  -29.5424  -23.6547   19.1355 H   0  0  0  0  0  0
  -29.9255  -24.0913   20.7730 H   0  0  0  0  0  0
  -30.0882  -18.4698   19.3073 H   0  0  0  0  0  0
  -28.5365  -18.1774   20.0316 H   0  0  0  0  0  0
  -30.5775  -19.9186   21.4995 H   0  0  0  0  0  0
  -28.8821  -19.7978   21.8153 H   0  0  0  0  0  0
  -27.3039  -24.6985   20.9590 H   0  0  0  0  0  0
  -27.4202  -24.6493   19.2226 H   0  0  0  0  0  0
  -29.9836  -17.3001   22.1185 H   0  0  0  0  0  0
  -31.2837  -17.1941   20.9916 H   0  0  0  0  0  0
  -30.0583  -21.2874   19.4662 H   0  0  0  0  0  0
  1 25  1  0  0  0
  1 30  2  0  0  0
  1 79  1  0  0  0
  2  3  1  0  0  0
  2 25  1  0  0  0
  2 80  1  0  0  0
  2 81  1  0  0  0
  3  4  1  0  0  0
  3 82  1  0  0  0
  3 83  1  0  0  0
  4  5  1  0  0  0
  4 84  1  0  0  0
  4 85  1  0  0  0
  5  6  1  0  0  0
  5 26  1  0  0  0
  5 86  1  0  0  0
  6 25  1  0  0  0
  6 87  1  0  0  0
  6 88  1  0  0  0
  7  8  2  0  0  0
  7 26  1  0  0  0
  7 29  1  0  0  0
  8  9  1  0  0  0
  8 22  1  0  0  0
  9 10  1  0  0  0
  9 27  2  0  0  0
 10 11  2  0  0  0
 10 15  1  0  0  0
 11 12  1  0  0  0
 11 89  1  0  0  0
 12 13  2  0  0  0
 12 90  1  0  0  0
 13 14  1  0  0  0
 13 31  1  0  0  0
 14 15  2  0  0  0
 14 91  1  0  0  0
 15 92  1  0  0  0
 16 17  2  0  0  0
 16 21  1  0  0  0
 16 31  1  0  0  0
 17 18  1  0  0  0
 17 93  1  0  0  0
 18 19  2  0  0  0
 18 94  1  0  0  0
 19 20  1  0  0  0
 19 24  1  0  0  0
 20 21  2  0  0  0
 20 95  1  0  0  0
 21 23  1  0  0  0
 22 28  1  0  0  0
 22 32  2  0  0  0
 26 27  1  0  0  0
 28 96  1  0  0  0
 28 97  1  0  0  0
 29 98  1  0  0  0
 29 99  1  0  0  0
 33 34  1  0  0  0
 33 66  1  0  0  0
 33 70  2  0  0  0
 34 36  1  0  0  0
 34 59  1  0  0  0
 34100  1  0  0  0
 35 44  2  0  0  0
 35 45  1  0  0  0
 35 68  1  0  0  0
 36 56  1  0  0  0
 36101  1  0  0  0
 37 39  1  0  0  0
 37 47  1  0  0  0
 37 66  1  0  0  0
 37102  1  0  0  0
 38 43  2  0  0  0
 38 46  1  0  0  0
 38 47  1  0  0  0
 39 64  1  0  0  0
 39 67  2  0  0  0
 40 52  1  0  0  0
 40 53  2  0  0  0
 40 58  1  0  0  0
 41103  1  0  0  0
 41104  1  0  0  0
 41105  1  0  0  0
 41 48  1  0  0  0
 42 43  1  0  0  0
 42 66  1  0  0  0
 42106  1  0  0  0
 42107  1  0  0  0
 43 44  1  0  0  0
 44108  1  0  0  0
 45 46  2  0  0  0
 45109  1  0  0  0
 46110  1  0  0  0
 47111  1  0  0  0
 47112  1  0  0  0
 48 56  1  0  0  0
 48 65  1  0  0  0
 48113  1  0  0  0
 49 50  1  0  0  0
 49 53  1  0  0  0
 49 64  1  0  0  0
 49114  1  0  0  0
 50 51  1  0  0  0
 50115  1  0  0  0
 50116  1  0  0  0
 51 52  1  0  0  0
 51117  1  0  0  0
 51118  1  0  0  0
 52119  1  0  0  0
 52120  1  0  0  0
 53 54  1  0  0  0
 54 55  2  0  0  0
 54121  1  0  0  0
 55 57  1  0  0  0
 55122  1  0  0  0
 56 69  2  0  0  0
 57 58  2  0  0  0
 57123  1  0  0  0
 58124  1  0  0  0
 59 60  1  0  0  0
 59 61  1  0  0  0
 59 62  1  0  0  0
 60125  1  0  0  0
 60126  1  0  0  0
 60127  1  0  0  0
 61128  1  0  0  0
 61129  1  0  0  0
 61130  1  0  0  0
 62131  1  0  0  0
 62132  1  0  0  0
 62133  1  0  0  0
 63 65  1  0  0  0
 63134  1  0  0  0
 63135  1  0  0  0
 63136  1  0  0  0
 64137  1  0  0  0
 65138  1  0  0  0
 68 75  1  0  0  0
 71 72  1  0  0  0
 71 77  1  0  0  0
 71 78  2  0  0  0
 72 75  1  0  0  0
 72139  1  0  0  0
 72140  1  0  0  0
 73 74  1  0  0  0
 73 76  1  0  0  0
 73141  1  0  0  0
 73142  1  0  0  0
 74 77  1  0  0  0
 74143  1  0  0  0
 74144  1  0  0  0
 75145  1  0  0  0
 75146  1  0  0  0
 76 79  1  0  0  0
 76147  1  0  0  0
 76148  1  0  0  0
 77149  1  0  0  0
M  ISO  4   1 100  68 101  75 101  79 100
M  END
> <chiral flag>
0

> <version>
0

> <s_m_source_file>
/data/baiqing/PycharmProjects/Reinvent-master-3.2/result/LINK_invent/BTK/process_docking_weight1_custom_sum_contain_oxygen_bond_distance_aromatic_linkinvent_7_9_3/rearranged_h_0001.sdf

> <i_m_source_file_index>
27

> <r_mmod_Potential_Energy-OPLS-2005>
55.2248268127441

> <r_mmod_Stretch_Energy-OPLS-2005>
110.737678527832

> <r_mmod_Bend_Energy-OPLS-2005>
158.550094604492

> <r_mmod_Torsional_Energy-OPLS-2005>
181.272277832031

> <r_mmod_Improper_Torsional_Energy-OPLS-2005>
5.00528860092163

> <r_mmod_Van_der_Waal_Energy-OPLS-2005>
126.316467285156

> <r_mmod_Electrostatic_Energy-OPLS-2005>
-366.808715820312

> <r_mmod_Solvation_Energy-OPLS-2005>
-228.575057983398

> <b_mmod_Minimization_Converged-OPLS-2005>
0

> <r_mmod_RMS_Derivative-OPLS-2005>
2.81160473823547

$$$$
27
                    3D
 Structure written by MMmdl.
146153  0  0  1  0            999 V2000
  -30.4549  -15.1919   20.3849 C   0  0  0  0  0  0
  -30.4419  -12.7609   19.5051 C   0  0  0  0  0  0
  -29.5292  -12.5596   18.2708 C   0  0  0  0  0  0
  -28.0748  -12.2962   18.7021 C   0  0  0  0  0  0
  -27.6136  -13.2648   19.8202 C   0  0  2  0  0  0
  -28.6529  -13.4068   20.9504 C   0  0  0  0  0  0
  -25.2403  -13.8229   20.5729 C   0  0  0  0  0  0
  -24.1748  -13.0433   20.9253 C   0  0  0  0  0  0
  -24.6392  -11.6927   20.8763 C   0  0  0  0  0  0
  -23.9086  -10.4291   21.0410 C   0  0  0  0  0  0
  -24.3633   -9.4204   21.9187 C   0  0  0  0  0  0
  -23.6302   -8.2242   22.0756 C   0  0  0  0  0  0
  -22.4283   -8.0282   21.3546 C   0  0  0  0  0  0
  -21.9924   -9.0257   20.4647 C   0  0  0  0  0  0
  -22.7258  -10.2133   20.3057 C   0  0  0  0  0  0
  -21.6855   -6.0737   22.5280 C   0  0  0  0  0  0
  -21.4015   -6.5640   23.8213 C   0  0  0  0  0  0
  -21.3660   -5.6793   24.9176 C   0  0  0  0  0  0
  -21.6044   -4.3056   24.7226 C   0  0  0  0  0  0
  -21.8819   -3.8148   23.4347 C   0  0  0  0  0  0
  -21.9194   -4.6964   22.3403 C   0  0  0  0  0  0
  -22.7766  -13.5192   21.1903 C   0  0  0  0  0  0
  -22.1661   -4.2150   21.0980 F   0  0  0  0  0  0
  -21.5629   -3.4538   25.7738 F   0  0  0  0  0  0
  -29.8884  -13.8961   20.3201 N   0  0  0  0  0  0
  -26.2822  -12.9485   20.3201 N   0  0  0  0  0  0
  -25.9324  -11.6602   20.5719 N   0  0  0  0  0  0
  -22.0422  -12.8177   22.0456 N   0  0  0  0  0  0
  -25.4037  -15.1963   20.4153 N   0  0  0  0  0  0
  -31.6824  -15.2103   20.2234 O   0  0  0  0  0  0
  -21.6644   -6.8881   21.4242 O   0  0  0  0  0  0
  -22.3448  -14.5495   20.6742 O   0  0  0  0  0  0
  -24.6584  -31.8285   23.1736 C   0  0  0  0  0  0
  -25.9287  -32.4613   23.8185 C   0  0  1  0  0  0
  -27.2178  -26.9750   20.1869 C   0  0  0  0  0  0
  -25.5973  -33.8425   24.2096 N   0  0  0  0  0  0
  -23.4702  -30.4410   21.5230 C   0  0  2  0  0  0
  -24.9214  -28.8312   20.1193 C   0  0  0  0  0  0
  -22.7640  -29.4469   22.4810 C   0  0  0  0  0  0
  -18.0318  -28.1406   22.8470 C   0  0  0  0  0  0
  -24.1494  -36.7217   23.2647 C   0  0  0  0  0  0
  -26.0362  -30.6515   21.3950 C   0  0  0  0  0  0
  -26.1055  -29.2439   20.7437 C   0  0  0  0  0  0
  -27.2532  -28.3383   20.7472 C   0  0  0  0  0  0
  -26.0028  -26.6964   19.5254 C   0  0  0  0  0  0
  -24.8915  -27.5757   19.4909 C   0  0  0  0  0  0
  -23.7071  -29.7557   20.1497 C   0  0  0  0  0  0
  -25.4134  -36.2981   24.0302 C   0  0  1  0  0  0
  -20.5938  -28.3745   23.1202 C   0  0  2  0  0  0
  -20.6798  -26.9434   22.5403 C   0  0  0  0  0  0
  -19.5771  -26.6380   21.5215 C   0  0  0  0  0  0
  -18.1953  -26.7940   22.1623 C   0  0  0  0  0  0
  -19.1577  -28.8896   23.2823 C   0  0  0  0  0  0
  -18.9489  -30.1488   23.8856 C   0  0  0  0  0  0
  -17.6483  -30.6597   24.0557 C   0  0  0  0  0  0
  -25.9093  -34.9364   23.5017 C   0  0  0  0  0  0
  -16.5374  -29.9085   23.6344 C   0  0  0  0  0  0
  -16.7300  -28.6506   23.0362 C   0  0  0  0  0  0
  -26.4555  -31.6539   25.0694 C   0  0  0  0  0  0
  -25.3694  -31.3776   26.1358 C   0  0  0  0  0  0
  -27.0448  -30.2914   24.6390 C   0  0  0  0  0  0
  -27.6051  -32.4342   25.7497 C   0  0  0  0  0  0
  -27.5571  -37.1767   24.8468 C   0  0  0  0  0  0
  -21.4316  -29.3042   22.3557 N   0  0  0  0  0  0
  -26.4283  -37.3712   23.9406 N   0  0  0  0  0  0
  -24.7427  -30.9994   22.0847 N   0  0  0  0  0  0
  -23.4209  -28.8039   23.3035 O   0  0  0  0  0  0
  -28.2529  -25.9182   20.1845 O   0  0  0  0  0  0
  -26.5701  -34.8893   22.4610 O   0  0  0  0  0  0
  -23.5665  -32.1233   23.6860 O   0  0  0  0  0  0
  -28.9836  -21.1892   20.6760 C   0  0  0  0  0  0
  -29.1420  -19.5254   20.0456 C   0  0  0  0  0  0
  -28.7259  -22.7941   19.9369 C   0  0  0  0  0  0
  -29.9001  -18.0518   20.7008 C   0  0  0  0  0  0
  -28.0709  -24.3377   20.5448 C   0  0  0  0  0  0
  -29.6685  -16.4354   20.4314 N   0  0  0  0  0  0
  -31.4603  -12.9680   19.1731 H   0  0  0  0  0  0
  -30.5035  -11.8473   20.0986 H   0  0  0  0  0  0
  -29.8948  -11.7358   17.6561 H   0  0  0  0  0  0
  -29.5668  -13.4513   17.6432 H   0  0  0  0  0  0
  -28.0212  -11.2689   19.0646 H   0  0  0  0  0  0
  -27.4048  -12.3529   17.8434 H   0  0  0  0  0  0
  -27.5380  -14.2388   19.3356 H   0  0  0  0  0  0
  -28.8080  -12.4621   21.4735 H   0  0  0  0  0  0
  -28.3078  -14.1243   21.6968 H   0  0  0  0  0  0
  -25.2776   -9.5679   22.4767 H   0  0  0  0  0  0
  -24.0008   -7.4632   22.7476 H   0  0  0  0  0  0
  -21.0856   -8.8778   19.8951 H   0  0  0  0  0  0
  -22.3717  -10.9673   19.6167 H   0  0  0  0  0  0
  -21.2007   -7.6149   23.9716 H   0  0  0  0  0  0
  -21.1482   -6.0524   25.9078 H   0  0  0  0  0  0
  -22.0596   -2.7610   23.2848 H   0  0  0  0  0  0
  -22.4055  -11.9848   22.4850 H   0  0  0  0  0  0
  -21.1032  -13.1183   22.2657 H   0  0  0  0  0  0
  -24.6309  -15.8437   20.5272 H   0  0  0  0  0  0
  -26.2397  -15.6392   20.0580 H   0  0  0  0  0  0
  -26.7354  -32.5171   23.0902 H   0  0  0  0  0  0
  -25.0079  -33.9507   25.0219 H   0  0  0  0  0  0
  -22.7811  -31.2710   21.3541 H   0  0  0  0  0  0
  -23.3765  -35.9539   23.3288 H   0  0  0  0  0  0
  -24.3568  -36.8881   22.2064 H   0  0  0  0  0  0
  -23.7244  -37.6399   23.6712 H   0  0  0  0  0  0
  -26.2087  -31.3941   20.6146 H   0  0  0  0  0  0
  -26.8995  -30.7094   22.0463 H   0  0  0  0  0  0
  -28.1585  -28.6587   21.2434 H   0  0  0  0  0  0
  -25.8948  -25.7377   19.0384 H   0  0  0  0  0  0
  -23.9906  -27.2535   18.9867 H   0  0  0  0  0  0
  -23.8605  -30.5232   19.3902 H   0  0  0  0  0  0
  -22.8176  -29.2077   19.8341 H   0  0  0  0  0  0
  -25.1331  -36.1783   25.0794 H   0  0  0  0  0  0
  -21.0026  -28.3348   24.1325 H   0  0  0  0  0  0
  -20.5684  -26.2363   23.3637 H   0  0  0  0  0  0
  -21.6662  -26.7420   22.1206 H   0  0  0  0  0  0
  -19.6932  -25.6280   21.1271 H   0  0  0  0  0  0
  -19.6708  -27.3169   20.6728 H   0  0  0  0  0  0
  -17.4221  -26.6684   21.4027 H   0  0  0  0  0  0
  -18.0347  -26.0092   22.9029 H   0  0  0  0  0  0
  -19.7965  -30.7317   24.2205 H   0  0  0  0  0  0
  -17.5035  -31.6273   24.5167 H   0  0  0  0  0  0
  -15.5372  -30.2973   23.7691 H   0  0  0  0  0  0
  -15.8701  -28.0810   22.7100 H   0  0  0  0  0  0
  -24.5886  -30.7116   25.7667 H   0  0  0  0  0  0
  -24.8872  -32.2974   26.4676 H   0  0  0  0  0  0
  -25.7933  -30.9012   27.0206 H   0  0  0  0  0  0
  -26.3106  -29.6597   24.1379 H   0  0  0  0  0  0
  -27.3986  -29.7265   25.5025 H   0  0  0  0  0  0
  -27.9042  -30.4111   23.9791 H   0  0  0  0  0  0
  -27.2619  -33.3679   26.1966 H   0  0  0  0  0  0
  -28.3920  -32.6845   25.0370 H   0  0  0  0  0  0
  -28.0656  -31.8543   26.5505 H   0  0  0  0  0  0
  -28.2578  -38.0072   24.7505 H   0  0  0  0  0  0
  -28.1076  -36.2597   24.6309 H   0  0  0  0  0  0
  -27.2284  -37.1428   25.8870 H   0  0  0  0  0  0
  -20.9563  -29.8727   21.6687 H   0  0  0  0  0  0
  -26.0135  -38.2774   24.1406 H   0  0  0  0  0  0
  -28.1889  -21.1083   21.4182 H   0  0  0  0  0  0
  -29.8762  -21.3287   21.2864 H   0  0  0  0  0  0
  -29.6013  -19.6459   19.0639 H   0  0  0  0  0  0
  -28.1191  -19.2319   19.8080 H   0  0  0  0  0  0
  -28.1428  -22.5960   19.0374 H   0  0  0  0  0  0
  -29.7078  -23.0579   19.5436 H   0  0  0  0  0  0
  -30.9755  -18.1979   20.5921 H   0  0  0  0  0  0
  -29.7423  -18.1293   21.7770 H   0  0  0  0  0  0
  -28.3515  -24.3288   21.5981 H   0  0  0  0  0  0
  -26.9917  -24.1871   20.5767 H   0  0  0  0  0  0
  -28.6848  -16.2096   20.4174 H   0  0  0  0  0  0
  1 25  1  0  0  0
  1 30  2  0  0  0
  1 76  1  0  0  0
  2  3  1  0  0  0
  2 25  1  0  0  0
  2 77  1  0  0  0
  2 78  1  0  0  0
  3  4  1  0  0  0
  3 79  1  0  0  0
  3 80  1  0  0  0
  4  5  1  0  0  0
  4 81  1  0  0  0
  4 82  1  0  0  0
  5  6  1  0  0  0
  5 26  1  0  0  0
  5 83  1  0  0  0
  6 25  1  0  0  0
  6 84  1  0  0  0
  6 85  1  0  0  0
  7  8  2  0  0  0
  7 26  1  0  0  0
  7 29  1  0  0  0
  8  9  1  0  0  0
  8 22  1  0  0  0
  9 10  1  0  0  0
  9 27  2  0  0  0
 10 11  2  0  0  0
 10 15  1  0  0  0
 11 12  1  0  0  0
 11 86  1  0  0  0
 12 13  2  0  0  0
 12 87  1  0  0  0
 13 14  1  0  0  0
 13 31  1  0  0  0
 14 15  2  0  0  0
 14 88  1  0  0  0
 15 89  1  0  0  0
 16 17  2  0  0  0
 16 21  1  0  0  0
 16 31  1  0  0  0
 17 18  1  0  0  0
 17 90  1  0  0  0
 18 19  2  0  0  0
 18 91  1  0  0  0
 19 20  1  0  0  0
 19 24  1  0  0  0
 20 21  2  0  0  0
 20 92  1  0  0  0
 21 23  1  0  0  0
 22 28  1  0  0  0
 22 32  2  0  0  0
 26 27  1  0  0  0
 28 93  1  0  0  0
 28 94  1  0  0  0
 29 95  1  0  0  0
 29 96  1  0  0  0
 33 34  1  0  0  0
 33 66  1  0  0  0
 33 70  2  0  0  0
 34 36  1  0  0  0
 34 59  1  0  0  0
 34 97  1  0  0  0
 35 44  2  0  0  0
 35 45  1  0  0  0
 35 68  1  0  0  0
 36 56  1  0  0  0
 36 98  1  0  0  0
 37 39  1  0  0  0
 37 47  1  0  0  0
 37 66  1  0  0  0
 37 99  1  0  0  0
 38 43  2  0  0  0
 38 46  1  0  0  0
 38 47  1  0  0  0
 39 64  1  0  0  0
 39 67  2  0  0  0
 40 52  1  0  0  0
 40 53  2  0  0  0
 40 58  1  0  0  0
 41100  1  0  0  0
 41101  1  0  0  0
 41102  1  0  0  0
 41 48  1  0  0  0
 42 43  1  0  0  0
 42 66  1  0  0  0
 42103  1  0  0  0
 42104  1  0  0  0
 43 44  1  0  0  0
 44105  1  0  0  0
 45 46  2  0  0  0
 45106  1  0  0  0
 46107  1  0  0  0
 47108  1  0  0  0
 47109  1  0  0  0
 48 56  1  0  0  0
 48 65  1  0  0  0
 48110  1  0  0  0
 49 50  1  0  0  0
 49 53  1  0  0  0
 49 64  1  0  0  0
 49111  1  0  0  0
 50 51  1  0  0  0
 50112  1  0  0  0
 50113  1  0  0  0
 51 52  1  0  0  0
 51114  1  0  0  0
 51115  1  0  0  0
 52116  1  0  0  0
 52117  1  0  0  0
 53 54  1  0  0  0
 54 55  2  0  0  0
 54118  1  0  0  0
 55 57  1  0  0  0
 55119  1  0  0  0
 56 69  2  0  0  0
 57 58  2  0  0  0
 57120  1  0  0  0
 58121  1  0  0  0
 59 60  1  0  0  0
 59 61  1  0  0  0
 59 62  1  0  0  0
 60122  1  0  0  0
 60123  1  0  0  0
 60124  1  0  0  0
 61125  1  0  0  0
 61126  1  0  0  0
 61127  1  0  0  0
 62128  1  0  0  0
 62129  1  0  0  0
 62130  1  0  0  0
 63 65  1  0  0  0
 63131  1  0  0  0
 63132  1  0  0  0
 63133  1  0  0  0
 64134  1  0  0  0
 65135  1  0  0  0
 68 75  1  0  0  0
 71 72  1  0  0  0
 71 73  1  0  0  0
 71136  1  0  0  0
 71137  1  0  0  0
 72 74  1  0  0  0
 72138  1  0  0  0
 72139  1  0  0  0
 73 75  1  0  0  0
 73140  1  0  0  0
 73141  1  0  0  0
 74 76  1  0  0  0
 74142  1  0  0  0
 74143  1  0  0  0
 75144  1  0  0  0
 75145  1  0  0  0
 76146  1  0  0  0
M  ISO  4   1 100  68 101  75 101  76 100
M  END
> <chiral flag>
0

> <version>
0

> <s_m_source_file>
/data/baiqing/PycharmProjects/Reinvent-master-3.2/result/LINK_invent/BTK/process_docking_weight1_custom_sum_contain_oxygen_bond_distance_aromatic_linkinvent_7_9_3/rearranged_h_0001.sdf

> <i_m_source_file_index>
28

> <r_mmod_Potential_Energy-OPLS-2005>
1145.12805175781

> <r_mmod_Stretch_Energy-OPLS-2005>
551.795166015625

> <r_mmod_Bend_Energy-OPLS-2005>
420.130432128906

> <r_mmod_Torsional_Energy-OPLS-2005>
235.50422668457

> <r_mmod_Improper_Torsional_Energy-OPLS-2005>
4.20592355728149

> <r_mmod_Van_der_Waal_Energy-OPLS-2005>
108.776268005371

> <r_mmod_Electrostatic_Energy-OPLS-2005>
-349.052825927734

> <r_mmod_Solvation_Energy-OPLS-2005>
-209.454177856445

> <b_mmod_Minimization_Converged-OPLS-2005>
0

> <r_mmod_RMS_Derivative-OPLS-2005>
0.315360128879547

$$$$
28
                    3D
 Structure written by MMmdl.
146153  0  0  1  0            999 V2000
  -30.4549  -15.1919   20.3849 C   0  0  0  0  0  0
  -30.4419  -12.7609   19.5051 C   0  0  0  0  0  0
  -29.5292  -12.5596   18.2708 C   0  0  0  0  0  0
  -28.0748  -12.2962   18.7021 C   0  0  0  0  0  0
  -27.6136  -13.2648   19.8202 C   0  0  2  0  0  0
  -28.6529  -13.4068   20.9504 C   0  0  0  0  0  0
  -25.2403  -13.8229   20.5729 C   0  0  0  0  0  0
  -24.1748  -13.0433   20.9253 C   0  0  0  0  0  0
  -24.6392  -11.6927   20.8763 C   0  0  0  0  0  0
  -23.9086  -10.4291   21.0410 C   0  0  0  0  0  0
  -24.3633   -9.4204   21.9187 C   0  0  0  0  0  0
  -23.6302   -8.2242   22.0756 C   0  0  0  0  0  0
  -22.4283   -8.0282   21.3546 C   0  0  0  0  0  0
  -21.9924   -9.0257   20.4647 C   0  0  0  0  0  0
  -22.7258  -10.2133   20.3057 C   0  0  0  0  0  0
  -21.6855   -6.0737   22.5280 C   0  0  0  0  0  0
  -21.4015   -6.5640   23.8213 C   0  0  0  0  0  0
  -21.3660   -5.6793   24.9176 C   0  0  0  0  0  0
  -21.6044   -4.3056   24.7226 C   0  0  0  0  0  0
  -21.8819   -3.8148   23.4347 C   0  0  0  0  0  0
  -21.9194   -4.6964   22.3403 C   0  0  0  0  0  0
  -22.7766  -13.5192   21.1903 C   0  0  0  0  0  0
  -22.1661   -4.2150   21.0980 F   0  0  0  0  0  0
  -21.5629   -3.4538   25.7738 F   0  0  0  0  0  0
  -29.8884  -13.8961   20.3201 N   0  0  0  0  0  0
  -26.2822  -12.9485   20.3201 N   0  0  0  0  0  0
  -25.9324  -11.6602   20.5719 N   0  0  0  0  0  0
  -22.0422  -12.8177   22.0456 N   0  0  0  0  0  0
  -25.4037  -15.1963   20.4153 N   0  0  0  0  0  0
  -31.6824  -15.2103   20.2234 O   0  0  0  0  0  0
  -21.6644   -6.8881   21.4242 O   0  0  0  0  0  0
  -22.3448  -14.5495   20.6742 O   0  0  0  0  0  0
  -24.6584  -31.8285   23.1736 C   0  0  0  0  0  0
  -25.9287  -32.4613   23.8185 C   0  0  1  0  0  0
  -27.2178  -26.9750   20.1869 C   0  0  0  0  0  0
  -25.5973  -33.8425   24.2096 N   0  0  0  0  0  0
  -23.4702  -30.4410   21.5230 C   0  0  2  0  0  0
  -24.9214  -28.8312   20.1193 C   0  0  0  0  0  0
  -22.7640  -29.4469   22.4810 C   0  0  0  0  0  0
  -18.0318  -28.1406   22.8470 C   0  0  0  0  0  0
  -24.1494  -36.7217   23.2647 C   0  0  0  0  0  0
  -26.0362  -30.6515   21.3950 C   0  0  0  0  0  0
  -26.1055  -29.2439   20.7437 C   0  0  0  0  0  0
  -27.2532  -28.3383   20.7472 C   0  0  0  0  0  0
  -26.0028  -26.6964   19.5254 C   0  0  0  0  0  0
  -24.8915  -27.5757   19.4909 C   0  0  0  0  0  0
  -23.7071  -29.7557   20.1497 C   0  0  0  0  0  0
  -25.4134  -36.2981   24.0302 C   0  0  1  0  0  0
  -20.5938  -28.3745   23.1202 C   0  0  2  0  0  0
  -20.6798  -26.9434   22.5403 C   0  0  0  0  0  0
  -19.5771  -26.6380   21.5215 C   0  0  0  0  0  0
  -18.1953  -26.7940   22.1623 C   0  0  0  0  0  0
  -19.1577  -28.8896   23.2823 C   0  0  0  0  0  0
  -18.9489  -30.1488   23.8856 C   0  0  0  0  0  0
  -17.6483  -30.6597   24.0557 C   0  0  0  0  0  0
  -25.9093  -34.9364   23.5017 C   0  0  0  0  0  0
  -16.5374  -29.9085   23.6344 C   0  0  0  0  0  0
  -16.7300  -28.6506   23.0362 C   0  0  0  0  0  0
  -26.4555  -31.6539   25.0694 C   0  0  0  0  0  0
  -25.3694  -31.3776   26.1358 C   0  0  0  0  0  0
  -27.0448  -30.2914   24.6390 C   0  0  0  0  0  0
  -27.6051  -32.4342   25.7497 C   0  0  0  0  0  0
  -27.5571  -37.1767   24.8468 C   0  0  0  0  0  0
  -21.4316  -29.3042   22.3557 N   0  0  0  0  0  0
  -26.4283  -37.3712   23.9406 N   0  0  0  0  0  0
  -24.7427  -30.9994   22.0847 N   0  0  0  0  0  0
  -23.4209  -28.8039   23.3035 O   0  0  0  0  0  0
  -28.2529  -25.9182   20.1845 O   0  0  0  0  0  0
  -26.5701  -34.8893   22.4610 O   0  0  0  0  0  0
  -23.5665  -32.1233   23.6860 O   0  0  0  0  0  0
  -28.9836  -21.1892   20.6760 C   0  0  0  0  0  0
  -29.1420  -19.5254   20.0456 C   0  0  0  0  0  0
  -28.7259  -22.7941   19.9369 C   0  0  0  0  0  0
  -29.9001  -18.0518   20.7008 C   0  0  0  0  0  0
  -28.0709  -24.3377   20.5448 C   0  0  0  0  0  0
  -29.6685  -16.4354   20.4314 N   0  0  0  0  0  0
  -31.4603  -12.9680   19.1731 H   0  0  0  0  0  0
  -30.5035  -11.8473   20.0986 H   0  0  0  0  0  0
  -29.8948  -11.7358   17.6561 H   0  0  0  0  0  0
  -29.5668  -13.4513   17.6432 H   0  0  0  0  0  0
  -28.0212  -11.2689   19.0646 H   0  0  0  0  0  0
  -27.4048  -12.3529   17.8434 H   0  0  0  0  0  0
  -27.5380  -14.2388   19.3356 H   0  0  0  0  0  0
  -28.8080  -12.4621   21.4735 H   0  0  0  0  0  0
  -28.3078  -14.1243   21.6968 H   0  0  0  0  0  0
  -25.2776   -9.5679   22.4767 H   0  0  0  0  0  0
  -24.0008   -7.4632   22.7476 H   0  0  0  0  0  0
  -21.0856   -8.8778   19.8951 H   0  0  0  0  0  0
  -22.3717  -10.9673   19.6167 H   0  0  0  0  0  0
  -21.2007   -7.6149   23.9716 H   0  0  0  0  0  0
  -21.1482   -6.0524   25.9078 H   0  0  0  0  0  0
  -22.0596   -2.7610   23.2848 H   0  0  0  0  0  0
  -22.4055  -11.9848   22.4850 H   0  0  0  0  0  0
  -21.1032  -13.1183   22.2657 H   0  0  0  0  0  0
  -24.6309  -15.8437   20.5272 H   0  0  0  0  0  0
  -26.2397  -15.6392   20.0580 H   0  0  0  0  0  0
  -26.7354  -32.5171   23.0902 H   0  0  0  0  0  0
  -25.0079  -33.9507   25.0219 H   0  0  0  0  0  0
  -22.7811  -31.2710   21.3541 H   0  0  0  0  0  0
  -23.3765  -35.9539   23.3288 H   0  0  0  0  0  0
  -24.3568  -36.8881   22.2064 H   0  0  0  0  0  0
  -23.7244  -37.6399   23.6712 H   0  0  0  0  0  0
  -26.2087  -31.3941   20.6146 H   0  0  0  0  0  0
  -26.8995  -30.7094   22.0463 H   0  0  0  0  0  0
  -28.1585  -28.6587   21.2434 H   0  0  0  0  0  0
  -25.8948  -25.7377   19.0384 H   0  0  0  0  0  0
  -23.9906  -27.2535   18.9867 H   0  0  0  0  0  0
  -23.8605  -30.5232   19.3902 H   0  0  0  0  0  0
  -22.8176  -29.2077   19.8341 H   0  0  0  0  0  0
  -25.1331  -36.1783   25.0794 H   0  0  0  0  0  0
  -21.0026  -28.3348   24.1325 H   0  0  0  0  0  0
  -20.5684  -26.2363   23.3637 H   0  0  0  0  0  0
  -21.6662  -26.7420   22.1206 H   0  0  0  0  0  0
  -19.6932  -25.6280   21.1271 H   0  0  0  0  0  0
  -19.6708  -27.3169   20.6728 H   0  0  0  0  0  0
  -17.4221  -26.6684   21.4027 H   0  0  0  0  0  0
  -18.0347  -26.0092   22.9029 H   0  0  0  0  0  0
  -19.7965  -30.7317   24.2205 H   0  0  0  0  0  0
  -17.5035  -31.6273   24.5167 H   0  0  0  0  0  0
  -15.5372  -30.2973   23.7691 H   0  0  0  0  0  0
  -15.8701  -28.0810   22.7100 H   0  0  0  0  0  0
  -24.5886  -30.7116   25.7667 H   0  0  0  0  0  0
  -24.8872  -32.2974   26.4676 H   0  0  0  0  0  0
  -25.7933  -30.9012   27.0206 H   0  0  0  0  0  0
  -26.3106  -29.6597   24.1379 H   0  0  0  0  0  0
  -27.3986  -29.7265   25.5025 H   0  0  0  0  0  0
  -27.9042  -30.4111   23.9791 H   0  0  0  0  0  0
  -27.2619  -33.3679   26.1966 H   0  0  0  0  0  0
  -28.3920  -32.6845   25.0370 H   0  0  0  0  0  0
  -28.0656  -31.8543   26.5505 H   0  0  0  0  0  0
  -28.2578  -38.0072   24.7505 H   0  0  0  0  0  0
  -28.1076  -36.2597   24.6309 H   0  0  0  0  0  0
  -27.2284  -37.1428   25.8870 H   0  0  0  0  0  0
  -20.9563  -29.8727   21.6687 H   0  0  0  0  0  0
  -26.0135  -38.2774   24.1406 H   0  0  0  0  0  0
  -28.1889  -21.1083   21.4182 H   0  0  0  0  0  0
  -29.8762  -21.3287   21.2864 H   0  0  0  0  0  0
  -29.6013  -19.6459   19.0639 H   0  0  0  0  0  0
  -28.1191  -19.2319   19.8080 H   0  0  0  0  0  0
  -28.1428  -22.5960   19.0374 H   0  0  0  0  0  0
  -29.7078  -23.0579   19.5436 H   0  0  0  0  0  0
  -30.9755  -18.1979   20.5921 H   0  0  0  0  0  0
  -29.7423  -18.1293   21.7770 H   0  0  0  0  0  0
  -28.3515  -24.3288   21.5981 H   0  0  0  0  0  0
  -26.9917  -24.1871   20.5767 H   0  0  0  0  0  0
  -28.6848  -16.2096   20.4174 H   0  0  0  0  0  0
  1 25  1  0  0  0
  1 30  2  0  0  0
  1 76  1  0  0  0
  2  3  1  0  0  0
  2 25  1  0  0  0
  2 77  1  0  0  0
  2 78  1  0  0  0
  3  4  1  0  0  0
  3 79  1  0  0  0
  3 80  1  0  0  0
  4  5  1  0  0  0
  4 81  1  0  0  0
  4 82  1  0  0  0
  5  6  1  0  0  0
  5 26  1  0  0  0
  5 83  1  0  0  0
  6 25  1  0  0  0
  6 84  1  0  0  0
  6 85  1  0  0  0
  7  8  2  0  0  0
  7 26  1  0  0  0
  7 29  1  0  0  0
  8  9  1  0  0  0
  8 22  1  0  0  0
  9 10  1  0  0  0
  9 27  2  0  0  0
 10 11  2  0  0  0
 10 15  1  0  0  0
 11 12  1  0  0  0
 11 86  1  0  0  0
 12 13  2  0  0  0
 12 87  1  0  0  0
 13 14  1  0  0  0
 13 31  1  0  0  0
 14 15  2  0  0  0
 14 88  1  0  0  0
 15 89  1  0  0  0
 16 17  2  0  0  0
 16 21  1  0  0  0
 16 31  1  0  0  0
 17 18  1  0  0  0
 17 90  1  0  0  0
 18 19  2  0  0  0
 18 91  1  0  0  0
 19 20  1  0  0  0
 19 24  1  0  0  0
 20 21  2  0  0  0
 20 92  1  0  0  0
 21 23  1  0  0  0
 22 28  1  0  0  0
 22 32  2  0  0  0
 26 27  1  0  0  0
 28 93  1  0  0  0
 28 94  1  0  0  0
 29 95  1  0  0  0
 29 96  1  0  0  0
 33 34  1  0  0  0
 33 66  1  0  0  0
 33 70  2  0  0  0
 34 36  1  0  0  0
 34 59  1  0  0  0
 34 97  1  0  0  0
 35 44  2  0  0  0
 35 45  1  0  0  0
 35 68  1  0  0  0
 36 56  1  0  0  0
 36 98  1  0  0  0
 37 39  1  0  0  0
 37 47  1  0  0  0
 37 66  1  0  0  0
 37 99  1  0  0  0
 38 43  2  0  0  0
 38 46  1  0  0  0
 38 47  1  0  0  0
 39 64  1  0  0  0
 39 67  2  0  0  0
 40 52  1  0  0  0
 40 53  2  0  0  0
 40 58  1  0  0  0
 41100  1  0  0  0
 41101  1  0  0  0
 41102  1  0  0  0
 41 48  1  0  0  0
 42 43  1  0  0  0
 42 66  1  0  0  0
 42103  1  0  0  0
 42104  1  0  0  0
 43 44  1  0  0  0
 44105  1  0  0  0
 45 46  2  0  0  0
 45106  1  0  0  0
 46107  1  0  0  0
 47108  1  0  0  0
 47109  1  0  0  0
 48 56  1  0  0  0
 48 65  1  0  0  0
 48110  1  0  0  0
 49 50  1  0  0  0
 49 53  1  0  0  0
 49 64  1  0  0  0
 49111  1  0  0  0
 50 51  1  0  0  0
 50112  1  0  0  0
 50113  1  0  0  0
 51 52  1  0  0  0
 51114  1  0  0  0
 51115  1  0  0  0
 52116  1  0  0  0
 52117  1  0  0  0
 53 54  1  0  0  0
 54 55  2  0  0  0
 54118  1  0  0  0
 55 57  1  0  0  0
 55119  1  0  0  0
 56 69  2  0  0  0
 57 58  2  0  0  0
 57120  1  0  0  0
 58121  1  0  0  0
 59 60  1  0  0  0
 59 61  1  0  0  0
 59 62  1  0  0  0
 60122  1  0  0  0
 60123  1  0  0  0
 60124  1  0  0  0
 61125  1  0  0  0
 61126  1  0  0  0
 61127  1  0  0  0
 62128  1  0  0  0
 62129  1  0  0  0
 62130  1  0  0  0
 63 65  1  0  0  0
 63131  1  0  0  0
 63132  1  0  0  0
 63133  1  0  0  0
 64134  1  0  0  0
 65135  1  0  0  0
 68 75  1  0  0  0
 71 72  1  0  0  0
 71 73  1  0  0  0
 71136  1  0  0  0
 71137  1  0  0  0
 72 74  1  0  0  0
 72138  1  0  0  0
 72139  1  0  0  0
 73 75  1  0  0  0
 73140  1  0  0  0
 73141  1  0  0  0
 74 76  1  0  0  0
 74142  1  0  0  0
 74143  1  0  0  0
 75144  1  0  0  0
 75145  1  0  0  0
 76146  1  0  0  0
M  ISO  4   1 100  68 101  75 101  76 100
M  END
> <chiral flag>
0

> <version>
0

> <s_m_source_file>
/data/baiqing/PycharmProjects/Reinvent-master-3.2/result/LINK_invent/BTK/process_docking_weight1_custom_sum_contain_oxygen_bond_distance_aromatic_linkinvent_7_9_3/rearranged_h_0001.sdf

> <i_m_source_file_index>
29

> <r_mmod_Potential_Energy-OPLS-2005>
1145.12805175781

> <r_mmod_Stretch_Energy-OPLS-2005>
551.795166015625

> <r_mmod_Bend_Energy-OPLS-2005>
420.130432128906

> <r_mmod_Torsional_Energy-OPLS-2005>
235.50422668457

> <r_mmod_Improper_Torsional_Energy-OPLS-2005>
4.20592355728149

> <r_mmod_Van_der_Waal_Energy-OPLS-2005>
108.776268005371

> <r_mmod_Electrostatic_Energy-OPLS-2005>
-349.052825927734

> <r_mmod_Solvation_Energy-OPLS-2005>
-209.454177856445

> <b_mmod_Minimization_Converged-OPLS-2005>
0

> <r_mmod_RMS_Derivative-OPLS-2005>
0.315360128879547

$$$$
29
                    3D
 Structure written by MMmdl.
141149  0  0  1  0            999 V2000
  -30.0996  -16.1278   20.2933 C   0  0  0  0  0  0
  -30.3832  -13.4557   19.5445 C   0  0  0  0  0  0
  -29.5696  -12.7948   18.3771 C   0  0  0  0  0  0
  -28.1854  -12.3278   18.8420 C   0  0  0  0  0  0
  -27.5827  -13.3611   19.8112 C   0  0  2  0  0  0
  -28.5622  -13.8923   20.8994 C   0  0  0  0  0  0
  -25.2245  -13.8357   20.5865 C   0  0  0  0  0  0
  -24.1689  -13.0438   20.9319 C   0  0  0  0  0  0
  -24.6462  -11.6972   20.8754 C   0  0  0  0  0  0
  -23.9169  -10.4299   21.0373 C   0  0  0  0  0  0
  -24.3683   -9.4212   21.9167 C   0  0  0  0  0  0
  -23.6331   -8.2259   22.0753 C   0  0  0  0  0  0
  -22.4310   -8.0298   21.3547 C   0  0  0  0  0  0
  -21.9965   -9.0272   20.4641 C   0  0  0  0  0  0
  -22.7323  -10.2138   20.3037 C   0  0  0  0  0  0
  -21.6863   -6.0749   22.5279 C   0  0  0  0  0  0
  -21.4021   -6.5648   23.8213 C   0  0  0  0  0  0
  -21.3666   -5.6796   24.9172 C   0  0  0  0  0  0
  -21.6044   -4.3058   24.7219 C   0  0  0  0  0  0
  -21.8817   -3.8155   23.4339 C   0  0  0  0  0  0
  -21.9196   -4.6974   22.3397 C   0  0  0  0  0  0
  -22.7687  -13.5129   21.1931 C   0  0  0  0  0  0
  -22.1664   -4.2159   21.0974 F   0  0  0  0  0  0
  -21.5628   -3.4539   25.7732 F   0  0  0  0  0  0
  -29.6522  -14.6704   20.2170 N   0  0  0  0  0  0
  -26.2765  -12.9795   20.3316 N   0  0  0  0  0  0
  -25.9436  -11.6806   20.5676 N   0  0  0  0  0  0
  -22.0364  -12.8097   22.0484 N   0  0  0  0  0  0
  -25.3740  -15.2107   20.4305 N   0  0  0  0  0  0
  -31.3470  -16.0009   20.1853 O   0  0  0  0  0  0
  -21.6658   -6.8903   21.4246 O   0  0  0  0  0  0
  -22.3347  -14.5416   20.6758 O   0  0  0  0  0  0
  -24.7147  -31.7601   23.1231 C   0  0  0  0  0  0
  -25.9565  -32.4273   23.7902 C   0  0  1  0  0  0
  -27.2411  -26.3562   20.2530 C   0  0  0  0  0  0
  -25.6001  -33.8119   24.1750 N   0  0  0  0  0  0
  -23.5566  -30.3453   21.4856 C   0  0  2  0  0  0
  -25.0164  -28.6102   20.1314 C   0  0  0  0  0  0
  -22.7905  -29.4094   22.4624 C   0  0  0  0  0  0
  -18.0356  -28.1437   22.8437 C   0  0  0  0  0  0
  -24.1501  -36.7082   23.2668 C   0  0  0  0  0  0
  -26.1487  -30.3764   21.4420 C   0  0  0  0  0  0
  -26.2080  -28.9009   20.8041 C   0  0  0  0  0  0
  -27.2841  -27.8129   20.8239 C   0  0  0  0  0  0
  -26.0167  -26.3654   19.5087 C   0  0  0  0  0  0
  -24.9800  -27.3714   19.4593 C   0  0  0  0  0  0
  -23.8300  -29.6091   20.1365 C   0  0  0  0  0  0
  -25.4169  -36.2789   24.0255 C   0  0  1  0  0  0
  -20.6007  -28.3810   23.1083 C   0  0  2  0  0  0
  -20.6807  -26.9438   22.5414 C   0  0  0  0  0  0
  -19.5789  -26.6357   21.5225 C   0  0  0  0  0  0
  -18.1968  -26.7959   22.1612 C   0  0  0  0  0  0
  -19.1629  -28.8956   23.2733 C   0  0  0  0  0  0
  -18.9530  -30.1532   23.8794 C   0  0  0  0  0  0
  -17.6516  -30.6612   24.0543 C   0  0  0  0  0  0
  -25.9156  -34.9182   23.4868 C   0  0  0  0  0  0
  -16.5404  -29.9088   23.6357 C   0  0  0  0  0  0
  -16.7334  -28.6513   23.0371 C   0  0  0  0  0  0
  -26.4638  -31.6462   25.0672 C   0  0  0  0  0  0
  -25.3607  -31.3859   26.1213 C   0  0  0  0  0  0
  -27.0643  -30.2773   24.6824 C   0  0  0  0  0  0
  -27.6007  -32.4417   25.7520 C   0  0  0  0  0  0
  -27.5540  -37.1728   24.8486 C   0  0  0  0  0  0
  -21.4524  -29.2991   22.3368 N   0  0  0  0  0  0
  -26.4284  -37.3568   23.9365 N   0  0  0  0  0  0
  -24.8344  -30.8695   22.0684 N   0  0  0  0  0  0
  -23.4191  -28.7753   23.3124 O   0  0  0  0  0  0
  -28.2116  -25.0178   20.2791 O   0  0  0  0  0  0
  -26.5849  -34.8821   22.4520 O   0  0  0  0  0  0
  -23.6097  -32.0834   23.5976 O   0  0  0  0  0  0
  -27.8539  -20.4015   20.2893 C   0  0  0  0  0  0
  -29.9276  -20.7736   20.2908 C   0  0  0  0  0  0
  -27.5458  -21.9724   20.2784 C   0  0  0  0  0  0
  -29.6166  -22.3428   20.2816 C   0  0  0  0  0  0
  -29.0980  -19.4718   20.2969 C   0  0  0  0  0  0
  -28.3753  -23.2749   20.2716 C   0  0  0  0  0  0
  -29.2921  -17.5943   20.3134 N   0  0  0  0  0  0
  -31.3311  -13.7934   19.1249 H   0  0  0  0  0  0
  -30.6705  -12.7078   20.2857 H   0  0  0  0  0  0
  -30.1256  -11.9610   17.9465 H   0  0  0  0  0  0
  -29.4494  -13.5270   17.5771 H   0  0  0  0  0  0
  -28.3016  -11.3740   19.3587 H   0  0  0  0  0  0
  -27.5262  -12.1465   17.9919 H   0  0  0  0  0  0
  -27.3825  -14.2170   19.1644 H   0  0  0  0  0  0
  -28.9318  -13.0918   21.5423 H   0  0  0  0  0  0
  -28.0358  -14.5789   21.5634 H   0  0  0  0  0  0
  -25.2821   -9.5683   22.4758 H   0  0  0  0  0  0
  -24.0025   -7.4656   22.7486 H   0  0  0  0  0  0
  -21.0895   -8.8805   19.8951 H   0  0  0  0  0  0
  -22.3780  -10.9677   19.6148 H   0  0  0  0  0  0
  -21.2017   -7.6156   23.9718 H   0  0  0  0  0  0
  -21.1490   -6.0526   25.9075 H   0  0  0  0  0  0
  -22.0589   -2.7617   23.2831 H   0  0  0  0  0  0
  -22.4022  -11.9785   22.4892 H   0  0  0  0  0  0
  -21.0962  -13.1075   22.2674 H   0  0  0  0  0  0
  -24.5949  -15.8513   20.5382 H   0  0  0  0  0  0
  -26.2098  -15.6569   20.0781 H   0  0  0  0  0  0
  -26.7685  -32.4663   23.0638 H   0  0  0  0  0  0
  -24.9993  -33.9100   24.9802 H   0  0  0  0  0  0
  -22.9021  -31.1913   21.2657 H   0  0  0  0  0  0
  -23.3742  -35.9441   23.3374 H   0  0  0  0  0  0
  -24.3519  -36.8715   22.2071 H   0  0  0  0  0  0
  -23.7322  -37.6292   23.6744 H   0  0  0  0  0  0
  -26.3855  -31.0740   20.6379 H   0  0  0  0  0  0
  -26.9883  -30.4591   22.1188 H   0  0  0  0  0  0
  -28.1784  -28.0601   21.3779 H   0  0  0  0  0  0
  -25.8044  -25.4574   18.9621 H   0  0  0  0  0  0
  -24.0936  -27.1355   18.8860 H   0  0  0  0  0  0
  -24.0356  -30.3537   19.3665 H   0  0  0  0  0  0
  -22.9277  -29.0941   19.8030 H   0  0  0  0  0  0
  -25.1411  -36.1524   25.0751 H   0  0  0  0  0  0
  -21.0073  -28.3463   24.1218 H   0  0  0  0  0  0
  -20.5637  -26.2445   23.3707 H   0  0  0  0  0  0
  -21.6667  -26.7330   22.1256 H   0  0  0  0  0  0
  -19.6941  -25.6237   21.1326 H   0  0  0  0  0  0
  -19.6747  -27.3107   20.6708 H   0  0  0  0  0  0
  -17.4245  -26.6704   21.4009 H   0  0  0  0  0  0
  -18.0340  -26.0130   22.9031 H   0  0  0  0  0  0
  -19.8008  -30.7368   24.2125 H   0  0  0  0  0  0
  -17.5067  -31.6281   24.5164 H   0  0  0  0  0  0
  -15.5400  -30.2957   23.7741 H   0  0  0  0  0  0
  -15.8735  -28.0797   22.7144 H   0  0  0  0  0  0
  -24.5907  -30.7077   25.7514 H   0  0  0  0  0  0
  -24.8662  -32.3090   26.4247 H   0  0  0  0  0  0
  -25.7713  -30.9314   27.0239 H   0  0  0  0  0  0
  -26.3429  -29.6270   24.1870 H   0  0  0  0  0  0
  -27.3992  -29.7365   25.5687 H   0  0  0  0  0  0
  -27.9429  -30.3834   24.0461 H   0  0  0  0  0  0
  -27.2488  -33.3825   26.1763 H   0  0  0  0  0  0
  -28.3987  -32.6813   25.0480 H   0  0  0  0  0  0
  -28.0494  -31.8786   26.5714 H   0  0  0  0  0  0
  -28.2600  -37.9970   24.7386 H   0  0  0  0  0  0
  -28.0989  -36.2482   24.6520 H   0  0  0  0  0  0
  -27.2218  -37.1608   25.8881 H   0  0  0  0  0  0
  -20.9907  -29.8597   21.6342 H   0  0  0  0  0  0
  -26.0093  -38.2628   24.1276 H   0  0  0  0  0  0
  -26.9376  -19.8287   20.2921 H   0  0  0  0  0  0
  -30.9898  -20.5739   20.2960 H   0  0  0  0  0  0
  -26.4844  -22.1755   20.2789 H   0  0  0  0  0  0
  -30.5307  -22.9191   20.2872 H   0  0  0  0  0  0
  -28.3439  -17.2471   20.3493 H   0  0  0  0  0  0
  1 25  1  0  0  0
  1 30  2  0  0  0
  1 77  1  0  0  0
  2  3  1  0  0  0
  2 25  1  0  0  0
  2 78  1  0  0  0
  2 79  1  0  0  0
  3  4  1  0  0  0
  3 80  1  0  0  0
  3 81  1  0  0  0
  4  5  1  0  0  0
  4 82  1  0  0  0
  4 83  1  0  0  0
  5  6  1  0  0  0
  5 26  1  0  0  0
  5 84  1  0  0  0
  6 25  1  0  0  0
  6 85  1  0  0  0
  6 86  1  0  0  0
  7  8  2  0  0  0
  7 26  1  0  0  0
  7 29  1  0  0  0
  8  9  1  0  0  0
  8 22  1  0  0  0
  9 10  1  0  0  0
  9 27  2  0  0  0
 10 11  2  0  0  0
 10 15  1  0  0  0
 11 12  1  0  0  0
 11 87  1  0  0  0
 12 13  2  0  0  0
 12 88  1  0  0  0
 13 14  1  0  0  0
 13 31  1  0  0  0
 14 15  2  0  0  0
 14 89  1  0  0  0
 15 90  1  0  0  0
 16 17  2  0  0  0
 16 21  1  0  0  0
 16 31  1  0  0  0
 17 18  1  0  0  0
 17 91  1  0  0  0
 18 19  2  0  0  0
 18 92  1  0  0  0
 19 20  1  0  0  0
 19 24  1  0  0  0
 20 21  2  0  0  0
 20 93  1  0  0  0
 21 23  1  0  0  0
 22 28  1  0  0  0
 22 32  2  0  0  0
 26 27  1  0  0  0
 28 94  1  0  0  0
 28 95  1  0  0  0
 29 96  1  0  0  0
 29 97  1  0  0  0
 33 34  1  0  0  0
 33 66  1  0  0  0
 33 70  2  0  0  0
 34 36  1  0  0  0
 34 59  1  0  0  0
 34 98  1  0  0  0
 35 44  2  0  0  0
 35 45  1  0  0  0
 35 68  1  0  0  0
 36 56  1  0  0  0
 36 99  1  0  0  0
 37 39  1  0  0  0
 37 47  1  0  0  0
 37 66  1  0  0  0
 37100  1  0  0  0
 38 43  2  0  0  0
 38 46  1  0  0  0
 38 47  1  0  0  0
 39 64  1  0  0  0
 39 67  2  0  0  0
 40 52  1  0  0  0
 40 53  2  0  0  0
 40 58  1  0  0  0
 41101  1  0  0  0
 41102  1  0  0  0
 41103  1  0  0  0
 41 48  1  0  0  0
 42 43  1  0  0  0
 42 66  1  0  0  0
 42104  1  0  0  0
 42105  1  0  0  0
 43 44  1  0  0  0
 44106  1  0  0  0
 45 46  2  0  0  0
 45107  1  0  0  0
 46108  1  0  0  0
 47109  1  0  0  0
 47110  1  0  0  0
 48 56  1  0  0  0
 48 65  1  0  0  0
 48111  1  0  0  0
 49 50  1  0  0  0
 49 53  1  0  0  0
 49 64  1  0  0  0
 49112  1  0  0  0
 50 51  1  0  0  0
 50113  1  0  0  0
 50114  1  0  0  0
 51 52  1  0  0  0
 51115  1  0  0  0
 51116  1  0  0  0
 52117  1  0  0  0
 52118  1  0  0  0
 53 54  1  0  0  0
 54 55  2  0  0  0
 54119  1  0  0  0
 55 57  1  0  0  0
 55120  1  0  0  0
 56 69  2  0  0  0
 57 58  2  0  0  0
 57121  1  0  0  0
 58122  1  0  0  0
 59 60  1  0  0  0
 59 61  1  0  0  0
 59 62  1  0  0  0
 60123  1  0  0  0
 60124  1  0  0  0
 60125  1  0  0  0
 61126  1  0  0  0
 61127  1  0  0  0
 61128  1  0  0  0
 62129  1  0  0  0
 62130  1  0  0  0
 62131  1  0  0  0
 63 65  1  0  0  0
 63132  1  0  0  0
 63133  1  0  0  0
 63134  1  0  0  0
 64135  1  0  0  0
 65136  1  0  0  0
 68 76  1  0  0  0
 71 73  2  0  0  0
 71 75  1  0  0  0
 71137  1  0  0  0
 72 74  1  0  0  0
 72 75  2  0  0  0
 72138  1  0  0  0
 73 76  1  0  0  0
 73139  1  0  0  0
 74 76  2  0  0  0
 74140  1  0  0  0
 75 77  1  0  0  0
 77141  1  0  0  0
M  ISO  4   1 100  68 101  76 101  77 100
M  END
> <chiral flag>
0

> <version>
0

> <s_m_source_file>
/data/baiqing/PycharmProjects/Reinvent-master-3.2/result/LINK_invent/BTK/process_docking_weight1_custom_sum_contain_oxygen_bond_distance_aromatic_linkinvent_7_9_3/rearranged_h_0001.sdf

> <i_m_source_file_index>
30

> <r_mmod_Potential_Energy-OPLS-2005>
4197.39111328125

> <r_mmod_Stretch_Energy-OPLS-2005>
1611.42260742188

> <r_mmod_Bend_Energy-OPLS-2005>
1018.25030517578

> <r_mmod_Torsional_Energy-OPLS-2005>
213.763397216797

> <r_mmod_Improper_Torsional_Energy-OPLS-2005>
4.01581335067749

> <r_mmod_Van_der_Waal_Energy-OPLS-2005>
144.880767822266

> <r_mmod_Electrostatic_Energy-OPLS-2005>
-354.25341796875

> <r_mmod_Solvation_Energy-OPLS-2005>
-218.535690307617

> <b_mmod_Minimization_Converged-OPLS-2005>
0

> <r_mmod_RMS_Derivative-OPLS-2005>
0.799303591251373

$$$$
30
                    3D
 Structure written by MMmdl.
151159  0  0  1  0            999 V2000
  -30.6183  -14.6884   20.5139 C   0  0  0  0  0  0
  -30.4359  -12.4337   19.4638 C   0  0  0  0  0  0
  -29.5135  -12.5566   18.2311 C   0  0  0  0  0  0
  -28.0372  -12.3840   18.6297 C   0  0  0  0  0  0
  -27.6555  -13.2329   19.8715 C   0  0  2  0  0  0
  -28.6981  -13.0967   21.0054 C   0  0  0  0  0  0
  -25.2556  -13.8210   20.5713 C   0  0  0  0  0  0
  -24.1819  -13.0449   20.9188 C   0  0  0  0  0  0
  -24.6435  -11.6934   20.8744 C   0  0  0  0  0  0
  -23.9092  -10.4291   21.0363 C   0  0  0  0  0  0
  -24.3651   -9.4206   21.9131 C   0  0  0  0  0  0
  -23.6309   -8.2257   22.0720 C   0  0  0  0  0  0
  -22.4288   -8.0293   21.3541 C   0  0  0  0  0  0
  -21.9934   -9.0258   20.4628 C   0  0  0  0  0  0
  -22.7273  -10.2129   20.3016 C   0  0  0  0  0  0
  -21.6874   -6.0737   22.5277 C   0  0  0  0  0  0
  -21.4030   -6.5634   23.8203 C   0  0  0  0  0  0
  -21.3679   -5.6772   24.9165 C   0  0  0  0  0  0
  -21.6040   -4.3054   24.7207 C   0  0  0  0  0  0
  -21.8837   -3.8139   23.4323 C   0  0  0  0  0  0
  -21.9204   -4.6962   22.3389 C   0  0  0  0  0  0
  -22.7831  -13.5241   21.1808 C   0  0  0  0  0  0
  -22.1651   -4.2152   21.0969 F   0  0  0  0  0  0
  -21.5636   -3.4527   25.7714 F   0  0  0  0  0  0
  -30.0159  -13.4528   20.4529 N   0  0  0  0  0  0
  -26.3007  -12.9411   20.3353 N   0  0  0  0  0  0
  -25.9377  -11.6563   20.5761 N   0  0  0  0  0  0
  -22.0454  -12.8264   22.0419 N   0  0  0  0  0  0
  -25.4261  -15.1926   20.4188 N   0  0  0  0  0  0
  -31.7466  -14.8581   20.0396 O   0  0  0  0  0  0
  -21.6664   -6.8882   21.4224 O   0  0  0  0  0  0
  -22.3495  -14.5516   20.6631 O   0  0  0  0  0  0
  -24.6263  -31.8598   23.1996 C   0  0  0  0  0  0
  -25.9118  -32.4779   23.8327 C   0  0  1  0  0  0
  -27.2440  -27.3066   20.1323 C   0  0  0  0  0  0
  -25.5949  -33.8587   24.2276 N   0  0  0  0  0  0
  -23.4204  -30.4782   21.5458 C   0  0  2  0  0  0
  -24.8716  -28.9196   20.1219 C   0  0  0  0  0  0
  -22.7472  -29.4642   22.4998 C   0  0  0  0  0  0
  -18.0303  -28.1373   22.8479 C   0  0  0  0  0  0
  -24.1504  -36.7279   23.2632 C   0  0  0  0  0  0
  -25.9629  -30.7810   21.3774 C   0  0  0  0  0  0
  -26.0393  -29.4068   20.7226 C   0  0  0  0  0  0
  -27.2260  -28.6130   20.7158 C   0  0  0  0  0  0
  -26.0486  -26.8692   19.5151 C   0  0  0  0  0  0
  -24.8787  -27.6550   19.5111 C   0  0  0  0  0  0
  -23.6351  -29.7970   20.1681 C   0  0  0  0  0  0
  -25.4137  -36.3092   24.0332 C   0  0  1  0  0  0
  -20.5892  -28.3685   23.1288 C   0  0  2  0  0  0
  -20.6825  -26.9422   22.5401 C   0  0  0  0  0  0
  -19.5800  -26.6366   21.5226 C   0  0  0  0  0  0
  -18.1971  -26.7919   22.1604 C   0  0  0  0  0  0
  -19.1543  -28.8850   23.2867 C   0  0  0  0  0  0
  -18.9471  -30.1464   23.8859 C   0  0  0  0  0  0
  -17.6464  -30.6574   24.0553 C   0  0  0  0  0  0
  -25.9078  -34.9468   23.5103 C   0  0  0  0  0  0
  -16.5364  -29.9063   23.6332 C   0  0  0  0  0  0
  -16.7285  -28.6480   23.0351 C   0  0  0  0  0  0
  -26.4481  -31.6589   25.0709 C   0  0  0  0  0  0
  -25.3699  -31.3732   26.1424 C   0  0  0  0  0  0
  -27.0354  -30.3025   24.6179 C   0  0  0  0  0  0
  -27.6045  -32.4320   25.7470 C   0  0  0  0  0  0
  -27.5609  -37.1794   24.8455 C   0  0  0  0  0  0
  -21.4202  -29.3019   22.3689 N   0  0  0  0  0  0
  -26.4304  -37.3797   23.9413 N   0  0  0  0  0  0
  -24.6886  -31.0584   22.0967 N   0  0  0  0  0  0
  -23.4166  -28.8224   23.3136 O   0  0  0  0  0  0
  -28.3839  -26.4785   20.1614 O   0  0  0  0  0  0
  -26.5641  -34.8918   22.4668 O   0  0  0  0  0  0
  -23.5438  -32.1430   23.7307 O   0  0  0  0  0  0
  -30.3063  -17.7857   19.5591 C   0  0  0  0  0  0
  -29.3834  -18.0960   21.7608 C   0  0  0  0  0  0
  -30.1503  -19.1846   19.3131 C   0  0  0  0  0  0
  -29.2632  -19.5058   21.5264 C   0  0  0  0  0  0
  -29.9033  -17.1873   20.7885 C   0  0  0  0  0  0
  -29.6223  -20.0930   20.2781 C   0  0  0  0  0  0
  -29.4960  -24.0739   20.3620 C   0  0  0  0  0  0
  -29.4037  -22.5508   20.8796 C   0  0  0  0  0  0
  -28.2090  -25.0020   20.2058 C   0  0  0  0  0  0
  -29.8978  -15.7332   21.0433 N   0  0  0  0  0  0
  -29.4531  -21.4503   19.9079 O   0  0  0  0  0  0
  -31.4753  -12.5568   19.1615 H   0  0  0  0  0  0
  -30.3658  -11.4324   19.8887 H   0  0  0  0  0  0
  -29.7913  -11.8247   17.4695 H   0  0  0  0  0  0
  -29.6525  -13.5380   17.7753 H   0  0  0  0  0  0
  -27.8735  -11.3263   18.8296 H   0  0  0  0  0  0
  -27.3910  -12.6356   17.7882 H   0  0  0  0  0  0
  -27.6693  -14.2727   19.5484 H   0  0  0  0  0  0
  -28.7155  -12.0734   21.3863 H   0  0  0  0  0  0
  -28.4291  -13.7289   21.8511 H   0  0  0  0  0  0
  -25.2775   -9.5720   22.4711 H   0  0  0  0  0  0
  -24.0047   -7.4666   22.7467 H   0  0  0  0  0  0
  -21.0850   -8.8770   19.8950 H   0  0  0  0  0  0
  -22.3685  -10.9673   19.6153 H   0  0  0  0  0  0
  -21.2008   -7.6126   23.9721 H   0  0  0  0  0  0
  -21.1483   -6.0488   25.9079 H   0  0  0  0  0  0
  -22.0594   -2.7597   23.2816 H   0  0  0  0  0  0
  -22.4062  -11.9965   22.4895 H   0  0  0  0  0  0
  -21.1051  -13.1241   22.2523 H   0  0  0  0  0  0
  -24.6665  -15.8532   20.5436 H   0  0  0  0  0  0
  -26.2856  -15.6363   20.1247 H   0  0  0  0  0  0
  -26.7180  -32.5417   23.1067 H   0  0  0  0  0  0
  -25.0177  -33.9724   25.0473 H   0  0  0  0  0  0
  -22.7144  -31.2989   21.3978 H   0  0  0  0  0  0
  -23.3803  -35.9568   23.3274 H   0  0  0  0  0  0
  -24.3602  -36.8921   22.2046 H   0  0  0  0  0  0
  -23.7201  -37.6453   23.6661 H   0  0  0  0  0  0
  -26.1067  -31.5404   20.6075 H   0  0  0  0  0  0
  -26.8363  -30.8237   22.0166 H   0  0  0  0  0  0
  -28.1177  -28.9868   21.2001 H   0  0  0  0  0  0
  -25.9934  -25.9038   19.0360 H   0  0  0  0  0  0
  -23.9843  -27.2690   19.0415 H   0  0  0  0  0  0
  -23.7403  -30.5632   19.4004 H   0  0  0  0  0  0
  -22.7556  -29.2188   19.8770 H   0  0  0  0  0  0
  -25.1316  -36.1953   25.0827 H   0  0  0  0  0  0
  -20.9965  -28.3272   24.1415 H   0  0  0  0  0  0
  -20.5799  -26.2308   23.3595 H   0  0  0  0  0  0
  -21.6692  -26.7520   22.1159 H   0  0  0  0  0  0
  -19.6998  -25.6281   21.1261 H   0  0  0  0  0  0
  -19.6737  -27.3157   20.6745 H   0  0  0  0  0  0
  -17.4273  -26.6667   21.3983 H   0  0  0  0  0  0
  -18.0346  -26.0029   22.8950 H   0  0  0  0  0  0
  -19.7957  -30.7303   24.2150 H   0  0  0  0  0  0
  -17.5032  -31.6249   24.5162 H   0  0  0  0  0  0
  -15.5365  -30.2946   23.7697 H   0  0  0  0  0  0
  -15.8687  -28.0785   22.7088 H   0  0  0  0  0  0
  -24.5841  -30.7139   25.7725 H   0  0  0  0  0  0
  -24.8923  -32.2906   26.4872 H   0  0  0  0  0  0
  -25.7975  -30.8855   27.0188 H   0  0  0  0  0  0
  -26.2957  -29.6747   24.1210 H   0  0  0  0  0  0
  -27.4094  -29.7292   25.4666 H   0  0  0  0  0  0
  -27.8785  -30.4337   23.9399 H   0  0  0  0  0  0
  -27.2672  -33.3616   26.2050 H   0  0  0  0  0  0
  -28.3834  -32.6889   25.0286 H   0  0  0  0  0  0
  -28.0734  -31.8453   26.5370 H   0  0  0  0  0  0
  -28.2593  -38.0129   24.7612 H   0  0  0  0  0  0
  -28.1151  -36.2687   24.6170 H   0  0  0  0  0  0
  -27.2338  -37.1292   25.8850 H   0  0  0  0  0  0
  -20.9436  -29.8639   21.6781 H   0  0  0  0  0  0
  -26.0207  -38.2871   24.1430 H   0  0  0  0  0  0
  -30.7036  -17.1789   18.7545 H   0  0  0  0  0  0
  -29.0400  -17.7192   22.7203 H   0  0  0  0  0  0
  -30.4406  -19.5683   18.3432 H   0  0  0  0  0  0
  -28.8440  -20.1135   22.3196 H   0  0  0  0  0  0
  -30.0759  -24.0950   19.4386 H   0  0  0  0  0  0
  -30.1279  -24.5954   21.0820 H   0  0  0  0  0  0
  -28.5720  -22.4378   21.5775 H   0  0  0  0  0  0
  -30.3014  -22.3971   21.4825 H   0  0  0  0  0  0
  -27.5390  -24.7864   21.0384 H   0  0  0  0  0  0
  -27.7049  -24.6696   19.3012 H   0  0  0  0  0  0
  -29.1493  -15.4223   21.6469 H   0  0  0  0  0  0
  1 25  1  0  0  0
  1 30  2  0  0  0
  1 80  1  0  0  0
  2  3  1  0  0  0
  2 25  1  0  0  0
  2 82  1  0  0  0
  2 83  1  0  0  0
  3  4  1  0  0  0
  3 84  1  0  0  0
  3 85  1  0  0  0
  4  5  1  0  0  0
  4 86  1  0  0  0
  4 87  1  0  0  0
  5  6  1  0  0  0
  5 26  1  0  0  0
  5 88  1  0  0  0
  6 25  1  0  0  0
  6 89  1  0  0  0
  6 90  1  0  0  0
  7  8  2  0  0  0
  7 26  1  0  0  0
  7 29  1  0  0  0
  8  9  1  0  0  0
  8 22  1  0  0  0
  9 10  1  0  0  0
  9 27  2  0  0  0
 10 11  2  0  0  0
 10 15  1  0  0  0
 11 12  1  0  0  0
 11 91  1  0  0  0
 12 13  2  0  0  0
 12 92  1  0  0  0
 13 14  1  0  0  0
 13 31  1  0  0  0
 14 15  2  0  0  0
 14 93  1  0  0  0
 15 94  1  0  0  0
 16 17  2  0  0  0
 16 21  1  0  0  0
 16 31  1  0  0  0
 17 18  1  0  0  0
 17 95  1  0  0  0
 18 19  2  0  0  0
 18 96  1  0  0  0
 19 20  1  0  0  0
 19 24  1  0  0  0
 20 21  2  0  0  0
 20 97  1  0  0  0
 21 23  1  0  0  0
 22 28  1  0  0  0
 22 32  2  0  0  0
 26 27  1  0  0  0
 28 98  1  0  0  0
 28 99  1  0  0  0
 29100  1  0  0  0
 29101  1  0  0  0
 33 34  1  0  0  0
 33 66  1  0  0  0
 33 70  2  0  0  0
 34 36  1  0  0  0
 34 59  1  0  0  0
 34102  1  0  0  0
 35 44  2  0  0  0
 35 45  1  0  0  0
 35 68  1  0  0  0
 36 56  1  0  0  0
 36103  1  0  0  0
 37 39  1  0  0  0
 37 47  1  0  0  0
 37 66  1  0  0  0
 37104  1  0  0  0
 38 43  2  0  0  0
 38 46  1  0  0  0
 38 47  1  0  0  0
 39 64  1  0  0  0
 39 67  2  0  0  0
 40 52  1  0  0  0
 40 53  2  0  0  0
 40 58  1  0  0  0
 41105  1  0  0  0
 41106  1  0  0  0
 41107  1  0  0  0
 41 48  1  0  0  0
 42 43  1  0  0  0
 42 66  1  0  0  0
 42108  1  0  0  0
 42109  1  0  0  0
 43 44  1  0  0  0
 44110  1  0  0  0
 45 46  2  0  0  0
 45111  1  0  0  0
 46112  1  0  0  0
 47113  1  0  0  0
 47114  1  0  0  0
 48 56  1  0  0  0
 48 65  1  0  0  0
 48115  1  0  0  0
 49 50  1  0  0  0
 49 53  1  0  0  0
 49 64  1  0  0  0
 49116  1  0  0  0
 50 51  1  0  0  0
 50117  1  0  0  0
 50118  1  0  0  0
 51 52  1  0  0  0
 51119  1  0  0  0
 51120  1  0  0  0
 52121  1  0  0  0
 52122  1  0  0  0
 53 54  1  0  0  0
 54 55  2  0  0  0
 54123  1  0  0  0
 55 57  1  0  0  0
 55124  1  0  0  0
 56 69  2  0  0  0
 57 58  2  0  0  0
 57125  1  0  0  0
 58126  1  0  0  0
 59 60  1  0  0  0
 59 61  1  0  0  0
 59 62  1  0  0  0
 60127  1  0  0  0
 60128  1  0  0  0
 60129  1  0  0  0
 61130  1  0  0  0
 61131  1  0  0  0
 61132  1  0  0  0
 62133  1  0  0  0
 62134  1  0  0  0
 62135  1  0  0  0
 63 65  1  0  0  0
 63136  1  0  0  0
 63137  1  0  0  0
 63138  1  0  0  0
 64139  1  0  0  0
 65140  1  0  0  0
 68 79  1  0  0  0
 71 73  2  0  0  0
 71 75  1  0  0  0
 71141  1  0  0  0
 72 74  1  0  0  0
 72 75  2  0  0  0
 72142  1  0  0  0
 73 76  1  0  0  0
 73143  1  0  0  0
 74 76  2  0  0  0
 74144  1  0  0  0
 75 80  1  0  0  0
 76 81  1  0  0  0
 77 78  1  0  0  0
 77 79  1  0  0  0
 77145  1  0  0  0
 77146  1  0  0  0
 78 81  1  0  0  0
 78147  1  0  0  0
 78148  1  0  0  0
 79149  1  0  0  0
 79150  1  0  0  0
 80151  1  0  0  0
M  ISO  4   1 100  68 101  79 101  80 100
M  END
> <chiral flag>
0

> <version>
0

> <s_m_source_file>
/data/baiqing/PycharmProjects/Reinvent-master-3.2/result/LINK_invent/BTK/process_docking_weight1_custom_sum_contain_oxygen_bond_distance_aromatic_linkinvent_7_9_3/rearranged_h_0001.sdf

> <i_m_source_file_index>
31

> <r_mmod_Potential_Energy-OPLS-2005>
87.3086853027344

> <r_mmod_Stretch_Energy-OPLS-2005>
91.08984375

> <r_mmod_Bend_Energy-OPLS-2005>
159.319290161133

> <r_mmod_Torsional_Energy-OPLS-2005>
236.013916015625

> <r_mmod_Improper_Torsional_Energy-OPLS-2005>
3.05807876586914

> <r_mmod_Van_der_Waal_Energy-OPLS-2005>
138.714782714844

> <r_mmod_Electrostatic_Energy-OPLS-2005>
-383.976654052734

> <r_mmod_Solvation_Energy-OPLS-2005>
-214.270523071289

> <b_mmod_Minimization_Converged-OPLS-2005>
0

> <r_mmod_RMS_Derivative-OPLS-2005>
5.72391843795776

$$$$
31
                    3D
 Structure written by MMmdl.
136143  0  0  1  0            999 V2000
  -30.0547  -16.4460   20.2582 C   0  0  0  0  0  0
  -30.3444  -13.6555   19.5669 C   0  0  0  0  0  0
  -29.5809  -12.8853   18.4207 C   0  0  0  0  0  0
  -28.2217  -12.3612   18.8918 C   0  0  0  0  0  0
  -27.5631  -13.4089   19.8053 C   0  0  2  0  0  0
  -28.4871  -14.0783   20.8756 C   0  0  0  0  0  0
  -25.2124  -13.8445   20.5879 C   0  0  0  0  0  0
  -24.1631  -13.0454   20.9323 C   0  0  0  0  0  0
  -24.6478  -11.7012   20.8735 C   0  0  0  0  0  0
  -23.9208  -10.4312   21.0352 C   0  0  0  0  0  0
  -24.3712   -9.4224   21.9154 C   0  0  0  0  0  0
  -23.6350   -8.2274   22.0747 C   0  0  0  0  0  0
  -22.4327   -8.0310   21.3544 C   0  0  0  0  0  0
  -21.9989   -9.0286   20.4636 C   0  0  0  0  0  0
  -22.7356  -10.2146   20.3023 C   0  0  0  0  0  0
  -21.6873   -6.0757   22.5279 C   0  0  0  0  0  0
  -21.4030   -6.5652   23.8214 C   0  0  0  0  0  0
  -21.3664   -5.6799   24.9172 C   0  0  0  0  0  0
  -21.6043   -4.3062   24.7220 C   0  0  0  0  0  0
  -21.8817   -3.8158   23.4339 C   0  0  0  0  0  0
  -21.9199   -4.6980   22.3398 C   0  0  0  0  0  0
  -22.7623  -13.5099   21.1948 C   0  0  0  0  0  0
  -22.1663   -4.2164   21.0975 F   0  0  0  0  0  0
  -21.5624   -3.4542   25.7730 F   0  0  0  0  0  0
  -29.5648  -14.8881   20.1934 N   0  0  0  0  0  0
  -26.2690  -12.9979   20.3316 N   0  0  0  0  0  0
  -25.9458  -11.6933   20.5620 N   0  0  0  0  0  0
  -22.0330  -12.8049   22.0506 N   0  0  0  0  0  0
  -25.3551  -15.2209   20.4332 N   0  0  0  0  0  0
  -31.3003  -16.2597   20.1575 O   0  0  0  0  0  0
  -21.6670   -6.8914   21.4248 O   0  0  0  0  0  0
  -22.3263  -14.5387   20.6788 O   0  0  0  0  0  0
  -24.7357  -31.7341   23.1059 C   0  0  0  0  0  0
  -25.9670  -32.4148   23.7810 C   0  0  1  0  0  0
  -27.2554  -26.1545   20.2647 C   0  0  0  0  0  0
  -25.6019  -33.8005   24.1636 N   0  0  0  0  0  0
  -23.5864  -30.3096   21.4734 C   0  0  2  0  0  0
  -25.0488  -28.5320   20.1367 C   0  0  0  0  0  0
  -22.7997  -29.3962   22.4572 C   0  0  0  0  0  0
  -18.0371  -28.1449   22.8427 C   0  0  0  0  0  0
  -24.1496  -36.7016   23.2667 C   0  0  0  0  0  0
  -26.1849  -30.2853   21.4529 C   0  0  0  0  0  0
  -26.2453  -28.7877   20.8145 C   0  0  0  0  0  0
  -27.3043  -27.6477   20.8288 C   0  0  0  0  0  0
  -26.0211  -26.2482   19.5206 C   0  0  0  0  0  0
  -25.0086  -27.2921   19.4634 C   0  0  0  0  0  0
  -23.8699  -29.5528   20.1341 C   0  0  0  0  0  0
  -25.4166  -36.2710   24.0243 C   0  0  1  0  0  0
  -20.6030  -28.3829   23.1046 C   0  0  2  0  0  0
  -20.6807  -26.9438   22.5415 C   0  0  0  0  0  0
  -19.5794  -26.6351   21.5223 C   0  0  0  0  0  0
  -18.1976  -26.7965   22.1609 C   0  0  0  0  0  0
  -19.1650  -28.8976   23.2700 C   0  0  0  0  0  0
  -18.9547  -30.1546   23.8768 C   0  0  0  0  0  0
  -17.6531  -30.6617   24.0538 C   0  0  0  0  0  0
  -25.9179  -34.9115   23.4820 C   0  0  0  0  0  0
  -16.5417  -29.9089   23.6364 C   0  0  0  0  0  0
  -16.7348  -28.6515   23.0376 C   0  0  0  0  0  0
  -26.4679  -31.6422   25.0657 C   0  0  0  0  0  0
  -25.3605  -31.3885   26.1171 C   0  0  0  0  0  0
  -27.0702  -30.2710   24.6944 C   0  0  0  0  0  0
  -27.6020  -32.4417   25.7503 C   0  0  0  0  0  0
  -27.5548  -37.1658   24.8464 C   0  0  0  0  0  0
  -21.4597  -29.2964   22.3307 N   0  0  0  0  0  0
  -26.4245  -37.3533   23.9412 N   0  0  0  0  0  0
  -24.8663  -30.8232   22.0623 N   0  0  0  0  0  0
  -23.4182  -28.7660   23.3173 O   0  0  0  0  0  0
  -28.1678  -24.6999   20.3196 O   0  0  0  0  0  0
  -26.5902  -34.8802   22.4495 O   0  0  0  0  0  0
  -23.6262  -32.0669   23.5664 O   0  0  0  0  0  0
  -28.1629  -22.6483   20.2373 C   0  0  0  0  0  0
  -29.1091  -20.5560   20.2925 C   0  0  0  0  0  0
  -29.0728  -18.5061   20.3040 O   0  0  0  0  0  0
  -31.2793  -14.0166   19.1378 H   0  0  0  0  0  0
  -30.6607  -12.9592   20.3459 H   0  0  0  0  0  0
  -30.1896  -12.0655   18.0370 H   0  0  0  0  0  0
  -29.4281  -13.5693   17.5846 H   0  0  0  0  0  0
  -28.3815  -11.4407   19.4547 H   0  0  0  0  0  0
  -27.5814  -12.1081   18.0457 H   0  0  0  0  0  0
  -27.3265  -14.2135   19.1067 H   0  0  0  0  0  0
  -28.8858  -13.3440   21.5777 H   0  0  0  0  0  0
  -27.9070  -14.7721   21.4846 H   0  0  0  0  0  0
  -25.2846   -9.5695   22.4747 H   0  0  0  0  0  0
  -24.0041   -7.4673   22.7486 H   0  0  0  0  0  0
  -21.0914   -8.8825   19.8947 H   0  0  0  0  0  0
  -22.3812  -10.9684   19.6133 H   0  0  0  0  0  0
  -21.2030   -7.6161   23.9723 H   0  0  0  0  0  0
  -21.1485   -6.0527   25.9076 H   0  0  0  0  0  0
  -22.0589   -2.7620   23.2834 H   0  0  0  0  0  0
  -22.4016  -11.9744   22.4901 H   0  0  0  0  0  0
  -21.0923  -13.0998   22.2709 H   0  0  0  0  0  0
  -24.5800  -15.8636   20.5550 H   0  0  0  0  0  0
  -26.2054  -15.6770   20.1269 H   0  0  0  0  0  0
  -26.7818  -32.4511   23.0570 H   0  0  0  0  0  0
  -24.9980  -33.8948   24.9669 H   0  0  0  0  0  0
  -22.9439  -31.1599   21.2351 H   0  0  0  0  0  0
  -23.3793  -35.9306   23.3221 H   0  0  0  0  0  0
  -24.3548  -36.8822   22.2104 H   0  0  0  0  0  0
  -23.7225  -37.6129   23.6862 H   0  0  0  0  0  0
  -26.4415  -30.9714   20.6448 H   0  0  0  0  0  0
  -27.0177  -30.3722   22.1369 H   0  0  0  0  0  0
  -28.1948  -27.8773   21.3966 H   0  0  0  0  0  0
  -25.7671  -25.3538   18.9693 H   0  0  0  0  0  0
  -24.1239  -27.0740   18.8809 H   0  0  0  0  0  0
  -24.0885  -30.2879   19.3588 H   0  0  0  0  0  0
  -22.9643  -29.0451   19.7982 H   0  0  0  0  0  0
  -25.1401  -36.1390   25.0729 H   0  0  0  0  0  0
  -21.0090  -28.3493   24.1183 H   0  0  0  0  0  0
  -20.5619  -26.2468   23.3725 H   0  0  0  0  0  0
  -21.6665  -26.7295   22.1268 H   0  0  0  0  0  0
  -19.6940  -25.6228   21.1334 H   0  0  0  0  0  0
  -19.6756  -27.3093   20.6701 H   0  0  0  0  0  0
  -17.4250  -26.6713   21.4007 H   0  0  0  0  0  0
  -18.0342  -26.0138   22.9031 H   0  0  0  0  0  0
  -19.8024  -30.7391   24.2084 H   0  0  0  0  0  0
  -17.5081  -31.6283   24.5167 H   0  0  0  0  0  0
  -15.5413  -30.2952   23.7763 H   0  0  0  0  0  0
  -15.8748  -28.0793   22.7164 H   0  0  0  0  0  0
  -24.5850  -30.7181   25.7447 H   0  0  0  0  0  0
  -24.8737  -32.3150   26.4225 H   0  0  0  0  0  0
  -25.7657  -30.9283   27.0191 H   0  0  0  0  0  0
  -26.3513  -29.6145   24.2036 H   0  0  0  0  0  0
  -27.4018  -29.7386   25.5869 H   0  0  0  0  0  0
  -27.9529  -30.3726   24.0630 H   0  0  0  0  0  0
  -27.2489  -33.3854   26.1674 H   0  0  0  0  0  0
  -28.4028  -32.6764   25.0478 H   0  0  0  0  0  0
  -28.0471  -31.8833   26.5748 H   0  0  0  0  0  0
  -28.2488  -38.0022   24.7530 H   0  0  0  0  0  0
  -28.1119  -36.2537   24.6267 H   0  0  0  0  0  0
  -27.2264  -37.1249   25.8865 H   0  0  0  0  0  0
  -21.0034  -29.8530   21.6213 H   0  0  0  0  0  0
  -26.0021  -38.2552   24.1448 H   0  0  0  0  0  0
  -27.4076  -22.4986   21.0086 H   0  0  0  0  0  0
  -27.6029  -22.5536   19.3072 H   0  0  0  0  0  0
  -29.8290  -20.6743   19.4829 H   0  0  0  0  0  0
  -29.7129  -20.6754   21.1918 H   0  0  0  0  0  0
  1 25  1  0  0  0
  1 30  2  0  0  0
  1 73  1  0  0  0
  2  3  1  0  0  0
  2 25  1  0  0  0
  2 74  1  0  0  0
  2 75  1  0  0  0
  3  4  1  0  0  0
  3 76  1  0  0  0
  3 77  1  0  0  0
  4  5  1  0  0  0
  4 78  1  0  0  0
  4 79  1  0  0  0
  5  6  1  0  0  0
  5 26  1  0  0  0
  5 80  1  0  0  0
  6 25  1  0  0  0
  6 81  1  0  0  0
  6 82  1  0  0  0
  7  8  2  0  0  0
  7 26  1  0  0  0
  7 29  1  0  0  0
  8  9  1  0  0  0
  8 22  1  0  0  0
  9 10  1  0  0  0
  9 27  2  0  0  0
 10 11  2  0  0  0
 10 15  1  0  0  0
 11 12  1  0  0  0
 11 83  1  0  0  0
 12 13  2  0  0  0
 12 84  1  0  0  0
 13 14  1  0  0  0
 13 31  1  0  0  0
 14 15  2  0  0  0
 14 85  1  0  0  0
 15 86  1  0  0  0
 16 17  2  0  0  0
 16 21  1  0  0  0
 16 31  1  0  0  0
 17 18  1  0  0  0
 17 87  1  0  0  0
 18 19  2  0  0  0
 18 88  1  0  0  0
 19 20  1  0  0  0
 19 24  1  0  0  0
 20 21  2  0  0  0
 20 89  1  0  0  0
 21 23  1  0  0  0
 22 28  1  0  0  0
 22 32  2  0  0  0
 26 27  1  0  0  0
 28 90  1  0  0  0
 28 91  1  0  0  0
 29 92  1  0  0  0
 29 93  1  0  0  0
 33 34  1  0  0  0
 33 66  1  0  0  0
 33 70  2  0  0  0
 34 36  1  0  0  0
 34 59  1  0  0  0
 34 94  1  0  0  0
 35 44  2  0  0  0
 35 45  1  0  0  0
 35 68  1  0  0  0
 36 56  1  0  0  0
 36 95  1  0  0  0
 37 39  1  0  0  0
 37 47  1  0  0  0
 37 66  1  0  0  0
 37 96  1  0  0  0
 38 43  2  0  0  0
 38 46  1  0  0  0
 38 47  1  0  0  0
 39 64  1  0  0  0
 39 67  2  0  0  0
 40 52  1  0  0  0
 40 53  2  0  0  0
 40 58  1  0  0  0
 41 97  1  0  0  0
 41 98  1  0  0  0
 41 99  1  0  0  0
 41 48  1  0  0  0
 42 43  1  0  0  0
 42 66  1  0  0  0
 42100  1  0  0  0
 42101  1  0  0  0
 43 44  1  0  0  0
 44102  1  0  0  0
 45 46  2  0  0  0
 45103  1  0  0  0
 46104  1  0  0  0
 47105  1  0  0  0
 47106  1  0  0  0
 48 56  1  0  0  0
 48 65  1  0  0  0
 48107  1  0  0  0
 49 50  1  0  0  0
 49 53  1  0  0  0
 49 64  1  0  0  0
 49108  1  0  0  0
 50 51  1  0  0  0
 50109  1  0  0  0
 50110  1  0  0  0
 51 52  1  0  0  0
 51111  1  0  0  0
 51112  1  0  0  0
 52113  1  0  0  0
 52114  1  0  0  0
 53 54  1  0  0  0
 54 55  2  0  0  0
 54115  1  0  0  0
 55 57  1  0  0  0
 55116  1  0  0  0
 56 69  2  0  0  0
 57 58  2  0  0  0
 57117  1  0  0  0
 58118  1  0  0  0
 59 60  1  0  0  0
 59 61  1  0  0  0
 59 62  1  0  0  0
 60119  1  0  0  0
 60120  1  0  0  0
 60121  1  0  0  0
 61122  1  0  0  0
 61123  1  0  0  0
 61124  1  0  0  0
 62125  1  0  0  0
 62126  1  0  0  0
 62127  1  0  0  0
 63 65  1  0  0  0
 63128  1  0  0  0
 63129  1  0  0  0
 63130  1  0  0  0
 64131  1  0  0  0
 65132  1  0  0  0
 68 71  1  0  0  0
 71 72  1  0  0  0
 71133  1  0  0  0
 71134  1  0  0  0
 72 73  1  0  0  0
 72135  1  0  0  0
 72136  1  0  0  0
M  ISO  4   1 100  68 101  71 101  73 100
M  END
> <chiral flag>
0

> <version>
0

> <s_m_source_file>
/data/baiqing/PycharmProjects/Reinvent-master-3.2/result/LINK_invent/BTK/process_docking_weight1_custom_sum_contain_oxygen_bond_distance_aromatic_linkinvent_7_9_3/rearranged_h_0001.sdf

> <i_m_source_file_index>
32

> <r_mmod_Potential_Energy-OPLS-2005>
6478.73583984375

> <r_mmod_Stretch_Energy-OPLS-2005>
3177.73461914062

> <r_mmod_Bend_Energy-OPLS-2005>
1063.67736816406

> <r_mmod_Torsional_Energy-OPLS-2005>
189.976089477539

> <r_mmod_Improper_Torsional_Energy-OPLS-2005>
3.2452130317688

> <r_mmod_Van_der_Waal_Energy-OPLS-2005>
117.621681213379

> <r_mmod_Electrostatic_Energy-OPLS-2005>
-321.906036376953

> <r_mmod_Solvation_Energy-OPLS-2005>
-209.133285522461

> <b_mmod_Minimization_Converged-OPLS-2005>
1

> <r_mmod_RMS_Derivative-OPLS-2005>
0.0454980842769146

$$$$
32
                    3D
 Structure written by MMmdl.
141149  0  0  1  0            999 V2000
  -30.0996  -16.1278   20.2933 C   0  0  0  0  0  0
  -30.3832  -13.4557   19.5445 C   0  0  0  0  0  0
  -29.5696  -12.7948   18.3771 C   0  0  0  0  0  0
  -28.1854  -12.3278   18.8420 C   0  0  0  0  0  0
  -27.5827  -13.3611   19.8112 C   0  0  2  0  0  0
  -28.5622  -13.8923   20.8994 C   0  0  0  0  0  0
  -25.2245  -13.8357   20.5865 C   0  0  0  0  0  0
  -24.1689  -13.0438   20.9319 C   0  0  0  0  0  0
  -24.6462  -11.6972   20.8754 C   0  0  0  0  0  0
  -23.9169  -10.4299   21.0373 C   0  0  0  0  0  0
  -24.3683   -9.4212   21.9167 C   0  0  0  0  0  0
  -23.6331   -8.2259   22.0753 C   0  0  0  0  0  0
  -22.4310   -8.0298   21.3547 C   0  0  0  0  0  0
  -21.9965   -9.0272   20.4641 C   0  0  0  0  0  0
  -22.7323  -10.2138   20.3037 C   0  0  0  0  0  0
  -21.6863   -6.0749   22.5279 C   0  0  0  0  0  0
  -21.4021   -6.5648   23.8213 C   0  0  0  0  0  0
  -21.3666   -5.6796   24.9172 C   0  0  0  0  0  0
  -21.6044   -4.3058   24.7219 C   0  0  0  0  0  0
  -21.8817   -3.8155   23.4339 C   0  0  0  0  0  0
  -21.9196   -4.6974   22.3397 C   0  0  0  0  0  0
  -22.7687  -13.5129   21.1931 C   0  0  0  0  0  0
  -22.1664   -4.2159   21.0974 F   0  0  0  0  0  0
  -21.5628   -3.4539   25.7732 F   0  0  0  0  0  0
  -29.6522  -14.6704   20.2170 N   0  0  0  0  0  0
  -26.2765  -12.9795   20.3316 N   0  0  0  0  0  0
  -25.9436  -11.6806   20.5676 N   0  0  0  0  0  0
  -22.0364  -12.8097   22.0484 N   0  0  0  0  0  0
  -25.3740  -15.2107   20.4305 N   0  0  0  0  0  0
  -31.3470  -16.0009   20.1853 O   0  0  0  0  0  0
  -21.6658   -6.8903   21.4246 O   0  0  0  0  0  0
  -22.3347  -14.5416   20.6758 O   0  0  0  0  0  0
  -24.7147  -31.7601   23.1231 C   0  0  0  0  0  0
  -25.9565  -32.4273   23.7902 C   0  0  1  0  0  0
  -27.2411  -26.3562   20.2530 C   0  0  0  0  0  0
  -25.6001  -33.8119   24.1750 N   0  0  0  0  0  0
  -23.5566  -30.3453   21.4856 C   0  0  2  0  0  0
  -25.0164  -28.6102   20.1314 C   0  0  0  0  0  0
  -22.7905  -29.4094   22.4624 C   0  0  0  0  0  0
  -18.0356  -28.1437   22.8437 C   0  0  0  0  0  0
  -24.1501  -36.7082   23.2668 C   0  0  0  0  0  0
  -26.1487  -30.3764   21.4420 C   0  0  0  0  0  0
  -26.2080  -28.9009   20.8041 C   0  0  0  0  0  0
  -27.2841  -27.8129   20.8239 C   0  0  0  0  0  0
  -26.0167  -26.3654   19.5087 C   0  0  0  0  0  0
  -24.9800  -27.3714   19.4593 C   0  0  0  0  0  0
  -23.8300  -29.6091   20.1365 C   0  0  0  0  0  0
  -25.4169  -36.2789   24.0255 C   0  0  1  0  0  0
  -20.6007  -28.3810   23.1083 C   0  0  2  0  0  0
  -20.6807  -26.9438   22.5414 C   0  0  0  0  0  0
  -19.5789  -26.6357   21.5225 C   0  0  0  0  0  0
  -18.1968  -26.7959   22.1612 C   0  0  0  0  0  0
  -19.1629  -28.8956   23.2733 C   0  0  0  0  0  0
  -18.9530  -30.1532   23.8794 C   0  0  0  0  0  0
  -17.6516  -30.6612   24.0543 C   0  0  0  0  0  0
  -25.9156  -34.9182   23.4868 C   0  0  0  0  0  0
  -16.5404  -29.9088   23.6357 C   0  0  0  0  0  0
  -16.7334  -28.6513   23.0371 C   0  0  0  0  0  0
  -26.4638  -31.6462   25.0672 C   0  0  0  0  0  0
  -25.3607  -31.3859   26.1213 C   0  0  0  0  0  0
  -27.0643  -30.2773   24.6824 C   0  0  0  0  0  0
  -27.6007  -32.4417   25.7520 C   0  0  0  0  0  0
  -27.5540  -37.1728   24.8486 C   0  0  0  0  0  0
  -21.4524  -29.2991   22.3368 N   0  0  0  0  0  0
  -26.4284  -37.3568   23.9365 N   0  0  0  0  0  0
  -24.8344  -30.8695   22.0684 N   0  0  0  0  0  0
  -23.4191  -28.7753   23.3124 O   0  0  0  0  0  0
  -28.2116  -25.0178   20.2791 O   0  0  0  0  0  0
  -26.5849  -34.8821   22.4520 O   0  0  0  0  0  0
  -23.6097  -32.0834   23.5976 O   0  0  0  0  0  0
  -27.8539  -20.4015   20.2893 C   0  0  0  0  0  0
  -29.9276  -20.7736   20.2908 C   0  0  0  0  0  0
  -27.5458  -21.9724   20.2784 C   0  0  0  0  0  0
  -29.6166  -22.3428   20.2816 C   0  0  0  0  0  0
  -29.0980  -19.4718   20.2969 C   0  0  0  0  0  0
  -28.3753  -23.2749   20.2716 C   0  0  0  0  0  0
  -29.2921  -17.5943   20.3134 N   0  0  0  0  0  0
  -31.3311  -13.7934   19.1249 H   0  0  0  0  0  0
  -30.6705  -12.7078   20.2857 H   0  0  0  0  0  0
  -30.1256  -11.9610   17.9465 H   0  0  0  0  0  0
  -29.4494  -13.5270   17.5771 H   0  0  0  0  0  0
  -28.3016  -11.3740   19.3587 H   0  0  0  0  0  0
  -27.5262  -12.1465   17.9919 H   0  0  0  0  0  0
  -27.3825  -14.2170   19.1644 H   0  0  0  0  0  0
  -28.9318  -13.0918   21.5423 H   0  0  0  0  0  0
  -28.0358  -14.5789   21.5634 H   0  0  0  0  0  0
  -25.2821   -9.5683   22.4758 H   0  0  0  0  0  0
  -24.0025   -7.4656   22.7486 H   0  0  0  0  0  0
  -21.0895   -8.8805   19.8951 H   0  0  0  0  0  0
  -22.3780  -10.9677   19.6148 H   0  0  0  0  0  0
  -21.2017   -7.6156   23.9718 H   0  0  0  0  0  0
  -21.1490   -6.0526   25.9075 H   0  0  0  0  0  0
  -22.0589   -2.7617   23.2831 H   0  0  0  0  0  0
  -22.4022  -11.9785   22.4892 H   0  0  0  0  0  0
  -21.0962  -13.1075   22.2674 H   0  0  0  0  0  0
  -24.5949  -15.8513   20.5382 H   0  0  0  0  0  0
  -26.2098  -15.6569   20.0781 H   0  0  0  0  0  0
  -26.7685  -32.4663   23.0638 H   0  0  0  0  0  0
  -24.9993  -33.9100   24.9802 H   0  0  0  0  0  0
  -22.9021  -31.1913   21.2657 H   0  0  0  0  0  0
  -23.3742  -35.9441   23.3374 H   0  0  0  0  0  0
  -24.3519  -36.8715   22.2071 H   0  0  0  0  0  0
  -23.7322  -37.6292   23.6744 H   0  0  0  0  0  0
  -26.3855  -31.0740   20.6379 H   0  0  0  0  0  0
  -26.9883  -30.4591   22.1188 H   0  0  0  0  0  0
  -28.1784  -28.0601   21.3779 H   0  0  0  0  0  0
  -25.8044  -25.4574   18.9621 H   0  0  0  0  0  0
  -24.0936  -27.1355   18.8860 H   0  0  0  0  0  0
  -24.0356  -30.3537   19.3665 H   0  0  0  0  0  0
  -22.9277  -29.0941   19.8030 H   0  0  0  0  0  0
  -25.1411  -36.1524   25.0751 H   0  0  0  0  0  0
  -21.0073  -28.3463   24.1218 H   0  0  0  0  0  0
  -20.5637  -26.2445   23.3707 H   0  0  0  0  0  0
  -21.6667  -26.7330   22.1256 H   0  0  0  0  0  0
  -19.6941  -25.6237   21.1326 H   0  0  0  0  0  0
  -19.6747  -27.3107   20.6708 H   0  0  0  0  0  0
  -17.4245  -26.6704   21.4009 H   0  0  0  0  0  0
  -18.0340  -26.0130   22.9031 H   0  0  0  0  0  0
  -19.8008  -30.7368   24.2125 H   0  0  0  0  0  0
  -17.5067  -31.6281   24.5164 H   0  0  0  0  0  0
  -15.5400  -30.2957   23.7741 H   0  0  0  0  0  0
  -15.8735  -28.0797   22.7144 H   0  0  0  0  0  0
  -24.5907  -30.7077   25.7514 H   0  0  0  0  0  0
  -24.8662  -32.3090   26.4247 H   0  0  0  0  0  0
  -25.7713  -30.9314   27.0239 H   0  0  0  0  0  0
  -26.3429  -29.6270   24.1870 H   0  0  0  0  0  0
  -27.3992  -29.7365   25.5687 H   0  0  0  0  0  0
  -27.9429  -30.3834   24.0461 H   0  0  0  0  0  0
  -27.2488  -33.3825   26.1763 H   0  0  0  0  0  0
  -28.3987  -32.6813   25.0480 H   0  0  0  0  0  0
  -28.0494  -31.8786   26.5714 H   0  0  0  0  0  0
  -28.2600  -37.9970   24.7386 H   0  0  0  0  0  0
  -28.0989  -36.2482   24.6520 H   0  0  0  0  0  0
  -27.2218  -37.1608   25.8881 H   0  0  0  0  0  0
  -20.9907  -29.8597   21.6342 H   0  0  0  0  0  0
  -26.0093  -38.2628   24.1276 H   0  0  0  0  0  0
  -26.9376  -19.8287   20.2921 H   0  0  0  0  0  0
  -30.9898  -20.5739   20.2960 H   0  0  0  0  0  0
  -26.4844  -22.1755   20.2789 H   0  0  0  0  0  0
  -30.5307  -22.9191   20.2872 H   0  0  0  0  0  0
  -28.3439  -17.2471   20.3493 H   0  0  0  0  0  0
  1 25  1  0  0  0
  1 30  2  0  0  0
  1 77  1  0  0  0
  2  3  1  0  0  0
  2 25  1  0  0  0
  2 78  1  0  0  0
  2 79  1  0  0  0
  3  4  1  0  0  0
  3 80  1  0  0  0
  3 81  1  0  0  0
  4  5  1  0  0  0
  4 82  1  0  0  0
  4 83  1  0  0  0
  5  6  1  0  0  0
  5 26  1  0  0  0
  5 84  1  0  0  0
  6 25  1  0  0  0
  6 85  1  0  0  0
  6 86  1  0  0  0
  7  8  2  0  0  0
  7 26  1  0  0  0
  7 29  1  0  0  0
  8  9  1  0  0  0
  8 22  1  0  0  0
  9 10  1  0  0  0
  9 27  2  0  0  0
 10 11  2  0  0  0
 10 15  1  0  0  0
 11 12  1  0  0  0
 11 87  1  0  0  0
 12 13  2  0  0  0
 12 88  1  0  0  0
 13 14  1  0  0  0
 13 31  1  0  0  0
 14 15  2  0  0  0
 14 89  1  0  0  0
 15 90  1  0  0  0
 16 17  2  0  0  0
 16 21  1  0  0  0
 16 31  1  0  0  0
 17 18  1  0  0  0
 17 91  1  0  0  0
 18 19  2  0  0  0
 18 92  1  0  0  0
 19 20  1  0  0  0
 19 24  1  0  0  0
 20 21  2  0  0  0
 20 93  1  0  0  0
 21 23  1  0  0  0
 22 28  1  0  0  0
 22 32  2  0  0  0
 26 27  1  0  0  0
 28 94  1  0  0  0
 28 95  1  0  0  0
 29 96  1  0  0  0
 29 97  1  0  0  0
 33 34  1  0  0  0
 33 66  1  0  0  0
 33 70  2  0  0  0
 34 36  1  0  0  0
 34 59  1  0  0  0
 34 98  1  0  0  0
 35 44  2  0  0  0
 35 45  1  0  0  0
 35 68  1  0  0  0
 36 56  1  0  0  0
 36 99  1  0  0  0
 37 39  1  0  0  0
 37 47  1  0  0  0
 37 66  1  0  0  0
 37100  1  0  0  0
 38 43  2  0  0  0
 38 46  1  0  0  0
 38 47  1  0  0  0
 39 64  1  0  0  0
 39 67  2  0  0  0
 40 52  1  0  0  0
 40 53  2  0  0  0
 40 58  1  0  0  0
 41101  1  0  0  0
 41102  1  0  0  0
 41103  1  0  0  0
 41 48  1  0  0  0
 42 43  1  0  0  0
 42 66  1  0  0  0
 42104  1  0  0  0
 42105  1  0  0  0
 43 44  1  0  0  0
 44106  1  0  0  0
 45 46  2  0  0  0
 45107  1  0  0  0
 46108  1  0  0  0
 47109  1  0  0  0
 47110  1  0  0  0
 48 56  1  0  0  0
 48 65  1  0  0  0
 48111  1  0  0  0
 49 50  1  0  0  0
 49 53  1  0  0  0
 49 64  1  0  0  0
 49112  1  0  0  0
 50 51  1  0  0  0
 50113  1  0  0  0
 50114  1  0  0  0
 51 52  1  0  0  0
 51115  1  0  0  0
 51116  1  0  0  0
 52117  1  0  0  0
 52118  1  0  0  0
 53 54  1  0  0  0
 54 55  2  0  0  0
 54119  1  0  0  0
 55 57  1  0  0  0
 55120  1  0  0  0
 56 69  2  0  0  0
 57 58  2  0  0  0
 57121  1  0  0  0
 58122  1  0  0  0
 59 60  1  0  0  0
 59 61  1  0  0  0
 59 62  1  0  0  0
 60123  1  0  0  0
 60124  1  0  0  0
 60125  1  0  0  0
 61126  1  0  0  0
 61127  1  0  0  0
 61128  1  0  0  0
 62129  1  0  0  0
 62130  1  0  0  0
 62131  1  0  0  0
 63 65  1  0  0  0
 63132  1  0  0  0
 63133  1  0  0  0
 63134  1  0  0  0
 64135  1  0  0  0
 65136  1  0  0  0
 68 76  1  0  0  0
 71 73  2  0  0  0
 71 75  1  0  0  0
 71137  1  0  0  0
 72 74  1  0  0  0
 72 75  2  0  0  0
 72138  1  0  0  0
 73 76  1  0  0  0
 73139  1  0  0  0
 74 76  2  0  0  0
 74140  1  0  0  0
 75 77  1  0  0  0
 77141  1  0  0  0
M  ISO  4   1 100  68 101  76 101  77 100
M  END
> <chiral flag>
0

> <version>
0

> <s_m_source_file>
/data/baiqing/PycharmProjects/Reinvent-master-3.2/result/LINK_invent/BTK/process_docking_weight1_custom_sum_contain_oxygen_bond_distance_aromatic_linkinvent_7_9_3/rearranged_h_0001.sdf

> <i_m_source_file_index>
33

> <r_mmod_Potential_Energy-OPLS-2005>
4197.39111328125

> <r_mmod_Stretch_Energy-OPLS-2005>
1611.42260742188

> <r_mmod_Bend_Energy-OPLS-2005>
1018.25030517578

> <r_mmod_Torsional_Energy-OPLS-2005>
213.763397216797

> <r_mmod_Improper_Torsional_Energy-OPLS-2005>
4.01581335067749

> <r_mmod_Van_der_Waal_Energy-OPLS-2005>
144.880767822266

> <r_mmod_Electrostatic_Energy-OPLS-2005>
-354.25341796875

> <r_mmod_Solvation_Energy-OPLS-2005>
-218.535690307617

> <b_mmod_Minimization_Converged-OPLS-2005>
0

> <r_mmod_RMS_Derivative-OPLS-2005>
0.799303591251373

$$$$
33
                    3D
 Structure written by MMmdl.
157164  0  0  1  0            999 V2000
  -30.6675  -14.4109   20.5851 C   0  0  0  0  0  0
  -30.4080  -12.2602   19.4119 C   0  0  0  0  0  0
  -29.4953  -12.5184   18.1929 C   0  0  0  0  0  0
  -28.0058  -12.4030   18.5849 C   0  0  0  0  0  0
  -27.6576  -13.1963   19.8756 C   0  0  2  0  0  0
  -28.6915  -12.9078   20.9872 C   0  0  0  0  0  0
  -25.2543  -13.8097   20.5629 C   0  0  0  0  0  0
  -24.1791  -13.0389   20.9153 C   0  0  0  0  0  0
  -24.6341  -11.6845   20.8672 C   0  0  0  0  0  0
  -23.9019  -10.4251   21.0371 C   0  0  0  0  0  0
  -24.3589   -9.4190   21.9152 C   0  0  0  0  0  0
  -23.6267   -8.2219   22.0729 C   0  0  0  0  0  0
  -22.4261   -8.0247   21.3522 C   0  0  0  0  0  0
  -21.9895   -9.0203   20.4613 C   0  0  0  0  0  0
  -22.7204  -10.2086   20.3014 C   0  0  0  0  0  0
  -21.6846   -6.0713   22.5273 C   0  0  0  0  0  0
  -21.4016   -6.5625   23.8202 C   0  0  0  0  0  0
  -21.3653   -5.6785   24.9166 C   0  0  0  0  0  0
  -21.6035   -4.3043   24.7229 C   0  0  0  0  0  0
  -21.8805   -3.8136   23.4352 C   0  0  0  0  0  0
  -21.9194   -4.6941   22.3409 C   0  0  0  0  0  0
  -22.7838  -13.5199   21.1870 C   0  0  0  0  0  0
  -22.1660   -4.2126   21.0983 F   0  0  0  0  0  0
  -21.5638   -3.4536   25.7748 F   0  0  0  0  0  0
  -30.0255  -13.2229   20.4504 N   0  0  0  0  0  0
  -26.2953  -12.9264   20.3283 N   0  0  0  0  0  0
  -25.9261  -11.6418   20.5664 N   0  0  0  0  0  0
  -22.0514  -12.8157   22.0423 N   0  0  0  0  0  0
  -25.4234  -15.1800   20.3984 N   0  0  0  0  0  0
  -31.7970  -14.6317   20.1312 O   0  0  0  0  0  0
  -21.6614   -6.8857   21.4237 O   0  0  0  0  0  0
  -22.3539  -14.5522   20.6763 O   0  0  0  0  0  0
  -24.6155  -31.8703   23.2070 C   0  0  0  0  0  0
  -25.9073  -32.4807   23.8357 C   0  0  1  0  0  0
  -27.2290  -27.4449   20.0796 C   0  0  0  0  0  0
  -25.5978  -33.8604   24.2292 N   0  0  0  0  0  0
  -23.4005  -30.4943   21.5469 C   0  0  2  0  0  0
  -24.8417  -28.9600   20.1080 C   0  0  0  0  0  0
  -22.7417  -29.4684   22.4979 C   0  0  0  0  0  0
  -18.0260  -28.1368   22.8496 C   0  0  0  0  0  0
  -24.1484  -36.7301   23.2628 C   0  0  0  0  0  0
  -25.9289  -30.8388   21.3528 C   0  0  0  0  0  0
  -26.0035  -29.4730   20.6981 C   0  0  0  0  0  0
  -27.2013  -28.7256   20.6744 C   0  0  0  0  0  0
  -26.0477  -26.9422   19.4870 C   0  0  0  0  0  0
  -24.8596  -27.6950   19.4982 C   0  0  0  0  0  0
  -23.6047  -29.8257   20.1619 C   0  0  0  0  0  0
  -25.4099  -36.3106   24.0342 C   0  0  1  0  0  0
  -20.5863  -28.3651   23.1325 C   0  0  2  0  0  0
  -20.6760  -26.9400   22.5411 C   0  0  0  0  0  0
  -19.5739  -26.6395   21.5210 C   0  0  0  0  0  0
  -18.1914  -26.7906   22.1624 C   0  0  0  0  0  0
  -19.1516  -28.8821   23.2908 C   0  0  0  0  0  0
  -18.9448  -30.1435   23.8914 C   0  0  0  0  0  0
  -17.6457  -30.6579   24.0562 C   0  0  0  0  0  0
  -25.9055  -34.9480   23.5103 C   0  0  0  0  0  0
  -16.5346  -29.9081   23.6321 C   0  0  0  0  0  0
  -16.7254  -28.6490   23.0349 C   0  0  0  0  0  0
  -26.4477  -31.6577   25.0685 C   0  0  0  0  0  0
  -25.3723  -31.3718   26.1427 C   0  0  0  0  0  0
  -27.0236  -30.2997   24.6036 C   0  0  0  0  0  0
  -27.6072  -32.4253   25.7466 C   0  0  0  0  0  0
  -27.5551  -37.1799   24.8470 C   0  0  0  0  0  0
  -21.4133  -29.3047   22.3758 N   0  0  0  0  0  0
  -26.4253  -37.3818   23.9425 N   0  0  0  0  0  0
  -24.6667  -31.0824   22.0933 N   0  0  0  0  0  0
  -23.4204  -28.8205   23.2997 O   0  0  0  0  0  0
  -28.3988  -26.7208   20.0803 O   0  0  0  0  0  0
  -26.5602  -34.8961   22.4660 O   0  0  0  0  0  0
  -23.5352  -32.1425   23.7499 O   0  0  0  0  0  0
  -29.1807  -17.7286   21.6391 C   0  0  0  0  0  0
  -27.9962  -17.8600   20.6590 C   0  0  0  0  0  0
  -30.3204  -16.7961   21.1768 C   0  0  0  0  0  0
  -28.2727  -18.5965   19.3338 C   0  0  0  0  0  0
  -28.2860  -25.3130   20.3383 C   0  0  0  0  0  0
  -28.5005  -24.4463   19.0803 C   0  0  0  0  0  0
  -28.1086  -20.7736   18.4146 C   0  0  0  0  0  0
  -28.7232  -22.1903   18.3607 C   0  0  0  0  0  0
  -29.9198  -15.3921   21.1061 N   0  0  0  0  0  0
  -28.5504  -19.9874   19.5263 O   0  0  0  0  0  0
  -28.2191  -23.0697   19.3664 O   0  0  0  0  0  0
  -31.4650  -12.3351   19.1427 H   0  0  0  0  0  0
  -30.2681  -11.2417   19.7770 H   0  0  0  0  0  0
  -29.7270  -11.8177   17.3897 H   0  0  0  0  0  0
  -29.6910  -13.5140   17.7921 H   0  0  0  0  0  0
  -27.7737  -11.3463   18.7181 H   0  0  0  0  0  0
  -27.3746  -12.7422   17.7607 H   0  0  0  0  0  0
  -27.7210  -14.2535   19.6214 H   0  0  0  0  0  0
  -28.6528  -11.8523   21.2605 H   0  0  0  0  0  0
  -28.4648  -13.4510   21.9061 H   0  0  0  0  0  0
  -25.2728   -9.5667   22.4741 H   0  0  0  0  0  0
  -23.9964   -7.4616   22.7455 H   0  0  0  0  0  0
  -21.0820   -8.8687   19.8939 H   0  0  0  0  0  0
  -22.3627  -10.9604   19.6120 H   0  0  0  0  0  0
  -21.2009   -7.6135   23.9696 H   0  0  0  0  0  0
  -21.1503   -6.0517   25.9060 H   0  0  0  0  0  0
  -22.0607   -2.7600   23.2850 H   0  0  0  0  0  0
  -22.4163  -11.9780   22.4704 H   0  0  0  0  0  0
  -21.1130  -13.1147   22.2711 H   0  0  0  0  0  0
  -24.6533  -15.8324   20.4887 H   0  0  0  0  0  0
  -26.2592  -15.6029   20.0171 H   0  0  0  0  0  0
  -26.7137  -32.5533   23.1127 H   0  0  0  0  0  0
  -25.0246  -33.9789   25.0508 H   0  0  0  0  0  0
  -22.6878  -31.3095   21.4088 H   0  0  0  0  0  0
  -23.3763  -35.9625   23.3292 H   0  0  0  0  0  0
  -24.3566  -36.8903   22.2043 H   0  0  0  0  0  0
  -23.7231  -37.6521   23.6592 H   0  0  0  0  0  0
  -26.0380  -31.6023   20.5802 H   0  0  0  0  0  0
  -26.8207  -30.8932   21.9668 H   0  0  0  0  0  0
  -28.1007  -29.1243   21.1230 H   0  0  0  0  0  0
  -26.0349  -25.9772   19.0024 H   0  0  0  0  0  0
  -23.9678  -27.2994   19.0292 H   0  0  0  0  0  0
  -23.7123  -30.5975   19.3986 H   0  0  0  0  0  0
  -22.7260  -29.2446   19.8714 H   0  0  0  0  0  0
  -25.1262  -36.1957   25.0830 H   0  0  0  0  0  0
  -20.9947  -28.3202   24.1458 H   0  0  0  0  0  0
  -20.5665  -26.2281   23.3617 H   0  0  0  0  0  0
  -21.6628  -26.7447   22.1216 H   0  0  0  0  0  0
  -19.6929  -25.6320   21.1225 H   0  0  0  0  0  0
  -19.6669  -27.3216   20.6756 H   0  0  0  0  0  0
  -17.4201  -26.6675   21.4022 H   0  0  0  0  0  0
  -18.0298  -26.0031   22.8996 H   0  0  0  0  0  0
  -19.7927  -30.7230   24.2312 H   0  0  0  0  0  0
  -17.5012  -31.6262   24.5157 H   0  0  0  0  0  0
  -15.5350  -30.3000   23.7617 H   0  0  0  0  0  0
  -15.8648  -28.0824   22.7053 H   0  0  0  0  0  0
  -24.5987  -30.6930   25.7802 H   0  0  0  0  0  0
  -24.8819  -32.2870   26.4715 H   0  0  0  0  0  0
  -25.8125  -30.9058   27.0248 H   0  0  0  0  0  0
  -26.2772  -29.6892   24.0931 H   0  0  0  0  0  0
  -27.3809  -29.7110   25.4497 H   0  0  0  0  0  0
  -27.8693  -30.4304   23.9290 H   0  0  0  0  0  0
  -27.2723  -33.3582   26.2005 H   0  0  0  0  0  0
  -28.3932  -32.6723   25.0310 H   0  0  0  0  0  0
  -28.0645  -31.8359   26.5431 H   0  0  0  0  0  0
  -28.2590  -38.0074   24.7500 H   0  0  0  0  0  0
  -28.1017  -36.2610   24.6269 H   0  0  0  0  0  0
  -27.2288  -37.1447   25.8885 H   0  0  0  0  0  0
  -20.9293  -29.8771   21.6988 H   0  0  0  0  0  0
  -26.0144  -38.2903   24.1412 H   0  0  0  0  0  0
  -28.7979  -17.3655   22.5939 H   0  0  0  0  0  0
  -29.5892  -18.7174   21.8501 H   0  0  0  0  0  0
  -27.1679  -18.3619   21.1623 H   0  0  0  0  0  0
  -27.6303  -16.8624   20.4220 H   0  0  0  0  0  0
  -31.1540  -16.8778   21.8757 H   0  0  0  0  0  0
  -30.6996  -17.1189   20.2058 H   0  0  0  0  0  0
  -27.3848  -18.4759   18.7124 H   0  0  0  0  0  0
  -29.0897  -18.1306   18.7806 H   0  0  0  0  0  0
  -29.0444  -25.0562   21.0768 H   0  0  0  0  0  0
  -27.3357  -25.0608   20.8069 H   0  0  0  0  0  0
  -29.5262  -24.5680   18.7299 H   0  0  0  0  0  0
  -27.8429  -24.7811   18.2747 H   0  0  0  0  0  0
  -28.3904  -20.2659   17.4892 H   0  0  0  0  0  0
  -27.0193  -20.8344   18.4166 H   0  0  0  0  0  0
  -28.4736  -22.6107   17.3833 H   0  0  0  0  0  0
  -29.8100  -22.1402   18.4122 H   0  0  0  0  0  0
  -28.9856  -15.1452   21.4005 H   0  0  0  0  0  0
  1 25  1  0  0  0
  1 30  2  0  0  0
  1 79  1  0  0  0
  2  3  1  0  0  0
  2 25  1  0  0  0
  2 82  1  0  0  0
  2 83  1  0  0  0
  3  4  1  0  0  0
  3 84  1  0  0  0
  3 85  1  0  0  0
  4  5  1  0  0  0
  4 86  1  0  0  0
  4 87  1  0  0  0
  5  6  1  0  0  0
  5 26  1  0  0  0
  5 88  1  0  0  0
  6 25  1  0  0  0
  6 89  1  0  0  0
  6 90  1  0  0  0
  7  8  2  0  0  0
  7 26  1  0  0  0
  7 29  1  0  0  0
  8  9  1  0  0  0
  8 22  1  0  0  0
  9 10  1  0  0  0
  9 27  2  0  0  0
 10 11  2  0  0  0
 10 15  1  0  0  0
 11 12  1  0  0  0
 11 91  1  0  0  0
 12 13  2  0  0  0
 12 92  1  0  0  0
 13 14  1  0  0  0
 13 31  1  0  0  0
 14 15  2  0  0  0
 14 93  1  0  0  0
 15 94  1  0  0  0
 16 17  2  0  0  0
 16 21  1  0  0  0
 16 31  1  0  0  0
 17 18  1  0  0  0
 17 95  1  0  0  0
 18 19  2  0  0  0
 18 96  1  0  0  0
 19 20  1  0  0  0
 19 24  1  0  0  0
 20 21  2  0  0  0
 20 97  1  0  0  0
 21 23  1  0  0  0
 22 28  1  0  0  0
 22 32  2  0  0  0
 26 27  1  0  0  0
 28 98  1  0  0  0
 28 99  1  0  0  0
 29100  1  0  0  0
 29101  1  0  0  0
 33 34  1  0  0  0
 33 66  1  0  0  0
 33 70  2  0  0  0
 34 36  1  0  0  0
 34 59  1  0  0  0
 34102  1  0  0  0
 35 44  2  0  0  0
 35 45  1  0  0  0
 35 68  1  0  0  0
 36 56  1  0  0  0
 36103  1  0  0  0
 37 39  1  0  0  0
 37 47  1  0  0  0
 37 66  1  0  0  0
 37104  1  0  0  0
 38 43  2  0  0  0
 38 46  1  0  0  0
 38 47  1  0  0  0
 39 64  1  0  0  0
 39 67  2  0  0  0
 40 52  1  0  0  0
 40 53  2  0  0  0
 40 58  1  0  0  0
 41105  1  0  0  0
 41106  1  0  0  0
 41107  1  0  0  0
 41 48  1  0  0  0
 42 43  1  0  0  0
 42 66  1  0  0  0
 42108  1  0  0  0
 42109  1  0  0  0
 43 44  1  0  0  0
 44110  1  0  0  0
 45 46  2  0  0  0
 45111  1  0  0  0
 46112  1  0  0  0
 47113  1  0  0  0
 47114  1  0  0  0
 48 56  1  0  0  0
 48 65  1  0  0  0
 48115  1  0  0  0
 49 50  1  0  0  0
 49 53  1  0  0  0
 49 64  1  0  0  0
 49116  1  0  0  0
 50 51  1  0  0  0
 50117  1  0  0  0
 50118  1  0  0  0
 51 52  1  0  0  0
 51119  1  0  0  0
 51120  1  0  0  0
 52121  1  0  0  0
 52122  1  0  0  0
 53 54  1  0  0  0
 54 55  2  0  0  0
 54123  1  0  0  0
 55 57  1  0  0  0
 55124  1  0  0  0
 56 69  2  0  0  0
 57 58  2  0  0  0
 57125  1  0  0  0
 58126  1  0  0  0
 59 60  1  0  0  0
 59 61  1  0  0  0
 59 62  1  0  0  0
 60127  1  0  0  0
 60128  1  0  0  0
 60129  1  0  0  0
 61130  1  0  0  0
 61131  1  0  0  0
 61132  1  0  0  0
 62133  1  0  0  0
 62134  1  0  0  0
 62135  1  0  0  0
 63 65  1  0  0  0
 63136  1  0  0  0
 63137  1  0  0  0
 63138  1  0  0  0
 64139  1  0  0  0
 65140  1  0  0  0
 68 75  1  0  0  0
 71 72  1  0  0  0
 71 73  1  0  0  0
 71141  1  0  0  0
 71142  1  0  0  0
 72 74  1  0  0  0
 72143  1  0  0  0
 72144  1  0  0  0
 73 79  1  0  0  0
 73145  1  0  0  0
 73146  1  0  0  0
 74 80  1  0  0  0
 74147  1  0  0  0
 74148  1  0  0  0
 75 76  1  0  0  0
 75149  1  0  0  0
 75150  1  0  0  0
 76 81  1  0  0  0
 76151  1  0  0  0
 76152  1  0  0  0
 77 78  1  0  0  0
 77 80  1  0  0  0
 77153  1  0  0  0
 77154  1  0  0  0
 78 81  1  0  0  0
 78155  1  0  0  0
 78156  1  0  0  0
 79157  1  0  0  0
M  ISO  4   1 100  68 101  75 101  79 100
M  END
> <chiral flag>
0

> <version>
0

> <s_m_source_file>
/data/baiqing/PycharmProjects/Reinvent-master-3.2/result/LINK_invent/BTK/process_docking_weight1_custom_sum_contain_oxygen_bond_distance_aromatic_linkinvent_7_9_3/rearranged_h_0001.sdf

> <i_m_source_file_index>
34

> <r_mmod_Potential_Energy-OPLS-2005>
-76.7976989746094

> <r_mmod_Stretch_Energy-OPLS-2005>
33.784740447998

> <r_mmod_Bend_Energy-OPLS-2005>
92.732551574707

> <r_mmod_Torsional_Energy-OPLS-2005>
217.083969116211

> <r_mmod_Improper_Torsional_Energy-OPLS-2005>
3.96988034248352

> <r_mmod_Van_der_Waal_Energy-OPLS-2005>
134.096755981445

> <r_mmod_Electrostatic_Energy-OPLS-2005>
-352.664245605469

> <r_mmod_Solvation_Energy-OPLS-2005>
-216.796035766602

> <b_mmod_Minimization_Converged-OPLS-2005>
0

> <r_mmod_RMS_Derivative-OPLS-2005>
4.56680870056152

$$$$
34
                    3D
 Structure written by MMmdl.
146153  0  0  1  0            999 V2000
  -30.4549  -15.1919   20.3849 C   0  0  0  0  0  0
  -30.4419  -12.7609   19.5051 C   0  0  0  0  0  0
  -29.5292  -12.5596   18.2708 C   0  0  0  0  0  0
  -28.0748  -12.2962   18.7021 C   0  0  0  0  0  0
  -27.6136  -13.2648   19.8202 C   0  0  2  0  0  0
  -28.6529  -13.4068   20.9504 C   0  0  0  0  0  0
  -25.2403  -13.8229   20.5729 C   0  0  0  0  0  0
  -24.1748  -13.0433   20.9253 C   0  0  0  0  0  0
  -24.6392  -11.6927   20.8763 C   0  0  0  0  0  0
  -23.9086  -10.4291   21.0410 C   0  0  0  0  0  0
  -24.3633   -9.4204   21.9187 C   0  0  0  0  0  0
  -23.6302   -8.2242   22.0756 C   0  0  0  0  0  0
  -22.4283   -8.0282   21.3546 C   0  0  0  0  0  0
  -21.9924   -9.0257   20.4647 C   0  0  0  0  0  0
  -22.7258  -10.2133   20.3057 C   0  0  0  0  0  0
  -21.6855   -6.0737   22.5280 C   0  0  0  0  0  0
  -21.4015   -6.5640   23.8213 C   0  0  0  0  0  0
  -21.3660   -5.6793   24.9176 C   0  0  0  0  0  0
  -21.6044   -4.3056   24.7226 C   0  0  0  0  0  0
  -21.8819   -3.8148   23.4347 C   0  0  0  0  0  0
  -21.9194   -4.6964   22.3403 C   0  0  0  0  0  0
  -22.7766  -13.5192   21.1903 C   0  0  0  0  0  0
  -22.1661   -4.2150   21.0980 F   0  0  0  0  0  0
  -21.5629   -3.4538   25.7738 F   0  0  0  0  0  0
  -29.8884  -13.8961   20.3201 N   0  0  0  0  0  0
  -26.2822  -12.9485   20.3201 N   0  0  0  0  0  0
  -25.9324  -11.6602   20.5719 N   0  0  0  0  0  0
  -22.0422  -12.8177   22.0456 N   0  0  0  0  0  0
  -25.4037  -15.1963   20.4153 N   0  0  0  0  0  0
  -31.6824  -15.2103   20.2234 O   0  0  0  0  0  0
  -21.6644   -6.8881   21.4242 O   0  0  0  0  0  0
  -22.3448  -14.5495   20.6742 O   0  0  0  0  0  0
  -24.6584  -31.8285   23.1736 C   0  0  0  0  0  0
  -25.9287  -32.4613   23.8185 C   0  0  1  0  0  0
  -27.2178  -26.9750   20.1869 C   0  0  0  0  0  0
  -25.5973  -33.8425   24.2096 N   0  0  0  0  0  0
  -23.4702  -30.4410   21.5230 C   0  0  2  0  0  0
  -24.9214  -28.8312   20.1193 C   0  0  0  0  0  0
  -22.7640  -29.4469   22.4810 C   0  0  0  0  0  0
  -18.0318  -28.1406   22.8470 C   0  0  0  0  0  0
  -24.1494  -36.7217   23.2647 C   0  0  0  0  0  0
  -26.0362  -30.6515   21.3950 C   0  0  0  0  0  0
  -26.1055  -29.2439   20.7437 C   0  0  0  0  0  0
  -27.2532  -28.3383   20.7472 C   0  0  0  0  0  0
  -26.0028  -26.6964   19.5254 C   0  0  0  0  0  0
  -24.8915  -27.5757   19.4909 C   0  0  0  0  0  0
  -23.7071  -29.7557   20.1497 C   0  0  0  0  0  0
  -25.4134  -36.2981   24.0302 C   0  0  1  0  0  0
  -20.5938  -28.3745   23.1202 C   0  0  2  0  0  0
  -20.6798  -26.9434   22.5403 C   0  0  0  0  0  0
  -19.5771  -26.6380   21.5215 C   0  0  0  0  0  0
  -18.1953  -26.7940   22.1623 C   0  0  0  0  0  0
  -19.1577  -28.8896   23.2823 C   0  0  0  0  0  0
  -18.9489  -30.1488   23.8856 C   0  0  0  0  0  0
  -17.6483  -30.6597   24.0557 C   0  0  0  0  0  0
  -25.9093  -34.9364   23.5017 C   0  0  0  0  0  0
  -16.5374  -29.9085   23.6344 C   0  0  0  0  0  0
  -16.7300  -28.6506   23.0362 C   0  0  0  0  0  0
  -26.4555  -31.6539   25.0694 C   0  0  0  0  0  0
  -25.3694  -31.3776   26.1358 C   0  0  0  0  0  0
  -27.0448  -30.2914   24.6390 C   0  0  0  0  0  0
  -27.6051  -32.4342   25.7497 C   0  0  0  0  0  0
  -27.5571  -37.1767   24.8468 C   0  0  0  0  0  0
  -21.4316  -29.3042   22.3557 N   0  0  0  0  0  0
  -26.4283  -37.3712   23.9406 N   0  0  0  0  0  0
  -24.7427  -30.9994   22.0847 N   0  0  0  0  0  0
  -23.4209  -28.8039   23.3035 O   0  0  0  0  0  0
  -28.2529  -25.9182   20.1845 O   0  0  0  0  0  0
  -26.5701  -34.8893   22.4610 O   0  0  0  0  0  0
  -23.5665  -32.1233   23.6860 O   0  0  0  0  0  0
  -28.9836  -21.1892   20.6760 C   0  0  0  0  0  0
  -29.1420  -19.5254   20.0456 C   0  0  0  0  0  0
  -28.7259  -22.7941   19.9369 C   0  0  0  0  0  0
  -29.9001  -18.0518   20.7008 C   0  0  0  0  0  0
  -28.0709  -24.3377   20.5448 C   0  0  0  0  0  0
  -29.6685  -16.4354   20.4314 N   0  0  0  0  0  0
  -31.4603  -12.9680   19.1731 H   0  0  0  0  0  0
  -30.5035  -11.8473   20.0986 H   0  0  0  0  0  0
  -29.8948  -11.7358   17.6561 H   0  0  0  0  0  0
  -29.5668  -13.4513   17.6432 H   0  0  0  0  0  0
  -28.0212  -11.2689   19.0646 H   0  0  0  0  0  0
  -27.4048  -12.3529   17.8434 H   0  0  0  0  0  0
  -27.5380  -14.2388   19.3356 H   0  0  0  0  0  0
  -28.8080  -12.4621   21.4735 H   0  0  0  0  0  0
  -28.3078  -14.1243   21.6968 H   0  0  0  0  0  0
  -25.2776   -9.5679   22.4767 H   0  0  0  0  0  0
  -24.0008   -7.4632   22.7476 H   0  0  0  0  0  0
  -21.0856   -8.8778   19.8951 H   0  0  0  0  0  0
  -22.3717  -10.9673   19.6167 H   0  0  0  0  0  0
  -21.2007   -7.6149   23.9716 H   0  0  0  0  0  0
  -21.1482   -6.0524   25.9078 H   0  0  0  0  0  0
  -22.0596   -2.7610   23.2848 H   0  0  0  0  0  0
  -22.4055  -11.9848   22.4850 H   0  0  0  0  0  0
  -21.1032  -13.1183   22.2657 H   0  0  0  0  0  0
  -24.6309  -15.8437   20.5272 H   0  0  0  0  0  0
  -26.2397  -15.6392   20.0580 H   0  0  0  0  0  0
  -26.7354  -32.5171   23.0902 H   0  0  0  0  0  0
  -25.0079  -33.9507   25.0219 H   0  0  0  0  0  0
  -22.7811  -31.2710   21.3541 H   0  0  0  0  0  0
  -23.3765  -35.9539   23.3288 H   0  0  0  0  0  0
  -24.3568  -36.8881   22.2064 H   0  0  0  0  0  0
  -23.7244  -37.6399   23.6712 H   0  0  0  0  0  0
  -26.2087  -31.3941   20.6146 H   0  0  0  0  0  0
  -26.8995  -30.7094   22.0463 H   0  0  0  0  0  0
  -28.1585  -28.6587   21.2434 H   0  0  0  0  0  0
  -25.8948  -25.7377   19.0384 H   0  0  0  0  0  0
  -23.9906  -27.2535   18.9867 H   0  0  0  0  0  0
  -23.8605  -30.5232   19.3902 H   0  0  0  0  0  0
  -22.8176  -29.2077   19.8341 H   0  0  0  0  0  0
  -25.1331  -36.1783   25.0794 H   0  0  0  0  0  0
  -21.0026  -28.3348   24.1325 H   0  0  0  0  0  0
  -20.5684  -26.2363   23.3637 H   0  0  0  0  0  0
  -21.6662  -26.7420   22.1206 H   0  0  0  0  0  0
  -19.6932  -25.6280   21.1271 H   0  0  0  0  0  0
  -19.6708  -27.3169   20.6728 H   0  0  0  0  0  0
  -17.4221  -26.6684   21.4027 H   0  0  0  0  0  0
  -18.0347  -26.0092   22.9029 H   0  0  0  0  0  0
  -19.7965  -30.7317   24.2205 H   0  0  0  0  0  0
  -17.5035  -31.6273   24.5167 H   0  0  0  0  0  0
  -15.5372  -30.2973   23.7691 H   0  0  0  0  0  0
  -15.8701  -28.0810   22.7100 H   0  0  0  0  0  0
  -24.5886  -30.7116   25.7667 H   0  0  0  0  0  0
  -24.8872  -32.2974   26.4676 H   0  0  0  0  0  0
  -25.7933  -30.9012   27.0206 H   0  0  0  0  0  0
  -26.3106  -29.6597   24.1379 H   0  0  0  0  0  0
  -27.3986  -29.7265   25.5025 H   0  0  0  0  0  0
  -27.9042  -30.4111   23.9791 H   0  0  0  0  0  0
  -27.2619  -33.3679   26.1966 H   0  0  0  0  0  0
  -28.3920  -32.6845   25.0370 H   0  0  0  0  0  0
  -28.0656  -31.8543   26.5505 H   0  0  0  0  0  0
  -28.2578  -38.0072   24.7505 H   0  0  0  0  0  0
  -28.1076  -36.2597   24.6309 H   0  0  0  0  0  0
  -27.2284  -37.1428   25.8870 H   0  0  0  0  0  0
  -20.9563  -29.8727   21.6687 H   0  0  0  0  0  0
  -26.0135  -38.2774   24.1406 H   0  0  0  0  0  0
  -28.1889  -21.1083   21.4182 H   0  0  0  0  0  0
  -29.8762  -21.3287   21.2864 H   0  0  0  0  0  0
  -29.6013  -19.6459   19.0639 H   0  0  0  0  0  0
  -28.1191  -19.2319   19.8080 H   0  0  0  0  0  0
  -28.1428  -22.5960   19.0374 H   0  0  0  0  0  0
  -29.7078  -23.0579   19.5436 H   0  0  0  0  0  0
  -30.9755  -18.1979   20.5921 H   0  0  0  0  0  0
  -29.7423  -18.1293   21.7770 H   0  0  0  0  0  0
  -28.3515  -24.3288   21.5981 H   0  0  0  0  0  0
  -26.9917  -24.1871   20.5767 H   0  0  0  0  0  0
  -28.6848  -16.2096   20.4174 H   0  0  0  0  0  0
  1 25  1  0  0  0
  1 30  2  0  0  0
  1 76  1  0  0  0
  2  3  1  0  0  0
  2 25  1  0  0  0
  2 77  1  0  0  0
  2 78  1  0  0  0
  3  4  1  0  0  0
  3 79  1  0  0  0
  3 80  1  0  0  0
  4  5  1  0  0  0
  4 81  1  0  0  0
  4 82  1  0  0  0
  5  6  1  0  0  0
  5 26  1  0  0  0
  5 83  1  0  0  0
  6 25  1  0  0  0
  6 84  1  0  0  0
  6 85  1  0  0  0
  7  8  2  0  0  0
  7 26  1  0  0  0
  7 29  1  0  0  0
  8  9  1  0  0  0
  8 22  1  0  0  0
  9 10  1  0  0  0
  9 27  2  0  0  0
 10 11  2  0  0  0
 10 15  1  0  0  0
 11 12  1  0  0  0
 11 86  1  0  0  0
 12 13  2  0  0  0
 12 87  1  0  0  0
 13 14  1  0  0  0
 13 31  1  0  0  0
 14 15  2  0  0  0
 14 88  1  0  0  0
 15 89  1  0  0  0
 16 17  2  0  0  0
 16 21  1  0  0  0
 16 31  1  0  0  0
 17 18  1  0  0  0
 17 90  1  0  0  0
 18 19  2  0  0  0
 18 91  1  0  0  0
 19 20  1  0  0  0
 19 24  1  0  0  0
 20 21  2  0  0  0
 20 92  1  0  0  0
 21 23  1  0  0  0
 22 28  1  0  0  0
 22 32  2  0  0  0
 26 27  1  0  0  0
 28 93  1  0  0  0
 28 94  1  0  0  0
 29 95  1  0  0  0
 29 96  1  0  0  0
 33 34  1  0  0  0
 33 66  1  0  0  0
 33 70  2  0  0  0
 34 36  1  0  0  0
 34 59  1  0  0  0
 34 97  1  0  0  0
 35 44  2  0  0  0
 35 45  1  0  0  0
 35 68  1  0  0  0
 36 56  1  0  0  0
 36 98  1  0  0  0
 37 39  1  0  0  0
 37 47  1  0  0  0
 37 66  1  0  0  0
 37 99  1  0  0  0
 38 43  2  0  0  0
 38 46  1  0  0  0
 38 47  1  0  0  0
 39 64  1  0  0  0
 39 67  2  0  0  0
 40 52  1  0  0  0
 40 53  2  0  0  0
 40 58  1  0  0  0
 41100  1  0  0  0
 41101  1  0  0  0
 41102  1  0  0  0
 41 48  1  0  0  0
 42 43  1  0  0  0
 42 66  1  0  0  0
 42103  1  0  0  0
 42104  1  0  0  0
 43 44  1  0  0  0
 44105  1  0  0  0
 45 46  2  0  0  0
 45106  1  0  0  0
 46107  1  0  0  0
 47108  1  0  0  0
 47109  1  0  0  0
 48 56  1  0  0  0
 48 65  1  0  0  0
 48110  1  0  0  0
 49 50  1  0  0  0
 49 53  1  0  0  0
 49 64  1  0  0  0
 49111  1  0  0  0
 50 51  1  0  0  0
 50112  1  0  0  0
 50113  1  0  0  0
 51 52  1  0  0  0
 51114  1  0  0  0
 51115  1  0  0  0
 52116  1  0  0  0
 52117  1  0  0  0
 53 54  1  0  0  0
 54 55  2  0  0  0
 54118  1  0  0  0
 55 57  1  0  0  0
 55119  1  0  0  0
 56 69  2  0  0  0
 57 58  2  0  0  0
 57120  1  0  0  0
 58121  1  0  0  0
 59 60  1  0  0  0
 59 61  1  0  0  0
 59 62  1  0  0  0
 60122  1  0  0  0
 60123  1  0  0  0
 60124  1  0  0  0
 61125  1  0  0  0
 61126  1  0  0  0
 61127  1  0  0  0
 62128  1  0  0  0
 62129  1  0  0  0
 62130  1  0  0  0
 63 65  1  0  0  0
 63131  1  0  0  0
 63132  1  0  0  0
 63133  1  0  0  0
 64134  1  0  0  0
 65135  1  0  0  0
 68 75  1  0  0  0
 71 72  1  0  0  0
 71 73  1  0  0  0
 71136  1  0  0  0
 71137  1  0  0  0
 72 74  1  0  0  0
 72138  1  0  0  0
 72139  1  0  0  0
 73 75  1  0  0  0
 73140  1  0  0  0
 73141  1  0  0  0
 74 76  1  0  0  0
 74142  1  0  0  0
 74143  1  0  0  0
 75144  1  0  0  0
 75145  1  0  0  0
 76146  1  0  0  0
M  ISO  4   1 100  68 101  75 101  76 100
M  END
> <chiral flag>
0

> <version>
0

> <s_m_source_file>
/data/baiqing/PycharmProjects/Reinvent-master-3.2/result/LINK_invent/BTK/process_docking_weight1_custom_sum_contain_oxygen_bond_distance_aromatic_linkinvent_7_9_3/rearranged_h_0001.sdf

> <i_m_source_file_index>
35

> <r_mmod_Potential_Energy-OPLS-2005>
1145.12805175781

> <r_mmod_Stretch_Energy-OPLS-2005>
551.795166015625

> <r_mmod_Bend_Energy-OPLS-2005>
420.130432128906

> <r_mmod_Torsional_Energy-OPLS-2005>
235.50422668457

> <r_mmod_Improper_Torsional_Energy-OPLS-2005>
4.20592355728149

> <r_mmod_Van_der_Waal_Energy-OPLS-2005>
108.776268005371

> <r_mmod_Electrostatic_Energy-OPLS-2005>
-349.052825927734

> <r_mmod_Solvation_Energy-OPLS-2005>
-209.454177856445

> <b_mmod_Minimization_Converged-OPLS-2005>
0

> <r_mmod_RMS_Derivative-OPLS-2005>
0.315360128879547

$$$$
35
                    3D
 Structure written by MMmdl.
139146  0  0  1  0            999 V2000
  -30.2479  -15.9260   20.2863 C   0  0  0  0  0  0
  -30.4035  -13.2554   19.5946 C   0  0  0  0  0  0
  -29.5740  -12.7286   18.3802 C   0  0  0  0  0  0
  -28.1622  -12.3166   18.8157 C   0  0  0  0  0  0
  -27.5781  -13.3464   19.8063 C   0  0  2  0  0  0
  -28.5442  -13.8100   20.9265 C   0  0  0  0  0  0
  -25.2226  -13.8347   20.5800 C   0  0  0  0  0  0
  -24.1661  -13.0443   20.9281 C   0  0  0  0  0  0
  -24.6417  -11.6971   20.8733 C   0  0  0  0  0  0
  -23.9138  -10.4302   21.0373 C   0  0  0  0  0  0
  -24.3670   -9.4218   21.9162 C   0  0  0  0  0  0
  -23.6330   -8.2259   22.0744 C   0  0  0  0  0  0
  -22.4305   -8.0295   21.3543 C   0  0  0  0  0  0
  -21.9953   -9.0265   20.4635 C   0  0  0  0  0  0
  -22.7299  -10.2134   20.3035 C   0  0  0  0  0  0
  -21.6865   -6.0748   22.5282 C   0  0  0  0  0  0
  -21.4023   -6.5647   23.8216 C   0  0  0  0  0  0
  -21.3662   -5.6796   24.9175 C   0  0  0  0  0  0
  -21.6044   -4.3059   24.7221 C   0  0  0  0  0  0
  -21.8819   -3.8154   23.4342 C   0  0  0  0  0  0
  -21.9196   -4.6974   22.3401 C   0  0  0  0  0  0
  -22.7674  -13.5144   21.1929 C   0  0  0  0  0  0
  -22.1663   -4.2162   21.0977 F   0  0  0  0  0  0
  -21.5626   -3.4539   25.7732 F   0  0  0  0  0  0
  -29.7175  -14.4595   20.2908 N   0  0  0  0  0  0
  -26.2689  -12.9743   20.3188 N   0  0  0  0  0  0
  -25.9366  -11.6774   20.5627 N   0  0  0  0  0  0
  -22.0360  -12.8112   22.0489 N   0  0  0  0  0  0
  -25.3809  -15.2098   20.4301 N   0  0  0  0  0  0
  -31.4728  -15.8364   20.0568 O   0  0  0  0  0  0
  -21.6657   -6.8897   21.4249 O   0  0  0  0  0  0
  -22.3337  -14.5438   20.6765 O   0  0  0  0  0  0
  -24.7018  -31.7765   23.1340 C   0  0  0  0  0  0
  -25.9504  -32.4350   23.7967 C   0  0  1  0  0  0
  -27.2389  -26.5011   20.2350 C   0  0  0  0  0  0
  -25.6003  -33.8189   24.1837 N   0  0  0  0  0  0
  -23.5384  -30.3670   21.4916 C   0  0  2  0  0  0
  -25.0004  -28.6658   20.1190 C   0  0  0  0  0  0
  -22.7853  -29.4184   22.4650 C   0  0  0  0  0  0
  -18.0353  -28.1427   22.8442 C   0  0  0  0  0  0
  -24.1498  -36.7103   23.2658 C   0  0  0  0  0  0
  -26.1255  -30.4404   21.4315 C   0  0  0  0  0  0
  -26.1886  -28.9831   20.7853 C   0  0  0  0  0  0
  -27.2781  -27.9327   20.8102 C   0  0  0  0  0  0
  -26.0216  -26.4480   19.4938 C   0  0  0  0  0  0
  -24.9685  -27.4275   19.4484 C   0  0  0  0  0  0
  -23.8039  -29.6434   20.1354 C   0  0  0  0  0  0
  -25.4157  -36.2829   24.0266 C   0  0  1  0  0  0
  -20.5996  -28.3797   23.1103 C   0  0  2  0  0  0
  -20.6806  -26.9436   22.5407 C   0  0  0  0  0  0
  -19.5787  -26.6358   21.5218 C   0  0  0  0  0  0
  -18.1971  -26.7951   22.1615 C   0  0  0  0  0  0
  -19.1624  -28.8943   23.2746 C   0  0  0  0  0  0
  -18.9523  -30.1520   23.8801 C   0  0  0  0  0  0
  -17.6512  -30.6604   24.0542 C   0  0  0  0  0  0
  -25.9147  -34.9223   23.4906 C   0  0  0  0  0  0
  -16.5401  -29.9080   23.6352 C   0  0  0  0  0  0
  -16.7333  -28.6502   23.0372 C   0  0  0  0  0  0
  -26.4623  -31.6474   25.0676 C   0  0  0  0  0  0
  -25.3634  -31.3852   26.1251 C   0  0  0  0  0  0
  -27.0589  -30.2790   24.6730 C   0  0  0  0  0  0
  -27.6037  -32.4383   25.7503 C   0  0  0  0  0  0
  -27.5561  -37.1707   24.8465 C   0  0  0  0  0  0
  -21.4482  -29.3004   22.3401 N   0  0  0  0  0  0
  -26.4268  -37.3609   23.9403 N   0  0  0  0  0  0
  -24.8141  -30.9006   22.0704 N   0  0  0  0  0  0
  -23.4202  -28.7828   23.3093 O   0  0  0  0  0  0
  -28.1724  -25.1939   20.3745 O   0  0  0  0  0  0
  -26.5817  -34.8839   22.4544 O   0  0  0  0  0  0
  -23.5995  -32.0939   23.6162 O   0  0  0  0  0  0
  -28.7210  -21.4348   20.5915 C   0  0  0  0  0  0
  -28.2555  -23.3656   19.9931 C   0  0  0  0  0  0
  -29.3115  -19.5123   20.0784 C   0  0  0  0  0  0
  -29.3007  -17.6846   20.4588 O   0  0  0  0  0  0
  -31.3926  -13.5376   19.2335 H   0  0  0  0  0  0
  -30.5876  -12.4500   20.3079 H   0  0  0  0  0  0
  -30.0832  -11.8900   17.9035 H   0  0  0  0  0  0
  -29.5065  -13.5168   17.6289 H   0  0  0  0  0  0
  -28.2315  -11.3434   19.3032 H   0  0  0  0  0  0
  -27.5097  -12.1872   17.9512 H   0  0  0  0  0  0
  -27.4060  -14.2273   19.1854 H   0  0  0  0  0  0
  -28.8290  -12.9831   21.5787 H   0  0  0  0  0  0
  -28.0529  -14.5455   21.5652 H   0  0  0  0  0  0
  -25.2804   -9.5695   22.4749 H   0  0  0  0  0  0
  -24.0030   -7.4655   22.7471 H   0  0  0  0  0  0
  -21.0883   -8.8793   19.8941 H   0  0  0  0  0  0
  -22.3754  -10.9673   19.6148 H   0  0  0  0  0  0
  -21.2019   -7.6155   23.9725 H   0  0  0  0  0  0
  -21.1483   -6.0522   25.9080 H   0  0  0  0  0  0
  -22.0594   -2.7618   23.2835 H   0  0  0  0  0  0
  -22.4018  -11.9806   22.4904 H   0  0  0  0  0  0
  -21.0959  -13.1090   22.2675 H   0  0  0  0  0  0
  -24.6162  -15.8627   20.5616 H   0  0  0  0  0  0
  -26.2399  -15.6582   20.1367 H   0  0  0  0  0  0
  -26.7610  -32.4773   23.0693 H   0  0  0  0  0  0
  -25.0023  -33.9198   24.9905 H   0  0  0  0  0  0
  -22.8750  -31.2087   21.2828 H   0  0  0  0  0  0
  -23.3782  -35.9407   23.3255 H   0  0  0  0  0  0
  -24.3557  -36.8843   22.2085 H   0  0  0  0  0  0
  -23.7238  -37.6249   23.6794 H   0  0  0  0  0  0
  -26.3512  -31.1499   20.6347 H   0  0  0  0  0  0
  -26.9686  -30.5163   22.1051 H   0  0  0  0  0  0
  -28.1609  -28.1842   21.3810 H   0  0  0  0  0  0
  -25.8256  -25.5225   18.9709 H   0  0  0  0  0  0
  -24.0784  -27.1735   18.8895 H   0  0  0  0  0  0
  -23.9928  -30.3938   19.3670 H   0  0  0  0  0  0
  -22.9055  -29.1168   19.8088 H   0  0  0  0  0  0
  -25.1376  -36.1566   25.0755 H   0  0  0  0  0  0
  -21.0073  -28.3439   24.1231 H   0  0  0  0  0  0
  -20.5647  -26.2429   23.3688 H   0  0  0  0  0  0
  -21.6666  -26.7342   22.1241 H   0  0  0  0  0  0
  -19.6940  -25.6242   21.1310 H   0  0  0  0  0  0
  -19.6739  -27.3114   20.6705 H   0  0  0  0  0  0
  -17.4242  -26.6691   21.4019 H   0  0  0  0  0  0
  -18.0355  -26.0117   22.9033 H   0  0  0  0  0  0
  -19.8000  -30.7356   24.2132 H   0  0  0  0  0  0
  -17.5061  -31.6273   24.5160 H   0  0  0  0  0  0
  -15.5397  -30.2950   23.7727 H   0  0  0  0  0  0
  -15.8735  -28.0783   22.7148 H   0  0  0  0  0  0
  -24.5854  -30.7173   25.7536 H   0  0  0  0  0  0
  -24.8787  -32.3090   26.4415 H   0  0  0  0  0  0
  -25.7754  -30.9178   27.0202 H   0  0  0  0  0  0
  -26.3348  -29.6344   24.1742 H   0  0  0  0  0  0
  -27.3950  -29.7319   25.5548 H   0  0  0  0  0  0
  -27.9353  -30.3870   24.0339 H   0  0  0  0  0  0
  -27.2558  -33.3779   26.1810 H   0  0  0  0  0  0
  -28.3982  -32.6797   25.0430 H   0  0  0  0  0  0
  -28.0560  -31.8700   26.5641 H   0  0  0  0  0  0
  -28.2532  -38.0043   24.7510 H   0  0  0  0  0  0
  -28.1103  -36.2561   24.6298 H   0  0  0  0  0  0
  -27.2272  -37.1341   25.8865 H   0  0  0  0  0  0
  -20.9840  -29.8625   21.6405 H   0  0  0  0  0  0
  -26.0079  -38.2648   24.1415 H   0  0  0  0  0  0
  -27.8290  -21.2079   21.1750 H   0  0  0  0  0  0
  -29.4615  -21.6487   21.3622 H   0  0  0  0  0  0
  -27.2717  -23.2221   19.5460 H   0  0  0  0  0  0
  -28.9110  -23.4398   19.1256 H   0  0  0  0  0  0
  -30.3776  -19.6575   19.9026 H   0  0  0  0  0  0
  -28.9053  -19.4547   19.0685 H   0  0  0  0  0  0
  1 25  1  0  0  0
  1 30  2  0  0  0
  1 74  1  0  0  0
  2  3  1  0  0  0
  2 25  1  0  0  0
  2 75  1  0  0  0
  2 76  1  0  0  0
  3  4  1  0  0  0
  3 77  1  0  0  0
  3 78  1  0  0  0
  4  5  1  0  0  0
  4 79  1  0  0  0
  4 80  1  0  0  0
  5  6  1  0  0  0
  5 26  1  0  0  0
  5 81  1  0  0  0
  6 25  1  0  0  0
  6 82  1  0  0  0
  6 83  1  0  0  0
  7  8  2  0  0  0
  7 26  1  0  0  0
  7 29  1  0  0  0
  8  9  1  0  0  0
  8 22  1  0  0  0
  9 10  1  0  0  0
  9 27  2  0  0  0
 10 11  2  0  0  0
 10 15  1  0  0  0
 11 12  1  0  0  0
 11 84  1  0  0  0
 12 13  2  0  0  0
 12 85  1  0  0  0
 13 14  1  0  0  0
 13 31  1  0  0  0
 14 15  2  0  0  0
 14 86  1  0  0  0
 15 87  1  0  0  0
 16 17  2  0  0  0
 16 21  1  0  0  0
 16 31  1  0  0  0
 17 18  1  0  0  0
 17 88  1  0  0  0
 18 19  2  0  0  0
 18 89  1  0  0  0
 19 20  1  0  0  0
 19 24  1  0  0  0
 20 21  2  0  0  0
 20 90  1  0  0  0
 21 23  1  0  0  0
 22 28  1  0  0  0
 22 32  2  0  0  0
 26 27  1  0  0  0
 28 91  1  0  0  0
 28 92  1  0  0  0
 29 93  1  0  0  0
 29 94  1  0  0  0
 33 34  1  0  0  0
 33 66  1  0  0  0
 33 70  2  0  0  0
 34 36  1  0  0  0
 34 59  1  0  0  0
 34 95  1  0  0  0
 35 44  2  0  0  0
 35 45  1  0  0  0
 35 68  1  0  0  0
 36 56  1  0  0  0
 36 96  1  0  0  0
 37 39  1  0  0  0
 37 47  1  0  0  0
 37 66  1  0  0  0
 37 97  1  0  0  0
 38 43  2  0  0  0
 38 46  1  0  0  0
 38 47  1  0  0  0
 39 64  1  0  0  0
 39 67  2  0  0  0
 40 52  1  0  0  0
 40 53  2  0  0  0
 40 58  1  0  0  0
 41 98  1  0  0  0
 41 99  1  0  0  0
 41100  1  0  0  0
 41 48  1  0  0  0
 42 43  1  0  0  0
 42 66  1  0  0  0
 42101  1  0  0  0
 42102  1  0  0  0
 43 44  1  0  0  0
 44103  1  0  0  0
 45 46  2  0  0  0
 45104  1  0  0  0
 46105  1  0  0  0
 47106  1  0  0  0
 47107  1  0  0  0
 48 56  1  0  0  0
 48 65  1  0  0  0
 48108  1  0  0  0
 49 50  1  0  0  0
 49 53  1  0  0  0
 49 64  1  0  0  0
 49109  1  0  0  0
 50 51  1  0  0  0
 50110  1  0  0  0
 50111  1  0  0  0
 51 52  1  0  0  0
 51112  1  0  0  0
 51113  1  0  0  0
 52114  1  0  0  0
 52115  1  0  0  0
 53 54  1  0  0  0
 54 55  2  0  0  0
 54116  1  0  0  0
 55 57  1  0  0  0
 55117  1  0  0  0
 56 69  2  0  0  0
 57 58  2  0  0  0
 57118  1  0  0  0
 58119  1  0  0  0
 59 60  1  0  0  0
 59 61  1  0  0  0
 59 62  1  0  0  0
 60120  1  0  0  0
 60121  1  0  0  0
 60122  1  0  0  0
 61123  1  0  0  0
 61124  1  0  0  0
 61125  1  0  0  0
 62126  1  0  0  0
 62127  1  0  0  0
 62128  1  0  0  0
 63 65  1  0  0  0
 63129  1  0  0  0
 63130  1  0  0  0
 63131  1  0  0  0
 64132  1  0  0  0
 65133  1  0  0  0
 68 72  1  0  0  0
 71 72  1  0  0  0
 71 73  1  0  0  0
 71134  1  0  0  0
 71135  1  0  0  0
 72136  1  0  0  0
 72137  1  0  0  0
 73 74  1  0  0  0
 73138  1  0  0  0
 73139  1  0  0  0
M  ISO  4   1 100  68 101  72 101  74 100
M  END
> <chiral flag>
0

> <version>
0

> <s_m_source_file>
/data/baiqing/PycharmProjects/Reinvent-master-3.2/result/LINK_invent/BTK/process_docking_weight1_custom_sum_contain_oxygen_bond_distance_aromatic_linkinvent_7_9_3/rearranged_h_0001.sdf

> <i_m_source_file_index>
36

> <r_mmod_Potential_Energy-OPLS-2005>
3973.005859375

> <r_mmod_Stretch_Energy-OPLS-2005>
1955.04736328125

> <r_mmod_Bend_Energy-OPLS-2005>
863.980651855469

> <r_mmod_Torsional_Energy-OPLS-2005>
187.416458129883

> <r_mmod_Improper_Torsional_Energy-OPLS-2005>
2.13372302055359

> <r_mmod_Van_der_Waal_Energy-OPLS-2005>
112.765045166016

> <r_mmod_Electrostatic_Energy-OPLS-2005>
-315.698333740234

> <r_mmod_Solvation_Energy-OPLS-2005>
-200.812515258789

> <b_mmod_Minimization_Converged-OPLS-2005>
0

> <r_mmod_RMS_Derivative-OPLS-2005>
0.62112945318222

$$$$
36
                    3D
 Structure written by MMmdl.
142149  0  0  1  0            999 V2000
  -30.2720  -15.5963   20.3248 C   0  0  0  0  0  0
  -30.4402  -13.0358   19.5589 C   0  0  0  0  0  0
  -29.5622  -12.6517   18.3309 C   0  0  0  0  0  0
  -28.1266  -12.3043   18.7580 C   0  0  0  0  0  0
  -27.6018  -13.3045   19.8124 C   0  0  2  0  0  0
  -28.6146  -13.6023   20.9398 C   0  0  0  0  0  0
  -25.2356  -13.8283   20.5771 C   0  0  0  0  0  0
  -24.1732  -13.0439   20.9259 C   0  0  0  0  0  0
  -24.6423  -11.6946   20.8737 C   0  0  0  0  0  0
  -23.9120  -10.4296   21.0385 C   0  0  0  0  0  0
  -24.3655   -9.4211   21.9173 C   0  0  0  0  0  0
  -23.6315   -8.2253   22.0752 C   0  0  0  0  0  0
  -22.4294   -8.0290   21.3544 C   0  0  0  0  0  0
  -21.9939   -9.0265   20.4643 C   0  0  0  0  0  0
  -22.7283  -10.2136   20.3044 C   0  0  0  0  0  0
  -21.6861   -6.0742   22.5279 C   0  0  0  0  0  0
  -21.4021   -6.5643   23.8213 C   0  0  0  0  0  0
  -21.3662   -5.6794   24.9174 C   0  0  0  0  0  0
  -21.6044   -4.3056   24.7223 C   0  0  0  0  0  0
  -21.8818   -3.8150   23.4343 C   0  0  0  0  0  0
  -21.9195   -4.6968   22.3400 C   0  0  0  0  0  0
  -22.7746  -13.5173   21.1911 C   0  0  0  0  0  0
  -22.1662   -4.2153   21.0978 F   0  0  0  0  0  0
  -21.5627   -3.4539   25.7735 F   0  0  0  0  0  0
  -29.8145  -14.2071   20.3191 N   0  0  0  0  0  0
  -26.2795  -12.9605   20.3184 N   0  0  0  0  0  0
  -25.9368  -11.6680   20.5660 N   0  0  0  0  0  0
  -22.0414  -12.8147   22.0466 N   0  0  0  0  0  0
  -25.3982  -15.2027   20.4264 N   0  0  0  0  0  0
  -31.5017  -15.5704   20.1167 O   0  0  0  0  0  0
  -21.6651   -6.8890   21.4243 O   0  0  0  0  0  0
  -22.3416  -14.5473   20.6754 O   0  0  0  0  0  0
  -24.6829  -31.8007   23.1518 C   0  0  0  0  0  0
  -25.9413  -32.4471   23.8063 C   0  0  1  0  0  0
  -27.2281  -26.7144   20.2156 C   0  0  0  0  0  0
  -25.5994  -33.8296   24.1951 N   0  0  0  0  0  0
  -23.5083  -30.4025   21.5058 C   0  0  2  0  0  0
  -24.9653  -28.7438   20.1194 C   0  0  0  0  0  0
  -22.7761  -29.4320   22.4717 C   0  0  0  0  0  0
  -18.0337  -28.1420   22.8456 C   0  0  0  0  0  0
  -24.1496  -36.7157   23.2652 C   0  0  0  0  0  0
  -26.0882  -30.5382   21.4135 C   0  0  0  0  0  0
  -26.1545  -29.1037   20.7644 C   0  0  0  0  0  0
  -27.2718  -28.1175   20.7775 C   0  0  0  0  0  0
  -26.0046  -26.5583   19.5165 C   0  0  0  0  0  0
  -24.9285  -27.4963   19.4718 C   0  0  0  0  0  0
  -23.7614  -29.6984   20.1415 C   0  0  0  0  0  0
  -25.4146  -36.2898   24.0282 C   0  0  1  0  0  0
  -20.5973  -28.3780   23.1145 C   0  0  2  0  0  0
  -20.6804  -26.9440   22.5404 C   0  0  0  0  0  0
  -19.5781  -26.6371   21.5217 C   0  0  0  0  0  0
  -18.1963  -26.7948   22.1619 C   0  0  0  0  0  0
  -19.1603  -28.8925   23.2781 C   0  0  0  0  0  0
  -18.9508  -30.1508   23.8827 C   0  0  0  0  0  0
  -17.6499  -30.6603   24.0550 C   0  0  0  0  0  0
  -25.9125  -34.9288   23.4954 C   0  0  0  0  0  0
  -16.5388  -29.9085   23.6349 C   0  0  0  0  0  0
  -16.7317  -28.6507   23.0366 C   0  0  0  0  0  0
  -26.4594  -31.6502   25.0682 C   0  0  0  0  0  0
  -25.3663  -31.3816   26.1298 C   0  0  0  0  0  0
  -27.0525  -30.2842   24.6572 C   0  0  0  0  0  0
  -27.6043  -32.4362   25.7501 C   0  0  0  0  0  0
  -27.5565  -37.1735   24.8466 C   0  0  0  0  0  0
  -21.4409  -29.3028   22.3466 N   0  0  0  0  0  0
  -26.4273  -37.3658   23.9407 N   0  0  0  0  0  0
  -24.7833  -30.9465   22.0764 N   0  0  0  0  0  0
  -23.4209  -28.7923   23.3060 O   0  0  0  0  0  0
  -28.2073  -25.5132   20.2799 O   0  0  0  0  0  0
  -26.5766  -34.8864   22.4571 O   0  0  0  0  0  0
  -23.5851  -32.1075   23.6480 O   0  0  0  0  0  0
  -29.6887  -19.0377   20.2940 C   0  0  0  0  0  0
  -29.3407  -17.2160   20.4464 C   0  0  0  0  0  0
  -29.0641  -22.1279   20.2902 C   0  0  0  0  0  0
  -28.0266  -23.7642   20.2210 C   0  0  0  0  0  0
  -28.8680  -20.3597   20.3346 N   0  0  0  0  0  0
  -30.8893  -19.2557   20.1297 O   0  0  0  0  0  0
  -31.4404  -13.2911   19.2076 H   0  0  0  0  0  0
  -30.5815  -12.1756   20.2156 H   0  0  0  0  0  0
  -30.0074  -11.8161   17.7893 H   0  0  0  0  0  0
  -29.5387  -13.4912   17.6346 H   0  0  0  0  0  0
  -28.1384  -11.3000   19.1832 H   0  0  0  0  0  0
  -27.4637  -12.2663   17.8926 H   0  0  0  0  0  0
  -27.4773  -14.2370   19.2601 H   0  0  0  0  0  0
  -28.8492  -12.7068   21.5174 H   0  0  0  0  0  0
  -28.1880  -14.3173   21.6448 H   0  0  0  0  0  0
  -25.2796   -9.5686   22.4754 H   0  0  0  0  0  0
  -24.0016   -7.4647   22.7479 H   0  0  0  0  0  0
  -21.0867   -8.8791   19.8952 H   0  0  0  0  0  0
  -22.3739  -10.9675   19.6154 H   0  0  0  0  0  0
  -21.2016   -7.6152   23.9718 H   0  0  0  0  0  0
  -21.1484   -6.0524   25.9077 H   0  0  0  0  0  0
  -22.0594   -2.7611   23.2842 H   0  0  0  0  0  0
  -22.4055  -11.9821   22.4855 H   0  0  0  0  0  0
  -21.1022  -13.1145   22.2671 H   0  0  0  0  0  0
  -24.6311  -15.8544   20.5512 H   0  0  0  0  0  0
  -26.2495  -15.6488   20.1104 H   0  0  0  0  0  0
  -26.7495  -32.4948   23.0776 H   0  0  0  0  0  0
  -25.0051  -33.9336   25.0044 H   0  0  0  0  0  0
  -22.8331  -31.2395   21.3160 H   0  0  0  0  0  0
  -23.3775  -35.9469   23.3265 H   0  0  0  0  0  0
  -24.3564  -36.8869   22.2077 H   0  0  0  0  0  0
  -23.7240  -37.6316   23.6761 H   0  0  0  0  0  0
  -26.2894  -31.2637   20.6242 H   0  0  0  0  0  0
  -26.9397  -30.6059   22.0783 H   0  0  0  0  0  0
  -28.1691  -28.4008   21.3095 H   0  0  0  0  0  0
  -25.8419  -25.6135   19.0176 H   0  0  0  0  0  0
  -24.0305  -27.2117   18.9409 H   0  0  0  0  0  0
  -23.9357  -30.4577   19.3784 H   0  0  0  0  0  0
  -22.8663  -29.1641   19.8185 H   0  0  0  0  0  0
  -25.1356  -36.1662   25.0772 H   0  0  0  0  0  0
  -21.0055  -28.3404   24.1272 H   0  0  0  0  0  0
  -20.5669  -26.2404   23.3665 H   0  0  0  0  0  0
  -21.6666  -26.7384   22.1222 H   0  0  0  0  0  0
  -19.6937  -25.6263   21.1293 H   0  0  0  0  0  0
  -19.6724  -27.3142   20.6716 H   0  0  0  0  0  0
  -17.4233  -26.6691   21.4022 H   0  0  0  0  0  0
  -18.0351  -26.0108   22.9032 H   0  0  0  0  0  0
  -19.7984  -30.7343   24.2166 H   0  0  0  0  0  0
  -17.5048  -31.6276   24.5166 H   0  0  0  0  0  0
  -15.5385  -30.2964   23.7714 H   0  0  0  0  0  0
  -15.8718  -28.0802   22.7122 H   0  0  0  0  0  0
  -24.5873  -30.7139   25.7598 H   0  0  0  0  0  0
  -24.8824  -32.3037   26.4529 H   0  0  0  0  0  0
  -25.7842  -30.9107   27.0205 H   0  0  0  0  0  0
  -26.3238  -29.6457   24.1567 H   0  0  0  0  0  0
  -27.3960  -29.7287   25.5309 H   0  0  0  0  0  0
  -27.9215  -30.3970   24.0088 H   0  0  0  0  0  0
  -27.2582  -33.3732   26.1877 H   0  0  0  0  0  0
  -28.3958  -32.6814   25.0407 H   0  0  0  0  0  0
  -28.0597  -31.8627   26.5585 H   0  0  0  0  0  0
  -28.2550  -38.0060   24.7514 H   0  0  0  0  0  0
  -28.1093  -36.2583   24.6293 H   0  0  0  0  0  0
  -27.2279  -37.1371   25.8867 H   0  0  0  0  0  0
  -20.9714  -29.8681   21.6531 H   0  0  0  0  0  0
  -26.0101  -38.2707   24.1417 H   0  0  0  0  0  0
  -28.5211  -17.0688   19.7442 H   0  0  0  0  0  0
  -28.8610  -17.1414   21.4216 H   0  0  0  0  0  0
  -29.6902  -22.2860   21.1683 H   0  0  0  0  0  0
  -29.7620  -22.2477   19.4615 H   0  0  0  0  0  0
  -27.2912  -23.6101   21.0106 H   0  0  0  0  0  0
  -27.4451  -23.6406   19.3075 H   0  0  0  0  0  0
  -27.8873  -20.1359   20.4555 H   0  0  0  0  0  0
  1 25  1  0  0  0
  1 30  2  0  0  0
  1 72  1  0  0  0
  2  3  1  0  0  0
  2 25  1  0  0  0
  2 77  1  0  0  0
  2 78  1  0  0  0
  3  4  1  0  0  0
  3 79  1  0  0  0
  3 80  1  0  0  0
  4  5  1  0  0  0
  4 81  1  0  0  0
  4 82  1  0  0  0
  5  6  1  0  0  0
  5 26  1  0  0  0
  5 83  1  0  0  0
  6 25  1  0  0  0
  6 84  1  0  0  0
  6 85  1  0  0  0
  7  8  2  0  0  0
  7 26  1  0  0  0
  7 29  1  0  0  0
  8  9  1  0  0  0
  8 22  1  0  0  0
  9 10  1  0  0  0
  9 27  2  0  0  0
 10 11  2  0  0  0
 10 15  1  0  0  0
 11 12  1  0  0  0
 11 86  1  0  0  0
 12 13  2  0  0  0
 12 87  1  0  0  0
 13 14  1  0  0  0
 13 31  1  0  0  0
 14 15  2  0  0  0
 14 88  1  0  0  0
 15 89  1  0  0  0
 16 17  2  0  0  0
 16 21  1  0  0  0
 16 31  1  0  0  0
 17 18  1  0  0  0
 17 90  1  0  0  0
 18 19  2  0  0  0
 18 91  1  0  0  0
 19 20  1  0  0  0
 19 24  1  0  0  0
 20 21  2  0  0  0
 20 92  1  0  0  0
 21 23  1  0  0  0
 22 28  1  0  0  0
 22 32  2  0  0  0
 26 27  1  0  0  0
 28 93  1  0  0  0
 28 94  1  0  0  0
 29 95  1  0  0  0
 29 96  1  0  0  0
 33 34  1  0  0  0
 33 66  1  0  0  0
 33 70  2  0  0  0
 34 36  1  0  0  0
 34 59  1  0  0  0
 34 97  1  0  0  0
 35 44  2  0  0  0
 35 45  1  0  0  0
 35 68  1  0  0  0
 36 56  1  0  0  0
 36 98  1  0  0  0
 37 39  1  0  0  0
 37 47  1  0  0  0
 37 66  1  0  0  0
 37 99  1  0  0  0
 38 43  2  0  0  0
 38 46  1  0  0  0
 38 47  1  0  0  0
 39 64  1  0  0  0
 39 67  2  0  0  0
 40 52  1  0  0  0
 40 53  2  0  0  0
 40 58  1  0  0  0
 41100  1  0  0  0
 41101  1  0  0  0
 41102  1  0  0  0
 41 48  1  0  0  0
 42 43  1  0  0  0
 42 66  1  0  0  0
 42103  1  0  0  0
 42104  1  0  0  0
 43 44  1  0  0  0
 44105  1  0  0  0
 45 46  2  0  0  0
 45106  1  0  0  0
 46107  1  0  0  0
 47108  1  0  0  0
 47109  1  0  0  0
 48 56  1  0  0  0
 48 65  1  0  0  0
 48110  1  0  0  0
 49 50  1  0  0  0
 49 53  1  0  0  0
 49 64  1  0  0  0
 49111  1  0  0  0
 50 51  1  0  0  0
 50112  1  0  0  0
 50113  1  0  0  0
 51 52  1  0  0  0
 51114  1  0  0  0
 51115  1  0  0  0
 52116  1  0  0  0
 52117  1  0  0  0
 53 54  1  0  0  0
 54 55  2  0  0  0
 54118  1  0  0  0
 55 57  1  0  0  0
 55119  1  0  0  0
 56 69  2  0  0  0
 57 58  2  0  0  0
 57120  1  0  0  0
 58121  1  0  0  0
 59 60  1  0  0  0
 59 61  1  0  0  0
 59 62  1  0  0  0
 60122  1  0  0  0
 60123  1  0  0  0
 60124  1  0  0  0
 61125  1  0  0  0
 61126  1  0  0  0
 61127  1  0  0  0
 62128  1  0  0  0
 62129  1  0  0  0
 62130  1  0  0  0
 63 65  1  0  0  0
 63131  1  0  0  0
 63132  1  0  0  0
 63133  1  0  0  0
 64134  1  0  0  0
 65135  1  0  0  0
 68 74  1  0  0  0
 71 72  1  0  0  0
 71 75  1  0  0  0
 71 76  2  0  0  0
 72136  1  0  0  0
 72137  1  0  0  0
 73 74  1  0  0  0
 73 75  1  0  0  0
 73138  1  0  0  0
 73139  1  0  0  0
 74140  1  0  0  0
 74141  1  0  0  0
 75142  1  0  0  0
M  ISO  4   1 100  68 101  72 100  74 101
M  END
> <chiral flag>
0

> <version>
0

> <s_m_source_file>
/data/baiqing/PycharmProjects/Reinvent-master-3.2/result/LINK_invent/BTK/process_docking_weight1_custom_sum_contain_oxygen_bond_distance_aromatic_linkinvent_7_9_3/rearranged_h_0001.sdf

> <i_m_source_file_index>
37

> <r_mmod_Potential_Energy-OPLS-2005>
2311.54321289062

> <r_mmod_Stretch_Energy-OPLS-2005>
1116.83837890625

> <r_mmod_Bend_Energy-OPLS-2005>
637.498291015625

> <r_mmod_Torsional_Energy-OPLS-2005>
183.802886962891

> <r_mmod_Improper_Torsional_Energy-OPLS-2005>
2.33136606216431

> <r_mmod_Van_der_Waal_Energy-OPLS-2005>
106.785949707031

> <r_mmod_Electrostatic_Energy-OPLS-2005>
-333.753723144531

> <r_mmod_Solvation_Energy-OPLS-2005>
-256.523651123047

> <b_mmod_Minimization_Converged-OPLS-2005>
0

> <r_mmod_RMS_Derivative-OPLS-2005>
0.100161984562874

$$$$
37
                    3D
 Structure written by MMmdl.
142149  0  0  1  0            999 V2000
  -30.3339  -15.5623   20.3395 C   0  0  0  0  0  0
  -30.4278  -13.0270   19.5384 C   0  0  0  0  0  0
  -29.5478  -12.6385   18.3177 C   0  0  0  0  0  0
  -28.1158  -12.2977   18.7580 C   0  0  0  0  0  0
  -27.5983  -13.3012   19.8142 C   0  0  2  0  0  0
  -28.6182  -13.6059   20.9360 C   0  0  0  0  0  0
  -25.2331  -13.8276   20.5786 C   0  0  0  0  0  0
  -24.1713  -13.0432   20.9283 C   0  0  0  0  0  0
  -24.6407  -11.6941   20.8763 C   0  0  0  0  0  0
  -23.9110  -10.4291   21.0399 C   0  0  0  0  0  0
  -24.3648   -9.4204   21.9180 C   0  0  0  0  0  0
  -23.6311   -8.2244   22.0753 C   0  0  0  0  0  0
  -22.4291   -8.0284   21.3544 C   0  0  0  0  0  0
  -21.9936   -9.0259   20.4643 C   0  0  0  0  0  0
  -22.7277  -10.2132   20.3050 C   0  0  0  0  0  0
  -21.6857   -6.0739   22.5279 C   0  0  0  0  0  0
  -21.4018   -6.5641   23.8213 C   0  0  0  0  0  0
  -21.3660   -5.6794   24.9175 C   0  0  0  0  0  0
  -21.6044   -4.3056   24.7226 C   0  0  0  0  0  0
  -21.8819   -3.8148   23.4346 C   0  0  0  0  0  0
  -21.9194   -4.6965   22.3402 C   0  0  0  0  0  0
  -22.7726  -13.5166   21.1920 C   0  0  0  0  0  0
  -22.1661   -4.2150   21.0980 F   0  0  0  0  0  0
  -21.5628   -3.4539   25.7737 F   0  0  0  0  0  0
  -29.8035  -14.2066   20.2850 N   0  0  0  0  0  0
  -26.2775  -12.9596   20.3229 N   0  0  0  0  0  0
  -25.9351  -11.6674   20.5704 N   0  0  0  0  0  0
  -22.0391  -12.8142   22.0473 N   0  0  0  0  0  0
  -25.3927  -15.2018   20.4226 N   0  0  0  0  0  0
  -31.5664  -15.5093   20.1746 O   0  0  0  0  0  0
  -21.6647   -6.8884   21.4242 O   0  0  0  0  0  0
  -22.3401  -14.5463   20.6755 O   0  0  0  0  0  0
  -24.6809  -31.8035   23.1552 C   0  0  0  0  0  0
  -25.9406  -32.4484   23.8083 C   0  0  1  0  0  0
  -27.2264  -26.7339   20.2056 C   0  0  0  0  0  0
  -25.5998  -33.8309   24.1971 N   0  0  0  0  0  0
  -23.5055  -30.4074   21.5082 C   0  0  2  0  0  0
  -24.9631  -28.7561   20.1181 C   0  0  0  0  0  0
  -22.7753  -29.4334   22.4719 C   0  0  0  0  0  0
  -18.0337  -28.1420   22.8456 C   0  0  0  0  0  0
  -24.1496  -36.7161   23.2651 C   0  0  0  0  0  0
  -26.0851  -30.5447   21.4178 C   0  0  0  0  0  0
  -26.1504  -29.1126   20.7688 C   0  0  0  0  0  0
  -27.2658  -28.1262   20.7884 C   0  0  0  0  0  0
  -26.0062  -26.5832   19.4991 C   0  0  0  0  0  0
  -24.9274  -27.5150   19.4615 C   0  0  0  0  0  0
  -23.7584  -29.7081   20.1421 C   0  0  0  0  0  0
  -25.4145  -36.2906   24.0284 C   0  0  1  0  0  0
  -20.5972  -28.3778   23.1146 C   0  0  2  0  0  0
  -20.6806  -26.9440   22.5402 C   0  0  0  0  0  0
  -19.5782  -26.6371   21.5216 C   0  0  0  0  0  0
  -18.1964  -26.7948   22.1619 C   0  0  0  0  0  0
  -19.1603  -28.8923   23.2783 C   0  0  0  0  0  0
  -18.9509  -30.1508   23.8827 C   0  0  0  0  0  0
  -17.6499  -30.6603   24.0551 C   0  0  0  0  0  0
  -25.9123  -34.9294   23.4961 C   0  0  0  0  0  0
  -16.5389  -29.9085   23.6349 C   0  0  0  0  0  0
  -16.7318  -28.6508   23.0365 C   0  0  0  0  0  0
  -26.4594  -31.6505   25.0691 C   0  0  0  0  0  0
  -25.3667  -31.3816   26.1311 C   0  0  0  0  0  0
  -27.0522  -30.2845   24.6576 C   0  0  0  0  0  0
  -27.6046  -32.4361   25.7507 C   0  0  0  0  0  0
  -27.5565  -37.1738   24.8466 C   0  0  0  0  0  0
  -21.4404  -29.3031   22.3468 N   0  0  0  0  0  0
  -26.4274  -37.3663   23.9406 N   0  0  0  0  0  0
  -24.7802  -30.9508   22.0795 N   0  0  0  0  0  0
  -23.4212  -28.7927   23.3046 O   0  0  0  0  0  0
  -28.1821  -25.5176   20.2678 O   0  0  0  0  0  0
  -26.5758  -34.8865   22.4575 O   0  0  0  0  0  0
  -23.5835  -32.1097   23.6522 O   0  0  0  0  0  0
  -27.9174  -23.7085   20.2333 C   0  0  0  0  0  0
  -28.9903  -22.2052   20.3013 C   0  0  0  0  0  0
  -28.7659  -20.2883   20.3206 C   0  0  0  0  0  0
  -29.8049  -18.6670   20.3348 C   0  0  0  0  0  0
  -29.5786  -16.9151   20.3890 N   0  0  0  0  0  0
  -26.7331  -23.3785   20.1457 O   0  0  0  0  0  0
  -31.4265  -13.2777   19.1793 H   0  0  0  0  0  0
  -30.5709  -12.1720   20.2014 H   0  0  0  0  0  0
  -29.9879  -11.7980   17.7794 H   0  0  0  0  0  0
  -29.5221  -13.4738   17.6163 H   0  0  0  0  0  0
  -28.1294  -11.2946   19.1862 H   0  0  0  0  0  0
  -27.4467  -12.2574   17.8976 H   0  0  0  0  0  0
  -27.4703  -14.2310   19.2581 H   0  0  0  0  0  0
  -28.8613  -12.7147   21.5165 H   0  0  0  0  0  0
  -28.1987  -14.3270   21.6391 H   0  0  0  0  0  0
  -25.2786   -9.5679   22.4764 H   0  0  0  0  0  0
  -24.0012   -7.4637   22.7477 H   0  0  0  0  0  0
  -21.0866   -8.8786   19.8949 H   0  0  0  0  0  0
  -22.3735  -10.9673   19.6162 H   0  0  0  0  0  0
  -21.2012   -7.6149   23.9717 H   0  0  0  0  0  0
  -21.1483   -6.0524   25.9078 H   0  0  0  0  0  0
  -22.0596   -2.7610   23.2847 H   0  0  0  0  0  0
  -22.4034  -11.9822   22.4875 H   0  0  0  0  0  0
  -21.0995  -13.1134   22.2666 H   0  0  0  0  0  0
  -24.6206  -15.8494   20.5372 H   0  0  0  0  0  0
  -26.2315  -15.6447   20.0720 H   0  0  0  0  0  0
  -26.7485  -32.4966   23.0793 H   0  0  0  0  0  0
  -25.0063  -33.9355   25.0068 H   0  0  0  0  0  0
  -22.8293  -31.2442   21.3213 H   0  0  0  0  0  0
  -23.3775  -35.9473   23.3266 H   0  0  0  0  0  0
  -24.3565  -36.8869   22.2075 H   0  0  0  0  0  0
  -23.7240  -37.6323   23.6756 H   0  0  0  0  0  0
  -26.2865  -31.2710   20.6292 H   0  0  0  0  0  0
  -26.9369  -30.6112   22.0821 H   0  0  0  0  0  0
  -28.1580  -28.4019   21.3324 H   0  0  0  0  0  0
  -25.8455  -25.6441   18.9894 H   0  0  0  0  0  0
  -24.0316  -27.2331   18.9255 H   0  0  0  0  0  0
  -23.9323  -30.4698   19.3813 H   0  0  0  0  0  0
  -22.8638  -29.1738   19.8174 H   0  0  0  0  0  0
  -25.1353  -36.1672   25.0774 H   0  0  0  0  0  0
  -21.0056  -28.3404   24.1272 H   0  0  0  0  0  0
  -20.5675  -26.2403   23.3662 H   0  0  0  0  0  0
  -21.6668  -26.7389   22.1217 H   0  0  0  0  0  0
  -19.6939  -25.6264   21.1291 H   0  0  0  0  0  0
  -19.6724  -27.3142   20.6715 H   0  0  0  0  0  0
  -17.4233  -26.6688   21.4023 H   0  0  0  0  0  0
  -18.0354  -26.0108   22.9032 H   0  0  0  0  0  0
  -19.7984  -30.7342   24.2165 H   0  0  0  0  0  0
  -17.5049  -31.6275   24.5168 H   0  0  0  0  0  0
  -15.5386  -30.2965   23.7714 H   0  0  0  0  0  0
  -15.8719  -28.0804   22.7118 H   0  0  0  0  0  0
  -24.5874  -30.7142   25.7613 H   0  0  0  0  0  0
  -24.8832  -32.3036   26.4547 H   0  0  0  0  0  0
  -25.7851  -30.9104   27.0213 H   0  0  0  0  0  0
  -26.3236  -29.6463   24.1568 H   0  0  0  0  0  0
  -27.3956  -29.7285   25.5310 H   0  0  0  0  0  0
  -27.9216  -30.3972   24.0096 H   0  0  0  0  0  0
  -27.2588  -33.3730   26.1887 H   0  0  0  0  0  0
  -28.3958  -32.6815   25.0410 H   0  0  0  0  0  0
  -28.0602  -31.8623   26.5587 H   0  0  0  0  0  0
  -28.2551  -38.0062   24.7514 H   0  0  0  0  0  0
  -28.1092  -36.2585   24.6294 H   0  0  0  0  0  0
  -27.2279  -37.1374   25.8867 H   0  0  0  0  0  0
  -20.9702  -29.8692   21.6542 H   0  0  0  0  0  0
  -26.0103  -38.2712   24.1418 H   0  0  0  0  0  0
  -29.6081  -22.4085   21.1756 H   0  0  0  0  0  0
  -29.6670  -22.3800   19.4652 H   0  0  0  0  0  0
  -28.0981  -20.1302   19.4736 H   0  0  0  0  0  0
  -28.1087  -20.1495   21.1792 H   0  0  0  0  0  0
  -30.4894  -18.8203   21.1697 H   0  0  0  0  0  0
  -30.4491  -18.7764   19.4617 H   0  0  0  0  0  0
  -28.5934  -16.7081   20.4773 H   0  0  0  0  0  0
  1 25  1  0  0  0
  1 30  2  0  0  0
  1 75  1  0  0  0
  2  3  1  0  0  0
  2 25  1  0  0  0
  2 77  1  0  0  0
  2 78  1  0  0  0
  3  4  1  0  0  0
  3 79  1  0  0  0
  3 80  1  0  0  0
  4  5  1  0  0  0
  4 81  1  0  0  0
  4 82  1  0  0  0
  5  6  1  0  0  0
  5 26  1  0  0  0
  5 83  1  0  0  0
  6 25  1  0  0  0
  6 84  1  0  0  0
  6 85  1  0  0  0
  7  8  2  0  0  0
  7 26  1  0  0  0
  7 29  1  0  0  0
  8  9  1  0  0  0
  8 22  1  0  0  0
  9 10  1  0  0  0
  9 27  2  0  0  0
 10 11  2  0  0  0
 10 15  1  0  0  0
 11 12  1  0  0  0
 11 86  1  0  0  0
 12 13  2  0  0  0
 12 87  1  0  0  0
 13 14  1  0  0  0
 13 31  1  0  0  0
 14 15  2  0  0  0
 14 88  1  0  0  0
 15 89  1  0  0  0
 16 17  2  0  0  0
 16 21  1  0  0  0
 16 31  1  0  0  0
 17 18  1  0  0  0
 17 90  1  0  0  0
 18 19  2  0  0  0
 18 91  1  0  0  0
 19 20  1  0  0  0
 19 24  1  0  0  0
 20 21  2  0  0  0
 20 92  1  0  0  0
 21 23  1  0  0  0
 22 28  1  0  0  0
 22 32  2  0  0  0
 26 27  1  0  0  0
 28 93  1  0  0  0
 28 94  1  0  0  0
 29 95  1  0  0  0
 29 96  1  0  0  0
 33 34  1  0  0  0
 33 66  1  0  0  0
 33 70  2  0  0  0
 34 36  1  0  0  0
 34 59  1  0  0  0
 34 97  1  0  0  0
 35 44  2  0  0  0
 35 45  1  0  0  0
 35 68  1  0  0  0
 36 56  1  0  0  0
 36 98  1  0  0  0
 37 39  1  0  0  0
 37 47  1  0  0  0
 37 66  1  0  0  0
 37 99  1  0  0  0
 38 43  2  0  0  0
 38 46  1  0  0  0
 38 47  1  0  0  0
 39 64  1  0  0  0
 39 67  2  0  0  0
 40 52  1  0  0  0
 40 53  2  0  0  0
 40 58  1  0  0  0
 41100  1  0  0  0
 41101  1  0  0  0
 41102  1  0  0  0
 41 48  1  0  0  0
 42 43  1  0  0  0
 42 66  1  0  0  0
 42103  1  0  0  0
 42104  1  0  0  0
 43 44  1  0  0  0
 44105  1  0  0  0
 45 46  2  0  0  0
 45106  1  0  0  0
 46107  1  0  0  0
 47108  1  0  0  0
 47109  1  0  0  0
 48 56  1  0  0  0
 48 65  1  0  0  0
 48110  1  0  0  0
 49 50  1  0  0  0
 49 53  1  0  0  0
 49 64  1  0  0  0
 49111  1  0  0  0
 50 51  1  0  0  0
 50112  1  0  0  0
 50113  1  0  0  0
 51 52  1  0  0  0
 51114  1  0  0  0
 51115  1  0  0  0
 52116  1  0  0  0
 52117  1  0  0  0
 53 54  1  0  0  0
 54 55  2  0  0  0
 54118  1  0  0  0
 55 57  1  0  0  0
 55119  1  0  0  0
 56 69  2  0  0  0
 57 58  2  0  0  0
 57120  1  0  0  0
 58121  1  0  0  0
 59 60  1  0  0  0
 59 61  1  0  0  0
 59 62  1  0  0  0
 60122  1  0  0  0
 60123  1  0  0  0
 60124  1  0  0  0
 61125  1  0  0  0
 61126  1  0  0  0
 61127  1  0  0  0
 62128  1  0  0  0
 62129  1  0  0  0
 62130  1  0  0  0
 63 65  1  0  0  0
 63131  1  0  0  0
 63132  1  0  0  0
 63133  1  0  0  0
 64134  1  0  0  0
 65135  1  0  0  0
 68 71  1  0  0  0
 71 72  1  0  0  0
 71 76  2  0  0  0
 72 73  1  0  0  0
 72136  1  0  0  0
 72137  1  0  0  0
 73 74  1  0  0  0
 73138  1  0  0  0
 73139  1  0  0  0
 74 75  1  0  0  0
 74140  1  0  0  0
 74141  1  0  0  0
 75142  1  0  0  0
M  ISO  4   1 100  68 101  71 101  75 100
M  END
> <chiral flag>
0

> <version>
0

> <s_m_source_file>
/data/baiqing/PycharmProjects/Reinvent-master-3.2/result/LINK_invent/BTK/process_docking_weight1_custom_sum_contain_oxygen_bond_distance_aromatic_linkinvent_7_9_3/rearranged_h_0001.sdf

> <i_m_source_file_index>
38

> <r_mmod_Potential_Energy-OPLS-2005>
2277.265625

> <r_mmod_Stretch_Energy-OPLS-2005>
1147.97778320312

> <r_mmod_Bend_Energy-OPLS-2005>
586.283325195312

> <r_mmod_Torsional_Energy-OPLS-2005>
198.265853881836

> <r_mmod_Improper_Torsional_Energy-OPLS-2005>
3.66866731643677

> <r_mmod_Van_der_Waal_Energy-OPLS-2005>
109.595443725586

> <r_mmod_Electrostatic_Energy-OPLS-2005>
-359.500610351562

> <r_mmod_Solvation_Energy-OPLS-2005>
-224.134796142578

> <b_mmod_Minimization_Converged-OPLS-2005>
0

> <r_mmod_RMS_Derivative-OPLS-2005>
0.184711799025536

$$$$
38
                    3D
 Structure written by MMmdl.
145152  0  0  1  0            999 V2000
  -30.4638  -15.1941   20.3747 C   0  0  0  0  0  0
  -30.4391  -12.7526   19.5337 C   0  0  0  0  0  0
  -29.5356  -12.5687   18.2886 C   0  0  0  0  0  0
  -28.0791  -12.3079   18.7093 C   0  0  0  0  0  0
  -27.6180  -13.2715   19.8318 C   0  0  2  0  0  0
  -28.6517  -13.4113   20.9711 C   0  0  0  0  0  0
  -25.2407  -13.8246   20.5743 C   0  0  0  0  0  0
  -24.1752  -13.0439   20.9248 C   0  0  0  0  0  0
  -24.6401  -11.6935   20.8759 C   0  0  0  0  0  0
  -23.9094  -10.4295   21.0404 C   0  0  0  0  0  0
  -24.3638   -9.4208   21.9183 C   0  0  0  0  0  0
  -23.6306   -8.2246   22.0754 C   0  0  0  0  0  0
  -22.4287   -8.0285   21.3545 C   0  0  0  0  0  0
  -21.9928   -9.0259   20.4646 C   0  0  0  0  0  0
  -22.7264  -10.2135   20.3054 C   0  0  0  0  0  0
  -21.6857   -6.0740   22.5279 C   0  0  0  0  0  0
  -21.4017   -6.5642   23.8212 C   0  0  0  0  0  0
  -21.3660   -5.6794   24.9174 C   0  0  0  0  0  0
  -21.6044   -4.3057   24.7223 C   0  0  0  0  0  0
  -21.8819   -3.8150   23.4344 C   0  0  0  0  0  0
  -21.9194   -4.6967   22.3401 C   0  0  0  0  0  0
  -22.7769  -13.5193   21.1896 C   0  0  0  0  0  0
  -22.1662   -4.2153   21.0979 F   0  0  0  0  0  0
  -21.5628   -3.4540   25.7735 F   0  0  0  0  0  0
  -29.9000  -13.8923   20.3593 N   0  0  0  0  0  0
  -26.2841  -12.9518   20.3242 N   0  0  0  0  0  0
  -25.9340  -11.6624   20.5732 N   0  0  0  0  0  0
  -22.0428  -12.8174   22.0451 N   0  0  0  0  0  0
  -25.4042  -15.1981   20.4176 N   0  0  0  0  0  0
  -31.6693  -15.2140   20.0922 O   0  0  0  0  0  0
  -21.6646   -6.8885   21.4242 O   0  0  0  0  0  0
  -22.3447  -14.5494   20.6737 O   0  0  0  0  0  0
  -24.6595  -31.8276   23.1751 C   0  0  0  0  0  0
  -25.9294  -32.4608   23.8197 C   0  0  1  0  0  0
  -27.2195  -26.9648   20.1627 C   0  0  0  0  0  0
  -25.5976  -33.8422   24.2099 N   0  0  0  0  0  0
  -23.4725  -30.4424   21.5231 C   0  0  2  0  0  0
  -24.9266  -28.8444   20.1047 C   0  0  0  0  0  0
  -22.7653  -29.4461   22.4786 C   0  0  0  0  0  0
  -18.0322  -28.1408   22.8469 C   0  0  0  0  0  0
  -24.1493  -36.7215   23.2646 C   0  0  0  0  0  0
  -26.0407  -30.6441   21.4034 C   0  0  0  0  0  0
  -26.1081  -29.2401   20.7427 C   0  0  0  0  0  0
  -27.2449  -28.3173   20.7584 C   0  0  0  0  0  0
  -26.0089  -26.7243   19.4701 C   0  0  0  0  0  0
  -24.9006  -27.6053   19.4499 C   0  0  0  0  0  0
  -23.7101  -29.7656   20.1458 C   0  0  0  0  0  0
  -25.4133  -36.2979   24.0302 C   0  0  1  0  0  0
  -20.5945  -28.3750   23.1193 C   0  0  2  0  0  0
  -20.6799  -26.9434   22.5401 C   0  0  0  0  0  0
  -19.5771  -26.6379   21.5214 C   0  0  0  0  0  0
  -18.1954  -26.7942   22.1624 C   0  0  0  0  0  0
  -19.1582  -28.8900   23.2820 C   0  0  0  0  0  0
  -18.9493  -30.1490   23.8853 C   0  0  0  0  0  0
  -17.6486  -30.6598   24.0556 C   0  0  0  0  0  0
  -25.9096  -34.9360   23.5019 C   0  0  0  0  0  0
  -16.5377  -29.9085   23.6343 C   0  0  0  0  0  0
  -16.7304  -28.6506   23.0362 C   0  0  0  0  0  0
  -26.4555  -31.6541   25.0712 C   0  0  0  0  0  0
  -25.3689  -31.3784   26.1372 C   0  0  0  0  0  0
  -27.0451  -30.2910   24.6432 C   0  0  0  0  0  0
  -27.6050  -32.4348   25.7511 C   0  0  0  0  0  0
  -27.5571  -37.1766   24.8467 C   0  0  0  0  0  0
  -21.4325  -29.3045   22.3542 N   0  0  0  0  0  0
  -26.4282  -37.3711   23.9406 N   0  0  0  0  0  0
  -24.7451  -30.9972   22.0873 N   0  0  0  0  0  0
  -23.4220  -28.8019   23.3005 O   0  0  0  0  0  0
  -28.1957  -25.8512   20.3169 O   0  0  0  0  0  0
  -26.5702  -34.8887   22.4612 O   0  0  0  0  0  0
  -23.5672  -32.1233   23.6863 O   0  0  0  0  0  0
  -28.0936  -24.2518   19.8568 C   0  0  0  0  0  0
  -28.7756  -22.8441   20.5996 C   0  0  0  0  0  0
  -29.0485  -21.1957   19.9565 C   0  0  0  0  0  0
  -29.1846  -19.5617   20.6716 C   0  0  0  0  0  0
  -29.8816  -18.0345   20.0663 C   0  0  0  0  0  0
  -29.6978  -16.4460   20.5011 N   0  0  0  0  0  0
  -27.4189  -23.9777   18.8631 O   0  0  0  0  0  0
  -31.4652  -12.9357   19.2120 H   0  0  0  0  0  0
  -30.4792  -11.8340   20.1214 H   0  0  0  0  0  0
  -29.9011  -11.7482   17.6697 H   0  0  0  0  0  0
  -29.5827  -13.4659   17.6695 H   0  0  0  0  0  0
  -28.0191  -11.2781   19.0635 H   0  0  0  0  0  0
  -27.4135  -12.3745   17.8478 H   0  0  0  0  0  0
  -27.5459  -14.2482   19.3520 H   0  0  0  0  0  0
  -28.7960  -12.4669   21.4979 H   0  0  0  0  0  0
  -28.3041  -14.1313   21.7134 H   0  0  0  0  0  0
  -25.2778   -9.5684   22.4764 H   0  0  0  0  0  0
  -24.0011   -7.4638   22.7476 H   0  0  0  0  0  0
  -21.0859   -8.8782   19.8951 H   0  0  0  0  0  0
  -22.3721  -10.9676   19.6166 H   0  0  0  0  0  0
  -21.2011   -7.6151   23.9716 H   0  0  0  0  0  0
  -21.1482   -6.0524   25.9076 H   0  0  0  0  0  0
  -22.0597   -2.7612   23.2842 H   0  0  0  0  0  0
  -22.4062  -11.9845   22.4841 H   0  0  0  0  0  0
  -21.1038  -13.1179   22.2654 H   0  0  0  0  0  0
  -24.6323  -15.8467   20.5287 H   0  0  0  0  0  0
  -26.2433  -15.6400   20.0654 H   0  0  0  0  0  0
  -26.7362  -32.5154   23.0912 H   0  0  0  0  0  0
  -25.0075  -33.9509   25.0216 H   0  0  0  0  0  0
  -22.7836  -31.2734   21.3577 H   0  0  0  0  0  0
  -23.3765  -35.9536   23.3282 H   0  0  0  0  0  0
  -24.3571  -36.8885   22.2065 H   0  0  0  0  0  0
  -23.7241  -37.6393   23.6716 H   0  0  0  0  0  0
  -26.2204  -31.3896   20.6276 H   0  0  0  0  0  0
  -26.9011  -30.6963   22.0585 H   0  0  0  0  0  0
  -28.1305  -28.6094   21.3047 H   0  0  0  0  0  0
  -25.8574  -25.7807   18.9729 H   0  0  0  0  0  0
  -24.0024  -27.2955   18.9334 H   0  0  0  0  0  0
  -23.8601  -30.5380   19.3907 H   0  0  0  0  0  0
  -22.8209  -29.2178   19.8287 H   0  0  0  0  0  0
  -25.1330  -36.1781   25.0793 H   0  0  0  0  0  0
  -21.0036  -28.3355   24.1315 H   0  0  0  0  0  0
  -20.5683  -26.2368   23.3639 H   0  0  0  0  0  0
  -21.6662  -26.7415   22.1205 H   0  0  0  0  0  0
  -19.6930  -25.6277   21.1273 H   0  0  0  0  0  0
  -19.6709  -27.3164   20.6724 H   0  0  0  0  0  0
  -17.4222  -26.6685   21.4028 H   0  0  0  0  0  0
  -18.0351  -26.0095   22.9031 H   0  0  0  0  0  0
  -19.7968  -30.7320   24.2201 H   0  0  0  0  0  0
  -17.5037  -31.6273   24.5167 H   0  0  0  0  0  0
  -15.5375  -30.2972   23.7693 H   0  0  0  0  0  0
  -15.8705  -28.0809   22.7102 H   0  0  0  0  0  0
  -24.5887  -30.7115   25.7683 H   0  0  0  0  0  0
  -24.8859  -32.2983   26.4677 H   0  0  0  0  0  0
  -25.7926  -30.9032   27.0228 H   0  0  0  0  0  0
  -26.3117  -29.6588   24.1416 H   0  0  0  0  0  0
  -27.3963  -29.7271   25.5084 H   0  0  0  0  0  0
  -27.9066  -30.4094   23.9858 H   0  0  0  0  0  0
  -27.2619  -33.3690   26.1971 H   0  0  0  0  0  0
  -28.3923  -32.6844   25.0385 H   0  0  0  0  0  0
  -28.0651  -31.8555   26.5527 H   0  0  0  0  0  0
  -28.2573  -38.0076   24.7512 H   0  0  0  0  0  0
  -28.1082  -36.2603   24.6299 H   0  0  0  0  0  0
  -27.2286  -37.1414   25.8868 H   0  0  0  0  0  0
  -20.9570  -29.8742   21.6683 H   0  0  0  0  0  0
  -26.0132  -38.2770   24.1412 H   0  0  0  0  0  0
  -28.1346  -22.7034   21.4696 H   0  0  0  0  0  0
  -29.7227  -23.1771   21.0238 H   0  0  0  0  0  0
  -29.9727  -21.3043   19.3886 H   0  0  0  0  0  0
  -28.2938  -21.0841   19.1774 H   0  0  0  0  0  0
  -28.1631  -19.3081   20.9563 H   0  0  0  0  0  0
  -29.6821  -19.7208   21.6287 H   0  0  0  0  0  0
  -30.9612  -18.1894   20.0535 H   0  0  0  0  0  0
  -29.6144  -18.0189   19.0092 H   0  0  0  0  0  0
  -28.7487  -16.2452   20.7827 H   0  0  0  0  0  0
  1 25  1  0  0  0
  1 30  2  0  0  0
  1 76  1  0  0  0
  2  3  1  0  0  0
  2 25  1  0  0  0
  2 78  1  0  0  0
  2 79  1  0  0  0
  3  4  1  0  0  0
  3 80  1  0  0  0
  3 81  1  0  0  0
  4  5  1  0  0  0
  4 82  1  0  0  0
  4 83  1  0  0  0
  5  6  1  0  0  0
  5 26  1  0  0  0
  5 84  1  0  0  0
  6 25  1  0  0  0
  6 85  1  0  0  0
  6 86  1  0  0  0
  7  8  2  0  0  0
  7 26  1  0  0  0
  7 29  1  0  0  0
  8  9  1  0  0  0
  8 22  1  0  0  0
  9 10  1  0  0  0
  9 27  2  0  0  0
 10 11  2  0  0  0
 10 15  1  0  0  0
 11 12  1  0  0  0
 11 87  1  0  0  0
 12 13  2  0  0  0
 12 88  1  0  0  0
 13 14  1  0  0  0
 13 31  1  0  0  0
 14 15  2  0  0  0
 14 89  1  0  0  0
 15 90  1  0  0  0
 16 17  2  0  0  0
 16 21  1  0  0  0
 16 31  1  0  0  0
 17 18  1  0  0  0
 17 91  1  0  0  0
 18 19  2  0  0  0
 18 92  1  0  0  0
 19 20  1  0  0  0
 19 24  1  0  0  0
 20 21  2  0  0  0
 20 93  1  0  0  0
 21 23  1  0  0  0
 22 28  1  0  0  0
 22 32  2  0  0  0
 26 27  1  0  0  0
 28 94  1  0  0  0
 28 95  1  0  0  0
 29 96  1  0  0  0
 29 97  1  0  0  0
 33 34  1  0  0  0
 33 66  1  0  0  0
 33 70  2  0  0  0
 34 36  1  0  0  0
 34 59  1  0  0  0
 34 98  1  0  0  0
 35 44  2  0  0  0
 35 45  1  0  0  0
 35 68  1  0  0  0
 36 56  1  0  0  0
 36 99  1  0  0  0
 37 39  1  0  0  0
 37 47  1  0  0  0
 37 66  1  0  0  0
 37100  1  0  0  0
 38 43  2  0  0  0
 38 46  1  0  0  0
 38 47  1  0  0  0
 39 64  1  0  0  0
 39 67  2  0  0  0
 40 52  1  0  0  0
 40 53  2  0  0  0
 40 58  1  0  0  0
 41101  1  0  0  0
 41102  1  0  0  0
 41103  1  0  0  0
 41 48  1  0  0  0
 42 43  1  0  0  0
 42 66  1  0  0  0
 42104  1  0  0  0
 42105  1  0  0  0
 43 44  1  0  0  0
 44106  1  0  0  0
 45 46  2  0  0  0
 45107  1  0  0  0
 46108  1  0  0  0
 47109  1  0  0  0
 47110  1  0  0  0
 48 56  1  0  0  0
 48 65  1  0  0  0
 48111  1  0  0  0
 49 50  1  0  0  0
 49 53  1  0  0  0
 49 64  1  0  0  0
 49112  1  0  0  0
 50 51  1  0  0  0
 50113  1  0  0  0
 50114  1  0  0  0
 51 52  1  0  0  0
 51115  1  0  0  0
 51116  1  0  0  0
 52117  1  0  0  0
 52118  1  0  0  0
 53 54  1  0  0  0
 54 55  2  0  0  0
 54119  1  0  0  0
 55 57  1  0  0  0
 55120  1  0  0  0
 56 69  2  0  0  0
 57 58  2  0  0  0
 57121  1  0  0  0
 58122  1  0  0  0
 59 60  1  0  0  0
 59 61  1  0  0  0
 59 62  1  0  0  0
 60123  1  0  0  0
 60124  1  0  0  0
 60125  1  0  0  0
 61126  1  0  0  0
 61127  1  0  0  0
 61128  1  0  0  0
 62129  1  0  0  0
 62130  1  0  0  0
 62131  1  0  0  0
 63 65  1  0  0  0
 63132  1  0  0  0
 63133  1  0  0  0
 63134  1  0  0  0
 64135  1  0  0  0
 65136  1  0  0  0
 68 71  1  0  0  0
 71 72  1  0  0  0
 71 77  2  0  0  0
 72 73  1  0  0  0
 72137  1  0  0  0
 72138  1  0  0  0
 73 74  1  0  0  0
 73139  1  0  0  0
 73140  1  0  0  0
 74 75  1  0  0  0
 74141  1  0  0  0
 74142  1  0  0  0
 75 76  1  0  0  0
 75143  1  0  0  0
 75144  1  0  0  0
 76145  1  0  0  0
M  ISO  4   1 100  68 101  71 101  76 100
M  END
> <chiral flag>
0

> <version>
0

> <s_m_source_file>
/data/baiqing/PycharmProjects/Reinvent-master-3.2/result/LINK_invent/BTK/process_docking_weight1_custom_sum_contain_oxygen_bond_distance_aromatic_linkinvent_7_9_3/rearranged_h_0001.sdf

> <i_m_source_file_index>
39

> <r_mmod_Potential_Energy-OPLS-2005>
1161.08569335938

> <r_mmod_Stretch_Energy-OPLS-2005>
591.321594238281

> <r_mmod_Bend_Energy-OPLS-2005>
400.882934570312

> <r_mmod_Torsional_Energy-OPLS-2005>
215.743499755859

> <r_mmod_Improper_Torsional_Energy-OPLS-2005>
5.11030149459839

> <r_mmod_Van_der_Waal_Energy-OPLS-2005>
113.03840637207

> <r_mmod_Electrostatic_Energy-OPLS-2005>
-350.012939453125

> <r_mmod_Solvation_Energy-OPLS-2005>
-216.803207397461

> <b_mmod_Minimization_Converged-OPLS-2005>
0

> <r_mmod_RMS_Derivative-OPLS-2005>
0.119580380618572

$$$$
39
                    3D
 Structure written by MMmdl.
143150  0  0  1  0            999 V2000
  -30.3355  -15.5533   20.3377 C   0  0  0  0  0  0
  -30.4278  -13.0206   19.5356 C   0  0  0  0  0  0
  -29.5464  -12.6353   18.3151 C   0  0  0  0  0  0
  -28.1142  -12.2965   18.7563 C   0  0  0  0  0  0
  -27.5983  -13.2998   19.8136 C   0  0  2  0  0  0
  -28.6188  -13.6020   20.9348 C   0  0  0  0  0  0
  -25.2335  -13.8272   20.5783 C   0  0  0  0  0  0
  -24.1716  -13.0431   20.9280 C   0  0  0  0  0  0
  -24.6407  -11.6939   20.8763 C   0  0  0  0  0  0
  -23.9108  -10.4290   21.0398 C   0  0  0  0  0  0
  -24.3646   -9.4204   21.9179 C   0  0  0  0  0  0
  -23.6308   -8.2245   22.0753 C   0  0  0  0  0  0
  -22.4289   -8.0285   21.3544 C   0  0  0  0  0  0
  -21.9934   -9.0259   20.4644 C   0  0  0  0  0  0
  -22.7275  -10.2132   20.3050 C   0  0  0  0  0  0
  -21.6858   -6.0738   22.5278 C   0  0  0  0  0  0
  -21.4019   -6.5642   23.8212 C   0  0  0  0  0  0
  -21.3660   -5.6794   24.9173 C   0  0  0  0  0  0
  -21.6043   -4.3057   24.7224 C   0  0  0  0  0  0
  -21.8819   -3.8148   23.4345 C   0  0  0  0  0  0
  -21.9194   -4.6965   22.3402 C   0  0  0  0  0  0
  -22.7731  -13.5167   21.1917 C   0  0  0  0  0  0
  -22.1662   -4.2150   21.0979 F   0  0  0  0  0  0
  -21.5626   -3.4540   25.7737 F   0  0  0  0  0  0
  -29.8047  -14.1993   20.2827 N   0  0  0  0  0  0
  -26.2777  -12.9589   20.3227 N   0  0  0  0  0  0
  -25.9352  -11.6669   20.5705 N   0  0  0  0  0  0
  -22.0396  -12.8145   22.0471 N   0  0  0  0  0  0
  -25.3934  -15.2012   20.4226 N   0  0  0  0  0  0
  -31.5687  -15.5024   20.1771 O   0  0  0  0  0  0
  -21.6647   -6.8885   21.4242 O   0  0  0  0  0  0
  -22.3406  -14.5465   20.6752 O   0  0  0  0  0  0
  -24.6800  -31.8038   23.1543 C   0  0  0  0  0  0
  -25.9399  -32.4487   23.8074 C   0  0  1  0  0  0
  -27.2247  -26.7418   20.2123 C   0  0  0  0  0  0
  -25.5993  -33.8310   24.1966 N   0  0  0  0  0  0
  -23.5038  -30.4073   21.5074 C   0  0  2  0  0  0
  -24.9602  -28.7545   20.1181 C   0  0  0  0  0  0
  -22.7746  -29.4338   22.4723 C   0  0  0  0  0  0
  -18.0336  -28.1422   22.8456 C   0  0  0  0  0  0
  -24.1495  -36.7162   23.2653 C   0  0  0  0  0  0
  -26.0826  -30.5501   21.4119 C   0  0  0  0  0  0
  -26.1487  -29.1190   20.7619 C   0  0  0  0  0  0
  -27.2682  -28.1399   20.7756 C   0  0  0  0  0  0
  -26.0029  -26.5744   19.5148 C   0  0  0  0  0  0
  -24.9238  -27.5069   19.4714 C   0  0  0  0  0  0
  -23.7552  -29.7060   20.1417 C   0  0  0  0  0  0
  -25.4144  -36.2907   24.0285 C   0  0  1  0  0  0
  -20.5969  -28.3778   23.1151 C   0  0  2  0  0  0
  -20.6806  -26.9441   22.5404 C   0  0  0  0  0  0
  -19.5783  -26.6372   21.5218 C   0  0  0  0  0  0
  -18.1963  -26.7949   22.1618 C   0  0  0  0  0  0
  -19.1601  -28.8923   23.2785 C   0  0  0  0  0  0
  -18.9509  -30.1507   23.8830 C   0  0  0  0  0  0
  -17.6500  -30.6605   24.0552 C   0  0  0  0  0  0
  -25.9122  -34.9297   23.4960 C   0  0  0  0  0  0
  -16.5389  -29.9089   23.6351 C   0  0  0  0  0  0
  -16.7316  -28.6511   23.0366 C   0  0  0  0  0  0
  -26.4590  -31.6507   25.0681 C   0  0  0  0  0  0
  -25.3664  -31.3815   26.1302 C   0  0  0  0  0  0
  -27.0517  -30.2851   24.6551 C   0  0  0  0  0  0
  -27.6045  -32.4359   25.7497 C   0  0  0  0  0  0
  -27.5563  -37.1737   24.8467 C   0  0  0  0  0  0
  -21.4398  -29.3031   22.3473 N   0  0  0  0  0  0
  -26.4272  -37.3665   23.9408 N   0  0  0  0  0  0
  -24.7786  -30.9523   22.0774 N   0  0  0  0  0  0
  -23.4209  -28.7935   23.3052 O   0  0  0  0  0  0
  -28.2041  -25.5512   20.2801 O   0  0  0  0  0  0
  -26.5758  -34.8869   22.4574 O   0  0  0  0  0  0
  -23.5828  -32.1094   23.6523 O   0  0  0  0  0  0
  -28.7651  -20.2674   20.2904 C   0  0  0  0  0  0
  -29.0007  -22.1779   20.3080 C   0  0  0  0  0  0
  -29.8051  -18.6520   20.3467 C   0  0  0  0  0  0
  -28.0034  -23.8204   20.2032 C   0  0  0  0  0  0
  -29.5782  -16.9027   20.3825 N   0  0  0  0  0  0
  -31.4268  -13.2705   19.1767 H   0  0  0  0  0  0
  -30.5690  -12.1647   20.1980 H   0  0  0  0  0  0
  -29.9845  -11.7945   17.7757 H   0  0  0  0  0  0
  -29.5210  -13.4708   17.6137 H   0  0  0  0  0  0
  -28.1271  -11.2932   19.1840 H   0  0  0  0  0  0
  -27.4439  -12.2569   17.8969 H   0  0  0  0  0  0
  -27.4709  -14.2301   19.2582 H   0  0  0  0  0  0
  -28.8604  -12.7103   21.5153 H   0  0  0  0  0  0
  -28.2012  -14.3242   21.6380 H   0  0  0  0  0  0
  -25.2785   -9.5679   22.4764 H   0  0  0  0  0  0
  -24.0009   -7.4638   22.7481 H   0  0  0  0  0  0
  -21.0862   -8.8785   19.8952 H   0  0  0  0  0  0
  -22.3730  -10.9673   19.6163 H   0  0  0  0  0  0
  -21.2015   -7.6151   23.9715 H   0  0  0  0  0  0
  -21.1481   -6.0525   25.9076 H   0  0  0  0  0  0
  -22.0596   -2.7611   23.2846 H   0  0  0  0  0  0
  -22.4039  -11.9821   22.4865 H   0  0  0  0  0  0
  -21.1004  -13.1141   22.2671 H   0  0  0  0  0  0
  -24.6207  -15.8487   20.5359 H   0  0  0  0  0  0
  -26.2324  -15.6443   20.0726 H   0  0  0  0  0  0
  -26.7477  -32.4971   23.0784 H   0  0  0  0  0  0
  -25.0059  -33.9354   25.0062 H   0  0  0  0  0  0
  -22.8274  -31.2439   21.3201 H   0  0  0  0  0  0
  -23.3774  -35.9475   23.3272 H   0  0  0  0  0  0
  -24.3562  -36.8864   22.2076 H   0  0  0  0  0  0
  -23.7238  -37.6325   23.6753 H   0  0  0  0  0  0
  -26.2810  -31.2776   20.6238 H   0  0  0  0  0  0
  -26.9354  -30.6164   22.0750 H   0  0  0  0  0  0
  -28.1647  -28.4248   21.3080 H   0  0  0  0  0  0
  -25.8443  -25.6278   19.0182 H   0  0  0  0  0  0
  -24.0252  -27.2191   18.9430 H   0  0  0  0  0  0
  -23.9278  -30.4668   19.3796 H   0  0  0  0  0  0
  -22.8607  -29.1707   19.8189 H   0  0  0  0  0  0
  -25.1351  -36.1675   25.0775 H   0  0  0  0  0  0
  -21.0052  -28.3402   24.1277 H   0  0  0  0  0  0
  -20.5676  -26.2401   23.3662 H   0  0  0  0  0  0
  -21.6667  -26.7393   22.1218 H   0  0  0  0  0  0
  -19.6942  -25.6265   21.1292 H   0  0  0  0  0  0
  -19.6728  -27.3145   20.6718 H   0  0  0  0  0  0
  -17.4233  -26.6692   21.4021 H   0  0  0  0  0  0
  -18.0352  -26.0108   22.9031 H   0  0  0  0  0  0
  -19.7986  -30.7339   24.2170 H   0  0  0  0  0  0
  -17.5053  -31.6279   24.5166 H   0  0  0  0  0  0
  -15.5388  -30.2971   23.7716 H   0  0  0  0  0  0
  -15.8715  -28.0809   22.7122 H   0  0  0  0  0  0
  -24.5873  -30.7140   25.7600 H   0  0  0  0  0  0
  -24.8826  -32.3036   26.4537 H   0  0  0  0  0  0
  -25.7846  -30.9101   27.0204 H   0  0  0  0  0  0
  -26.3228  -29.6473   24.1543 H   0  0  0  0  0  0
  -27.3966  -29.7288   25.5278 H   0  0  0  0  0  0
  -27.9198  -30.3989   24.0055 H   0  0  0  0  0  0
  -27.2593  -33.3729   26.1879 H   0  0  0  0  0  0
  -28.3955  -32.6809   25.0396 H   0  0  0  0  0  0
  -28.0603  -31.8616   26.5574 H   0  0  0  0  0  0
  -28.2553  -38.0057   24.7511 H   0  0  0  0  0  0
  -28.1085  -36.2580   24.6299 H   0  0  0  0  0  0
  -27.2276  -37.1380   25.8868 H   0  0  0  0  0  0
  -20.9695  -29.8687   21.6544 H   0  0  0  0  0  0
  -26.0103  -38.2714   24.1421 H   0  0  0  0  0  0
  -28.1541  -20.1192   19.3998 H   0  0  0  0  0  0
  -28.0571  -20.1169   21.1057 H   0  0  0  0  0  0
  -29.7448  -22.3205   19.5244 H   0  0  0  0  0  0
  -29.5730  -22.3235   21.2244 H   0  0  0  0  0  0
  -30.4440  -18.8018   21.2176 H   0  0  0  0  0  0
  -30.4945  -18.7676   19.5099 H   0  0  0  0  0  0
  -27.2299  -23.6732   20.9571 H   0  0  0  0  0  0
  -27.4624  -23.7113   19.2633 H   0  0  0  0  0  0
  -28.5926  -16.6942   20.4591 H   0  0  0  0  0  0
  1 25  1  0  0  0
  1 30  2  0  0  0
  1 75  1  0  0  0
  2  3  1  0  0  0
  2 25  1  0  0  0
  2 76  1  0  0  0
  2 77  1  0  0  0
  3  4  1  0  0  0
  3 78  1  0  0  0
  3 79  1  0  0  0
  4  5  1  0  0  0
  4 80  1  0  0  0
  4 81  1  0  0  0
  5  6  1  0  0  0
  5 26  1  0  0  0
  5 82  1  0  0  0
  6 25  1  0  0  0
  6 83  1  0  0  0
  6 84  1  0  0  0
  7  8  2  0  0  0
  7 26  1  0  0  0
  7 29  1  0  0  0
  8  9  1  0  0  0
  8 22  1  0  0  0
  9 10  1  0  0  0
  9 27  2  0  0  0
 10 11  2  0  0  0
 10 15  1  0  0  0
 11 12  1  0  0  0
 11 85  1  0  0  0
 12 13  2  0  0  0
 12 86  1  0  0  0
 13 14  1  0  0  0
 13 31  1  0  0  0
 14 15  2  0  0  0
 14 87  1  0  0  0
 15 88  1  0  0  0
 16 17  2  0  0  0
 16 21  1  0  0  0
 16 31  1  0  0  0
 17 18  1  0  0  0
 17 89  1  0  0  0
 18 19  2  0  0  0
 18 90  1  0  0  0
 19 20  1  0  0  0
 19 24  1  0  0  0
 20 21  2  0  0  0
 20 91  1  0  0  0
 21 23  1  0  0  0
 22 28  1  0  0  0
 22 32  2  0  0  0
 26 27  1  0  0  0
 28 92  1  0  0  0
 28 93  1  0  0  0
 29 94  1  0  0  0
 29 95  1  0  0  0
 33 34  1  0  0  0
 33 66  1  0  0  0
 33 70  2  0  0  0
 34 36  1  0  0  0
 34 59  1  0  0  0
 34 96  1  0  0  0
 35 44  2  0  0  0
 35 45  1  0  0  0
 35 68  1  0  0  0
 36 56  1  0  0  0
 36 97  1  0  0  0
 37 39  1  0  0  0
 37 47  1  0  0  0
 37 66  1  0  0  0
 37 98  1  0  0  0
 38 43  2  0  0  0
 38 46  1  0  0  0
 38 47  1  0  0  0
 39 64  1  0  0  0
 39 67  2  0  0  0
 40 52  1  0  0  0
 40 53  2  0  0  0
 40 58  1  0  0  0
 41 99  1  0  0  0
 41100  1  0  0  0
 41101  1  0  0  0
 41 48  1  0  0  0
 42 43  1  0  0  0
 42 66  1  0  0  0
 42102  1  0  0  0
 42103  1  0  0  0
 43 44  1  0  0  0
 44104  1  0  0  0
 45 46  2  0  0  0
 45105  1  0  0  0
 46106  1  0  0  0
 47107  1  0  0  0
 47108  1  0  0  0
 48 56  1  0  0  0
 48 65  1  0  0  0
 48109  1  0  0  0
 49 50  1  0  0  0
 49 53  1  0  0  0
 49 64  1  0  0  0
 49110  1  0  0  0
 50 51  1  0  0  0
 50111  1  0  0  0
 50112  1  0  0  0
 51 52  1  0  0  0
 51113  1  0  0  0
 51114  1  0  0  0
 52115  1  0  0  0
 52116  1  0  0  0
 53 54  1  0  0  0
 54 55  2  0  0  0
 54117  1  0  0  0
 55 57  1  0  0  0
 55118  1  0  0  0
 56 69  2  0  0  0
 57 58  2  0  0  0
 57119  1  0  0  0
 58120  1  0  0  0
 59 60  1  0  0  0
 59 61  1  0  0  0
 59 62  1  0  0  0
 60121  1  0  0  0
 60122  1  0  0  0
 60123  1  0  0  0
 61124  1  0  0  0
 61125  1  0  0  0
 61126  1  0  0  0
 62127  1  0  0  0
 62128  1  0  0  0
 62129  1  0  0  0
 63 65  1  0  0  0
 63130  1  0  0  0
 63131  1  0  0  0
 63132  1  0  0  0
 64133  1  0  0  0
 65134  1  0  0  0
 68 74  1  0  0  0
 71 72  1  0  0  0
 71 73  1  0  0  0
 71135  1  0  0  0
 71136  1  0  0  0
 72 74  1  0  0  0
 72137  1  0  0  0
 72138  1  0  0  0
 73 75  1  0  0  0
 73139  1  0  0  0
 73140  1  0  0  0
 74141  1  0  0  0
 74142  1  0  0  0
 75143  1  0  0  0
M  ISO  4   1 100  68 101  74 101  75 100
M  END
> <chiral flag>
0

> <version>
0

> <s_m_source_file>
/data/baiqing/PycharmProjects/Reinvent-master-3.2/result/LINK_invent/BTK/process_docking_weight1_custom_sum_contain_oxygen_bond_distance_aromatic_linkinvent_7_9_3/rearranged_h_0001.sdf

> <i_m_source_file_index>
40

> <r_mmod_Potential_Energy-OPLS-2005>
2236.59155273438

> <r_mmod_Stretch_Energy-OPLS-2005>
1088.18041992188

> <r_mmod_Bend_Energy-OPLS-2005>
600.093139648438

> <r_mmod_Torsional_Energy-OPLS-2005>
206.369812011719

> <r_mmod_Improper_Torsional_Energy-OPLS-2005>
3.66827178001404

> <r_mmod_Van_der_Waal_Energy-OPLS-2005>
110.215888977051

> <r_mmod_Electrostatic_Energy-OPLS-2005>
-352.887237548828

> <r_mmod_Solvation_Energy-OPLS-2005>
-215.827575683594

> <b_mmod_Minimization_Converged-OPLS-2005>
0

> <r_mmod_RMS_Derivative-OPLS-2005>
0.268112510442734

$$$$
40
                    3D
 Structure written by MMmdl.
144151  0  0  1  0            999 V2000
  -30.4332  -15.2746   20.3792 C   0  0  0  0  0  0
  -30.4401  -12.8207   19.5146 C   0  0  0  0  0  0
  -29.5347  -12.5754   18.2815 C   0  0  0  0  0  0
  -28.0835  -12.2982   18.7128 C   0  0  0  0  0  0
  -27.6097  -13.2748   19.8178 C   0  0  2  0  0  0
  -28.6456  -13.4549   20.9467 C   0  0  0  0  0  0
  -25.2383  -13.8243   20.5744 C   0  0  0  0  0  0
  -24.1739  -13.0431   20.9263 C   0  0  0  0  0  0
  -24.6398  -11.6930   20.8766 C   0  0  0  0  0  0
  -23.9095  -10.4289   21.0407 C   0  0  0  0  0  0
  -24.3639   -9.4200   21.9185 C   0  0  0  0  0  0
  -23.6304   -8.2240   22.0754 C   0  0  0  0  0  0
  -22.4285   -8.0283   21.3545 C   0  0  0  0  0  0
  -21.9927   -9.0259   20.4648 C   0  0  0  0  0  0
  -22.7265  -10.2133   20.3056 C   0  0  0  0  0  0
  -21.6855   -6.0739   22.5281 C   0  0  0  0  0  0
  -21.4018   -6.5642   23.8215 C   0  0  0  0  0  0
  -21.3660   -5.6793   24.9176 C   0  0  0  0  0  0
  -21.6044   -4.3056   24.7226 C   0  0  0  0  0  0
  -21.8818   -3.8148   23.4347 C   0  0  0  0  0  0
  -21.9192   -4.6965   22.3403 C   0  0  0  0  0  0
  -22.7755  -13.5182   21.1909 C   0  0  0  0  0  0
  -22.1659   -4.2151   21.0981 F   0  0  0  0  0  0
  -21.5627   -3.4539   25.7738 F   0  0  0  0  0  0
  -29.8703  -13.9681   20.3109 N   0  0  0  0  0  0
  -26.2810  -12.9518   20.3203 N   0  0  0  0  0  0
  -25.9334  -11.6624   20.5716 N   0  0  0  0  0  0
  -22.0413  -12.8166   22.0465 N   0  0  0  0  0  0
  -25.3998  -15.1980   20.4177 N   0  0  0  0  0  0
  -31.6620  -15.2761   20.2221 O   0  0  0  0  0  0
  -21.6643   -6.8884   21.4243 O   0  0  0  0  0  0
  -22.3435  -14.5484   20.6748 O   0  0  0  0  0  0
  -24.6638  -31.8237   23.1719 C   0  0  0  0  0  0
  -25.9318  -32.4589   23.8180 C   0  0  1  0  0  0
  -27.2124  -26.9110   20.1967 C   0  0  0  0  0  0
  -25.5983  -33.8405   24.2080 N   0  0  0  0  0  0
  -23.4789  -30.4364   21.5216 C   0  0  2  0  0  0
  -24.9320  -28.8205   20.1205 C   0  0  0  0  0  0
  -22.7671  -29.4445   22.4786 C   0  0  0  0  0  0
  -18.0323  -28.1410   22.8465 C   0  0  0  0  0  0
  -24.1495  -36.7210   23.2646 C   0  0  0  0  0  0
  -26.0497  -30.6238   21.4078 C   0  0  0  0  0  0
  -26.1162  -29.2096   20.7600 C   0  0  0  0  0  0
  -27.2522  -28.2769   20.7745 C   0  0  0  0  0  0
  -26.0046  -26.6903   19.4954 C   0  0  0  0  0  0
  -24.9015  -27.5796   19.4683 C   0  0  0  0  0  0
  -23.7212  -29.7524   20.1487 C   0  0  0  0  0  0
  -25.4136  -36.2968   24.0298 C   0  0  1  0  0  0
  -20.5949  -28.3759   23.1183 C   0  0  2  0  0  0
  -20.6802  -26.9439   22.5399 C   0  0  0  0  0  0
  -19.5774  -26.6378   21.5213 C   0  0  0  0  0  0
  -18.1957  -26.7942   22.1622 C   0  0  0  0  0  0
  -19.1585  -28.8905   23.2811 C   0  0  0  0  0  0
  -18.9494  -30.1494   23.8847 C   0  0  0  0  0  0
  -17.6487  -30.6599   24.0555 C   0  0  0  0  0  0
  -25.9101  -34.9350   23.5010 C   0  0  0  0  0  0
  -16.5378  -29.9086   23.6342 C   0  0  0  0  0  0
  -16.7305  -28.6507   23.0360 C   0  0  0  0  0  0
  -26.4563  -31.6536   25.0713 C   0  0  0  0  0  0
  -25.3683  -31.3793   26.1364 C   0  0  0  0  0  0
  -27.0463  -30.2897   24.6465 C   0  0  0  0  0  0
  -27.6047  -32.4352   25.7520 C   0  0  0  0  0  0
  -27.5570  -37.1763   24.8465 C   0  0  0  0  0  0
  -21.4341  -29.3049   22.3533 N   0  0  0  0  0  0
  -26.4279  -37.3705   23.9407 N   0  0  0  0  0  0
  -24.7522  -30.9888   22.0869 N   0  0  0  0  0  0
  -23.4213  -28.8010   23.3029 O   0  0  0  0  0  0
  -28.2187  -25.8013   20.1699 O   0  0  0  0  0  0
  -26.5711  -34.8884   22.4606 O   0  0  0  0  0  0
  -23.5706  -32.1218   23.6800 O   0  0  0  0  0  0
  -29.9058  -18.1894   20.6608 C   0  0  0  0  0  0
  -29.0994  -19.7102   20.0892 C   0  0  0  0  0  0
  -28.7278  -22.7476   19.9896 C   0  0  0  0  0  0
  -28.0398  -24.3375   20.5500 C   0  0  2  0  0  0
  -29.6611  -16.5448   20.4245 N   0  0  0  0  0  0
  -29.0024  -21.2583   20.6589 O   0  0  0  0  0  0
  -26.7159  -24.0538   20.4718 F   0  0  0  0  0  0
  -31.4553  -13.0363   19.1786 H   0  0  0  0  0  0
  -30.5185  -11.9208   20.1268 H   0  0  0  0  0  0
  -29.9163  -11.7445   17.6869 H   0  0  0  0  0  0
  -29.5603  -13.4538   17.6346 H   0  0  0  0  0  0
  -28.0411  -11.2751   19.0878 H   0  0  0  0  0  0
  -27.4142  -12.3369   17.8523 H   0  0  0  0  0  0
  -27.5214  -14.2397   19.3168 H   0  0  0  0  0  0
  -28.8204  -12.5224   21.4851 H   0  0  0  0  0  0
  -28.2847  -14.1765   21.6814 H   0  0  0  0  0  0
  -25.2782   -9.5674   22.4765 H   0  0  0  0  0  0
  -24.0009   -7.4630   22.7475 H   0  0  0  0  0  0
  -21.0855   -8.8788   19.8956 H   0  0  0  0  0  0
  -22.3725  -10.9676   19.6170 H   0  0  0  0  0  0
  -21.2014   -7.6150   23.9721 H   0  0  0  0  0  0
  -21.1482   -6.0522   25.9080 H   0  0  0  0  0  0
  -22.0595   -2.7611   23.2847 H   0  0  0  0  0  0
  -22.4045  -11.9839   22.4861 H   0  0  0  0  0  0
  -21.1026  -13.1176   22.2670 H   0  0  0  0  0  0
  -24.6271  -15.8449   20.5335 H   0  0  0  0  0  0
  -26.2367  -15.6426   20.0652 H   0  0  0  0  0  0
  -26.7389  -32.5128   23.0896 H   0  0  0  0  0  0
  -25.0078  -33.9483   25.0195 H   0  0  0  0  0  0
  -22.7929  -31.2685   21.3502 H   0  0  0  0  0  0
  -23.3765  -35.9531   23.3277 H   0  0  0  0  0  0
  -24.3570  -36.8889   22.2066 H   0  0  0  0  0  0
  -23.7243  -37.6386   23.6724 H   0  0  0  0  0  0
  -26.2313  -31.3603   20.6240 H   0  0  0  0  0  0
  -26.9096  -30.6845   22.0626 H   0  0  0  0  0  0
  -28.1530  -28.5795   21.2890 H   0  0  0  0  0  0
  -25.8850  -25.7541   18.9700 H   0  0  0  0  0  0
  -24.0077  -27.2787   18.9392 H   0  0  0  0  0  0
  -23.8830  -30.5207   19.3920 H   0  0  0  0  0  0
  -22.8303  -29.2103   19.8268 H   0  0  0  0  0  0
  -25.1333  -36.1764   25.0788 H   0  0  0  0  0  0
  -21.0034  -28.3366   24.1308 H   0  0  0  0  0  0
  -20.5685  -26.2378   23.3641 H   0  0  0  0  0  0
  -21.6666  -26.7417   22.1204 H   0  0  0  0  0  0
  -19.6934  -25.6274   21.1278 H   0  0  0  0  0  0
  -19.6709  -27.3158   20.6718 H   0  0  0  0  0  0
  -17.4225  -26.6679   21.4028 H   0  0  0  0  0  0
  -18.0356  -26.0097   22.9032 H   0  0  0  0  0  0
  -19.7971  -30.7326   24.2190 H   0  0  0  0  0  0
  -17.5039  -31.6271   24.5172 H   0  0  0  0  0  0
  -15.5377  -30.2972   23.7695 H   0  0  0  0  0  0
  -15.8706  -28.0810   22.7100 H   0  0  0  0  0  0
  -24.5878  -30.7130   25.7673 H   0  0  0  0  0  0
  -24.8859  -32.2998   26.4662 H   0  0  0  0  0  0
  -25.7907  -30.9042   27.0227 H   0  0  0  0  0  0
  -26.3135  -29.6565   24.1451 H   0  0  0  0  0  0
  -27.3957  -29.7273   25.5134 H   0  0  0  0  0  0
  -27.9094  -30.4066   23.9910 H   0  0  0  0  0  0
  -27.2603  -33.3694   26.1969 H   0  0  0  0  0  0
  -28.3926  -32.6848   25.0401 H   0  0  0  0  0  0
  -28.0641  -31.8568   26.5546 H   0  0  0  0  0  0
  -28.2567  -38.0078   24.7511 H   0  0  0  0  0  0
  -28.1086  -36.2603   24.6293 H   0  0  0  0  0  0
  -27.2285  -37.1407   25.8867 H   0  0  0  0  0  0
  -20.9599  -29.8739   21.6659 H   0  0  0  0  0  0
  -26.0126  -38.2762   24.1413 H   0  0  0  0  0  0
  -29.8405  -18.2645   21.7464 H   0  0  0  0  0  0
  -30.9681  -18.3352   20.4623 H   0  0  0  0  0  0
  -28.0521  -19.4365   19.9595 H   0  0  0  0  0  0
  -29.4590  -19.8382   19.0679 H   0  0  0  0  0  0
  -29.7214  -23.0115   19.6278 H   0  0  0  0  0  0
  -28.1796  -22.5217   19.0749 H   0  0  0  0  0  0
  -28.2891  -24.3101   21.6097 H   0  0  0  0  0  0
  -28.6735  -16.3336   20.4106 H   0  0  0  0  0  0
  1 25  1  0  0  0
  1 30  2  0  0  0
  1 75  1  0  0  0
  2  3  1  0  0  0
  2 25  1  0  0  0
  2 78  1  0  0  0
  2 79  1  0  0  0
  3  4  1  0  0  0
  3 80  1  0  0  0
  3 81  1  0  0  0
  4  5  1  0  0  0
  4 82  1  0  0  0
  4 83  1  0  0  0
  5  6  1  0  0  0
  5 26  1  0  0  0
  5 84  1  0  0  0
  6 25  1  0  0  0
  6 85  1  0  0  0
  6 86  1  0  0  0
  7  8  2  0  0  0
  7 26  1  0  0  0
  7 29  1  0  0  0
  8  9  1  0  0  0
  8 22  1  0  0  0
  9 10  1  0  0  0
  9 27  2  0  0  0
 10 11  2  0  0  0
 10 15  1  0  0  0
 11 12  1  0  0  0
 11 87  1  0  0  0
 12 13  2  0  0  0
 12 88  1  0  0  0
 13 14  1  0  0  0
 13 31  1  0  0  0
 14 15  2  0  0  0
 14 89  1  0  0  0
 15 90  1  0  0  0
 16 17  2  0  0  0
 16 21  1  0  0  0
 16 31  1  0  0  0
 17 18  1  0  0  0
 17 91  1  0  0  0
 18 19  2  0  0  0
 18 92  1  0  0  0
 19 20  1  0  0  0
 19 24  1  0  0  0
 20 21  2  0  0  0
 20 93  1  0  0  0
 21 23  1  0  0  0
 22 28  1  0  0  0
 22 32  2  0  0  0
 26 27  1  0  0  0
 28 94  1  0  0  0
 28 95  1  0  0  0
 29 96  1  0  0  0
 29 97  1  0  0  0
 33 34  1  0  0  0
 33 66  1  0  0  0
 33 70  2  0  0  0
 34 36  1  0  0  0
 34 59  1  0  0  0
 34 98  1  0  0  0
 35 44  2  0  0  0
 35 45  1  0  0  0
 35 68  1  0  0  0
 36 56  1  0  0  0
 36 99  1  0  0  0
 37 39  1  0  0  0
 37 47  1  0  0  0
 37 66  1  0  0  0
 37100  1  0  0  0
 38 43  2  0  0  0
 38 46  1  0  0  0
 38 47  1  0  0  0
 39 64  1  0  0  0
 39 67  2  0  0  0
 40 52  1  0  0  0
 40 53  2  0  0  0
 40 58  1  0  0  0
 41101  1  0  0  0
 41102  1  0  0  0
 41103  1  0  0  0
 41 48  1  0  0  0
 42 43  1  0  0  0
 42 66  1  0  0  0
 42104  1  0  0  0
 42105  1  0  0  0
 43 44  1  0  0  0
 44106  1  0  0  0
 45 46  2  0  0  0
 45107  1  0  0  0
 46108  1  0  0  0
 47109  1  0  0  0
 47110  1  0  0  0
 48 56  1  0  0  0
 48 65  1  0  0  0
 48111  1  0  0  0
 49 50  1  0  0  0
 49 53  1  0  0  0
 49 64  1  0  0  0
 49112  1  0  0  0
 50 51  1  0  0  0
 50113  1  0  0  0
 50114  1  0  0  0
 51 52  1  0  0  0
 51115  1  0  0  0
 51116  1  0  0  0
 52117  1  0  0  0
 52118  1  0  0  0
 53 54  1  0  0  0
 54 55  2  0  0  0
 54119  1  0  0  0
 55 57  1  0  0  0
 55120  1  0  0  0
 56 69  2  0  0  0
 57 58  2  0  0  0
 57121  1  0  0  0
 58122  1  0  0  0
 59 60  1  0  0  0
 59 61  1  0  0  0
 59 62  1  0  0  0
 60123  1  0  0  0
 60124  1  0  0  0
 60125  1  0  0  0
 61126  1  0  0  0
 61127  1  0  0  0
 61128  1  0  0  0
 62129  1  0  0  0
 62130  1  0  0  0
 62131  1  0  0  0
 63 65  1  0  0  0
 63132  1  0  0  0
 63133  1  0  0  0
 63134  1  0  0  0
 64135  1  0  0  0
 65136  1  0  0  0
 68 74  1  0  0  0
 71 72  1  0  0  0
 71 75  1  0  0  0
 71137  1  0  0  0
 71138  1  0  0  0
 72 76  1  0  0  0
 72139  1  0  0  0
 72140  1  0  0  0
 73 74  1  0  0  0
 73 76  1  0  0  0
 73141  1  0  0  0
 73142  1  0  0  0
 74 77  1  0  0  0
 74143  1  0  0  0
 75144  1  0  0  0
M  ISO  4   1 100  68 101  74 101  75 100
M  END
> <chiral flag>
0

> <version>
0

> <s_m_source_file>
/data/baiqing/PycharmProjects/Reinvent-master-3.2/result/LINK_invent/BTK/process_docking_weight1_custom_sum_contain_oxygen_bond_distance_aromatic_linkinvent_7_9_3/rearranged_h_0001.sdf

> <i_m_source_file_index>
41

> <r_mmod_Potential_Energy-OPLS-2005>
1352.59106445312

> <r_mmod_Stretch_Energy-OPLS-2005>
640.967224121094

> <r_mmod_Bend_Energy-OPLS-2005>
481.915344238281

> <r_mmod_Torsional_Energy-OPLS-2005>
226.294952392578

> <r_mmod_Improper_Torsional_Energy-OPLS-2005>
4.13964509963989

> <r_mmod_Van_der_Waal_Energy-OPLS-2005>
113.29940032959

> <r_mmod_Electrostatic_Energy-OPLS-2005>
-367.078155517578

> <r_mmod_Solvation_Energy-OPLS-2005>
-218.601867675781

> <b_mmod_Minimization_Converged-OPLS-2005>
0

> <r_mmod_RMS_Derivative-OPLS-2005>
0.317015737295151

$$$$
41
                    3D
 Structure written by MMmdl.
149156  0  0  1  0            999 V2000
  -30.5698  -14.8829   20.4234 C   0  0  0  0  0  0
  -30.4369  -12.5430   19.4883 C   0  0  0  0  0  0
  -29.5161  -12.5151   18.2475 C   0  0  0  0  0  0
  -28.0465  -12.3181   18.6651 C   0  0  0  0  0  0
  -27.6328  -13.2433   19.8401 C   0  0  2  0  0  0
  -28.6778  -13.2454   20.9759 C   0  0  0  0  0  0
  -25.2473  -13.8213   20.5711 C   0  0  0  0  0  0
  -24.1786  -13.0443   20.9228 C   0  0  0  0  0  0
  -24.6399  -11.6926   20.8755 C   0  0  0  0  0  0
  -23.9082  -10.4296   21.0411 C   0  0  0  0  0  0
  -24.3631   -9.4209   21.9188 C   0  0  0  0  0  0
  -23.6300   -8.2246   22.0757 C   0  0  0  0  0  0
  -22.4280   -8.0286   21.3547 C   0  0  0  0  0  0
  -21.9923   -9.0263   20.4649 C   0  0  0  0  0  0
  -22.7256  -10.2139   20.3059 C   0  0  0  0  0  0
  -21.6854   -6.0742   22.5284 C   0  0  0  0  0  0
  -21.4013   -6.5646   23.8217 C   0  0  0  0  0  0
  -21.3655   -5.6797   24.9179 C   0  0  0  0  0  0
  -21.6043   -4.3061   24.7229 C   0  0  0  0  0  0
  -21.8817   -3.8153   23.4349 C   0  0  0  0  0  0
  -21.9192   -4.6969   22.3406 C   0  0  0  0  0  0
  -22.7803  -13.5209   21.1883 C   0  0  0  0  0  0
  -22.1660   -4.2156   21.0982 F   0  0  0  0  0  0
  -21.5626   -3.4542   25.7741 F   0  0  0  0  0  0
  -29.9602  -13.6360   20.3784 N   0  0  0  0  0  0
  -26.2900  -12.9443   20.3251 N   0  0  0  0  0  0
  -25.9329  -11.6576   20.5747 N   0  0  0  0  0  0
  -22.0458  -12.8195   22.0440 N   0  0  0  0  0  0
  -25.4135  -15.1943   20.4133 N   0  0  0  0  0  0
  -31.7712  -14.9494   20.1468 O   0  0  0  0  0  0
  -21.6640   -6.8886   21.4246 O   0  0  0  0  0  0
  -22.3485  -14.5517   20.6730 O   0  0  0  0  0  0
  -24.6407  -31.8471   23.1902 C   0  0  0  0  0  0
  -25.9189  -32.4706   23.8288 C   0  0  1  0  0  0
  -27.2171  -27.1660   20.1474 C   0  0  0  0  0  0
  -25.5938  -33.8511   24.2199 N   0  0  0  0  0  0
  -23.4426  -30.4681   21.5358 C   0  0  2  0  0  0
  -24.8910  -28.9003   20.1115 C   0  0  0  0  0  0
  -22.7554  -29.4567   22.4868 C   0  0  0  0  0  0
  -18.0300  -28.1401   22.8478 C   0  0  0  0  0  0
  -24.1486  -36.7265   23.2639 C   0  0  0  0  0  0
  -25.9969  -30.7312   21.3848 C   0  0  0  0  0  0
  -26.0687  -29.3458   20.7253 C   0  0  0  0  0  0
  -27.2340  -28.4952   20.7249 C   0  0  0  0  0  0
  -26.0109  -26.8140   19.5009 C   0  0  0  0  0  0
  -24.8734  -27.6463   19.4851 C   0  0  0  0  0  0
  -23.6667  -29.7986   20.1547 C   0  0  0  0  0  0
  -25.4117  -36.3038   24.0312 C   0  0  1  0  0  0
  -20.5910  -28.3724   23.1238 C   0  0  2  0  0  0
  -20.6785  -26.9429   22.5404 C   0  0  0  0  0  0
  -19.5759  -26.6385   21.5210 C   0  0  0  0  0  0
  -18.1941  -26.7940   22.1623 C   0  0  0  0  0  0
  -19.1557  -28.8879   23.2850 C   0  0  0  0  0  0
  -18.9478  -30.1475   23.8875 C   0  0  0  0  0  0
  -17.6477  -30.6600   24.0557 C   0  0  0  0  0  0
  -25.9068  -34.9412   23.5067 C   0  0  0  0  0  0
  -16.5366  -29.9097   23.6335 C   0  0  0  0  0  0
  -16.7286  -28.6514   23.0358 C   0  0  0  0  0  0
  -26.4512  -31.6572   25.0729 C   0  0  0  0  0  0
  -25.3688  -31.3770   26.1420 C   0  0  0  0  0  0
  -27.0370  -30.2961   24.6316 C   0  0  0  0  0  0
  -27.6049  -32.4339   25.7509 C   0  0  0  0  0  0
  -27.5580  -37.1779   24.8461 C   0  0  0  0  0  0
  -21.4248  -29.3056   22.3613 N   0  0  0  0  0  0
  -26.4284  -37.3750   23.9412 N   0  0  0  0  0  0
  -24.7131  -31.0358   22.0922 N   0  0  0  0  0  0
  -23.4205  -28.8111   23.3010 O   0  0  0  0  0  0
  -28.2783  -26.1988   20.2157 O   0  0  0  0  0  0
  -26.5668  -34.8907   22.4655 O   0  0  0  0  0  0
  -23.5533  -32.1335   23.7139 O   0  0  0  0  0  0
  -29.6143  -20.4751   20.4089 C   0  0  0  0  0  0
  -28.5860  -21.7897   20.2732 C   0  0  0  0  0  0
  -29.1533  -18.8642   20.4292 C   0  0  0  0  0  0
  -29.0270  -23.4051   20.3591 C   0  0  0  0  0  0
  -30.2172  -17.5737   20.4599 C   0  0  0  0  0  0
  -27.9824  -24.6850   20.1043 C   0  0  0  0  0  0
  -29.8049  -16.0634   20.5646 N   0  0  0  0  0  0
  -31.4729  -12.6866   19.1781 H   0  0  0  0  0  0
  -30.4132  -11.5852   20.0107 H   0  0  0  0  0  0
  -29.8211  -11.7191   17.5668 H   0  0  0  0  0  0
  -29.6180  -13.4493   17.6924 H   0  0  0  0  0  0
  -27.9278  -11.2750   18.9598 H   0  0  0  0  0  0
  -27.3847  -12.4689   17.8110 H   0  0  0  0  0  0
  -27.6051  -14.2509   19.4245 H   0  0  0  0  0  0
  -28.7493  -12.2633   21.4459 H   0  0  0  0  0  0
  -28.3921  -13.9450   21.7629 H   0  0  0  0  0  0
  -25.2774   -9.5682   22.4766 H   0  0  0  0  0  0
  -24.0007   -7.4637   22.7476 H   0  0  0  0  0  0
  -21.0852   -8.8787   19.8953 H   0  0  0  0  0  0
  -22.3715  -10.9682   19.6169 H   0  0  0  0  0  0
  -21.2007   -7.6154   23.9724 H   0  0  0  0  0  0
  -21.1474   -6.0527   25.9082 H   0  0  0  0  0  0
  -22.0597   -2.7615   23.2850 H   0  0  0  0  0  0
  -22.4083  -11.9857   22.4824 H   0  0  0  0  0  0
  -21.1074  -13.1211   22.2655 H   0  0  0  0  0  0
  -24.6429  -15.8438   20.5291 H   0  0  0  0  0  0
  -26.2540  -15.6382   20.0675 H   0  0  0  0  0  0
  -26.7263  -32.5320   23.1028 H   0  0  0  0  0  0
  -25.0008  -33.9622   25.0293 H   0  0  0  0  0  0
  -22.7435  -31.2930   21.3835 H   0  0  0  0  0  0
  -23.3751  -35.9592   23.3277 H   0  0  0  0  0  0
  -24.3567  -36.8932   22.2058 H   0  0  0  0  0  0
  -23.7241  -37.6451   23.6698 H   0  0  0  0  0  0
  -26.1503  -31.4873   20.6133 H   0  0  0  0  0  0
  -26.8674  -30.7794   22.0275 H   0  0  0  0  0  0
  -28.1326  -28.8312   21.2236 H   0  0  0  0  0  0
  -25.9066  -25.8553   19.0179 H   0  0  0  0  0  0
  -23.9722  -27.2979   18.9989 H   0  0  0  0  0  0
  -23.7997  -30.5729   19.3983 H   0  0  0  0  0  0
  -22.7824  -29.2384   19.8469 H   0  0  0  0  0  0
  -25.1303  -36.1862   25.0804 H   0  0  0  0  0  0
  -20.9999  -28.3319   24.1360 H   0  0  0  0  0  0
  -20.5680  -26.2340   23.3622 H   0  0  0  0  0  0
  -21.6653  -26.7442   22.1202 H   0  0  0  0  0  0
  -19.6918  -25.6287   21.1266 H   0  0  0  0  0  0
  -19.6699  -27.3170   20.6720 H   0  0  0  0  0  0
  -17.4208  -26.6675   21.4031 H   0  0  0  0  0  0
  -18.0346  -26.0090   22.9030 H   0  0  0  0  0  0
  -19.7954  -30.7292   24.2241 H   0  0  0  0  0  0
  -17.5035  -31.6278   24.5167 H   0  0  0  0  0  0
  -15.5367  -30.2997   23.7675 H   0  0  0  0  0  0
  -15.8682  -28.0827   22.7095 H   0  0  0  0  0  0
  -24.5883  -30.7100   25.7743 H   0  0  0  0  0  0
  -24.8849  -32.2951   26.4760 H   0  0  0  0  0  0
  -25.7958  -30.9006   27.0255 H   0  0  0  0  0  0
  -26.2990  -29.6682   24.1310 H   0  0  0  0  0  0
  -27.3958  -29.7268   25.4904 H   0  0  0  0  0  0
  -27.8910  -30.4185   23.9648 H   0  0  0  0  0  0
  -27.2660  -33.3679   26.2000 H   0  0  0  0  0  0
  -28.3899  -32.6833   25.0357 H   0  0  0  0  0  0
  -28.0666  -31.8516   26.5494 H   0  0  0  0  0  0
  -28.2571  -38.0102   24.7533 H   0  0  0  0  0  0
  -28.1108  -36.2633   24.6256 H   0  0  0  0  0  0
  -27.2301  -37.1388   25.8864 H   0  0  0  0  0  0
  -20.9453  -29.8772   21.6797 H   0  0  0  0  0  0
  -26.0150  -38.2815   24.1432 H   0  0  0  0  0  0
  -30.1988  -20.6343   21.3159 H   0  0  0  0  0  0
  -30.3409  -20.5731   19.6018 H   0  0  0  0  0  0
  -27.8086  -21.6492   21.0249 H   0  0  0  0  0  0
  -28.0649  -21.6670   19.3231 H   0  0  0  0  0  0
  -28.5076  -18.7145   19.5633 H   0  0  0  0  0  0
  -28.4903  -18.7453   21.2871 H   0  0  0  0  0  0
  -29.8560  -23.5425   19.6648 H   0  0  0  0  0  0
  -29.4671  -23.5547   21.3456 H   0  0  0  0  0  0
  -30.9094  -17.7480   21.2840 H   0  0  0  0  0  0
  -30.8350  -17.6526   19.5641 H   0  0  0  0  0  0
  -27.1288  -24.5066   20.7599 H   0  0  0  0  0  0
  -27.6077  -24.5309   19.0931 H   0  0  0  0  0  0
  -28.8248  -15.8984   20.7394 H   0  0  0  0  0  0
  1 25  1  0  0  0
  1 30  2  0  0  0
  1 77  1  0  0  0
  2  3  1  0  0  0
  2 25  1  0  0  0
  2 78  1  0  0  0
  2 79  1  0  0  0
  3  4  1  0  0  0
  3 80  1  0  0  0
  3 81  1  0  0  0
  4  5  1  0  0  0
  4 82  1  0  0  0
  4 83  1  0  0  0
  5  6  1  0  0  0
  5 26  1  0  0  0
  5 84  1  0  0  0
  6 25  1  0  0  0
  6 85  1  0  0  0
  6 86  1  0  0  0
  7  8  2  0  0  0
  7 26  1  0  0  0
  7 29  1  0  0  0
  8  9  1  0  0  0
  8 22  1  0  0  0
  9 10  1  0  0  0
  9 27  2  0  0  0
 10 11  2  0  0  0
 10 15  1  0  0  0
 11 12  1  0  0  0
 11 87  1  0  0  0
 12 13  2  0  0  0
 12 88  1  0  0  0
 13 14  1  0  0  0
 13 31  1  0  0  0
 14 15  2  0  0  0
 14 89  1  0  0  0
 15 90  1  0  0  0
 16 17  2  0  0  0
 16 21  1  0  0  0
 16 31  1  0  0  0
 17 18  1  0  0  0
 17 91  1  0  0  0
 18 19  2  0  0  0
 18 92  1  0  0  0
 19 20  1  0  0  0
 19 24  1  0  0  0
 20 21  2  0  0  0
 20 93  1  0  0  0
 21 23  1  0  0  0
 22 28  1  0  0  0
 22 32  2  0  0  0
 26 27  1  0  0  0
 28 94  1  0  0  0
 28 95  1  0  0  0
 29 96  1  0  0  0
 29 97  1  0  0  0
 33 34  1  0  0  0
 33 66  1  0  0  0
 33 70  2  0  0  0
 34 36  1  0  0  0
 34 59  1  0  0  0
 34 98  1  0  0  0
 35 44  2  0  0  0
 35 45  1  0  0  0
 35 68  1  0  0  0
 36 56  1  0  0  0
 36 99  1  0  0  0
 37 39  1  0  0  0
 37 47  1  0  0  0
 37 66  1  0  0  0
 37100  1  0  0  0
 38 43  2  0  0  0
 38 46  1  0  0  0
 38 47  1  0  0  0
 39 64  1  0  0  0
 39 67  2  0  0  0
 40 52  1  0  0  0
 40 53  2  0  0  0
 40 58  1  0  0  0
 41101  1  0  0  0
 41102  1  0  0  0
 41103  1  0  0  0
 41 48  1  0  0  0
 42 43  1  0  0  0
 42 66  1  0  0  0
 42104  1  0  0  0
 42105  1  0  0  0
 43 44  1  0  0  0
 44106  1  0  0  0
 45 46  2  0  0  0
 45107  1  0  0  0
 46108  1  0  0  0
 47109  1  0  0  0
 47110  1  0  0  0
 48 56  1  0  0  0
 48 65  1  0  0  0
 48111  1  0  0  0
 49 50  1  0  0  0
 49 53  1  0  0  0
 49 64  1  0  0  0
 49112  1  0  0  0
 50 51  1  0  0  0
 50113  1  0  0  0
 50114  1  0  0  0
 51 52  1  0  0  0
 51115  1  0  0  0
 51116  1  0  0  0
 52117  1  0  0  0
 52118  1  0  0  0
 53 54  1  0  0  0
 54 55  2  0  0  0
 54119  1  0  0  0
 55 57  1  0  0  0
 55120  1  0  0  0
 56 69  2  0  0  0
 57 58  2  0  0  0
 57121  1  0  0  0
 58122  1  0  0  0
 59 60  1  0  0  0
 59 61  1  0  0  0
 59 62  1  0  0  0
 60123  1  0  0  0
 60124  1  0  0  0
 60125  1  0  0  0
 61126  1  0  0  0
 61127  1  0  0  0
 61128  1  0  0  0
 62129  1  0  0  0
 62130  1  0  0  0
 62131  1  0  0  0
 63 65  1  0  0  0
 63132  1  0  0  0
 63133  1  0  0  0
 63134  1  0  0  0
 64135  1  0  0  0
 65136  1  0  0  0
 68 76  1  0  0  0
 71 72  1  0  0  0
 71 73  1  0  0  0
 71137  1  0  0  0
 71138  1  0  0  0
 72 74  1  0  0  0
 72139  1  0  0  0
 72140  1  0  0  0
 73 75  1  0  0  0
 73141  1  0  0  0
 73142  1  0  0  0
 74 76  1  0  0  0
 74143  1  0  0  0
 74144  1  0  0  0
 75 77  1  0  0  0
 75145  1  0  0  0
 75146  1  0  0  0
 76147  1  0  0  0
 76148  1  0  0  0
 77149  1  0  0  0
M  ISO  4   1 100  68 101  76 101  77 100
M  END
> <chiral flag>
0

> <version>
0

> <s_m_source_file>
/data/baiqing/PycharmProjects/Reinvent-master-3.2/result/LINK_invent/BTK/process_docking_weight1_custom_sum_contain_oxygen_bond_distance_aromatic_linkinvent_7_9_3/rearranged_h_0001.sdf

> <i_m_source_file_index>
42

> <r_mmod_Potential_Energy-OPLS-2005>
383.352478027344

> <r_mmod_Stretch_Energy-OPLS-2005>
232.511627197266

> <r_mmod_Bend_Energy-OPLS-2005>
228.889526367188

> <r_mmod_Torsional_Energy-OPLS-2005>
200.754135131836

> <r_mmod_Improper_Torsional_Energy-OPLS-2005>
4.53725051879883

> <r_mmod_Van_der_Waal_Energy-OPLS-2005>
115.522842407227

> <r_mmod_Electrostatic_Energy-OPLS-2005>
-351.247222900391

> <r_mmod_Solvation_Energy-OPLS-2005>
-205.293441772461

> <b_mmod_Minimization_Converged-OPLS-2005>
0

> <r_mmod_RMS_Derivative-OPLS-2005>
0.955213963985443

$$$$
42
                    3D
 Structure written by MMmdl.
153160  0  0  1  0            999 V2000
  -30.7217  -14.4618   20.5925 C   0  0  0  0  0  0
  -30.4211  -12.3095   19.4205 C   0  0  0  0  0  0
  -29.4926  -12.5042   18.2054 C   0  0  0  0  0  0
  -28.0145  -12.3666   18.6198 C   0  0  0  0  0  0
  -27.6620  -13.2093   19.8744 C   0  0  2  0  0  0
  -28.7038  -12.9955   20.9955 C   0  0  0  0  0  0
  -25.2587  -13.8171   20.5680 C   0  0  0  0  0  0
  -24.1840  -13.0444   20.9171 C   0  0  0  0  0  0
  -24.6397  -11.6913   20.8730 C   0  0  0  0  0  0
  -23.9064  -10.4298   21.0404 C   0  0  0  0  0  0
  -24.3615   -9.4211   21.9182 C   0  0  0  0  0  0
  -23.6296   -8.2242   22.0754 C   0  0  0  0  0  0
  -22.4276   -8.0282   21.3545 C   0  0  0  0  0  0
  -21.9909   -9.0256   20.4645 C   0  0  0  0  0  0
  -22.7235  -10.2137   20.3056 C   0  0  0  0  0  0
  -21.6851   -6.0733   22.5276 C   0  0  0  0  0  0
  -21.4012   -6.5637   23.8210 C   0  0  0  0  0  0
  -21.3663   -5.6789   24.9172 C   0  0  0  0  0  0
  -21.6048   -4.3052   24.7223 C   0  0  0  0  0  0
  -21.8820   -3.8144   23.4343 C   0  0  0  0  0  0
  -21.9194   -4.6961   22.3400 C   0  0  0  0  0  0
  -22.7862  -13.5242   21.1843 C   0  0  0  0  0  0
  -22.1667   -4.2151   21.0978 F   0  0  0  0  0  0
  -21.5632   -3.4537   25.7736 F   0  0  0  0  0  0
  -30.0350  -13.2964   20.4419 N   0  0  0  0  0  0
  -26.3026  -12.9345   20.3364 N   0  0  0  0  0  0
  -25.9325  -11.6502   20.5764 N   0  0  0  0  0  0
  -22.0503  -12.8231   22.0399 N   0  0  0  0  0  0
  -25.4320  -15.1888   20.4101 N   0  0  0  0  0  0
  -31.8320  -14.6504   20.0892 O   0  0  0  0  0  0
  -21.6640   -6.8878   21.4240 O   0  0  0  0  0  0
  -22.3546  -14.5555   20.6704 O   0  0  0  0  0  0
  -24.6172  -31.8671   23.2111 C   0  0  0  0  0  0
  -25.9062  -32.4817   23.8395 C   0  0  1  0  0  0
  -27.2233  -27.4100   20.0908 C   0  0  0  0  0  0
  -25.5909  -33.8616   24.2322 N   0  0  0  0  0  0
  -23.4047  -30.4953   21.5521 C   0  0  2  0  0  0
  -24.8475  -28.9665   20.1102 C   0  0  0  0  0  0
  -22.7419  -29.4668   22.4973 C   0  0  0  0  0  0
  -18.0278  -28.1378   22.8495 C   0  0  0  0  0  0
  -24.1488  -36.7320   23.2635 C   0  0  0  0  0  0
  -25.9383  -30.8242   21.3702 C   0  0  0  0  0  0
  -26.0115  -29.4596   20.7128 C   0  0  0  0  0  0
  -27.2008  -28.6888   20.7022 C   0  0  0  0  0  0
  -26.0384  -26.9549   19.4597 C   0  0  0  0  0  0
  -24.8575  -27.7141   19.4804 C   0  0  0  0  0  0
  -23.6122  -29.8356   20.1645 C   0  0  0  0  0  0
  -25.4108  -36.3109   24.0333 C   0  0  1  0  0  0
  -20.5870  -28.3673   23.1307 C   0  0  2  0  0  0
  -20.6770  -26.9406   22.5413 C   0  0  0  0  0  0
  -19.5744  -26.6386   21.5213 C   0  0  0  0  0  0
  -18.1925  -26.7923   22.1628 C   0  0  0  0  0  0
  -19.1527  -28.8841   23.2901 C   0  0  0  0  0  0
  -18.9452  -30.1448   23.8912 C   0  0  0  0  0  0
  -17.6454  -30.6584   24.0570 C   0  0  0  0  0  0
  -25.9037  -34.9474   23.5123 C   0  0  0  0  0  0
  -16.5346  -29.9087   23.6327 C   0  0  0  0  0  0
  -16.7268  -28.6503   23.0350 C   0  0  0  0  0  0
  -26.4480  -31.6598   25.0729 C   0  0  0  0  0  0
  -25.3743  -31.3712   26.1473 C   0  0  0  0  0  0
  -27.0316  -30.3037   24.6121 C   0  0  0  0  0  0
  -27.6043  -32.4326   25.7498 C   0  0  0  0  0  0
  -27.5581  -37.1813   24.8465 C   0  0  0  0  0  0
  -21.4145  -29.3043   22.3713 N   0  0  0  0  0  0
  -26.4296  -37.3792   23.9403 N   0  0  0  0  0  0
  -24.6719  -31.0761   22.1025 N   0  0  0  0  0  0
  -23.4184  -28.8203   23.3015 O   0  0  0  0  0  0
  -28.3734  -26.6331   20.1359 O   0  0  0  0  0  0
  -26.5600  -34.8926   22.4686 O   0  0  0  0  0  0
  -23.5359  -32.1438   23.7490 O   0  0  0  0  0  0
  -29.3175  -24.3278   20.4467 C   0  0  0  0  0  0
  -28.2058  -25.2214   19.8569 C   0  0  0  0  0  0
  -30.2492  -19.3602   21.2210 C   0  0  0  0  0  0
  -29.4006  -20.5190   20.6347 C   0  0  0  0  0  0
  -29.7063  -17.9357   20.9222 C   0  0  0  0  0  0
  -29.9728  -21.9362   20.9130 C   0  0  0  0  0  0
  -30.5933  -16.8056   21.5077 C   0  0  0  0  0  0
  -29.1069  -22.9971   20.3805 N   0  0  0  0  0  0
  -30.0775  -15.4491   21.2441 N   0  0  0  0  0  0
  -30.3285  -24.8159   20.9583 O   0  0  0  0  0  0
  -31.4655  -12.4044   19.1173 H   0  0  0  0  0  0
  -30.3219  -11.3003   19.8220 H   0  0  0  0  0  0
  -29.7313  -11.7755   17.4294 H   0  0  0  0  0  0
  -29.6625  -13.4878   17.7643 H   0  0  0  0  0  0
  -27.8224  -11.3113   18.8171 H   0  0  0  0  0  0
  -27.3639  -12.6419   17.7888 H   0  0  0  0  0  0
  -27.7058  -14.2565   19.5741 H   0  0  0  0  0  0
  -28.6795  -11.9622   21.3435 H   0  0  0  0  0  0
  -28.4630  -13.6011   21.8698 H   0  0  0  0  0  0
  -25.2763   -9.5686   22.4751 H   0  0  0  0  0  0
  -24.0012   -7.4630   22.7466 H   0  0  0  0  0  0
  -21.0843   -8.8773   19.8948 H   0  0  0  0  0  0
  -22.3698  -10.9677   19.6164 H   0  0  0  0  0  0
  -21.2002   -7.6144   23.9714 H   0  0  0  0  0  0
  -21.1488   -6.0517   25.9075 H   0  0  0  0  0  0
  -22.0599   -2.7607   23.2840 H   0  0  0  0  0  0
  -22.4124  -11.9899   22.4794 H   0  0  0  0  0  0
  -21.1121  -13.1256   22.2609 H   0  0  0  0  0  0
  -24.6712  -15.8494   20.5251 H   0  0  0  0  0  0
  -26.2922  -15.6262   20.1036 H   0  0  0  0  0  0
  -26.7131  -32.5517   23.1151 H   0  0  0  0  0  0
  -25.0062  -33.9774   25.0470 H   0  0  0  0  0  0
  -22.6951  -31.3142   21.4166 H   0  0  0  0  0  0
  -23.3738  -35.9664   23.3306 H   0  0  0  0  0  0
  -24.3586  -36.8927   22.2048 H   0  0  0  0  0  0
  -23.7252  -37.6532   23.6646 H   0  0  0  0  0  0
  -26.0563  -31.5906   20.6029 H   0  0  0  0  0  0
  -26.8253  -30.8728   21.9900 H   0  0  0  0  0  0
  -28.0949  -29.0614   21.1826 H   0  0  0  0  0  0
  -25.9927  -26.0099   18.9391 H   0  0  0  0  0  0
  -23.9661  -27.3329   19.0008 H   0  0  0  0  0  0
  -23.7216  -30.6141   19.4086 H   0  0  0  0  0  0
  -22.7345  -29.2586   19.8664 H   0  0  0  0  0  0
  -25.1283  -36.1975   25.0827 H   0  0  0  0  0  0
  -20.9965  -28.3238   24.1425 H   0  0  0  0  0  0
  -20.5677  -26.2278   23.3600 H   0  0  0  0  0  0
  -21.6640  -26.7450   22.1200 H   0  0  0  0  0  0
  -19.6906  -25.6300   21.1234 H   0  0  0  0  0  0
  -19.6681  -27.3206   20.6749 H   0  0  0  0  0  0
  -17.4193  -26.6674   21.4033 H   0  0  0  0  0  0
  -18.0332  -26.0061   22.9019 H   0  0  0  0  0  0
  -19.7929  -30.7266   24.2277 H   0  0  0  0  0  0
  -17.5010  -31.6264   24.5172 H   0  0  0  0  0  0
  -15.5349  -30.2997   23.7635 H   0  0  0  0  0  0
  -15.8667  -28.0831   22.7048 H   0  0  0  0  0  0
  -24.5925  -30.7044   25.7820 H   0  0  0  0  0  0
  -24.8923  -32.2869   26.4907 H   0  0  0  0  0  0
  -25.8097  -30.8899   27.0238 H   0  0  0  0  0  0
  -26.2869  -29.6794   24.1170 H   0  0  0  0  0  0
  -27.4076  -29.7277   25.4586 H   0  0  0  0  0  0
  -27.8709  -30.4346   23.9286 H   0  0  0  0  0  0
  -27.2645  -33.3612   26.2098 H   0  0  0  0  0  0
  -28.3844  -32.6913   25.0327 H   0  0  0  0  0  0
  -28.0724  -31.8441   26.5397 H   0  0  0  0  0  0
  -28.2601  -38.0107   24.7507 H   0  0  0  0  0  0
  -28.1073  -36.2637   24.6296 H   0  0  0  0  0  0
  -27.2299  -37.1473   25.8869 H   0  0  0  0  0  0
  -20.9297  -29.8775   21.6950 H   0  0  0  0  0  0
  -26.0183  -38.2872   24.1398 H   0  0  0  0  0  0
  -27.2778  -24.8466   20.2935 H   0  0  0  0  0  0
  -28.1615  -25.0626   18.7784 H   0  0  0  0  0  0
  -30.3264  -19.4913   22.3013 H   0  0  0  0  0  0
  -31.2674  -19.4391   20.8372 H   0  0  0  0  0  0
  -28.3900  -20.4530   21.0404 H   0  0  0  0  0  0
  -29.3057  -20.3787   19.5566 H   0  0  0  0  0  0
  -29.6237  -17.8032   19.8424 H   0  0  0  0  0  0
  -28.6940  -17.8460   21.3197 H   0  0  0  0  0  0
  -30.9666  -22.0301   20.4717 H   0  0  0  0  0  0
  -30.0928  -22.0831   21.9879 H   0  0  0  0  0  0
  -30.6686  -16.9256   22.5893 H   0  0  0  0  0  0
  -31.6104  -16.9167   21.1275 H   0  0  0  0  0  0
  -28.2470  -22.7015   19.9371 H   0  0  0  0  0  0
  -29.1644  -15.2212   21.6084 H   0  0  0  0  0  0
  1 25  1  0  0  0
  1 30  2  0  0  0
  1 79  1  0  0  0
  2  3  1  0  0  0
  2 25  1  0  0  0
  2 81  1  0  0  0
  2 82  1  0  0  0
  3  4  1  0  0  0
  3 83  1  0  0  0
  3 84  1  0  0  0
  4  5  1  0  0  0
  4 85  1  0  0  0
  4 86  1  0  0  0
  5  6  1  0  0  0
  5 26  1  0  0  0
  5 87  1  0  0  0
  6 25  1  0  0  0
  6 88  1  0  0  0
  6 89  1  0  0  0
  7  8  2  0  0  0
  7 26  1  0  0  0
  7 29  1  0  0  0
  8  9  1  0  0  0
  8 22  1  0  0  0
  9 10  1  0  0  0
  9 27  2  0  0  0
 10 11  2  0  0  0
 10 15  1  0  0  0
 11 12  1  0  0  0
 11 90  1  0  0  0
 12 13  2  0  0  0
 12 91  1  0  0  0
 13 14  1  0  0  0
 13 31  1  0  0  0
 14 15  2  0  0  0
 14 92  1  0  0  0
 15 93  1  0  0  0
 16 17  2  0  0  0
 16 21  1  0  0  0
 16 31  1  0  0  0
 17 18  1  0  0  0
 17 94  1  0  0  0
 18 19  2  0  0  0
 18 95  1  0  0  0
 19 20  1  0  0  0
 19 24  1  0  0  0
 20 21  2  0  0  0
 20 96  1  0  0  0
 21 23  1  0  0  0
 22 28  1  0  0  0
 22 32  2  0  0  0
 26 27  1  0  0  0
 28 97  1  0  0  0
 28 98  1  0  0  0
 29 99  1  0  0  0
 29100  1  0  0  0
 33 34  1  0  0  0
 33 66  1  0  0  0
 33 70  2  0  0  0
 34 36  1  0  0  0
 34 59  1  0  0  0
 34101  1  0  0  0
 35 44  2  0  0  0
 35 45  1  0  0  0
 35 68  1  0  0  0
 36 56  1  0  0  0
 36102  1  0  0  0
 37 39  1  0  0  0
 37 47  1  0  0  0
 37 66  1  0  0  0
 37103  1  0  0  0
 38 43  2  0  0  0
 38 46  1  0  0  0
 38 47  1  0  0  0
 39 64  1  0  0  0
 39 67  2  0  0  0
 40 52  1  0  0  0
 40 53  2  0  0  0
 40 58  1  0  0  0
 41104  1  0  0  0
 41105  1  0  0  0
 41106  1  0  0  0
 41 48  1  0  0  0
 42 43  1  0  0  0
 42 66  1  0  0  0
 42107  1  0  0  0
 42108  1  0  0  0
 43 44  1  0  0  0
 44109  1  0  0  0
 45 46  2  0  0  0
 45110  1  0  0  0
 46111  1  0  0  0
 47112  1  0  0  0
 47113  1  0  0  0
 48 56  1  0  0  0
 48 65  1  0  0  0
 48114  1  0  0  0
 49 50  1  0  0  0
 49 53  1  0  0  0
 49 64  1  0  0  0
 49115  1  0  0  0
 50 51  1  0  0  0
 50116  1  0  0  0
 50117  1  0  0  0
 51 52  1  0  0  0
 51118  1  0  0  0
 51119  1  0  0  0
 52120  1  0  0  0
 52121  1  0  0  0
 53 54  1  0  0  0
 54 55  2  0  0  0
 54122  1  0  0  0
 55 57  1  0  0  0
 55123  1  0  0  0
 56 69  2  0  0  0
 57 58  2  0  0  0
 57124  1  0  0  0
 58125  1  0  0  0
 59 60  1  0  0  0
 59 61  1  0  0  0
 59 62  1  0  0  0
 60126  1  0  0  0
 60127  1  0  0  0
 60128  1  0  0  0
 61129  1  0  0  0
 61130  1  0  0  0
 61131  1  0  0  0
 62132  1  0  0  0
 62133  1  0  0  0
 62134  1  0  0  0
 63 65  1  0  0  0
 63135  1  0  0  0
 63136  1  0  0  0
 63137  1  0  0  0
 64138  1  0  0  0
 65139  1  0  0  0
 68 72  1  0  0  0
 71 72  1  0  0  0
 71 78  1  0  0  0
 71 80  2  0  0  0
 72140  1  0  0  0
 72141  1  0  0  0
 73 74  1  0  0  0
 73 75  1  0  0  0
 73142  1  0  0  0
 73143  1  0  0  0
 74 76  1  0  0  0
 74144  1  0  0  0
 74145  1  0  0  0
 75 77  1  0  0  0
 75146  1  0  0  0
 75147  1  0  0  0
 76 78  1  0  0  0
 76148  1  0  0  0
 76149  1  0  0  0
 77 79  1  0  0  0
 77150  1  0  0  0
 77151  1  0  0  0
 78152  1  0  0  0
 79153  1  0  0  0
M  ISO  4   1 100  68 101  72 101  79 100
M  END
> <chiral flag>
0

> <version>
0

> <s_m_source_file>
/data/baiqing/PycharmProjects/Reinvent-master-3.2/result/LINK_invent/BTK/process_docking_weight1_custom_sum_contain_oxygen_bond_distance_aromatic_linkinvent_7_9_3/rearranged_h_0001.sdf

> <i_m_source_file_index>
43

> <r_mmod_Potential_Energy-OPLS-2005>
-142.342880249023

> <r_mmod_Stretch_Energy-OPLS-2005>
38.2808532714844

> <r_mmod_Bend_Energy-OPLS-2005>
93.6349716186523

> <r_mmod_Torsional_Energy-OPLS-2005>
186.269805908203

> <r_mmod_Improper_Torsional_Energy-OPLS-2005>
2.3336501121521

> <r_mmod_Van_der_Waal_Energy-OPLS-2005>
138.369903564453

> <r_mmod_Electrostatic_Energy-OPLS-2005>
-367.778839111328

> <r_mmod_Solvation_Energy-OPLS-2005>
-248.68376159668

> <b_mmod_Minimization_Converged-OPLS-2005>
0

> <r_mmod_RMS_Derivative-OPLS-2005>
0.793862402439117

$$$$
43
                    3D
 Structure written by MMmdl.
147154  0  0  1  0            999 V2000
  -30.5523  -14.9311   20.4195 C   0  0  0  0  0  0
  -30.4378  -12.5763   19.4953 C   0  0  0  0  0  0
  -29.5193  -12.5256   18.2530 C   0  0  0  0  0  0
  -28.0517  -12.3162   18.6713 C   0  0  0  0  0  0
  -27.6298  -13.2475   19.8382 C   0  0  2  0  0  0
  -28.6730  -13.2721   20.9752 C   0  0  0  0  0  0
  -25.2461  -13.8217   20.5711 C   0  0  0  0  0  0
  -24.1778  -13.0440   20.9229 C   0  0  0  0  0  0
  -24.6394  -11.6925   20.8756 C   0  0  0  0  0  0
  -23.9079  -10.4294   21.0409 C   0  0  0  0  0  0
  -24.3627   -9.4207   21.9185 C   0  0  0  0  0  0
  -23.6299   -8.2243   22.0754 C   0  0  0  0  0  0
  -22.4281   -8.0282   21.3544 C   0  0  0  0  0  0
  -21.9919   -9.0257   20.4647 C   0  0  0  0  0  0
  -22.7250  -10.2135   20.3057 C   0  0  0  0  0  0
  -21.6855   -6.0737   22.5279 C   0  0  0  0  0  0
  -21.4016   -6.5641   23.8213 C   0  0  0  0  0  0
  -21.3660   -5.6793   24.9175 C   0  0  0  0  0  0
  -21.6044   -4.3056   24.7225 C   0  0  0  0  0  0
  -21.8818   -3.8148   23.4346 C   0  0  0  0  0  0
  -21.9193   -4.6965   22.3402 C   0  0  0  0  0  0
  -22.7797  -13.5209   21.1883 C   0  0  0  0  0  0
  -22.1661   -4.2151   21.0980 F   0  0  0  0  0  0
  -21.5628   -3.4539   25.7737 F   0  0  0  0  0  0
  -29.9498  -13.6764   20.3744 N   0  0  0  0  0  0
  -26.2886  -12.9448   20.3247 N   0  0  0  0  0  0
  -25.9326  -11.6577   20.5742 N   0  0  0  0  0  0
  -22.0449  -12.8196   22.0439 N   0  0  0  0  0  0
  -25.4119  -15.1946   20.4127 N   0  0  0  0  0  0
  -31.7575  -14.9906   20.1563 O   0  0  0  0  0  0
  -21.6642   -6.8880   21.4241 O   0  0  0  0  0  0
  -22.3479  -14.5513   20.6726 O   0  0  0  0  0  0
  -24.6437  -31.8440   23.1882 C   0  0  0  0  0  0
  -25.9208  -32.4694   23.8272 C   0  0  1  0  0  0
  -27.2157  -27.1356   20.1489 C   0  0  0  0  0  0
  -25.5955  -33.8500   24.2189 N   0  0  0  0  0  0
  -23.4470  -30.4639   21.5340 C   0  0  2  0  0  0
  -24.8959  -28.8911   20.1099 C   0  0  0  0  0  0
  -22.7568  -29.4547   22.4859 C   0  0  0  0  0  0
  -18.0306  -28.1396   22.8477 C   0  0  0  0  0  0
  -24.1492  -36.7256   23.2643 C   0  0  0  0  0  0
  -26.0034  -30.7177   21.3869 C   0  0  0  0  0  0
  -26.0742  -29.3292   20.7276 C   0  0  0  0  0  0
  -27.2355  -28.4682   20.7287 C   0  0  0  0  0  0
  -26.0099  -26.7995   19.4939 C   0  0  0  0  0  0
  -24.8767  -27.6398   19.4775 C   0  0  0  0  0  0
  -23.6731  -29.7939   20.1532 C   0  0  0  0  0  0
  -25.4124  -36.3032   24.0315 C   0  0  1  0  0  0
  -20.5918  -28.3722   23.1234 C   0  0  2  0  0  0
  -20.6789  -26.9425   22.5403 C   0  0  0  0  0  0
  -19.5763  -26.6381   21.5212 C   0  0  0  0  0  0
  -18.1945  -26.7933   22.1624 C   0  0  0  0  0  0
  -19.1562  -28.8877   23.2847 C   0  0  0  0  0  0
  -18.9478  -30.1473   23.8873 C   0  0  0  0  0  0
  -17.6474  -30.6591   24.0559 C   0  0  0  0  0  0
  -25.9075  -34.9407   23.5061 C   0  0  0  0  0  0
  -16.5366  -29.9084   23.6335 C   0  0  0  0  0  0
  -16.7290  -28.6503   23.0356 C   0  0  0  0  0  0
  -26.4527  -31.6564   25.0716 C   0  0  0  0  0  0
  -25.3710  -31.3754   26.1410 C   0  0  0  0  0  0
  -27.0397  -30.2961   24.6301 C   0  0  0  0  0  0
  -27.6053  -32.4335   25.7505 C   0  0  0  0  0  0
  -27.5575  -37.1785   24.8466 C   0  0  0  0  0  0
  -21.4261  -29.3048   22.3606 N   0  0  0  0  0  0
  -26.4287  -37.3745   23.9407 N   0  0  0  0  0  0
  -24.7180  -31.0297   22.0916 N   0  0  0  0  0  0
  -23.4211  -28.8095   23.3010 O   0  0  0  0  0  0
  -28.2671  -26.1488   20.2186 O   0  0  0  0  0  0
  -26.5661  -34.8905   22.4640 O   0  0  0  0  0  0
  -23.5556  -32.1317   23.7102 O   0  0  0  0  0  0
  -29.1151  -18.9634   20.3931 C   0  0  0  0  0  0
  -30.1799  -17.6528   20.4753 C   0  0  0  0  0  0
  -29.5473  -20.6003   20.3983 C   0  0  0  0  0  0
  -27.9753  -24.6216   20.0799 C   0  0  0  0  0  0
  -28.9988  -23.3024   20.3446 C   0  0  0  0  0  0
  -29.7841  -16.1214   20.5489 N   0  0  0  0  0  0
  -28.5915  -21.8086   20.2533 O   0  0  0  0  0  0
  -31.4726  -12.7286   19.1847 H   0  0  0  0  0  0
  -30.4243  -11.6239   20.0276 H   0  0  0  0  0  0
  -29.8351  -11.7277   17.5795 H   0  0  0  0  0  0
  -29.6113  -13.4564   17.6909 H   0  0  0  0  0  0
  -27.9441  -11.2745   18.9759 H   0  0  0  0  0  0
  -27.3889  -12.4529   17.8160 H   0  0  0  0  0  0
  -27.5946  -14.2507   19.4123 H   0  0  0  0  0  0
  -28.7558  -12.2966   21.4567 H   0  0  0  0  0  0
  -28.3772  -13.9779   21.7528 H   0  0  0  0  0  0
  -25.2770   -9.5683   22.4762 H   0  0  0  0  0  0
  -24.0007   -7.4634   22.7474 H   0  0  0  0  0  0
  -21.0849   -8.8780   19.8953 H   0  0  0  0  0  0
  -22.3709  -10.9675   19.6168 H   0  0  0  0  0  0
  -21.2010   -7.6149   23.9717 H   0  0  0  0  0  0
  -21.1482   -6.0523   25.9078 H   0  0  0  0  0  0
  -22.0597   -2.7610   23.2845 H   0  0  0  0  0  0
  -22.4075  -11.9865   22.4833 H   0  0  0  0  0  0
  -21.1064  -13.1213   22.2645 H   0  0  0  0  0  0
  -24.6401  -15.8437   20.5218 H   0  0  0  0  0  0
  -26.2511  -15.6365   20.0607 H   0  0  0  0  0  0
  -26.7274  -32.5299   23.1000 H   0  0  0  0  0  0
  -25.0077  -33.9614   25.0319 H   0  0  0  0  0  0
  -22.7496  -31.2900   21.3800 H   0  0  0  0  0  0
  -23.3758  -35.9584   23.3293 H   0  0  0  0  0  0
  -24.3575  -36.8901   22.2060 H   0  0  0  0  0  0
  -23.7244  -37.6447   23.6688 H   0  0  0  0  0  0
  -26.1598  -31.4726   20.6152 H   0  0  0  0  0  0
  -26.8735  -30.7669   22.0299 H   0  0  0  0  0  0
  -28.1330  -28.7987   21.2324 H   0  0  0  0  0  0
  -25.9052  -25.8438   19.0039 H   0  0  0  0  0  0
  -23.9773  -27.2993   18.9831 H   0  0  0  0  0  0
  -23.8104  -30.5687   19.3980 H   0  0  0  0  0  0
  -22.7875  -29.2370   19.8420 H   0  0  0  0  0  0
  -25.1312  -36.1859   25.0808 H   0  0  0  0  0  0
  -21.0011  -28.3313   24.1355 H   0  0  0  0  0  0
  -20.5682  -26.2337   23.3623 H   0  0  0  0  0  0
  -21.6655  -26.7430   22.1202 H   0  0  0  0  0  0
  -19.6924  -25.6285   21.1258 H   0  0  0  0  0  0
  -19.6699  -27.3177   20.6730 H   0  0  0  0  0  0
  -17.4213  -26.6676   21.4029 H   0  0  0  0  0  0
  -18.0346  -26.0081   22.9027 H   0  0  0  0  0  0
  -19.7954  -30.7296   24.2232 H   0  0  0  0  0  0
  -17.5027  -31.6268   24.5166 H   0  0  0  0  0  0
  -15.5364  -30.2978   23.7672 H   0  0  0  0  0  0
  -15.8691  -28.0813   22.7084 H   0  0  0  0  0  0
  -24.5895  -30.7095   25.7729 H   0  0  0  0  0  0
  -24.8892  -32.2936   26.4779 H   0  0  0  0  0  0
  -25.7991  -30.8963   27.0224 H   0  0  0  0  0  0
  -26.3018  -29.6678   24.1299 H   0  0  0  0  0  0
  -27.3999  -29.7265   25.4879 H   0  0  0  0  0  0
  -27.8929  -30.4197   23.9628 H   0  0  0  0  0  0
  -27.2640  -33.3653   26.2025 H   0  0  0  0  0  0
  -28.3894  -32.6867   25.0357 H   0  0  0  0  0  0
  -28.0687  -31.8499   26.5470 H   0  0  0  0  0  0
  -28.2585  -38.0088   24.7509 H   0  0  0  0  0  0
  -28.1078  -36.2617   24.6298 H   0  0  0  0  0  0
  -27.2291  -37.1437   25.8868 H   0  0  0  0  0  0
  -20.9472  -29.8763   21.6786 H   0  0  0  0  0  0
  -26.0153  -38.2813   24.1408 H   0  0  0  0  0  0
  -28.4087  -18.8373   21.2136 H   0  0  0  0  0  0
  -28.5176  -18.8122   19.4940 H   0  0  0  0  0  0
  -30.8174  -17.8243   21.3433 H   0  0  0  0  0  0
  -30.8544  -17.7427   19.6226 H   0  0  0  0  0  0
  -30.2918  -20.7269   19.6116 H   0  0  0  0  0  0
  -30.0939  -20.7717   21.3261 H   0  0  0  0  0  0
  -27.1038  -24.4420   20.7103 H   0  0  0  0  0  0
  -27.6190  -24.4882   19.0589 H   0  0  0  0  0  0
  -29.4216  -23.4281   21.3415 H   0  0  0  0  0  0
  -29.8431  -23.4214   19.6651 H   0  0  0  0  0  0
  -28.8029  -15.9487   20.7111 H   0  0  0  0  0  0
  1 25  1  0  0  0
  1 30  2  0  0  0
  1 76  1  0  0  0
  2  3  1  0  0  0
  2 25  1  0  0  0
  2 78  1  0  0  0
  2 79  1  0  0  0
  3  4  1  0  0  0
  3 80  1  0  0  0
  3 81  1  0  0  0
  4  5  1  0  0  0
  4 82  1  0  0  0
  4 83  1  0  0  0
  5  6  1  0  0  0
  5 26  1  0  0  0
  5 84  1  0  0  0
  6 25  1  0  0  0
  6 85  1  0  0  0
  6 86  1  0  0  0
  7  8  2  0  0  0
  7 26  1  0  0  0
  7 29  1  0  0  0
  8  9  1  0  0  0
  8 22  1  0  0  0
  9 10  1  0  0  0
  9 27  2  0  0  0
 10 11  2  0  0  0
 10 15  1  0  0  0
 11 12  1  0  0  0
 11 87  1  0  0  0
 12 13  2  0  0  0
 12 88  1  0  0  0
 13 14  1  0  0  0
 13 31  1  0  0  0
 14 15  2  0  0  0
 14 89  1  0  0  0
 15 90  1  0  0  0
 16 17  2  0  0  0
 16 21  1  0  0  0
 16 31  1  0  0  0
 17 18  1  0  0  0
 17 91  1  0  0  0
 18 19  2  0  0  0
 18 92  1  0  0  0
 19 20  1  0  0  0
 19 24  1  0  0  0
 20 21  2  0  0  0
 20 93  1  0  0  0
 21 23  1  0  0  0
 22 28  1  0  0  0
 22 32  2  0  0  0
 26 27  1  0  0  0
 28 94  1  0  0  0
 28 95  1  0  0  0
 29 96  1  0  0  0
 29 97  1  0  0  0
 33 34  1  0  0  0
 33 66  1  0  0  0
 33 70  2  0  0  0
 34 36  1  0  0  0
 34 59  1  0  0  0
 34 98  1  0  0  0
 35 44  2  0  0  0
 35 45  1  0  0  0
 35 68  1  0  0  0
 36 56  1  0  0  0
 36 99  1  0  0  0
 37 39  1  0  0  0
 37 47  1  0  0  0
 37 66  1  0  0  0
 37100  1  0  0  0
 38 43  2  0  0  0
 38 46  1  0  0  0
 38 47  1  0  0  0
 39 64  1  0  0  0
 39 67  2  0  0  0
 40 52  1  0  0  0
 40 53  2  0  0  0
 40 58  1  0  0  0
 41101  1  0  0  0
 41102  1  0  0  0
 41103  1  0  0  0
 41 48  1  0  0  0
 42 43  1  0  0  0
 42 66  1  0  0  0
 42104  1  0  0  0
 42105  1  0  0  0
 43 44  1  0  0  0
 44106  1  0  0  0
 45 46  2  0  0  0
 45107  1  0  0  0
 46108  1  0  0  0
 47109  1  0  0  0
 47110  1  0  0  0
 48 56  1  0  0  0
 48 65  1  0  0  0
 48111  1  0  0  0
 49 50  1  0  0  0
 49 53  1  0  0  0
 49 64  1  0  0  0
 49112  1  0  0  0
 50 51  1  0  0  0
 50113  1  0  0  0
 50114  1  0  0  0
 51 52  1  0  0  0
 51115  1  0  0  0
 51116  1  0  0  0
 52117  1  0  0  0
 52118  1  0  0  0
 53 54  1  0  0  0
 54 55  2  0  0  0
 54119  1  0  0  0
 55 57  1  0  0  0
 55120  1  0  0  0
 56 69  2  0  0  0
 57 58  2  0  0  0
 57121  1  0  0  0
 58122  1  0  0  0
 59 60  1  0  0  0
 59 61  1  0  0  0
 59 62  1  0  0  0
 60123  1  0  0  0
 60124  1  0  0  0
 60125  1  0  0  0
 61126  1  0  0  0
 61127  1  0  0  0
 61128  1  0  0  0
 62129  1  0  0  0
 62130  1  0  0  0
 62131  1  0  0  0
 63 65  1  0  0  0
 63132  1  0  0  0
 63133  1  0  0  0
 63134  1  0  0  0
 64135  1  0  0  0
 65136  1  0  0  0
 68 74  1  0  0  0
 71 72  1  0  0  0
 71 73  1  0  0  0
 71137  1  0  0  0
 71138  1  0  0  0
 72 76  1  0  0  0
 72139  1  0  0  0
 72140  1  0  0  0
 73 77  1  0  0  0
 73141  1  0  0  0
 73142  1  0  0  0
 74 75  1  0  0  0
 74143  1  0  0  0
 74144  1  0  0  0
 75 77  1  0  0  0
 75145  1  0  0  0
 75146  1  0  0  0
 76147  1  0  0  0
M  ISO  4   1 100  68 101  74 101  76 100
M  END
> <chiral flag>
0

> <version>
0

> <s_m_source_file>
/data/baiqing/PycharmProjects/Reinvent-master-3.2/result/LINK_invent/BTK/process_docking_weight1_custom_sum_contain_oxygen_bond_distance_aromatic_linkinvent_7_9_3/rearranged_h_0001.sdf

> <i_m_source_file_index>
44

> <r_mmod_Potential_Energy-OPLS-2005>
482.147308349609

> <r_mmod_Stretch_Energy-OPLS-2005>
273.507659912109

> <r_mmod_Bend_Energy-OPLS-2005>
260.983459472656

> <r_mmod_Torsional_Energy-OPLS-2005>
200.374084472656

> <r_mmod_Improper_Torsional_Energy-OPLS-2005>
4.40430402755737

> <r_mmod_Van_der_Waal_Energy-OPLS-2005>
115.539039611816

> <r_mmod_Electrostatic_Energy-OPLS-2005>
-342.325286865234

> <r_mmod_Solvation_Energy-OPLS-2005>
-217.101608276367

> <b_mmod_Minimization_Converged-OPLS-2005>
0

> <r_mmod_RMS_Derivative-OPLS-2005>
0.114588469266891

$$$$
44
                    3D
 Structure written by MMmdl.
136143  0  0  1  0            999 V2000
  -29.8754  -16.7326   20.2564 C   0  0  0  0  0  0
  -30.2933  -13.9215   19.5246 C   0  0  0  0  0  0
  -29.5763  -13.0119   18.4329 C   0  0  0  0  0  0
  -28.2612  -12.4115   18.9309 C   0  0  0  0  0  0
  -27.5747  -13.4532   19.8225 C   0  0  2  0  0  0
  -28.4981  -14.2172   20.8538 C   0  0  0  0  0  0
  -25.2148  -13.8526   20.5968 C   0  0  0  0  0  0
  -24.1678  -13.0477   20.9349 C   0  0  0  0  0  0
  -24.6583  -11.7056   20.8736 C   0  0  0  0  0  0
  -23.9296  -10.4331   21.0327 C   0  0  0  0  0  0
  -24.3764   -9.4235   21.9142 C   0  0  0  0  0  0
  -23.6379   -8.2295   22.0746 C   0  0  0  0  0  0
  -22.4353   -8.0335   21.3544 C   0  0  0  0  0  0
  -22.0036   -9.0318   20.4632 C   0  0  0  0  0  0
  -22.7427  -10.2167   20.3011 C   0  0  0  0  0  0
  -21.6884   -6.0772   22.5277 C   0  0  0  0  0  0
  -21.4037   -6.5661   23.8214 C   0  0  0  0  0  0
  -21.3667   -5.6805   24.9170 C   0  0  0  0  0  0
  -21.6043   -4.3067   24.7215 C   0  0  0  0  0  0
  -21.8815   -3.8167   23.4332 C   0  0  0  0  0  0
  -21.9201   -4.6993   22.3394 C   0  0  0  0  0  0
  -22.7644  -13.5078   21.1939 C   0  0  0  0  0  0
  -22.1664   -4.2176   21.0971 F   0  0  0  0  0  0
  -21.5623   -3.4545   25.7724 F   0  0  0  0  0  0
  -29.4746  -15.1742   20.1400 N   0  0  0  0  0  0
  -26.2832  -13.0176   20.3520 N   0  0  0  0  0  0
  -25.9605  -11.7070   20.5668 N   0  0  0  0  0  0
  -22.0352  -12.8019   22.0490 N   0  0  0  0  0  0
  -25.3465  -15.2291   20.4374 N   0  0  0  0  0  0
  -31.1250  -16.4793   20.2238 O   0  0  0  0  0  0
  -21.6686   -6.8940   21.4250 O   0  0  0  0  0  0
  -22.3266  -14.5357   20.6773 O   0  0  0  0  0  0
  -24.7564  -31.7058   23.0882 C   0  0  0  0  0  0
  -25.9762  -32.4020   23.7716 C   0  0  1  0  0  0
  -27.2735  -25.9432   20.2741 C   0  0  0  0  0  0
  -25.6015  -33.7889   24.1513 N   0  0  0  0  0  0
  -23.6163  -30.2698   21.4615 C   0  0  2  0  0  0
  -25.0803  -28.4449   20.1439 C   0  0  0  0  0  0
  -22.8084  -29.3809   22.4525 C   0  0  0  0  0  0
  -18.0382  -28.1460   22.8415 C   0  0  0  0  0  0
  -24.1495  -36.6962   23.2675 C   0  0  0  0  0  0
  -26.2186  -30.1860   21.4669 C   0  0  0  0  0  0
  -26.2786  -28.6642   20.8310 C   0  0  0  0  0  0
  -27.3185  -27.4714   20.8414 C   0  0  0  0  0  0
  -26.0370  -26.1269   19.5228 C   0  0  0  0  0  0
  -25.0434  -27.2052   19.4636 C   0  0  0  0  0  0
  -23.9099  -29.4898   20.1331 C   0  0  0  0  0  0
  -25.4173  -36.2636   24.0229 C   0  0  1  0  0  0
  -20.6049  -28.3843   23.1012 C   0  0  2  0  0  0
  -20.6804  -26.9433   22.5424 C   0  0  0  0  0  0
  -19.5798  -26.6342   21.5226 C   0  0  0  0  0  0
  -18.1979  -26.7972   22.1604 C   0  0  0  0  0  0
  -19.1666  -28.8994   23.2669 C   0  0  0  0  0  0
  -18.9562  -30.1559   23.8746 C   0  0  0  0  0  0
  -17.6544  -30.6622   24.0534 C   0  0  0  0  0  0
  -25.9195  -34.9045   23.4771 C   0  0  0  0  0  0
  -16.5428  -29.9091   23.6370 C   0  0  0  0  0  0
  -16.7358  -28.6520   23.0378 C   0  0  0  0  0  0
  -26.4711  -31.6392   25.0647 C   0  0  0  0  0  0
  -25.3585  -31.3908   26.1121 C   0  0  0  0  0  0
  -27.0771  -30.2669   24.7074 C   0  0  0  0  0  0
  -27.6010  -32.4442   25.7501 C   0  0  0  0  0  0
  -27.5536  -37.1634   24.8469 C   0  0  0  0  0  0
  -21.4669  -29.2930   22.3250 N   0  0  0  0  0  0
  -26.4238  -37.3479   23.9405 N   0  0  0  0  0  0
  -24.8977  -30.7724   22.0575 N   0  0  0  0  0  0
  -23.4165  -28.7556   23.3232 O   0  0  0  0  0  0
  -28.1629  -24.3958   20.3179 O   0  0  0  0  0  0
  -26.5953  -34.8776   22.4470 O   0  0  0  0  0  0
  -23.6428  -32.0483   23.5348 O   0  0  0  0  0  0
  -29.1811  -20.2113   20.2855 C   0  0  0  0  0  0
  -28.1398  -22.2341   20.2168 C   0  0  0  0  0  0
  -29.1276  -18.3942   20.2491 N   0  0  0  0  0  0
  -30.3766  -20.5001   20.4004 O   0  0  0  0  0  0
  -31.1765  -14.3278   19.0306 H   0  0  0  0  0  0
  -30.7170  -13.2992   20.3158 H   0  0  0  0  0  0
  -30.2465  -12.2213   18.0929 H   0  0  0  0  0  0
  -29.3696  -13.6293   17.5576 H   0  0  0  0  0  0
  -28.4780  -11.5188   19.5189 H   0  0  0  0  0  0
  -27.6240  -12.1028   18.1009 H   0  0  0  0  0  0
  -27.3055  -14.2236   19.0977 H   0  0  0  0  0  0
  -28.9789  -13.5316   21.5543 H   0  0  0  0  0  0
  -27.8755  -14.8497   21.4867 H   0  0  0  0  0  0
  -25.2894   -9.5694   22.4745 H   0  0  0  0  0  0
  -24.0057   -7.4696   22.7493 H   0  0  0  0  0  0
  -21.0958   -8.8870   19.8943 H   0  0  0  0  0  0
  -22.3888  -10.9705   19.6119 H   0  0  0  0  0  0
  -21.2041   -7.6170   23.9727 H   0  0  0  0  0  0
  -21.1488   -6.0530   25.9075 H   0  0  0  0  0  0
  -22.0584   -2.7629   23.2825 H   0  0  0  0  0  0
  -22.4049  -11.9726   22.4897 H   0  0  0  0  0  0
  -21.0934  -13.0947   22.2673 H   0  0  0  0  0  0
  -24.5620  -15.8636   20.5423 H   0  0  0  0  0  0
  -26.1897  -15.6865   20.1163 H   0  0  0  0  0  0
  -26.7948  -32.4365   23.0513 H   0  0  0  0  0  0
  -24.9935  -33.8794   24.9518 H   0  0  0  0  0  0
  -22.9872  -31.1244   21.2037 H   0  0  0  0  0  0
  -23.3788  -35.9256   23.3232 H   0  0  0  0  0  0
  -24.3533  -36.8776   22.2111 H   0  0  0  0  0  0
  -23.7236  -37.6074   23.6886 H   0  0  0  0  0  0
  -26.4960  -30.8584   20.6541 H   0  0  0  0  0  0
  -27.0451  -30.2755   22.1573 H   0  0  0  0  0  0
  -28.2059  -27.6852   21.4202 H   0  0  0  0  0  0
  -25.7528  -25.2544   18.9515 H   0  0  0  0  0  0
  -24.1652  -27.0070   18.8645 H   0  0  0  0  0  0
  -24.1430  -30.2144   19.3521 H   0  0  0  0  0  0
  -23.0008  -28.9906   19.7939 H   0  0  0  0  0  0
  -25.1422  -36.1291   25.0716 H   0  0  0  0  0  0
  -21.0098  -28.3523   24.1153 H   0  0  0  0  0  0
  -20.5592  -26.2489   23.3752 H   0  0  0  0  0  0
  -21.6661  -26.7254   22.1293 H   0  0  0  0  0  0
  -19.6939  -25.6214   21.1351 H   0  0  0  0  0  0
  -19.6770  -27.3073   20.6696 H   0  0  0  0  0  0
  -17.4256  -26.6724   21.3998 H   0  0  0  0  0  0
  -18.0333  -26.0150   22.9028 H   0  0  0  0  0  0
  -19.8039  -30.7407   24.2054 H   0  0  0  0  0  0
  -17.5094  -31.6286   24.5169 H   0  0  0  0  0  0
  -15.5423  -30.2950   23.7781 H   0  0  0  0  0  0
  -15.8757  -28.0792   22.7177 H   0  0  0  0  0  0
  -24.5847  -30.7188   25.7391 H   0  0  0  0  0  0
  -24.8702  -32.3186   26.4107 H   0  0  0  0  0  0
  -25.7592  -30.9351   27.0185 H   0  0  0  0  0  0
  -26.3608  -29.6028   24.2234 H   0  0  0  0  0  0
  -27.4077  -29.7443   25.6061 H   0  0  0  0  0  0
  -27.9623  -30.3654   24.0792 H   0  0  0  0  0  0
  -27.2451  -33.3904   26.1591 H   0  0  0  0  0  0
  -28.4054  -32.6748   25.0504 H   0  0  0  0  0  0
  -28.0421  -31.8918   26.5807 H   0  0  0  0  0  0
  -28.2485  -37.9987   24.7500 H   0  0  0  0  0  0
  -28.1096  -36.2496   24.6317 H   0  0  0  0  0  0
  -27.2245  -37.1277   25.8869 H   0  0  0  0  0  0
  -21.0161  -29.8454   21.6088 H   0  0  0  0  0  0
  -25.9997  -38.2494   24.1423 H   0  0  0  0  0  0
  -27.3633  -22.0364   20.9550 H   0  0  0  0  0  0
  -27.6197  -22.1119   19.2673 H   0  0  0  0  0  0
  -28.1385  -18.2005   20.1826 H   0  0  0  0  0  0
  1 25  1  0  0  0
  1 30  2  0  0  0
  1 73  1  0  0  0
  2  3  1  0  0  0
  2 25  1  0  0  0
  2 75  1  0  0  0
  2 76  1  0  0  0
  3  4  1  0  0  0
  3 77  1  0  0  0
  3 78  1  0  0  0
  4  5  1  0  0  0
  4 79  1  0  0  0
  4 80  1  0  0  0
  5  6  1  0  0  0
  5 26  1  0  0  0
  5 81  1  0  0  0
  6 25  1  0  0  0
  6 82  1  0  0  0
  6 83  1  0  0  0
  7  8  2  0  0  0
  7 26  1  0  0  0
  7 29  1  0  0  0
  8  9  1  0  0  0
  8 22  1  0  0  0
  9 10  1  0  0  0
  9 27  2  0  0  0
 10 11  2  0  0  0
 10 15  1  0  0  0
 11 12  1  0  0  0
 11 84  1  0  0  0
 12 13  2  0  0  0
 12 85  1  0  0  0
 13 14  1  0  0  0
 13 31  1  0  0  0
 14 15  2  0  0  0
 14 86  1  0  0  0
 15 87  1  0  0  0
 16 17  2  0  0  0
 16 21  1  0  0  0
 16 31  1  0  0  0
 17 18  1  0  0  0
 17 88  1  0  0  0
 18 19  2  0  0  0
 18 89  1  0  0  0
 19 20  1  0  0  0
 19 24  1  0  0  0
 20 21  2  0  0  0
 20 90  1  0  0  0
 21 23  1  0  0  0
 22 28  1  0  0  0
 22 32  2  0  0  0
 26 27  1  0  0  0
 28 91  1  0  0  0
 28 92  1  0  0  0
 29 93  1  0  0  0
 29 94  1  0  0  0
 33 34  1  0  0  0
 33 66  1  0  0  0
 33 70  2  0  0  0
 34 36  1  0  0  0
 34 59  1  0  0  0
 34 95  1  0  0  0
 35 44  2  0  0  0
 35 45  1  0  0  0
 35 68  1  0  0  0
 36 56  1  0  0  0
 36 96  1  0  0  0
 37 39  1  0  0  0
 37 47  1  0  0  0
 37 66  1  0  0  0
 37 97  1  0  0  0
 38 43  2  0  0  0
 38 46  1  0  0  0
 38 47  1  0  0  0
 39 64  1  0  0  0
 39 67  2  0  0  0
 40 52  1  0  0  0
 40 53  2  0  0  0
 40 58  1  0  0  0
 41 98  1  0  0  0
 41 99  1  0  0  0
 41100  1  0  0  0
 41 48  1  0  0  0
 42 43  1  0  0  0
 42 66  1  0  0  0
 42101  1  0  0  0
 42102  1  0  0  0
 43 44  1  0  0  0
 44103  1  0  0  0
 45 46  2  0  0  0
 45104  1  0  0  0
 46105  1  0  0  0
 47106  1  0  0  0
 47107  1  0  0  0
 48 56  1  0  0  0
 48 65  1  0  0  0
 48108  1  0  0  0
 49 50  1  0  0  0
 49 53  1  0  0  0
 49 64  1  0  0  0
 49109  1  0  0  0
 50 51  1  0  0  0
 50110  1  0  0  0
 50111  1  0  0  0
 51 52  1  0  0  0
 51112  1  0  0  0
 51113  1  0  0  0
 52114  1  0  0  0
 52115  1  0  0  0
 53 54  1  0  0  0
 54 55  2  0  0  0
 54116  1  0  0  0
 55 57  1  0  0  0
 55117  1  0  0  0
 56 69  2  0  0  0
 57 58  2  0  0  0
 57118  1  0  0  0
 58119  1  0  0  0
 59 60  1  0  0  0
 59 61  1  0  0  0
 59 62  1  0  0  0
 60120  1  0  0  0
 60121  1  0  0  0
 60122  1  0  0  0
 61123  1  0  0  0
 61124  1  0  0  0
 61125  1  0  0  0
 62126  1  0  0  0
 62127  1  0  0  0
 62128  1  0  0  0
 63 65  1  0  0  0
 63129  1  0  0  0
 63130  1  0  0  0
 63131  1  0  0  0
 64132  1  0  0  0
 65133  1  0  0  0
 68 72  1  0  0  0
 71 72  1  0  0  0
 71 73  1  0  0  0
 71 74  2  0  0  0
 72134  1  0  0  0
 72135  1  0  0  0
 73136  1  0  0  0
M  ISO  4   1 100  68 101  72 101  73 100
M  END
> <chiral flag>
0

> <version>
0

> <s_m_source_file>
/data/baiqing/PycharmProjects/Reinvent-master-3.2/result/LINK_invent/BTK/process_docking_weight1_custom_sum_contain_oxygen_bond_distance_aromatic_linkinvent_7_9_3/rearranged_h_0001.sdf

> <i_m_source_file_index>
45

> <r_mmod_Potential_Energy-OPLS-2005>
7502.65087890625

> <r_mmod_Stretch_Energy-OPLS-2005>
3310.37426757812

> <r_mmod_Bend_Energy-OPLS-2005>
1204.5341796875

> <r_mmod_Torsional_Energy-OPLS-2005>
219.162246704102

> <r_mmod_Improper_Torsional_Energy-OPLS-2005>
4.94083261489868

> <r_mmod_Van_der_Waal_Energy-OPLS-2005>
120.543563842773

> <r_mmod_Electrostatic_Energy-OPLS-2005>
-390.80712890625

> <r_mmod_Solvation_Energy-OPLS-2005>
-257.558715820312

> <b_mmod_Minimization_Converged-OPLS-2005>
1

> <r_mmod_RMS_Derivative-OPLS-2005>
0.0424169413745403

$$$$
45
                    3D
 Structure written by MMmdl.
142149  0  0  1  0            999 V2000
  -30.3256  -15.5326   20.3188 C   0  0  0  0  0  0
  -30.4384  -12.9943   19.5525 C   0  0  0  0  0  0
  -29.5600  -12.6293   18.3229 C   0  0  0  0  0  0
  -28.1177  -12.3018   18.7451 C   0  0  0  0  0  0
  -27.5993  -13.3012   19.8061 C   0  0  2  0  0  0
  -28.6150  -13.5882   20.9305 C   0  0  0  0  0  0
  -25.2341  -13.8291   20.5758 C   0  0  0  0  0  0
  -24.1720  -13.0446   20.9256 C   0  0  0  0  0  0
  -24.6409  -11.6954   20.8734 C   0  0  0  0  0  0
  -23.9114  -10.4302   21.0384 C   0  0  0  0  0  0
  -24.3648   -9.4220   21.9169 C   0  0  0  0  0  0
  -23.6310   -8.2258   22.0745 C   0  0  0  0  0  0
  -22.4289   -8.0298   21.3537 C   0  0  0  0  0  0
  -21.9933   -9.0277   20.4640 C   0  0  0  0  0  0
  -22.7278  -10.2148   20.3045 C   0  0  0  0  0  0
  -21.6863   -6.0746   22.5271 C   0  0  0  0  0  0
  -21.4026   -6.5641   23.8208 C   0  0  0  0  0  0
  -21.3661   -5.6786   24.9164 C   0  0  0  0  0  0
  -21.6044   -4.3048   24.7208 C   0  0  0  0  0  0
  -21.8817   -3.8147   23.4325 C   0  0  0  0  0  0
  -21.9199   -4.6972   22.3389 C   0  0  0  0  0  0
  -22.7734  -13.5188   21.1910 C   0  0  0  0  0  0
  -22.1662   -4.2159   21.0965 F   0  0  0  0  0  0
  -21.5628   -3.4532   25.7720 F   0  0  0  0  0  0
  -29.8210  -14.1686   20.3023 N   0  0  0  0  0  0
  -26.2776  -12.9600   20.3156 N   0  0  0  0  0  0
  -25.9350  -11.6680   20.5650 N   0  0  0  0  0  0
  -22.0401  -12.8172   22.0474 N   0  0  0  0  0  0
  -25.3949  -15.2036   20.4245 N   0  0  0  0  0  0
  -31.5663  -15.4716   20.2286 O   0  0  0  0  0  0
  -21.6645   -6.8898   21.4236 O   0  0  0  0  0  0
  -22.3407  -14.5499   20.6769 O   0  0  0  0  0  0
  -24.6773  -31.8078   23.1562 C   0  0  0  0  0  0
  -25.9376  -32.4526   23.8091 C   0  0  1  0  0  0
  -27.2199  -26.7554   20.2246 C   0  0  0  0  0  0
  -25.5989  -33.8343   24.2002 N   0  0  0  0  0  0
  -23.5012  -30.4110   21.5097 C   0  0  2  0  0  0
  -24.9569  -28.7592   20.1264 C   0  0  0  0  0  0
  -22.7748  -29.4350   22.4738 C   0  0  0  0  0  0
  -18.0344  -28.1432   22.8487 C   0  0  0  0  0  0
  -24.1476  -36.7167   23.2646 C   0  0  0  0  0  0
  -26.0790  -30.5593   21.4119 C   0  0  0  0  0  0
  -26.1456  -29.1274   20.7684 C   0  0  0  0  0  0
  -27.2693  -28.1545   20.7785 C   0  0  0  0  0  0
  -25.9945  -26.5785   19.5372 C   0  0  0  0  0  0
  -24.9161  -27.5093   19.4876 C   0  0  0  0  0  0
  -23.7546  -29.7130   20.1433 C   0  0  0  0  0  0
  -25.4124  -36.2936   24.0292 C   0  0  1  0  0  0
  -20.5975  -28.3780   23.1179 C   0  0  2  0  0  0
  -20.6815  -26.9449   22.5416 C   0  0  0  0  0  0
  -19.5781  -26.6392   21.5239 C   0  0  0  0  0  0
  -18.1970  -26.7971   22.1641 C   0  0  0  0  0  0
  -19.1609  -28.8932   23.2819 C   0  0  0  0  0  0
  -18.9515  -30.1521   23.8862 C   0  0  0  0  0  0
  -17.6506  -30.6624   24.0559 C   0  0  0  0  0  0
  -25.9113  -34.9323   23.4986 C   0  0  0  0  0  0
  -16.5399  -29.9105   23.6346 C   0  0  0  0  0  0
  -16.7328  -28.6514   23.0388 C   0  0  0  0  0  0
  -26.4567  -31.6539   25.0689 C   0  0  0  0  0  0
  -25.3635  -31.3838   26.1304 C   0  0  0  0  0  0
  -27.0508  -30.2904   24.6529 C   0  0  0  0  0  0
  -27.6046  -32.4368   25.7505 C   0  0  0  0  0  0
  -27.5582  -37.1718   24.8453 C   0  0  0  0  0  0
  -21.4399  -29.3037   22.3500 N   0  0  0  0  0  0
  -26.4249  -37.3704   23.9450 N   0  0  0  0  0  0
  -24.7757  -30.9578   22.0790 N   0  0  0  0  0  0
  -23.4228  -28.7944   23.3047 O   0  0  0  0  0  0
  -28.2249  -25.5929   20.1888 O   0  0  0  0  0  0
  -26.5735  -34.8886   22.4590 O   0  0  0  0  0  0
  -23.5804  -32.1113   23.6562 O   0  0  0  0  0  0
  -29.5129  -17.1740   20.0455 C   0  0  0  0  0  0
  -29.3359  -18.9656   20.6818 C   0  0  0  0  0  0
  -28.1956  -23.9176   20.6405 C   0  0  0  0  0  0
  -28.3702  -22.0790   20.1205 C   0  0  0  0  0  0
  -29.3298  -20.6406   20.2200 O   0  0  0  0  0  0
  -31.4407  -13.2418   19.2007 H   0  0  0  0  0  0
  -30.5678  -12.1328   20.2116 H   0  0  0  0  0  0
  -29.9969  -11.7899   17.7798 H   0  0  0  0  0  0
  -29.5509  -13.4714   17.6299 H   0  0  0  0  0  0
  -28.1130  -11.2945   19.1611 H   0  0  0  0  0  0
  -27.4577  -12.2794   17.8770 H   0  0  0  0  0  0
  -27.4788  -14.2376   19.2597 H   0  0  0  0  0  0
  -28.8369  -12.6906   21.5102 H   0  0  0  0  0  0
  -28.1972  -14.3112   21.6330 H   0  0  0  0  0  0
  -25.2793   -9.5698   22.4745 H   0  0  0  0  0  0
  -24.0020   -7.4651   22.7471 H   0  0  0  0  0  0
  -21.0860   -8.8809   19.8949 H   0  0  0  0  0  0
  -22.3740  -10.9686   19.6153 H   0  0  0  0  0  0
  -21.2029   -7.6151   23.9716 H   0  0  0  0  0  0
  -21.1482   -6.0511   25.9069 H   0  0  0  0  0  0
  -22.0600   -2.7612   23.2810 H   0  0  0  0  0  0
  -22.4033  -11.9856   22.4881 H   0  0  0  0  0  0
  -21.1012  -13.1174   22.2673 H   0  0  0  0  0  0
  -24.6275  -15.8544   20.5568 H   0  0  0  0  0  0
  -26.2469  -15.6507   20.1103 H   0  0  0  0  0  0
  -26.7454  -32.5020   23.0806 H   0  0  0  0  0  0
  -25.0089  -33.9384   25.0125 H   0  0  0  0  0  0
  -22.8218  -31.2456   21.3240 H   0  0  0  0  0  0
  -23.3789  -35.9442   23.3213 H   0  0  0  0  0  0
  -24.3568  -36.8916   22.2083 H   0  0  0  0  0  0
  -23.7157  -37.6292   23.6761 H   0  0  0  0  0  0
  -26.2722  -31.2846   20.6201 H   0  0  0  0  0  0
  -26.9334  -30.6327   22.0724 H   0  0  0  0  0  0
  -28.1753  -28.4495   21.2881 H   0  0  0  0  0  0
  -25.8424  -25.6317   19.0393 H   0  0  0  0  0  0
  -24.0176  -27.2188   18.9613 H   0  0  0  0  0  0
  -23.9373  -30.4741   19.3840 H   0  0  0  0  0  0
  -22.8602  -29.1834   19.8125 H   0  0  0  0  0  0
  -25.1315  -36.1710   25.0778 H   0  0  0  0  0  0
  -21.0063  -28.3401   24.1303 H   0  0  0  0  0  0
  -20.5719  -26.2398   23.3667 H   0  0  0  0  0  0
  -21.6673  -26.7437   22.1205 H   0  0  0  0  0  0
  -19.6922  -25.6288   21.1310 H   0  0  0  0  0  0
  -19.6718  -27.3166   20.6738 H   0  0  0  0  0  0
  -17.4240  -26.6752   21.4039 H   0  0  0  0  0  0
  -18.0336  -26.0136   22.9050 H   0  0  0  0  0  0
  -19.7990  -30.7349   24.2222 H   0  0  0  0  0  0
  -17.5055  -31.6293   24.5176 H   0  0  0  0  0  0
  -15.5396  -30.2993   23.7682 H   0  0  0  0  0  0
  -15.8733  -28.0796   22.7149 H   0  0  0  0  0  0
  -24.5828  -30.7194   25.7581 H   0  0  0  0  0  0
  -24.8796  -32.3053   26.4550 H   0  0  0  0  0  0
  -25.7782  -30.9104   27.0208 H   0  0  0  0  0  0
  -26.3217  -29.6528   24.1519 H   0  0  0  0  0  0
  -27.3997  -29.7337   25.5235 H   0  0  0  0  0  0
  -27.9161  -30.4097   24.0010 H   0  0  0  0  0  0
  -27.2624  -33.3728   26.1925 H   0  0  0  0  0  0
  -28.3929  -32.6834   25.0383 H   0  0  0  0  0  0
  -28.0626  -31.8601   26.5548 H   0  0  0  0  0  0
  -28.2497  -38.0118   24.7653 H   0  0  0  0  0  0
  -28.1186  -36.2662   24.6083 H   0  0  0  0  0  0
  -27.2332  -37.1112   25.8855 H   0  0  0  0  0  0
  -20.9689  -29.8706   21.6585 H   0  0  0  0  0  0
  -26.0088  -38.2732   24.1569 H   0  0  0  0  0  0
  -29.8677  -17.3552   19.0309 H   0  0  0  0  0  0
  -28.4797  -16.8710   19.8833 H   0  0  0  0  0  0
  -28.4548  -18.9129   21.3202 H   0  0  0  0  0  0
  -30.1470  -18.9990   21.4098 H   0  0  0  0  0  0
  -28.8008  -23.9477   21.5471 H   0  0  0  0  0  0
  -27.1808  -23.9000   21.0385 H   0  0  0  0  0  0
  -28.1450  -22.1150   19.0536 H   0  0  0  0  0  0
  -27.4476  -21.6703   20.5349 H   0  0  0  0  0  0
  1 25  1  0  0  0
  1 30  2  0  0  0
  1 71  1  0  0  0
  2  3  1  0  0  0
  2 25  1  0  0  0
  2 76  1  0  0  0
  2 77  1  0  0  0
  3  4  1  0  0  0
  3 78  1  0  0  0
  3 79  1  0  0  0
  4  5  1  0  0  0
  4 80  1  0  0  0
  4 81  1  0  0  0
  5  6  1  0  0  0
  5 26  1  0  0  0
  5 82  1  0  0  0
  6 25  1  0  0  0
  6 83  1  0  0  0
  6 84  1  0  0  0
  7  8  2  0  0  0
  7 26  1  0  0  0
  7 29  1  0  0  0
  8  9  1  0  0  0
  8 22  1  0  0  0
  9 10  1  0  0  0
  9 27  2  0  0  0
 10 11  2  0  0  0
 10 15  1  0  0  0
 11 12  1  0  0  0
 11 85  1  0  0  0
 12 13  2  0  0  0
 12 86  1  0  0  0
 13 14  1  0  0  0
 13 31  1  0  0  0
 14 15  2  0  0  0
 14 87  1  0  0  0
 15 88  1  0  0  0
 16 17  2  0  0  0
 16 21  1  0  0  0
 16 31  1  0  0  0
 17 18  1  0  0  0
 17 89  1  0  0  0
 18 19  2  0  0  0
 18 90  1  0  0  0
 19 20  1  0  0  0
 19 24  1  0  0  0
 20 21  2  0  0  0
 20 91  1  0  0  0
 21 23  1  0  0  0
 22 28  1  0  0  0
 22 32  2  0  0  0
 26 27  1  0  0  0
 28 92  1  0  0  0
 28 93  1  0  0  0
 29 94  1  0  0  0
 29 95  1  0  0  0
 33 34  1  0  0  0
 33 66  1  0  0  0
 33 70  2  0  0  0
 34 36  1  0  0  0
 34 59  1  0  0  0
 34 96  1  0  0  0
 35 44  2  0  0  0
 35 45  1  0  0  0
 35 68  1  0  0  0
 36 56  1  0  0  0
 36 97  1  0  0  0
 37 39  1  0  0  0
 37 47  1  0  0  0
 37 66  1  0  0  0
 37 98  1  0  0  0
 38 43  2  0  0  0
 38 46  1  0  0  0
 38 47  1  0  0  0
 39 64  1  0  0  0
 39 67  2  0  0  0
 40 52  1  0  0  0
 40 53  2  0  0  0
 40 58  1  0  0  0
 41 99  1  0  0  0
 41100  1  0  0  0
 41101  1  0  0  0
 41 48  1  0  0  0
 42 43  1  0  0  0
 42 66  1  0  0  0
 42102  1  0  0  0
 42103  1  0  0  0
 43 44  1  0  0  0
 44104  1  0  0  0
 45 46  2  0  0  0
 45105  1  0  0  0
 46106  1  0  0  0
 47107  1  0  0  0
 47108  1  0  0  0
 48 56  1  0  0  0
 48 65  1  0  0  0
 48109  1  0  0  0
 49 50  1  0  0  0
 49 53  1  0  0  0
 49 64  1  0  0  0
 49110  1  0  0  0
 50 51  1  0  0  0
 50111  1  0  0  0
 50112  1  0  0  0
 51 52  1  0  0  0
 51113  1  0  0  0
 51114  1  0  0  0
 52115  1  0  0  0
 52116  1  0  0  0
 53 54  1  0  0  0
 54 55  2  0  0  0
 54117  1  0  0  0
 55 57  1  0  0  0
 55118  1  0  0  0
 56 69  2  0  0  0
 57 58  2  0  0  0
 57119  1  0  0  0
 58120  1  0  0  0
 59 60  1  0  0  0
 59 61  1  0  0  0
 59 62  1  0  0  0
 60121  1  0  0  0
 60122  1  0  0  0
 60123  1  0  0  0
 61124  1  0  0  0
 61125  1  0  0  0
 61126  1  0  0  0
 62127  1  0  0  0
 62128  1  0  0  0
 62129  1  0  0  0
 63 65  1  0  0  0
 63130  1  0  0  0
 63131  1  0  0  0
 63132  1  0  0  0
 64133  1  0  0  0
 65134  1  0  0  0
 68 73  1  0  0  0
 71 72  1  0  0  0
 71135  1  0  0  0
 71136  1  0  0  0
 72 75  1  0  0  0
 72137  1  0  0  0
 72138  1  0  0  0
 73 74  1  0  0  0
 73139  1  0  0  0
 73140  1  0  0  0
 74 75  1  0  0  0
 74141  1  0  0  0
 74142  1  0  0  0
M  ISO  4   1 100  68 101  71 100  73 101
M  END
> <chiral flag>
0

> <version>
0

> <s_m_source_file>
/data/baiqing/PycharmProjects/Reinvent-master-3.2/result/LINK_invent/BTK/process_docking_weight1_custom_sum_contain_oxygen_bond_distance_aromatic_linkinvent_7_9_3/rearranged_h_0001.sdf

> <i_m_source_file_index>
46

> <r_mmod_Potential_Energy-OPLS-2005>
2446.79077148438

> <r_mmod_Stretch_Energy-OPLS-2005>
1074.59729003906

> <r_mmod_Bend_Energy-OPLS-2005>
770.486938476562

> <r_mmod_Torsional_Energy-OPLS-2005>
231.651473999023

> <r_mmod_Improper_Torsional_Energy-OPLS-2005>
10.0244235992432

> <r_mmod_Van_der_Waal_Energy-OPLS-2005>
110.22289276123

> <r_mmod_Electrostatic_Energy-OPLS-2005>
-299.439453125

> <r_mmod_Solvation_Energy-OPLS-2005>
-208.056854248047

> <b_mmod_Minimization_Converged-OPLS-2005>
0

> <r_mmod_RMS_Derivative-OPLS-2005>
1.8861677646637

$$$$
46
                    3D
 Structure written by MMmdl.
148156  0  0  1  0            999 V2000
  -30.5114  -14.9205   20.4353 C   0  0  0  0  0  0
  -30.4549  -12.5673   19.4922 C   0  0  0  0  0  0
  -29.5268  -12.5346   18.2535 C   0  0  0  0  0  0
  -28.0572  -12.3215   18.6680 C   0  0  0  0  0  0
  -27.6390  -13.2376   19.8470 C   0  0  2  0  0  0
  -28.6835  -13.2190   20.9848 C   0  0  0  0  0  0
  -25.2503  -13.8190   20.5691 C   0  0  0  0  0  0
  -24.1807  -13.0434   20.9226 C   0  0  0  0  0  0
  -24.6405  -11.6914   20.8755 C   0  0  0  0  0  0
  -23.9078  -10.4290   21.0412 C   0  0  0  0  0  0
  -24.3625   -9.4204   21.9188 C   0  0  0  0  0  0
  -23.6297   -8.2241   22.0756 C   0  0  0  0  0  0
  -22.4279   -8.0282   21.3545 C   0  0  0  0  0  0
  -21.9918   -9.0256   20.4646 C   0  0  0  0  0  0
  -22.7250  -10.2133   20.3058 C   0  0  0  0  0  0
  -21.6852   -6.0736   22.5280 C   0  0  0  0  0  0
  -21.4014   -6.5640   23.8213 C   0  0  0  0  0  0
  -21.3661   -5.6793   24.9175 C   0  0  0  0  0  0
  -21.6046   -4.3055   24.7225 C   0  0  0  0  0  0
  -21.8819   -3.8147   23.4346 C   0  0  0  0  0  0
  -21.9192   -4.6964   22.3403 C   0  0  0  0  0  0
  -22.7826  -13.5215   21.1878 C   0  0  0  0  0  0
  -22.1661   -4.2152   21.0980 F   0  0  0  0  0  0
  -21.5630   -3.4538   25.7737 F   0  0  0  0  0  0
  -29.9672  -13.6392   20.4024 N   0  0  0  0  0  0
  -26.2929  -12.9403   20.3256 N   0  0  0  0  0  0
  -25.9336  -11.6544   20.5741 N   0  0  0  0  0  0
  -22.0467  -12.8206   22.0429 N   0  0  0  0  0  0
  -25.4169  -15.1913   20.4062 N   0  0  0  0  0  0
  -31.6995  -15.0581   20.1214 O   0  0  0  0  0  0
  -21.6640   -6.8880   21.4242 O   0  0  0  0  0  0
  -22.3514  -14.5520   20.6719 O   0  0  0  0  0  0
  -24.6438  -31.8449   23.1897 C   0  0  0  0  0  0
  -25.9212  -32.4699   23.8283 C   0  0  1  0  0  0
  -27.2193  -27.1419   20.1447 C   0  0  0  0  0  0
  -25.5962  -33.8505   24.2199 N   0  0  0  0  0  0
  -23.4471  -30.4658   21.5355 C   0  0  2  0  0  0
  -24.8972  -28.8971   20.1103 C   0  0  0  0  0  0
  -22.7569  -29.4554   22.4861 C   0  0  0  0  0  0
  -18.0306  -28.1397   22.8477 C   0  0  0  0  0  0
  -24.1494  -36.7255   23.2641 C   0  0  0  0  0  0
  -26.0043  -30.7201   21.3890 C   0  0  0  0  0  0
  -26.0760  -29.3328   20.7288 C   0  0  0  0  0  0
  -27.2382  -28.4719   20.7298 C   0  0  0  0  0  0
  -26.0119  -26.8124   19.4852 C   0  0  0  0  0  0
  -24.8781  -27.6496   19.4735 C   0  0  0  0  0  0
  -23.6735  -29.7979   20.1543 C   0  0  0  0  0  0
  -25.4126  -36.3034   24.0315 C   0  0  1  0  0  0
  -20.5919  -28.3725   23.1233 C   0  0  2  0  0  0
  -20.6792  -26.9428   22.5402 C   0  0  0  0  0  0
  -19.5764  -26.6384   21.5212 C   0  0  0  0  0  0
  -18.1946  -26.7935   22.1624 C   0  0  0  0  0  0
  -19.1563  -28.8879   23.2847 C   0  0  0  0  0  0
  -18.9478  -30.1475   23.8873 C   0  0  0  0  0  0
  -17.6474  -30.6593   24.0560 C   0  0  0  0  0  0
  -25.9074  -34.9409   23.5064 C   0  0  0  0  0  0
  -16.5366  -29.9085   23.6337 C   0  0  0  0  0  0
  -16.7290  -28.6504   23.0357 C   0  0  0  0  0  0
  -26.4533  -31.6563   25.0721 C   0  0  0  0  0  0
  -25.3718  -31.3750   26.1415 C   0  0  0  0  0  0
  -27.0398  -30.2959   24.6302 C   0  0  0  0  0  0
  -27.6062  -32.4328   25.7508 C   0  0  0  0  0  0
  -27.5577  -37.1786   24.8466 C   0  0  0  0  0  0
  -21.4262  -29.3051   22.3605 N   0  0  0  0  0  0
  -26.4290  -37.3746   23.9406 N   0  0  0  0  0  0
  -24.7182  -31.0309   22.0931 N   0  0  0  0  0  0
  -23.4211  -28.8097   23.3008 O   0  0  0  0  0  0
  -28.2625  -26.1444   20.2158 O   0  0  0  0  0  0
  -26.5654  -34.8904   22.4638 O   0  0  0  0  0  0
  -23.5557  -32.1324   23.7117 O   0  0  0  0  0  0
  -27.9747  -19.5529   20.6422 C   0  0  0  0  0  0
  -30.2517  -19.9892   20.2292 C   0  0  0  0  0  0
  -28.2527  -18.1388   20.7224 C   0  0  0  0  0  0
  -30.5328  -18.5470   20.2971 C   0  0  0  0  0  0
  -28.9418  -20.5772   20.3930 C   0  0  0  0  0  0
  -29.5365  -17.5311   20.5470 C   0  0  0  0  0  0
  -28.9267  -23.3605   20.2937 C   0  0  0  0  0  0
  -27.9013  -24.6395   20.0445 C   0  0  0  0  0  0
  -28.4495  -22.0266   20.2703 N   0  0  0  0  0  0
  -29.6297  -16.0040   20.6635 N   0  0  0  0  0  0
  -30.1229  -23.5910   20.4895 O   0  0  0  0  0  0
  -31.4864  -12.7415   19.1813 H   0  0  0  0  0  0
  -30.4554  -11.6027   20.0023 H   0  0  0  0  0  0
  -29.8401  -11.7482   17.5656 H   0  0  0  0  0  0
  -29.6180  -13.4738   17.7054 H   0  0  0  0  0  0
  -27.9451  -11.2762   18.9579 H   0  0  0  0  0  0
  -27.3957  -12.4733   17.8143 H   0  0  0  0  0  0
  -27.6148  -14.2484   19.4398 H   0  0  0  0  0  0
  -28.7626  -12.2241   21.4257 H   0  0  0  0  0  0
  -28.3856  -13.8864   21.7950 H   0  0  0  0  0  0
  -25.2770   -9.5679   22.4764 H   0  0  0  0  0  0
  -24.0004   -7.4632   22.7476 H   0  0  0  0  0  0
  -21.0850   -8.8777   19.8951 H   0  0  0  0  0  0
  -22.3712  -10.9674   19.6168 H   0  0  0  0  0  0
  -21.2005   -7.6149   23.9718 H   0  0  0  0  0  0
  -21.1485   -6.0523   25.9079 H   0  0  0  0  0  0
  -22.0597   -2.7609   23.2845 H   0  0  0  0  0  0
  -22.4083  -11.9868   22.4820 H   0  0  0  0  0  0
  -21.1082  -13.1231   22.2628 H   0  0  0  0  0  0
  -24.6348  -15.8318   20.4896 H   0  0  0  0  0  0
  -26.2317  -15.6172   19.9853 H   0  0  0  0  0  0
  -26.7277  -32.5307   23.1011 H   0  0  0  0  0  0
  -25.0101  -33.9623   25.0342 H   0  0  0  0  0  0
  -22.7496  -31.2920   21.3822 H   0  0  0  0  0  0
  -23.3760  -35.9583   23.3294 H   0  0  0  0  0  0
  -24.3578  -36.8897   22.2058 H   0  0  0  0  0  0
  -23.7246  -37.6448   23.6682 H   0  0  0  0  0  0
  -26.1607  -31.4756   20.6179 H   0  0  0  0  0  0
  -26.8743  -30.7686   22.0321 H   0  0  0  0  0  0
  -28.1343  -28.8006   21.2370 H   0  0  0  0  0  0
  -25.8980  -25.8642   18.9841 H   0  0  0  0  0  0
  -23.9793  -27.3113   18.9762 H   0  0  0  0  0  0
  -23.8099  -30.5737   19.4000 H   0  0  0  0  0  0
  -22.7884  -29.2404   19.8425 H   0  0  0  0  0  0
  -25.1314  -36.1864   25.0807 H   0  0  0  0  0  0
  -21.0012  -28.3317   24.1353 H   0  0  0  0  0  0
  -20.5691  -26.2338   23.3621 H   0  0  0  0  0  0
  -21.6656  -26.7436   22.1197 H   0  0  0  0  0  0
  -19.6926  -25.6289   21.1256 H   0  0  0  0  0  0
  -19.6700  -27.3182   20.6732 H   0  0  0  0  0  0
  -17.4214  -26.6680   21.4028 H   0  0  0  0  0  0
  -18.0346  -26.0083   22.9026 H   0  0  0  0  0  0
  -19.7954  -30.7301   24.2231 H   0  0  0  0  0  0
  -17.5025  -31.6269   24.5167 H   0  0  0  0  0  0
  -15.5364  -30.2977   23.7675 H   0  0  0  0  0  0
  -15.8692  -28.0813   22.7085 H   0  0  0  0  0  0
  -24.5907  -30.7087   25.7737 H   0  0  0  0  0  0
  -24.8897  -32.2931   26.4783 H   0  0  0  0  0  0
  -25.8004  -30.8964   27.0230 H   0  0  0  0  0  0
  -26.3018  -29.6679   24.1299 H   0  0  0  0  0  0
  -27.4000  -29.7258   25.4876 H   0  0  0  0  0  0
  -27.8931  -30.4193   23.9629 H   0  0  0  0  0  0
  -27.2656  -33.3649   26.2029 H   0  0  0  0  0  0
  -28.3906  -32.6854   25.0361 H   0  0  0  0  0  0
  -28.0694  -31.8490   26.5473 H   0  0  0  0  0  0
  -28.2587  -38.0090   24.7509 H   0  0  0  0  0  0
  -28.1082  -36.2617   24.6299 H   0  0  0  0  0  0
  -27.2290  -37.1441   25.8868 H   0  0  0  0  0  0
  -20.9473  -29.8764   21.6784 H   0  0  0  0  0  0
  -26.0157  -38.2815   24.1407 H   0  0  0  0  0  0
  -26.9454  -19.8521   20.7809 H   0  0  0  0  0  0
  -31.0796  -20.6531   20.0229 H   0  0  0  0  0  0
  -27.4098  -17.4937   20.9252 H   0  0  0  0  0  0
  -31.5547  -18.2269   20.1490 H   0  0  0  0  0  0
  -27.0275  -24.4465   20.6678 H   0  0  0  0  0  0
  -27.5723  -24.5107   19.0136 H   0  0  0  0  0  0
  -27.4446  -22.0564   20.1609 H   0  0  0  0  0  0
  -28.7368  -15.6100   20.9166 H   0  0  0  0  0  0
  1 25  1  0  0  0
  1 30  2  0  0  0
  1 80  1  0  0  0
  2  3  1  0  0  0
  2 25  1  0  0  0
  2 82  1  0  0  0
  2 83  1  0  0  0
  3  4  1  0  0  0
  3 84  1  0  0  0
  3 85  1  0  0  0
  4  5  1  0  0  0
  4 86  1  0  0  0
  4 87  1  0  0  0
  5  6  1  0  0  0
  5 26  1  0  0  0
  5 88  1  0  0  0
  6 25  1  0  0  0
  6 89  1  0  0  0
  6 90  1  0  0  0
  7  8  2  0  0  0
  7 26  1  0  0  0
  7 29  1  0  0  0
  8  9  1  0  0  0
  8 22  1  0  0  0
  9 10  1  0  0  0
  9 27  2  0  0  0
 10 11  2  0  0  0
 10 15  1  0  0  0
 11 12  1  0  0  0
 11 91  1  0  0  0
 12 13  2  0  0  0
 12 92  1  0  0  0
 13 14  1  0  0  0
 13 31  1  0  0  0
 14 15  2  0  0  0
 14 93  1  0  0  0
 15 94  1  0  0  0
 16 17  2  0  0  0
 16 21  1  0  0  0
 16 31  1  0  0  0
 17 18  1  0  0  0
 17 95  1  0  0  0
 18 19  2  0  0  0
 18 96  1  0  0  0
 19 20  1  0  0  0
 19 24  1  0  0  0
 20 21  2  0  0  0
 20 97  1  0  0  0
 21 23  1  0  0  0
 22 28  1  0  0  0
 22 32  2  0  0  0
 26 27  1  0  0  0
 28 98  1  0  0  0
 28 99  1  0  0  0
 29100  1  0  0  0
 29101  1  0  0  0
 33 34  1  0  0  0
 33 66  1  0  0  0
 33 70  2  0  0  0
 34 36  1  0  0  0
 34 59  1  0  0  0
 34102  1  0  0  0
 35 44  2  0  0  0
 35 45  1  0  0  0
 35 68  1  0  0  0
 36 56  1  0  0  0
 36103  1  0  0  0
 37 39  1  0  0  0
 37 47  1  0  0  0
 37 66  1  0  0  0
 37104  1  0  0  0
 38 43  2  0  0  0
 38 46  1  0  0  0
 38 47  1  0  0  0
 39 64  1  0  0  0
 39 67  2  0  0  0
 40 52  1  0  0  0
 40 53  2  0  0  0
 40 58  1  0  0  0
 41105  1  0  0  0
 41106  1  0  0  0
 41107  1  0  0  0
 41 48  1  0  0  0
 42 43  1  0  0  0
 42 66  1  0  0  0
 42108  1  0  0  0
 42109  1  0  0  0
 43 44  1  0  0  0
 44110  1  0  0  0
 45 46  2  0  0  0
 45111  1  0  0  0
 46112  1  0  0  0
 47113  1  0  0  0
 47114  1  0  0  0
 48 56  1  0  0  0
 48 65  1  0  0  0
 48115  1  0  0  0
 49 50  1  0  0  0
 49 53  1  0  0  0
 49 64  1  0  0  0
 49116  1  0  0  0
 50 51  1  0  0  0
 50117  1  0  0  0
 50118  1  0  0  0
 51 52  1  0  0  0
 51119  1  0  0  0
 51120  1  0  0  0
 52121  1  0  0  0
 52122  1  0  0  0
 53 54  1  0  0  0
 54 55  2  0  0  0
 54123  1  0  0  0
 55 57  1  0  0  0
 55124  1  0  0  0
 56 69  2  0  0  0
 57 58  2  0  0  0
 57125  1  0  0  0
 58126  1  0  0  0
 59 60  1  0  0  0
 59 61  1  0  0  0
 59 62  1  0  0  0
 60127  1  0  0  0
 60128  1  0  0  0
 60129  1  0  0  0
 61130  1  0  0  0
 61131  1  0  0  0
 61132  1  0  0  0
 62133  1  0  0  0
 62134  1  0  0  0
 62135  1  0  0  0
 63 65  1  0  0  0
 63136  1  0  0  0
 63137  1  0  0  0
 63138  1  0  0  0
 64139  1  0  0  0
 65140  1  0  0  0
 68 78  1  0  0  0
 71 73  2  0  0  0
 71 75  1  0  0  0
 71141  1  0  0  0
 72 74  1  0  0  0
 72 75  2  0  0  0
 72142  1  0  0  0
 73 76  1  0  0  0
 73143  1  0  0  0
 74 76  2  0  0  0
 74144  1  0  0  0
 75 79  1  0  0  0
 76 80  1  0  0  0
 77 78  1  0  0  0
 77 79  1  0  0  0
 77 81  2  0  0  0
 78145  1  0  0  0
 78146  1  0  0  0
 79147  1  0  0  0
 80148  1  0  0  0
M  ISO  4   1 100  68 101  78 101  80 100
M  END
> <chiral flag>
0

> <version>
0

> <s_m_source_file>
/data/baiqing/PycharmProjects/Reinvent-master-3.2/result/LINK_invent/BTK/process_docking_weight1_custom_sum_contain_oxygen_bond_distance_aromatic_linkinvent_7_9_3/rearranged_h_0001.sdf

> <i_m_source_file_index>
47

> <r_mmod_Potential_Energy-OPLS-2005>
411.609313964844

> <r_mmod_Stretch_Energy-OPLS-2005>
219.232482910156

> <r_mmod_Bend_Energy-OPLS-2005>
281.814636230469

> <r_mmod_Torsional_Energy-OPLS-2005>
220.372116088867

> <r_mmod_Improper_Torsional_Energy-OPLS-2005>
4.48748207092285

> <r_mmod_Van_der_Waal_Energy-OPLS-2005>
130.148376464844

> <r_mmod_Electrostatic_Energy-OPLS-2005>
-374.771942138672

> <r_mmod_Solvation_Energy-OPLS-2005>
-252.214736938477

> <b_mmod_Minimization_Converged-OPLS-2005>
0

> <r_mmod_RMS_Derivative-OPLS-2005>
0.218703597784042

$$$$
47
                    3D
 Structure written by MMmdl.
157165  0  0  1  0            999 V2000
  -30.7275  -14.4695   20.5827 C   0  0  0  0  0  0
  -30.4156  -12.3114   19.4248 C   0  0  0  0  0  0
  -29.4910  -12.5043   18.2068 C   0  0  0  0  0  0
  -28.0138  -12.3641   18.6213 C   0  0  0  0  0  0
  -27.6590  -13.2120   19.8723 C   0  0  2  0  0  0
  -28.7017  -13.0138   20.9960 C   0  0  0  0  0  0
  -25.2574  -13.8172   20.5682 C   0  0  0  0  0  0
  -24.1835  -13.0444   20.9189 C   0  0  0  0  0  0
  -24.6396  -11.6913   20.8743 C   0  0  0  0  0  0
  -23.9064  -10.4295   21.0408 C   0  0  0  0  0  0
  -24.3616   -9.4209   21.9186 C   0  0  0  0  0  0
  -23.6292   -8.2244   22.0755 C   0  0  0  0  0  0
  -22.4274   -8.0282   21.3545 C   0  0  0  0  0  0
  -21.9910   -9.0257   20.4647 C   0  0  0  0  0  0
  -22.7237  -10.2137   20.3057 C   0  0  0  0  0  0
  -21.6852   -6.0736   22.5279 C   0  0  0  0  0  0
  -21.4014   -6.5640   23.8212 C   0  0  0  0  0  0
  -21.3659   -5.6793   24.9175 C   0  0  0  0  0  0
  -21.6044   -4.3056   24.7225 C   0  0  0  0  0  0
  -21.8819   -3.8148   23.4346 C   0  0  0  0  0  0
  -21.9193   -4.6964   22.3402 C   0  0  0  0  0  0
  -22.7857  -13.5238   21.1851 C   0  0  0  0  0  0
  -22.1661   -4.2150   21.0980 F   0  0  0  0  0  0
  -21.5629   -3.4541   25.7738 F   0  0  0  0  0  0
  -30.0308  -13.3088   20.4370 N   0  0  0  0  0  0
  -26.3013  -12.9353   20.3361 N   0  0  0  0  0  0
  -25.9324  -11.6508   20.5771 N   0  0  0  0  0  0
  -22.0499  -12.8229   22.0406 N   0  0  0  0  0  0
  -25.4290  -15.1888   20.4065 N   0  0  0  0  0  0
  -31.8537  -14.6232   20.1016 O   0  0  0  0  0  0
  -21.6638   -6.8880   21.4241 O   0  0  0  0  0  0
  -22.3544  -14.5546   20.6700 O   0  0  0  0  0  0
  -24.6171  -31.8679   23.2114 C   0  0  0  0  0  0
  -25.9060  -32.4822   23.8406 C   0  0  1  0  0  0
  -27.2228  -27.4102   20.0931 C   0  0  0  0  0  0
  -25.5912  -33.8622   24.2334 N   0  0  0  0  0  0
  -23.4049  -30.4952   21.5527 C   0  0  2  0  0  0
  -24.8482  -28.9669   20.1107 C   0  0  0  0  0  0
  -22.7423  -29.4665   22.4980 C   0  0  0  0  0  0
  -18.0276  -28.1378   22.8493 C   0  0  0  0  0  0
  -24.1488  -36.7314   23.2638 C   0  0  0  0  0  0
  -25.9386  -30.8254   21.3704 C   0  0  0  0  0  0
  -26.0125  -29.4613   20.7115 C   0  0  0  0  0  0
  -27.2022  -28.6912   20.7001 C   0  0  0  0  0  0
  -26.0379  -26.9528   19.4650 C   0  0  0  0  0  0
  -24.8575  -27.7130   19.4835 C   0  0  0  0  0  0
  -23.6128  -29.8360   20.1649 C   0  0  0  0  0  0
  -25.4109  -36.3112   24.0337 C   0  0  1  0  0  0
  -20.5869  -28.3671   23.1309 C   0  0  2  0  0  0
  -20.6767  -26.9405   22.5413 C   0  0  0  0  0  0
  -19.5744  -26.6385   21.5213 C   0  0  0  0  0  0
  -18.1923  -26.7925   22.1624 C   0  0  0  0  0  0
  -19.1526  -28.8841   23.2898 C   0  0  0  0  0  0
  -18.9453  -30.1447   23.8909 C   0  0  0  0  0  0
  -17.6455  -30.6585   24.0566 C   0  0  0  0  0  0
  -25.9038  -34.9476   23.5130 C   0  0  0  0  0  0
  -16.5346  -29.9086   23.6327 C   0  0  0  0  0  0
  -16.7265  -28.6503   23.0349 C   0  0  0  0  0  0
  -26.4479  -31.6601   25.0738 C   0  0  0  0  0  0
  -25.3741  -31.3704   26.1481 C   0  0  0  0  0  0
  -27.0314  -30.3042   24.6128 C   0  0  0  0  0  0
  -27.6055  -32.4321   25.7497 C   0  0  0  0  0  0
  -27.5583  -37.1811   24.8465 C   0  0  0  0  0  0
  -21.4148  -29.3039   22.3715 N   0  0  0  0  0  0
  -26.4296  -37.3796   23.9408 N   0  0  0  0  0  0
  -24.6719  -31.0769   22.1026 N   0  0  0  0  0  0
  -23.4189  -28.8196   23.3017 O   0  0  0  0  0  0
  -28.3706  -26.6297   20.1411 O   0  0  0  0  0  0
  -26.5596  -34.8926   22.4689 O   0  0  0  0  0  0
  -23.5359  -32.1442   23.7496 O   0  0  0  0  0  0
  -32.3825  -18.2431   22.2222 C   0  0  0  0  0  0
  -31.6806  -19.3910   21.8197 C   0  0  0  0  0  0
  -31.8389  -16.9686   22.0045 C   0  0  0  0  0  0
  -29.8504  -17.9888   21.0017 C   0  0  0  0  0  0
  -30.4032  -19.2947   21.2137 C   0  0  0  0  0  0
  -30.5840  -16.8208   21.3743 C   0  0  0  0  0  0
  -29.8880  -21.7825   21.0428 C   0  0  0  0  0  0
  -28.4818  -17.8075   20.3535 C   0  0  0  0  0  0
  -28.9646  -22.7844   20.3196 C   0  0  0  0  0  0
  -29.2861  -24.2977   20.5333 C   0  0  0  0  0  0
  -28.1894  -25.2099   19.9366 C   0  0  0  0  0  0
  -29.6940  -20.4685   20.7684 N   0  0  0  0  0  0
  -30.0645  -15.5013   21.1504 N   0  0  0  0  0  0
  -30.7235  -22.2081   21.8431 O   0  0  0  0  0  0
  -31.4608  -12.3971   19.1224 H   0  0  0  0  0  0
  -30.3084  -11.3050   19.8325 H   0  0  0  0  0  0
  -29.7316  -11.7758   17.4314 H   0  0  0  0  0  0
  -29.6591  -13.4884   17.7660 H   0  0  0  0  0  0
  -27.8275  -11.3089   18.8248 H   0  0  0  0  0  0
  -27.3618  -12.6313   17.7888 H   0  0  0  0  0  0
  -27.6977  -14.2570   19.5642 H   0  0  0  0  0  0
  -28.6786  -11.9854   21.3597 H   0  0  0  0  0  0
  -28.4647  -13.6348   21.8609 H   0  0  0  0  0  0
  -25.2762   -9.5684   22.4760 H   0  0  0  0  0  0
  -24.0002   -7.4635   22.7473 H   0  0  0  0  0  0
  -21.0842   -8.8776   19.8952 H   0  0  0  0  0  0
  -22.3698  -10.9676   19.6165 H   0  0  0  0  0  0
  -21.2006   -7.6149   23.9716 H   0  0  0  0  0  0
  -21.1481   -6.0524   25.9077 H   0  0  0  0  0  0
  -22.0599   -2.7610   23.2846 H   0  0  0  0  0  0
  -22.4114  -11.9883   22.4783 H   0  0  0  0  0  0
  -21.1120  -13.1257   22.2617 H   0  0  0  0  0  0
  -24.6594  -15.8420   20.5047 H   0  0  0  0  0  0
  -26.2720  -15.6208   20.0520 H   0  0  0  0  0  0
  -26.7128  -32.5524   23.1164 H   0  0  0  0  0  0
  -25.0072  -33.9784   25.0485 H   0  0  0  0  0  0
  -22.6942  -31.3132   21.4175 H   0  0  0  0  0  0
  -23.3751  -35.9647   23.3308 H   0  0  0  0  0  0
  -24.3579  -36.8921   22.2050 H   0  0  0  0  0  0
  -23.7241  -37.6521   23.6646 H   0  0  0  0  0  0
  -26.0588  -31.5938   20.6054 H   0  0  0  0  0  0
  -26.8239  -30.8722   21.9928 H   0  0  0  0  0  0
  -28.0970  -29.0652   21.1780 H   0  0  0  0  0  0
  -25.9945  -26.0026   18.9536 H   0  0  0  0  0  0
  -23.9651  -27.3304   19.0072 H   0  0  0  0  0  0
  -23.7233  -30.6151   19.4099 H   0  0  0  0  0  0
  -22.7349  -29.2601   19.8661 H   0  0  0  0  0  0
  -25.1285  -36.1980   25.0831 H   0  0  0  0  0  0
  -20.9962  -28.3240   24.1429 H   0  0  0  0  0  0
  -20.5677  -26.2278   23.3602 H   0  0  0  0  0  0
  -21.6637  -26.7451   22.1203 H   0  0  0  0  0  0
  -19.6906  -25.6300   21.1232 H   0  0  0  0  0  0
  -19.6681  -27.3204   20.6750 H   0  0  0  0  0  0
  -17.4194  -26.6681   21.4024 H   0  0  0  0  0  0
  -18.0321  -26.0063   22.9017 H   0  0  0  0  0  0
  -19.7929  -30.7261   24.2282 H   0  0  0  0  0  0
  -17.5011  -31.6266   24.5168 H   0  0  0  0  0  0
  -15.5347  -30.2993   23.7644 H   0  0  0  0  0  0
  -15.8666  -28.0827   22.7056 H   0  0  0  0  0  0
  -24.5918  -30.7047   25.7816 H   0  0  0  0  0  0
  -24.8927  -32.2856   26.4938 H   0  0  0  0  0  0
  -25.8095  -30.8868   27.0235 H   0  0  0  0  0  0
  -26.2864  -29.6799   24.1178 H   0  0  0  0  0  0
  -27.4074  -29.7280   25.4593 H   0  0  0  0  0  0
  -27.8706  -30.4355   23.9292 H   0  0  0  0  0  0
  -27.2678  -33.3611   26.2102 H   0  0  0  0  0  0
  -28.3850  -32.6895   25.0314 H   0  0  0  0  0  0
  -28.0742  -31.8430   26.5391 H   0  0  0  0  0  0
  -28.2605  -38.0105   24.7517 H   0  0  0  0  0  0
  -28.1076  -36.2638   24.6288 H   0  0  0  0  0  0
  -27.2299  -37.1460   25.8867 H   0  0  0  0  0  0
  -20.9304  -29.8774   21.6951 H   0  0  0  0  0  0
  -26.0188  -38.2876   24.1410 H   0  0  0  0  0  0
  -33.3520  -18.3415   22.6899 H   0  0  0  0  0  0
  -32.1650  -20.3409   21.9830 H   0  0  0  0  0  0
  -32.4042  -16.1017   22.3181 H   0  0  0  0  0  0
  -27.9630  -18.7417   20.1471 H   0  0  0  0  0  0
  -27.8340  -17.2237   21.0076 H   0  0  0  0  0  0
  -28.5830  -17.2708   19.4099 H   0  0  0  0  0  0
  -27.9479  -22.5824   20.6585 H   0  0  0  0  0  0
  -28.9817  -22.5606   19.2523 H   0  0  0  0  0  0
  -30.2512  -24.5386   20.0868 H   0  0  0  0  0  0
  -29.3761  -24.5087   21.5996 H   0  0  0  0  0  0
  -27.2551  -24.8864   20.3991 H   0  0  0  0  0  0
  -28.1041  -25.0178   18.8659 H   0  0  0  0  0  0
  -28.9176  -20.2862   20.1485 H   0  0  0  0  0  0
  -29.0906  -15.3444   21.3582 H   0  0  0  0  0  0
  1 25  1  0  0  0
  1 30  2  0  0  0
  1 83  1  0  0  0
  2  3  1  0  0  0
  2 25  1  0  0  0
  2 85  1  0  0  0
  2 86  1  0  0  0
  3  4  1  0  0  0
  3 87  1  0  0  0
  3 88  1  0  0  0
  4  5  1  0  0  0
  4 89  1  0  0  0
  4 90  1  0  0  0
  5  6  1  0  0  0
  5 26  1  0  0  0
  5 91  1  0  0  0
  6 25  1  0  0  0
  6 92  1  0  0  0
  6 93  1  0  0  0
  7  8  2  0  0  0
  7 26  1  0  0  0
  7 29  1  0  0  0
  8  9  1  0  0  0
  8 22  1  0  0  0
  9 10  1  0  0  0
  9 27  2  0  0  0
 10 11  2  0  0  0
 10 15  1  0  0  0
 11 12  1  0  0  0
 11 94  1  0  0  0
 12 13  2  0  0  0
 12 95  1  0  0  0
 13 14  1  0  0  0
 13 31  1  0  0  0
 14 15  2  0  0  0
 14 96  1  0  0  0
 15 97  1  0  0  0
 16 17  2  0  0  0
 16 21  1  0  0  0
 16 31  1  0  0  0
 17 18  1  0  0  0
 17 98  1  0  0  0
 18 19  2  0  0  0
 18 99  1  0  0  0
 19 20  1  0  0  0
 19 24  1  0  0  0
 20 21  2  0  0  0
 20100  1  0  0  0
 21 23  1  0  0  0
 22 28  1  0  0  0
 22 32  2  0  0  0
 26 27  1  0  0  0
 28101  1  0  0  0
 28102  1  0  0  0
 29103  1  0  0  0
 29104  1  0  0  0
 33 34  1  0  0  0
 33 66  1  0  0  0
 33 70  2  0  0  0
 34 36  1  0  0  0
 34 59  1  0  0  0
 34105  1  0  0  0
 35 44  2  0  0  0
 35 45  1  0  0  0
 35 68  1  0  0  0
 36 56  1  0  0  0
 36106  1  0  0  0
 37 39  1  0  0  0
 37 47  1  0  0  0
 37 66  1  0  0  0
 37107  1  0  0  0
 38 43  2  0  0  0
 38 46  1  0  0  0
 38 47  1  0  0  0
 39 64  1  0  0  0
 39 67  2  0  0  0
 40 52  1  0  0  0
 40 53  2  0  0  0
 40 58  1  0  0  0
 41108  1  0  0  0
 41109  1  0  0  0
 41110  1  0  0  0
 41 48  1  0  0  0
 42 43  1  0  0  0
 42 66  1  0  0  0
 42111  1  0  0  0
 42112  1  0  0  0
 43 44  1  0  0  0
 44113  1  0  0  0
 45 46  2  0  0  0
 45114  1  0  0  0
 46115  1  0  0  0
 47116  1  0  0  0
 47117  1  0  0  0
 48 56  1  0  0  0
 48 65  1  0  0  0
 48118  1  0  0  0
 49 50  1  0  0  0
 49 53  1  0  0  0
 49 64  1  0  0  0
 49119  1  0  0  0
 50 51  1  0  0  0
 50120  1  0  0  0
 50121  1  0  0  0
 51 52  1  0  0  0
 51122  1  0  0  0
 51123  1  0  0  0
 52124  1  0  0  0
 52125  1  0  0  0
 53 54  1  0  0  0
 54 55  2  0  0  0
 54126  1  0  0  0
 55 57  1  0  0  0
 55127  1  0  0  0
 56 69  2  0  0  0
 57 58  2  0  0  0
 57128  1  0  0  0
 58129  1  0  0  0
 59 60  1  0  0  0
 59 61  1  0  0  0
 59 62  1  0  0  0
 60130  1  0  0  0
 60131  1  0  0  0
 60132  1  0  0  0
 61133  1  0  0  0
 61134  1  0  0  0
 61135  1  0  0  0
 62136  1  0  0  0
 62137  1  0  0  0
 62138  1  0  0  0
 63 65  1  0  0  0
 63139  1  0  0  0
 63140  1  0  0  0
 63141  1  0  0  0
 64142  1  0  0  0
 65143  1  0  0  0
 68 81  1  0  0  0
 71 72  2  0  0  0
 71 73  1  0  0  0
 71144  1  0  0  0
 72 75  1  0  0  0
 72145  1  0  0  0
 73 76  2  0  0  0
 73146  1  0  0  0
 74 75  2  0  0  0
 74 76  1  0  0  0
 74 78  1  0  0  0
 75 82  1  0  0  0
 76 83  1  0  0  0
 77 79  1  0  0  0
 77 82  1  0  0  0
 77 84  2  0  0  0
 78147  1  0  0  0
 78148  1  0  0  0
 78149  1  0  0  0
 79 80  1  0  0  0
 79150  1  0  0  0
 79151  1  0  0  0
 80 81  1  0  0  0
 80152  1  0  0  0
 80153  1  0  0  0
 81154  1  0  0  0
 81155  1  0  0  0
 82156  1  0  0  0
 83157  1  0  0  0
M  ISO  4   1 100  68 101  81 101  83 100
M  END
> <chiral flag>
0

> <version>
0

> <s_m_source_file>
/data/baiqing/PycharmProjects/Reinvent-master-3.2/result/LINK_invent/BTK/process_docking_weight1_custom_sum_contain_oxygen_bond_distance_aromatic_linkinvent_7_9_3/rearranged_h_0001.sdf

> <i_m_source_file_index>
48

> <r_mmod_Potential_Energy-OPLS-2005>
-106.841316223145

> <r_mmod_Stretch_Energy-OPLS-2005>
44.997486114502

> <r_mmod_Bend_Energy-OPLS-2005>
102.818954467773

> <r_mmod_Torsional_Energy-OPLS-2005>
225.138931274414

> <r_mmod_Improper_Torsional_Energy-OPLS-2005>
3.48830223083496

> <r_mmod_Van_der_Waal_Energy-OPLS-2005>
168.966705322266

> <r_mmod_Electrostatic_Energy-OPLS-2005>
-432.144683837891

> <r_mmod_Solvation_Energy-OPLS-2005>
-236.78173828125

> <b_mmod_Minimization_Converged-OPLS-2005>
0

> <r_mmod_RMS_Derivative-OPLS-2005>
0.196793004870415

$$$$
48
                    3D
 Structure written by MMmdl.
150157  0  0  1  0            999 V2000
  -30.6369  -14.6805   20.4717 C   0  0  0  0  0  0
  -30.4294  -12.4117   19.4745 C   0  0  0  0  0  0
  -29.5097  -12.5032   18.2368 C   0  0  0  0  0  0
  -28.0337  -12.3389   18.6467 C   0  0  0  0  0  0
  -27.6483  -13.2273   19.8599 C   0  0  2  0  0  0
  -28.6916  -13.1319   20.9968 C   0  0  0  0  0  0
  -25.2532  -13.8193   20.5697 C   0  0  0  0  0  0
  -24.1813  -13.0443   20.9200 C   0  0  0  0  0  0
  -24.6397  -11.6918   20.8746 C   0  0  0  0  0  0
  -23.9071  -10.4295   21.0406 C   0  0  0  0  0  0
  -24.3620   -9.4209   21.9184 C   0  0  0  0  0  0
  -23.6295   -8.2245   22.0754 C   0  0  0  0  0  0
  -22.4277   -8.0282   21.3544 C   0  0  0  0  0  0
  -21.9913   -9.0257   20.4646 C   0  0  0  0  0  0
  -22.7242  -10.2136   20.3056 C   0  0  0  0  0  0
  -21.6854   -6.0737   22.5279 C   0  0  0  0  0  0
  -21.4015   -6.5640   23.8212 C   0  0  0  0  0  0
  -21.3660   -5.6793   24.9174 C   0  0  0  0  0  0
  -21.6044   -4.3056   24.7225 C   0  0  0  0  0  0
  -21.8819   -3.8148   23.4346 C   0  0  0  0  0  0
  -21.9193   -4.6964   22.3402 C   0  0  0  0  0  0
  -22.7833  -13.5226   21.1860 C   0  0  0  0  0  0
  -22.1661   -4.2150   21.0979 F   0  0  0  0  0  0
  -21.5629   -3.4539   25.7737 F   0  0  0  0  0  0
  -30.0037  -13.4625   20.4255 N   0  0  0  0  0  0
  -26.2967  -12.9395   20.3318 N   0  0  0  0  0  0
  -25.9329  -11.6539   20.5766 N   0  0  0  0  0  0
  -22.0479  -12.8217   22.0417 N   0  0  0  0  0  0
  -25.4225  -15.1917   20.4112 N   0  0  0  0  0  0
  -31.8073  -14.7912   20.0980 O   0  0  0  0  0  0
  -21.6641   -6.8880   21.4240 O   0  0  0  0  0  0
  -22.3517  -14.5532   20.6707 O   0  0  0  0  0  0
  -24.6288  -31.8584   23.2027 C   0  0  0  0  0  0
  -25.9128  -32.4771   23.8357 C   0  0  1  0  0  0
  -27.2152  -27.2856   20.1186 C   0  0  0  0  0  0
  -25.5935  -33.8573   24.2277 N   0  0  0  0  0  0
  -23.4237  -30.4840   21.5457 C   0  0  2  0  0  0
  -24.8698  -28.9415   20.1070 C   0  0  0  0  0  0
  -22.7490  -29.4618   22.4922 C   0  0  0  0  0  0
  -18.0290  -28.1386   22.8485 C   0  0  0  0  0  0
  -24.1490  -36.7290   23.2638 C   0  0  0  0  0  0
  -25.9691  -30.7766   21.3828 C   0  0  0  0  0  0
  -26.0399  -29.4029   20.7228 C   0  0  0  0  0  0
  -27.2129  -28.5846   20.7252 C   0  0  0  0  0  0
  -26.0276  -26.9052   19.4480 C   0  0  0  0  0  0
  -24.8679  -27.6994   19.4597 C   0  0  0  0  0  0
  -23.6400  -29.8247   20.1591 C   0  0  0  0  0  0
  -25.4116  -36.3079   24.0328 C   0  0  1  0  0  0
  -20.5893  -28.3695   23.1273 C   0  0  2  0  0  0
  -20.6779  -26.9415   22.5407 C   0  0  0  0  0  0
  -19.5753  -26.6384   21.5211 C   0  0  0  0  0  0
  -18.1934  -26.7928   22.1625 C   0  0  0  0  0  0
  -19.1543  -28.8857   23.2875 C   0  0  0  0  0  0
  -18.9464  -30.1458   23.8893 C   0  0  0  0  0  0
  -17.6463  -30.6587   24.0562 C   0  0  0  0  0  0
  -25.9054  -34.9448   23.5102 C   0  0  0  0  0  0
  -16.5355  -29.9085   23.6330 C   0  0  0  0  0  0
  -16.7276  -28.6502   23.0352 C   0  0  0  0  0  0
  -26.4502  -31.6588   25.0737 C   0  0  0  0  0  0
  -25.3726  -31.3733   26.1456 C   0  0  0  0  0  0
  -27.0350  -30.3005   24.6218 C   0  0  0  0  0  0
  -27.6056  -32.4328   25.7509 C   0  0  0  0  0  0
  -27.5579  -37.1803   24.8465 C   0  0  0  0  0  0
  -21.4201  -29.3046   22.3664 N   0  0  0  0  0  0
  -26.4293  -37.3775   23.9407 N   0  0  0  0  0  0
  -24.6926  -31.0570   22.0998 N   0  0  0  0  0  0
  -23.4203  -28.8150   23.3004 O   0  0  0  0  0  0
  -28.3062  -26.3917   20.2050 O   0  0  0  0  0  0
  -26.5622  -34.8917   22.4668 O   0  0  0  0  0  0
  -23.5444  -32.1400   23.7334 O   0  0  0  0  0  0
  -28.9339  -23.8375   20.6096 C   0  0  0  0  0  0
  -28.0864  -24.9506   19.8557 C   0  0  0  0  0  0
  -29.4987  -19.9050   20.1728 C   0  0  0  0  0  0
  -29.5293  -18.4890   20.9417 C   0  0  0  0  0  0
  -29.2213  -21.2595   20.9916 C   0  0  0  0  0  0
  -30.1407  -17.2102   20.1873 C   0  0  0  0  0  0
  -28.8177  -22.5127   20.2369 N   0  0  0  0  0  0
  -29.8729  -15.8049   20.7014 N   0  0  0  0  0  0
  -29.6411  -24.1639   21.5656 O   0  0  0  0  0  0
  -31.4736  -12.5186   19.1757 H   0  0  0  0  0  0
  -30.3534  -11.4276   19.9397 H   0  0  0  0  0  0
  -29.7818  -11.7402   17.5063 H   0  0  0  0  0  0
  -29.6500  -13.4656   17.7420 H   0  0  0  0  0  0
  -27.8779  -11.2884   18.8947 H   0  0  0  0  0  0
  -27.3796  -12.5505   17.8001 H   0  0  0  0  0  0
  -27.6534  -14.2546   19.4953 H   0  0  0  0  0  0
  -28.7077  -12.1288   21.4252 H   0  0  0  0  0  0
  -28.4363  -13.8076   21.8145 H   0  0  0  0  0  0
  -25.2765   -9.5686   22.4760 H   0  0  0  0  0  0
  -24.0004   -7.4637   22.7473 H   0  0  0  0  0  0
  -21.0845   -8.8776   19.8952 H   0  0  0  0  0  0
  -22.3700  -10.9676   19.6166 H   0  0  0  0  0  0
  -21.2008   -7.6149   23.9716 H   0  0  0  0  0  0
  -21.1482   -6.0523   25.9077 H   0  0  0  0  0  0
  -22.0598   -2.7610   23.2845 H   0  0  0  0  0  0
  -22.4098  -11.9880   22.4806 H   0  0  0  0  0  0
  -21.1096  -13.1240   22.2623 H   0  0  0  0  0  0
  -24.6537  -15.8445   20.5193 H   0  0  0  0  0  0
  -26.2693  -15.6322   20.0747 H   0  0  0  0  0  0
  -26.7193  -32.5428   23.1099 H   0  0  0  0  0  0
  -25.0082  -33.9717   25.0422 H   0  0  0  0  0  0
  -22.7188  -31.3059   21.4043 H   0  0  0  0  0  0
  -23.3752  -35.9623   23.3302 H   0  0  0  0  0  0
  -24.3580  -36.8910   22.2052 H   0  0  0  0  0  0
  -23.7244  -37.6492   23.6660 H   0  0  0  0  0  0
  -26.1087  -31.5393   20.6155 H   0  0  0  0  0  0
  -26.8467  -30.8219   22.0159 H   0  0  0  0  0  0
  -28.1038  -28.9279   21.2323 H   0  0  0  0  0  0
  -25.9527  -25.9742   18.9078 H   0  0  0  0  0  0
  -23.9767  -27.3474   18.9583 H   0  0  0  0  0  0
  -23.7621  -30.6043   19.4064 H   0  0  0  0  0  0
  -22.7587  -29.2579   19.8533 H   0  0  0  0  0  0
  -25.1297  -36.1931   25.0820 H   0  0  0  0  0  0
  -20.9987  -28.3273   24.1393 H   0  0  0  0  0  0
  -20.5681  -26.2305   23.3610 H   0  0  0  0  0  0
  -21.6647  -26.7443   22.1199 H   0  0  0  0  0  0
  -19.6915  -25.6294   21.1243 H   0  0  0  0  0  0
  -19.6688  -27.3193   20.6740 H   0  0  0  0  0  0
  -17.4203  -26.6674   21.4029 H   0  0  0  0  0  0
  -18.0336  -26.0071   22.9023 H   0  0  0  0  0  0
  -19.7940  -30.7275   24.2260 H   0  0  0  0  0  0
  -17.5017  -31.6267   24.5165 H   0  0  0  0  0  0
  -15.5355  -30.2985   23.7655 H   0  0  0  0  0  0
  -15.8676  -28.0820   22.7069 H   0  0  0  0  0  0
  -24.5908  -30.7074   25.7785 H   0  0  0  0  0  0
  -24.8909  -32.2900   26.4868 H   0  0  0  0  0  0
  -25.8044  -30.8922   27.0241 H   0  0  0  0  0  0
  -26.2936  -29.6752   24.1230 H   0  0  0  0  0  0
  -27.4020  -29.7267   25.4739 H   0  0  0  0  0  0
  -27.8820  -30.4280   23.9473 H   0  0  0  0  0  0
  -27.2662  -33.3631   26.2077 H   0  0  0  0  0  0
  -28.3871  -32.6884   25.0341 H   0  0  0  0  0  0
  -28.0719  -31.8461   26.5433 H   0  0  0  0  0  0
  -28.2599  -38.0098   24.7509 H   0  0  0  0  0  0
  -28.1073  -36.2628   24.6298 H   0  0  0  0  0  0
  -27.2295  -37.1459   25.8868 H   0  0  0  0  0  0
  -20.9380  -29.8778   21.6881 H   0  0  0  0  0  0
  -26.0173  -38.2850   24.1404 H   0  0  0  0  0  0
  -27.0648  -24.6566   20.0932 H   0  0  0  0  0  0
  -28.2164  -24.8257   18.7803 H   0  0  0  0  0  0
  -30.4499  -20.0280   19.6537 H   0  0  0  0  0  0
  -28.7525  -19.8251   19.3816 H   0  0  0  0  0  0
  -28.5072  -18.2582   21.2439 H   0  0  0  0  0  0
  -30.0810  -18.6182   21.8736 H   0  0  0  0  0  0
  -30.0981  -21.4823   21.6018 H   0  0  0  0  0  0
  -28.4183  -21.0624   21.7032 H   0  0  0  0  0  0
  -31.2191  -17.3533   20.1011 H   0  0  0  0  0  0
  -29.7707  -17.2234   19.1611 H   0  0  0  0  0  0
  -28.2399  -22.3543   19.4210 H   0  0  0  0  0  0
  -28.9327  -15.6220   21.0197 H   0  0  0  0  0  0
  1 25  1  0  0  0
  1 30  2  0  0  0
  1 78  1  0  0  0
  2  3  1  0  0  0
  2 25  1  0  0  0
  2 80  1  0  0  0
  2 81  1  0  0  0
  3  4  1  0  0  0
  3 82  1  0  0  0
  3 83  1  0  0  0
  4  5  1  0  0  0
  4 84  1  0  0  0
  4 85  1  0  0  0
  5  6  1  0  0  0
  5 26  1  0  0  0
  5 86  1  0  0  0
  6 25  1  0  0  0
  6 87  1  0  0  0
  6 88  1  0  0  0
  7  8  2  0  0  0
  7 26  1  0  0  0
  7 29  1  0  0  0
  8  9  1  0  0  0
  8 22  1  0  0  0
  9 10  1  0  0  0
  9 27  2  0  0  0
 10 11  2  0  0  0
 10 15  1  0  0  0
 11 12  1  0  0  0
 11 89  1  0  0  0
 12 13  2  0  0  0
 12 90  1  0  0  0
 13 14  1  0  0  0
 13 31  1  0  0  0
 14 15  2  0  0  0
 14 91  1  0  0  0
 15 92  1  0  0  0
 16 17  2  0  0  0
 16 21  1  0  0  0
 16 31  1  0  0  0
 17 18  1  0  0  0
 17 93  1  0  0  0
 18 19  2  0  0  0
 18 94  1  0  0  0
 19 20  1  0  0  0
 19 24  1  0  0  0
 20 21  2  0  0  0
 20 95  1  0  0  0
 21 23  1  0  0  0
 22 28  1  0  0  0
 22 32  2  0  0  0
 26 27  1  0  0  0
 28 96  1  0  0  0
 28 97  1  0  0  0
 29 98  1  0  0  0
 29 99  1  0  0  0
 33 34  1  0  0  0
 33 66  1  0  0  0
 33 70  2  0  0  0
 34 36  1  0  0  0
 34 59  1  0  0  0
 34100  1  0  0  0
 35 44  2  0  0  0
 35 45  1  0  0  0
 35 68  1  0  0  0
 36 56  1  0  0  0
 36101  1  0  0  0
 37 39  1  0  0  0
 37 47  1  0  0  0
 37 66  1  0  0  0
 37102  1  0  0  0
 38 43  2  0  0  0
 38 46  1  0  0  0
 38 47  1  0  0  0
 39 64  1  0  0  0
 39 67  2  0  0  0
 40 52  1  0  0  0
 40 53  2  0  0  0
 40 58  1  0  0  0
 41103  1  0  0  0
 41104  1  0  0  0
 41105  1  0  0  0
 41 48  1  0  0  0
 42 43  1  0  0  0
 42 66  1  0  0  0
 42106  1  0  0  0
 42107  1  0  0  0
 43 44  1  0  0  0
 44108  1  0  0  0
 45 46  2  0  0  0
 45109  1  0  0  0
 46110  1  0  0  0
 47111  1  0  0  0
 47112  1  0  0  0
 48 56  1  0  0  0
 48 65  1  0  0  0
 48113  1  0  0  0
 49 50  1  0  0  0
 49 53  1  0  0  0
 49 64  1  0  0  0
 49114  1  0  0  0
 50 51  1  0  0  0
 50115  1  0  0  0
 50116  1  0  0  0
 51 52  1  0  0  0
 51117  1  0  0  0
 51118  1  0  0  0
 52119  1  0  0  0
 52120  1  0  0  0
 53 54  1  0  0  0
 54 55  2  0  0  0
 54121  1  0  0  0
 55 57  1  0  0  0
 55122  1  0  0  0
 56 69  2  0  0  0
 57 58  2  0  0  0
 57123  1  0  0  0
 58124  1  0  0  0
 59 60  1  0  0  0
 59 61  1  0  0  0
 59 62  1  0  0  0
 60125  1  0  0  0
 60126  1  0  0  0
 60127  1  0  0  0
 61128  1  0  0  0
 61129  1  0  0  0
 61130  1  0  0  0
 62131  1  0  0  0
 62132  1  0  0  0
 62133  1  0  0  0
 63 65  1  0  0  0
 63134  1  0  0  0
 63135  1  0  0  0
 63136  1  0  0  0
 64137  1  0  0  0
 65138  1  0  0  0
 68 72  1  0  0  0
 71 72  1  0  0  0
 71 77  1  0  0  0
 71 79  2  0  0  0
 72139  1  0  0  0
 72140  1  0  0  0
 73 74  1  0  0  0
 73 75  1  0  0  0
 73141  1  0  0  0
 73142  1  0  0  0
 74 76  1  0  0  0
 74143  1  0  0  0
 74144  1  0  0  0
 75 77  1  0  0  0
 75145  1  0  0  0
 75146  1  0  0  0
 76 78  1  0  0  0
 76147  1  0  0  0
 76148  1  0  0  0
 77149  1  0  0  0
 78150  1  0  0  0
M  ISO  4   1 100  68 101  72 101  78 100
M  END
> <chiral flag>
0

> <version>
0

> <s_m_source_file>
/data/baiqing/PycharmProjects/Reinvent-master-3.2/result/LINK_invent/BTK/process_docking_weight1_custom_sum_contain_oxygen_bond_distance_aromatic_linkinvent_7_9_3/rearranged_h_0001.sdf

> <i_m_source_file_index>
49

> <r_mmod_Potential_Energy-OPLS-2005>
29.1479625701904

> <r_mmod_Stretch_Energy-OPLS-2005>
100.355453491211

> <r_mmod_Bend_Energy-OPLS-2005>
145.085632324219

> <r_mmod_Torsional_Energy-OPLS-2005>
210.125640869141

> <r_mmod_Improper_Torsional_Energy-OPLS-2005>
7.15349721908569

> <r_mmod_Van_der_Waal_Energy-OPLS-2005>
126.612968444824

> <r_mmod_Electrostatic_Energy-OPLS-2005>
-372.141723632812

> <r_mmod_Solvation_Energy-OPLS-2005>
-255.416427612305

> <b_mmod_Minimization_Converged-OPLS-2005>
0

> <r_mmod_RMS_Derivative-OPLS-2005>
0.0840050131082535

$$$$
49
                    3D
 Structure written by MMmdl.
150157  0  0  1  0            999 V2000
  -30.6252  -14.6854   20.4848 C   0  0  0  0  0  0
  -30.4365  -12.4243   19.4542 C   0  0  0  0  0  0
  -29.5042  -12.4931   18.2256 C   0  0  0  0  0  0
  -28.0305  -12.3260   18.6442 C   0  0  0  0  0  0
  -27.6462  -13.2198   19.8528 C   0  0  2  0  0  0
  -28.6934  -13.1225   20.9826 C   0  0  0  0  0  0
  -25.2547  -13.8177   20.5674 C   0  0  0  0  0  0
  -24.1820  -13.0441   20.9193 C   0  0  0  0  0  0
  -24.6393  -11.6910   20.8757 C   0  0  0  0  0  0
  -23.9068  -10.4293   21.0419 C   0  0  0  0  0  0
  -24.3617   -9.4208   21.9198 C   0  0  0  0  0  0
  -23.6289   -8.2242   22.0760 C   0  0  0  0  0  0
  -22.4281   -8.0275   21.3536 C   0  0  0  0  0  0
  -21.9913   -9.0258   20.4649 C   0  0  0  0  0  0
  -22.7243  -10.2138   20.3067 C   0  0  0  0  0  0
  -21.6853   -6.0731   22.5273 C   0  0  0  0  0  0
  -21.4014   -6.5636   23.8203 C   0  0  0  0  0  0
  -21.3657   -5.6791   24.9161 C   0  0  0  0  0  0
  -21.6049   -4.3056   24.7216 C   0  0  0  0  0  0
  -21.8824   -3.8145   23.4338 C   0  0  0  0  0  0
  -21.9195   -4.6959   22.3394 C   0  0  0  0  0  0
  -22.7845  -13.5235   21.1850 C   0  0  0  0  0  0
  -22.1665   -4.2146   21.0974 F   0  0  0  0  0  0
  -21.5626   -3.4546   25.7730 F   0  0  0  0  0  0
  -29.9968  -13.4686   20.4007 N   0  0  0  0  0  0
  -26.2961  -12.9355   20.3291 N   0  0  0  0  0  0
  -25.9321  -11.6512   20.5775 N   0  0  0  0  0  0
  -22.0500  -12.8217   22.0405 N   0  0  0  0  0  0
  -25.4294  -15.1893   20.4066 N   0  0  0  0  0  0
  -31.8120  -14.8064   20.1715 O   0  0  0  0  0  0
  -21.6639   -6.8877   21.4234 O   0  0  0  0  0  0
  -22.3522  -14.5543   20.6698 O   0  0  0  0  0  0
  -24.6302  -31.8563   23.2024 C   0  0  0  0  0  0
  -25.9133  -32.4771   23.8350 C   0  0  1  0  0  0
  -27.2128  -27.2818   20.1138 C   0  0  0  0  0  0
  -25.5929  -33.8571   24.2270 N   0  0  0  0  0  0
  -23.4253  -30.4852   21.5455 C   0  0  2  0  0  0
  -24.8685  -28.9397   20.1119 C   0  0  0  0  0  0
  -22.7489  -29.4619   22.4914 C   0  0  0  0  0  0
  -18.0281  -28.1388   22.8456 C   0  0  0  0  0  0
  -24.1490  -36.7295   23.2644 C   0  0  0  0  0  0
  -25.9716  -30.7778   21.3777 C   0  0  0  0  0  0
  -26.0426  -29.4036   20.7158 C   0  0  0  0  0  0
  -27.2197  -28.5887   20.7040 C   0  0  0  0  0  0
  -26.0096  -26.8852   19.4835 C   0  0  0  0  0  0
  -24.8553  -27.6869   19.4874 C   0  0  0  0  0  0
  -23.6402  -29.8266   20.1601 C   0  0  0  0  0  0
  -25.4116  -36.3087   24.0338 C   0  0  1  0  0  0
  -20.5888  -28.3698   23.1258 C   0  0  2  0  0  0
  -20.6777  -26.9419   22.5404 C   0  0  0  0  0  0
  -19.5761  -26.6378   21.5208 C   0  0  0  0  0  0
  -18.1933  -26.7933   22.1611 C   0  0  0  0  0  0
  -19.1538  -28.8853   23.2847 C   0  0  0  0  0  0
  -18.9474  -30.1452   23.8874 C   0  0  0  0  0  0
  -17.6478  -30.6587   24.0557 C   0  0  0  0  0  0
  -25.9065  -34.9452   23.5112 C   0  0  0  0  0  0
  -16.5357  -29.9093   23.6336 C   0  0  0  0  0  0
  -16.7270  -28.6514   23.0336 C   0  0  0  0  0  0
  -26.4506  -31.6586   25.0733 C   0  0  0  0  0  0
  -25.3723  -31.3737   26.1457 C   0  0  0  0  0  0
  -27.0359  -30.3008   24.6208 C   0  0  0  0  0  0
  -27.6050  -32.4337   25.7502 C   0  0  0  0  0  0
  -27.5571  -37.1805   24.8465 C   0  0  0  0  0  0
  -21.4196  -29.3060   22.3653 N   0  0  0  0  0  0
  -26.4282  -37.3781   23.9415 N   0  0  0  0  0  0
  -24.6956  -31.0552   22.0988 N   0  0  0  0  0  0
  -23.4203  -28.8130   23.2996 O   0  0  0  0  0  0
  -28.3173  -26.3993   20.1459 O   0  0  0  0  0  0
  -26.5628  -34.8914   22.4678 O   0  0  0  0  0  0
  -23.5453  -32.1378   23.7332 O   0  0  0  0  0  0
  -29.5582  -18.4413   20.2222 C   0  0  0  0  0  0
  -29.5799  -19.9117   20.8827 C   0  0  0  0  0  0
  -30.2390  -17.2261   21.0265 C   0  0  0  0  0  0
  -29.3080  -21.2325   20.0077 C   0  0  0  0  0  0
  -28.0453  -24.9251   20.2074 C   0  0  0  0  0  0
  -29.1995  -23.8109   20.1407 C   0  0  0  0  0  0
  -29.8432  -15.7890   20.7438 N   0  0  0  0  0  0
  -28.9169  -22.4715   20.7170 O   0  0  0  0  0  0
  -31.4737  -12.5594   19.1424 H   0  0  0  0  0  0
  -30.3887  -11.4413   19.9249 H   0  0  0  0  0  0
  -29.7767  -11.7231   17.5027 H   0  0  0  0  0  0
  -29.6331  -13.4484   17.7159 H   0  0  0  0  0  0
  -27.8809  -11.2770   18.9015 H   0  0  0  0  0  0
  -27.3708  -12.5260   17.7999 H   0  0  0  0  0  0
  -27.6523  -14.2455   19.4838 H   0  0  0  0  0  0
  -28.7201  -12.1167   21.4036 H   0  0  0  0  0  0
  -28.4363  -13.7891   21.8069 H   0  0  0  0  0  0
  -25.2766   -9.5669   22.4768 H   0  0  0  0  0  0
  -23.9994   -7.4630   22.7480 H   0  0  0  0  0  0
  -21.0843   -8.8785   19.8955 H   0  0  0  0  0  0
  -22.3719  -10.9671   19.6169 H   0  0  0  0  0  0
  -21.2017   -7.6152   23.9698 H   0  0  0  0  0  0
  -21.1472   -6.0528   25.9061 H   0  0  0  0  0  0
  -22.0613   -2.7611   23.2842 H   0  0  0  0  0  0
  -22.4118  -11.9858   22.4749 H   0  0  0  0  0  0
  -21.1129  -13.1235   22.2658 H   0  0  0  0  0  0
  -24.6662  -15.8501   20.5080 H   0  0  0  0  0  0
  -26.2802  -15.6202   20.0686 H   0  0  0  0  0  0
  -26.7184  -32.5414   23.1075 H   0  0  0  0  0  0
  -25.0062  -33.9708   25.0407 H   0  0  0  0  0  0
  -22.7225  -31.3094   21.4031 H   0  0  0  0  0  0
  -23.3753  -35.9627   23.3311 H   0  0  0  0  0  0
  -24.3584  -36.8916   22.2059 H   0  0  0  0  0  0
  -23.7242  -37.6496   23.6662 H   0  0  0  0  0  0
  -26.1064  -31.5407   20.6101 H   0  0  0  0  0  0
  -26.8524  -30.8248   22.0061 H   0  0  0  0  0  0
  -28.1206  -28.9414   21.1865 H   0  0  0  0  0  0
  -25.9130  -25.9436   18.9708 H   0  0  0  0  0  0
  -23.9573  -27.3270   19.0054 H   0  0  0  0  0  0
  -23.7681  -30.6072   19.4108 H   0  0  0  0  0  0
  -22.7568  -29.2656   19.8497 H   0  0  0  0  0  0
  -25.1291  -36.1941   25.0827 H   0  0  0  0  0  0
  -20.9960  -28.3281   24.1389 H   0  0  0  0  0  0
  -20.5690  -26.2302   23.3606 H   0  0  0  0  0  0
  -21.6639  -26.7450   22.1186 H   0  0  0  0  0  0
  -19.6935  -25.6296   21.1234 H   0  0  0  0  0  0
  -19.6709  -27.3184   20.6735 H   0  0  0  0  0  0
  -17.4205  -26.6650   21.4016 H   0  0  0  0  0  0
  -18.0322  -26.0094   22.9024 H   0  0  0  0  0  0
  -19.7955  -30.7252   24.2232 H   0  0  0  0  0  0
  -17.5047  -31.6269   24.5160 H   0  0  0  0  0  0
  -15.5363  -30.2988   23.7689 H   0  0  0  0  0  0
  -15.8664  -28.0841   22.7047 H   0  0  0  0  0  0
  -24.5912  -30.7070   25.7789 H   0  0  0  0  0  0
  -24.8892  -32.2896   26.4856 H   0  0  0  0  0  0
  -25.8034  -30.8937   27.0247 H   0  0  0  0  0  0
  -26.2942  -29.6752   24.1214 H   0  0  0  0  0  0
  -27.4040  -29.7282   25.4724 H   0  0  0  0  0  0
  -27.8812  -30.4306   23.9449 H   0  0  0  0  0  0
  -27.2663  -33.3656   26.2044 H   0  0  0  0  0  0
  -28.3866  -32.6872   25.0335 H   0  0  0  0  0  0
  -28.0703  -31.8487   26.5449 H   0  0  0  0  0  0
  -28.2586  -38.0097   24.7513 H   0  0  0  0  0  0
  -28.1070  -36.2631   24.6289 H   0  0  0  0  0  0
  -27.2291  -37.1451   25.8865 H   0  0  0  0  0  0
  -20.9363  -29.8843   21.6912 H   0  0  0  0  0  0
  -26.0172  -38.2858   24.1427 H   0  0  0  0  0  0
  -30.0374  -18.4974   19.2449 H   0  0  0  0  0  0
  -28.5166  -18.1902   20.0150 H   0  0  0  0  0  0
  -30.5442  -20.0493   21.3718 H   0  0  0  0  0  0
  -28.8532  -19.9026   21.6949 H   0  0  0  0  0  0
  -30.0264  -17.3746   22.0847 H   0  0  0  0  0  0
  -31.3226  -17.3186   20.9447 H   0  0  0  0  0  0
  -28.5197  -21.0203   19.2846 H   0  0  0  0  0  0
  -30.2047  -21.4335   19.4193 H   0  0  0  0  0  0
  -27.4833  -24.7613   21.1280 H   0  0  0  0  0  0
  -27.3827  -24.6325   19.3979 H   0  0  0  0  0  0
  -30.0752  -24.1879   20.6703 H   0  0  0  0  0  0
  -29.5118  -23.7008   19.1016 H   0  0  0  0  0  0
  -28.8712  -15.5714   20.9075 H   0  0  0  0  0  0
  1 25  1  0  0  0
  1 30  2  0  0  0
  1 77  1  0  0  0
  2  3  1  0  0  0
  2 25  1  0  0  0
  2 79  1  0  0  0
  2 80  1  0  0  0
  3  4  1  0  0  0
  3 81  1  0  0  0
  3 82  1  0  0  0
  4  5  1  0  0  0
  4 83  1  0  0  0
  4 84  1  0  0  0
  5  6  1  0  0  0
  5 26  1  0  0  0
  5 85  1  0  0  0
  6 25  1  0  0  0
  6 86  1  0  0  0
  6 87  1  0  0  0
  7  8  2  0  0  0
  7 26  1  0  0  0
  7 29  1  0  0  0
  8  9  1  0  0  0
  8 22  1  0  0  0
  9 10  1  0  0  0
  9 27  2  0  0  0
 10 11  2  0  0  0
 10 15  1  0  0  0
 11 12  1  0  0  0
 11 88  1  0  0  0
 12 13  2  0  0  0
 12 89  1  0  0  0
 13 14  1  0  0  0
 13 31  1  0  0  0
 14 15  2  0  0  0
 14 90  1  0  0  0
 15 91  1  0  0  0
 16 17  2  0  0  0
 16 21  1  0  0  0
 16 31  1  0  0  0
 17 18  1  0  0  0
 17 92  1  0  0  0
 18 19  2  0  0  0
 18 93  1  0  0  0
 19 20  1  0  0  0
 19 24  1  0  0  0
 20 21  2  0  0  0
 20 94  1  0  0  0
 21 23  1  0  0  0
 22 28  1  0  0  0
 22 32  2  0  0  0
 26 27  1  0  0  0
 28 95  1  0  0  0
 28 96  1  0  0  0
 29 97  1  0  0  0
 29 98  1  0  0  0
 33 34  1  0  0  0
 33 66  1  0  0  0
 33 70  2  0  0  0
 34 36  1  0  0  0
 34 59  1  0  0  0
 34 99  1  0  0  0
 35 44  2  0  0  0
 35 45  1  0  0  0
 35 68  1  0  0  0
 36 56  1  0  0  0
 36100  1  0  0  0
 37 39  1  0  0  0
 37 47  1  0  0  0
 37 66  1  0  0  0
 37101  1  0  0  0
 38 43  2  0  0  0
 38 46  1  0  0  0
 38 47  1  0  0  0
 39 64  1  0  0  0
 39 67  2  0  0  0
 40 52  1  0  0  0
 40 53  2  0  0  0
 40 58  1  0  0  0
 41102  1  0  0  0
 41103  1  0  0  0
 41104  1  0  0  0
 41 48  1  0  0  0
 42 43  1  0  0  0
 42 66  1  0  0  0
 42105  1  0  0  0
 42106  1  0  0  0
 43 44  1  0  0  0
 44107  1  0  0  0
 45 46  2  0  0  0
 45108  1  0  0  0
 46109  1  0  0  0
 47110  1  0  0  0
 47111  1  0  0  0
 48 56  1  0  0  0
 48 65  1  0  0  0
 48112  1  0  0  0
 49 50  1  0  0  0
 49 53  1  0  0  0
 49 64  1  0  0  0
 49113  1  0  0  0
 50 51  1  0  0  0
 50114  1  0  0  0
 50115  1  0  0  0
 51 52  1  0  0  0
 51116  1  0  0  0
 51117  1  0  0  0
 52118  1  0  0  0
 52119  1  0  0  0
 53 54  1  0  0  0
 54 55  2  0  0  0
 54120  1  0  0  0
 55 57  1  0  0  0
 55121  1  0  0  0
 56 69  2  0  0  0
 57 58  2  0  0  0
 57122  1  0  0  0
 58123  1  0  0  0
 59 60  1  0  0  0
 59 61  1  0  0  0
 59 62  1  0  0  0
 60124  1  0  0  0
 60125  1  0  0  0
 60126  1  0  0  0
 61127  1  0  0  0
 61128  1  0  0  0
 61129  1  0  0  0
 62130  1  0  0  0
 62131  1  0  0  0
 62132  1  0  0  0
 63 65  1  0  0  0
 63133  1  0  0  0
 63134  1  0  0  0
 63135  1  0  0  0
 64136  1  0  0  0
 65137  1  0  0  0
 68 75  1  0  0  0
 71 72  1  0  0  0
 71 73  1  0  0  0
 71138  1  0  0  0
 71139  1  0  0  0
 72 74  1  0  0  0
 72140  1  0  0  0
 72141  1  0  0  0
 73 77  1  0  0  0
 73142  1  0  0  0
 73143  1  0  0  0
 74 78  1  0  0  0
 74144  1  0  0  0
 74145  1  0  0  0
 75 76  1  0  0  0
 75146  1  0  0  0
 75147  1  0  0  0
 76 78  1  0  0  0
 76148  1  0  0  0
 76149  1  0  0  0
 77150  1  0  0  0
M  ISO  4   1 100  68 101  75 101  77 100
M  END
> <chiral flag>
0

> <version>
0

> <s_m_source_file>
/data/baiqing/PycharmProjects/Reinvent-master-3.2/result/LINK_invent/BTK/process_docking_weight1_custom_sum_contain_oxygen_bond_distance_aromatic_linkinvent_7_9_3/rearranged_h_0001.sdf

> <i_m_source_file_index>
50

> <r_mmod_Potential_Energy-OPLS-2005>
113.180145263672

> <r_mmod_Stretch_Energy-OPLS-2005>
104.147239685059

> <r_mmod_Bend_Energy-OPLS-2005>
158.117935180664

> <r_mmod_Torsional_Energy-OPLS-2005>
222.595489501953

> <r_mmod_Improper_Torsional_Energy-OPLS-2005>
4.16825151443481

> <r_mmod_Van_der_Waal_Energy-OPLS-2005>
125.787002563477

> <r_mmod_Electrostatic_Energy-OPLS-2005>
-356.173645019531

> <r_mmod_Solvation_Energy-OPLS-2005>
-212.710464477539

> <b_mmod_Minimization_Converged-OPLS-2005>
0

> <r_mmod_RMS_Derivative-OPLS-2005>
1.94684028625488

$$$$
50
                    3D
 Structure written by MMmdl.
173180  0  0  1  0            999 V2000
  -30.6549  -14.6840   20.4738 C   0  0  0  0  0  0
  -30.4295  -12.4170   19.4692 C   0  0  0  0  0  0
  -29.5107  -12.5090   18.2302 C   0  0  0  0  0  0
  -28.0333  -12.3532   18.6402 C   0  0  0  0  0  0
  -27.6502  -13.2342   19.8598 C   0  0  2  0  0  0
  -28.6982  -13.1364   20.9926 C   0  0  0  0  0  0
  -25.2535  -13.8201   20.5694 C   0  0  0  0  0  0
  -24.1821  -13.0443   20.9206 C   0  0  0  0  0  0
  -24.6412  -11.6921   20.8745 C   0  0  0  0  0  0
  -23.9084  -10.4291   21.0396 C   0  0  0  0  0  0
  -24.3624   -9.4209   21.9180 C   0  0  0  0  0  0
  -23.6292   -8.2245   22.0749 C   0  0  0  0  0  0
  -22.4285   -8.0275   21.3534 C   0  0  0  0  0  0
  -21.9918   -9.0251   20.4641 C   0  0  0  0  0  0
  -22.7257  -10.2129   20.3049 C   0  0  0  0  0  0
  -21.6852   -6.0722   22.5280 C   0  0  0  0  0  0
  -21.4012   -6.5620   23.8218 C   0  0  0  0  0  0
  -21.3666   -5.6778   24.9176 C   0  0  0  0  0  0
  -21.6044   -4.3037   24.7233 C   0  0  0  0  0  0
  -21.8825   -3.8132   23.4352 C   0  0  0  0  0  0
  -21.9189   -4.6942   22.3411 C   0  0  0  0  0  0
  -22.7838  -13.5213   21.1855 C   0  0  0  0  0  0
  -22.1659   -4.2131   21.0983 F   0  0  0  0  0  0
  -21.5631   -3.4529   25.7745 F   0  0  0  0  0  0
  -30.0073  -13.4717   20.4185 N   0  0  0  0  0  0
  -26.2983  -12.9422   20.3318 N   0  0  0  0  0  0
  -25.9349  -11.6563   20.5767 N   0  0  0  0  0  0
  -22.0468  -12.8201   22.0397 N   0  0  0  0  0  0
  -25.4233  -15.1925   20.4105 N   0  0  0  0  0  0
  -31.8284  -14.7757   20.1076 O   0  0  0  0  0  0
  -21.6639   -6.8870   21.4249 O   0  0  0  0  0  0
  -22.3529  -14.5521   20.6691 O   0  0  0  0  0  0
  -24.6288  -31.8577   23.2019 C   0  0  0  0  0  0
  -25.9136  -32.4769   23.8342 C   0  0  1  0  0  0
  -27.2142  -27.2979   20.1190 C   0  0  0  0  0  0
  -25.5964  -33.8564   24.2294 N   0  0  0  0  0  0
  -23.4225  -30.4858   21.5433 C   0  0  2  0  0  0
  -24.8700  -28.9419   20.1068 C   0  0  0  0  0  0
  -22.7477  -29.4638   22.4887 C   0  0  0  0  0  0
  -18.0311  -28.1393   22.8507 C   0  0  0  0  0  0
  -24.1480  -36.7264   23.2641 C   0  0  0  0  0  0
  -25.9646  -30.7834   21.3758 C   0  0  0  0  0  0
  -26.0391  -29.4088   20.7202 C   0  0  0  0  0  0
  -27.2175  -28.5977   20.7226 C   0  0  0  0  0  0
  -26.0263  -26.9031   19.4604 C   0  0  0  0  0  0
  -24.8659  -27.6948   19.4677 C   0  0  0  0  0  0
  -23.6379  -29.8239   20.1577 C   0  0  0  0  0  0
  -25.4105  -36.3068   24.0340 C   0  0  1  0  0  0
  -20.5902  -28.3706   23.1266 C   0  0  2  0  0  0
  -20.6768  -26.9421   22.5404 C   0  0  0  0  0  0
  -19.5733  -26.6411   21.5206 C   0  0  0  0  0  0
  -18.1927  -26.7946   22.1638 C   0  0  0  0  0  0
  -19.1557  -28.8873   23.2891 C   0  0  0  0  0  0
  -18.9475  -30.1470   23.8911 C   0  0  0  0  0  0
  -17.6464  -30.6586   24.0589 C   0  0  0  0  0  0
  -25.9048  -34.9444   23.5105 C   0  0  0  0  0  0
  -16.5364  -29.9079   23.6342 C   0  0  0  0  0  0
  -16.7296  -28.6502   23.0366 C   0  0  0  0  0  0
  -26.4522  -31.6568   25.0707 C   0  0  0  0  0  0
  -25.3772  -31.3701   26.1442 C   0  0  0  0  0  0
  -27.0347  -30.3002   24.6118 C   0  0  0  0  0  0
  -27.6068  -32.4304   25.7500 C   0  0  0  0  0  0
  -27.5561  -37.1794   24.8475 C   0  0  0  0  0  0
  -21.4190  -29.3051   22.3635 N   0  0  0  0  0  0
  -26.4268  -37.3771   23.9427 N   0  0  0  0  0  0
  -24.6908  -31.0580   22.0983 N   0  0  0  0  0  0
  -23.4203  -28.8170   23.2960 O   0  0  0  0  0  0
  -28.2830  -26.3808   20.1583 O   0  0  0  0  0  0
  -26.5583  -34.8925   22.4653 O   0  0  0  0  0  0
  -23.5449  -32.1392   23.7345 O   0  0  0  0  0  0
  -35.5537  -18.7235   25.2301 C   0  0  0  0  0  0
  -28.0409  -24.9964   20.5516 C   0  0  0  0  0  0
  -35.6578  -17.2531   25.6110 C   0  0  0  0  0  0
  -29.1288  -23.8944   20.2279 C   0  0  0  0  0  0
  -31.8435  -19.9837   23.4176 C   0  0  0  0  0  0
  -32.9223  -20.8655   24.0857 C   0  0  0  0  0  0
  -30.5123  -20.7430   23.2458 C   0  0  0  0  0  0
  -29.6817  -18.5564   20.9006 C   0  0  0  0  0  0
  -34.3648  -20.4065   23.8336 C   0  0  0  0  0  0
  -30.2836  -17.2280   20.2164 C   0  0  0  0  0  0
  -28.7479  -22.3283   20.4340 C   0  0  0  0  0  0
  -30.5618  -21.7493   22.0817 C   0  0  0  0  0  0
  -30.0639  -19.9661   20.1929 C   0  0  0  0  0  0
  -34.6044  -19.0615   24.3500 N   0  0  0  0  0  0
  -29.9189  -15.8291   20.6993 N   0  0  0  0  0  0
  -29.8944  -21.3835   20.7972 N   0  3  1  0  0  0
  -36.3312  -19.5394   25.7278 O   0  0  0  0  0  0
  -27.0107  -24.6379   21.1274 O   0  0  0  0  0  0
  -31.4755  -12.5160   19.1724 H   0  0  0  0  0  0
  -30.3468  -11.4331   19.9334 H   0  0  0  0  0  0
  -29.7781  -11.7414   17.5019 H   0  0  0  0  0  0
  -29.6583  -13.4666   17.7304 H   0  0  0  0  0  0
  -27.8712  -11.3016   18.8787 H   0  0  0  0  0  0
  -27.3816  -12.5756   17.7951 H   0  0  0  0  0  0
  -27.6540  -14.2641   19.5028 H   0  0  0  0  0  0
  -28.7184  -12.1298   21.4122 H   0  0  0  0  0  0
  -28.4505  -13.8047   21.8180 H   0  0  0  0  0  0
  -25.2778   -9.5662   22.4745 H   0  0  0  0  0  0
  -23.9992   -7.4634   22.7464 H   0  0  0  0  0  0
  -21.0849   -8.8780   19.8945 H   0  0  0  0  0  0
  -22.3732  -10.9656   19.6139 H   0  0  0  0  0  0
  -21.2010   -7.6131   23.9712 H   0  0  0  0  0  0
  -21.1479   -6.0505   25.9078 H   0  0  0  0  0  0
  -22.0597   -2.7589   23.2866 H   0  0  0  0  0  0
  -22.4076  -11.9872   22.4814 H   0  0  0  0  0  0
  -21.1071  -13.1211   22.2548 H   0  0  0  0  0  0
  -24.6568  -15.8489   20.5166 H   0  0  0  0  0  0
  -26.2674  -15.6275   20.0596 H   0  0  0  0  0  0
  -26.7185  -32.5460   23.1068 H   0  0  0  0  0  0
  -25.0162  -33.9705   25.0475 H   0  0  0  0  0  0
  -22.7181  -31.3086   21.4002 H   0  0  0  0  0  0
  -23.3742  -35.9590   23.3303 H   0  0  0  0  0  0
  -24.3569  -36.8875   22.2053 H   0  0  0  0  0  0
  -23.7227  -37.6473   23.6641 H   0  0  0  0  0  0
  -26.0927  -31.5398   20.6011 H   0  0  0  0  0  0
  -26.8463  -30.8389   22.0018 H   0  0  0  0  0  0
  -28.1110  -28.9449   21.2201 H   0  0  0  0  0  0
  -25.9758  -25.9460   18.9612 H   0  0  0  0  0  0
  -23.9731  -27.3334   18.9771 H   0  0  0  0  0  0
  -23.7580  -30.5989   19.4001 H   0  0  0  0  0  0
  -22.7578  -29.2525   19.8555 H   0  0  0  0  0  0
  -25.1285  -36.1912   25.0827 H   0  0  0  0  0  0
  -21.0049  -28.3272   24.1367 H   0  0  0  0  0  0
  -20.5651  -26.2304   23.3601 H   0  0  0  0  0  0
  -21.6628  -26.7415   22.1202 H   0  0  0  0  0  0
  -19.6864  -25.6331   21.1212 H   0  0  0  0  0  0
  -19.6661  -27.3215   20.6731 H   0  0  0  0  0  0
  -17.4198  -26.6743   21.4041 H   0  0  0  0  0  0
  -18.0331  -26.0068   22.9016 H   0  0  0  0  0  0
  -19.7941  -30.7308   24.2258 H   0  0  0  0  0  0
  -17.5017  -31.6272   24.5177 H   0  0  0  0  0  0
  -15.5362  -30.2988   23.7650 H   0  0  0  0  0  0
  -15.8708  -28.0830   22.7056 H   0  0  0  0  0  0
  -24.5992  -30.6980   25.7804 H   0  0  0  0  0  0
  -24.8916  -32.2854   26.4832 H   0  0  0  0  0  0
  -25.8163  -30.8955   27.0226 H   0  0  0  0  0  0
  -26.2897  -29.6789   24.1127 H   0  0  0  0  0  0
  -27.4036  -29.7233   25.4602 H   0  0  0  0  0  0
  -27.8778  -30.4295   23.9328 H   0  0  0  0  0  0
  -27.2663  -33.3617   26.2034 H   0  0  0  0  0  0
  -28.3927  -32.6826   25.0372 H   0  0  0  0  0  0
  -28.0647  -31.8436   26.5473 H   0  0  0  0  0  0
  -28.2589  -38.0078   24.7517 H   0  0  0  0  0  0
  -28.1057  -36.2619   24.6315 H   0  0  0  0  0  0
  -27.2288  -37.1456   25.8880 H   0  0  0  0  0  0
  -20.9341  -29.8821   21.6903 H   0  0  0  0  0  0
  -26.0150  -38.2844   24.1441 H   0  0  0  0  0  0
  -34.9828  -16.6305   25.0233 H   0  0  0  0  0  0
  -35.4137  -17.1213   26.6654 H   0  0  0  0  0  0
  -36.6759  -16.8970   25.4496 H   0  0  0  0  0  0
  -29.9840  -24.1532   20.8495 H   0  0  0  0  0  0
  -29.4655  -24.0427   19.2030 H   0  0  0  0  0  0
  -31.6821  -19.0918   24.0245 H   0  0  0  0  0  0
  -32.1956  -19.6276   22.4483 H   0  0  0  0  0  0
  -32.7291  -20.9341   25.1573 H   0  0  0  0  0  0
  -32.8484  -21.8890   23.7195 H   0  0  0  0  0  0
  -30.3329  -21.2950   24.1691 H   0  0  0  0  0  0
  -29.6408  -20.0964   23.1799 H   0  0  0  0  0  0
  -30.0526  -18.5173   21.9184 H   0  0  0  0  0  0
  -28.5957  -18.4787   20.9681 H   0  0  0  0  0  0
  -35.0493  -21.1356   24.2720 H   0  0  0  0  0  0
  -34.5689  -20.4129   22.7626 H   0  0  0  0  0  0
  -31.3703  -17.3226   20.2491 H   0  0  0  0  0  0
  -30.0300  -17.2505   19.1557 H   0  0  0  0  0  0
  -28.2732  -21.9746   19.5188 H   0  0  0  0  0  0
  -27.9853  -22.2259   21.2077 H   0  0  0  0  0  0
  -31.5897  -22.0236   21.8446 H   0  0  0  0  0  0
  -30.1135  -22.6692   22.4592 H   0  0  0  0  0  0
  -29.5993  -19.9815   19.2058 H   0  0  0  0  0  0
  -31.1328  -19.9053   19.9851 H   0  0  0  0  0  0
  -34.0141  -18.3221   23.9902 H   0  0  0  0  0  0
  -28.9662  -15.6854   21.0039 H   0  0  0  0  0  0
  -30.5638  -21.8117   20.1728 H   0  0  0  0  0  0
  1 25  1  0  0  0
  1 30  2  0  0  0
  1 85  1  0  0  0
  2  3  1  0  0  0
  2 25  1  0  0  0
  2 89  1  0  0  0
  2 90  1  0  0  0
  3  4  1  0  0  0
  3 91  1  0  0  0
  3 92  1  0  0  0
  4  5  1  0  0  0
  4 93  1  0  0  0
  4 94  1  0  0  0
  5  6  1  0  0  0
  5 26  1  0  0  0
  5 95  1  0  0  0
  6 25  1  0  0  0
  6 96  1  0  0  0
  6 97  1  0  0  0
  7  8  2  0  0  0
  7 26  1  0  0  0
  7 29  1  0  0  0
  8  9  1  0  0  0
  8 22  1  0  0  0
  9 10  1  0  0  0
  9 27  2  0  0  0
 10 11  2  0  0  0
 10 15  1  0  0  0
 11 12  1  0  0  0
 11 98  1  0  0  0
 12 13  2  0  0  0
 12 99  1  0  0  0
 13 14  1  0  0  0
 13 31  1  0  0  0
 14 15  2  0  0  0
 14100  1  0  0  0
 15101  1  0  0  0
 16 17  2  0  0  0
 16 21  1  0  0  0
 16 31  1  0  0  0
 17 18  1  0  0  0
 17102  1  0  0  0
 18 19  2  0  0  0
 18103  1  0  0  0
 19 20  1  0  0  0
 19 24  1  0  0  0
 20 21  2  0  0  0
 20104  1  0  0  0
 21 23  1  0  0  0
 22 28  1  0  0  0
 22 32  2  0  0  0
 26 27  1  0  0  0
 28105  1  0  0  0
 28106  1  0  0  0
 29107  1  0  0  0
 29108  1  0  0  0
 33 34  1  0  0  0
 33 66  1  0  0  0
 33 70  2  0  0  0
 34 36  1  0  0  0
 34 59  1  0  0  0
 34109  1  0  0  0
 35 44  2  0  0  0
 35 45  1  0  0  0
 35 68  1  0  0  0
 36 56  1  0  0  0
 36110  1  0  0  0
 37 39  1  0  0  0
 37 47  1  0  0  0
 37 66  1  0  0  0
 37111  1  0  0  0
 38 43  2  0  0  0
 38 46  1  0  0  0
 38 47  1  0  0  0
 39 64  1  0  0  0
 39 67  2  0  0  0
 40 52  1  0  0  0
 40 53  2  0  0  0
 40 58  1  0  0  0
 41112  1  0  0  0
 41113  1  0  0  0
 41114  1  0  0  0
 41 48  1  0  0  0
 42 43  1  0  0  0
 42 66  1  0  0  0
 42115  1  0  0  0
 42116  1  0  0  0
 43 44  1  0  0  0
 44117  1  0  0  0
 45 46  2  0  0  0
 45118  1  0  0  0
 46119  1  0  0  0
 47120  1  0  0  0
 47121  1  0  0  0
 48 56  1  0  0  0
 48 65  1  0  0  0
 48122  1  0  0  0
 49 50  1  0  0  0
 49 53  1  0  0  0
 49 64  1  0  0  0
 49123  1  0  0  0
 50 51  1  0  0  0
 50124  1  0  0  0
 50125  1  0  0  0
 51 52  1  0  0  0
 51126  1  0  0  0
 51127  1  0  0  0
 52128  1  0  0  0
 52129  1  0  0  0
 53 54  1  0  0  0
 54 55  2  0  0  0
 54130  1  0  0  0
 55 57  1  0  0  0
 55131  1  0  0  0
 56 69  2  0  0  0
 57 58  2  0  0  0
 57132  1  0  0  0
 58133  1  0  0  0
 59 60  1  0  0  0
 59 61  1  0  0  0
 59 62  1  0  0  0
 60134  1  0  0  0
 60135  1  0  0  0
 60136  1  0  0  0
 61137  1  0  0  0
 61138  1  0  0  0
 61139  1  0  0  0
 62140  1  0  0  0
 62141  1  0  0  0
 62142  1  0  0  0
 63 65  1  0  0  0
 63143  1  0  0  0
 63144  1  0  0  0
 63145  1  0  0  0
 64146  1  0  0  0
 65147  1  0  0  0
 68 72  1  0  0  0
 71 73  1  0  0  0
 71 84  1  0  0  0
 71 87  2  0  0  0
 72 74  1  0  0  0
 72 88  2  0  0  0
 73148  1  0  0  0
 73149  1  0  0  0
 73150  1  0  0  0
 74 81  1  0  0  0
 74151  1  0  0  0
 74152  1  0  0  0
 75 76  1  0  0  0
 75 77  1  0  0  0
 75153  1  0  0  0
 75154  1  0  0  0
 76 79  1  0  0  0
 76155  1  0  0  0
 76156  1  0  0  0
 77 82  1  0  0  0
 77157  1  0  0  0
 77158  1  0  0  0
 78 80  1  0  0  0
 78 83  1  0  0  0
 78159  1  0  0  0
 78160  1  0  0  0
 79 84  1  0  0  0
 79161  1  0  0  0
 79162  1  0  0  0
 80 85  1  0  0  0
 80163  1  0  0  0
 80164  1  0  0  0
 81165  1  0  0  0
 81166  1  0  0  0
 81 86  1  0  0  0
 82 86  1  0  0  0
 82167  1  0  0  0
 82168  1  0  0  0
 83 86  1  0  0  0
 83169  1  0  0  0
 83170  1  0  0  0
 84171  1  0  0  0
 85172  1  0  0  0
 86173  1  0  0  0
M  CHG  1  86   1
M  ISO  4   1 100  68 101  72 101  85 100
M  END
> <chiral flag>
0

> <version>
0

> <s_m_source_file>
/data/baiqing/PycharmProjects/Reinvent-master-3.2/result/LINK_invent/BTK/process_docking_weight1_custom_sum_contain_oxygen_bond_distance_aromatic_linkinvent_7_9_3/rearranged_h_0001.sdf

> <i_m_source_file_index>
51

> <r_mmod_Potential_Energy-OPLS-2005>
-13.4995107650757

> <r_mmod_Stretch_Energy-OPLS-2005>
116.81462097168

> <r_mmod_Bend_Energy-OPLS-2005>
211.971633911133

> <r_mmod_Torsional_Energy-OPLS-2005>
255.72282409668

> <r_mmod_Improper_Torsional_Energy-OPLS-2005>
6.32515239715576

> <r_mmod_Van_der_Waal_Energy-OPLS-2005>
132.402404785156

> <r_mmod_Electrostatic_Energy-OPLS-2005>
-294.46240234375

> <r_mmod_Solvation_Energy-OPLS-2005>
-507.806427001953

> <b_mmod_Minimization_Converged-OPLS-2005>
0

> <r_mmod_RMS_Derivative-OPLS-2005>
2.85369944572449

$$$$
51
                    3D
 Structure written by MMmdl.
144151  0  0  1  0            999 V2000
  -30.4369  -15.2511   20.3767 C   0  0  0  0  0  0
  -30.4407  -12.8036   19.5103 C   0  0  0  0  0  0
  -29.5321  -12.5695   18.2777 C   0  0  0  0  0  0
  -28.0806  -12.2958   18.7105 C   0  0  0  0  0  0
  -27.6107  -13.2711   19.8186 C   0  0  2  0  0  0
  -28.6480  -13.4407   20.9474 C   0  0  0  0  0  0
  -25.2393  -13.8238   20.5742 C   0  0  0  0  0  0
  -24.1743  -13.0431   20.9260 C   0  0  0  0  0  0
  -24.6395  -11.6928   20.8764 C   0  0  0  0  0  0
  -23.9090  -10.4290   21.0409 C   0  0  0  0  0  0
  -24.3635   -9.4203   21.9186 C   0  0  0  0  0  0
  -23.6303   -8.2241   22.0755 C   0  0  0  0  0  0
  -22.4284   -8.0282   21.3545 C   0  0  0  0  0  0
  -21.9926   -9.0257   20.4646 C   0  0  0  0  0  0
  -22.7261  -10.2132   20.3056 C   0  0  0  0  0  0
  -21.6855   -6.0737   22.5279 C   0  0  0  0  0  0
  -21.4016   -6.5641   23.8212 C   0  0  0  0  0  0
  -21.3660   -5.6793   24.9174 C   0  0  0  0  0  0
  -21.6044   -4.3056   24.7225 C   0  0  0  0  0  0
  -21.8819   -3.8148   23.4346 C   0  0  0  0  0  0
  -21.9193   -4.6965   22.3402 C   0  0  0  0  0  0
  -22.7761  -13.5187   21.1906 C   0  0  0  0  0  0
  -22.1661   -4.2150   21.0980 F   0  0  0  0  0  0
  -21.5628   -3.4540   25.7737 F   0  0  0  0  0  0
  -29.8748  -13.9472   20.3118 N   0  0  0  0  0  0
  -26.2814  -12.9504   20.3207 N   0  0  0  0  0  0
  -25.9329  -11.6614   20.5719 N   0  0  0  0  0  0
  -22.0419  -12.8169   22.0460 N   0  0  0  0  0  0
  -25.4019  -15.1973   20.4173 N   0  0  0  0  0  0
  -31.6652  -15.2598   20.2187 O   0  0  0  0  0  0
  -21.6644   -6.8882   21.4242 O   0  0  0  0  0  0
  -22.3441  -14.5488   20.6746 O   0  0  0  0  0  0
  -24.6622  -31.8245   23.1706 C   0  0  0  0  0  0
  -25.9306  -32.4593   23.8170 C   0  0  1  0  0  0
  -27.2187  -26.9359   20.1919 C   0  0  0  0  0  0
  -25.5976  -33.8406   24.2077 N   0  0  0  0  0  0
  -23.4761  -30.4358   21.5204 C   0  0  2  0  0  0
  -24.9283  -28.8193   20.1193 C   0  0  0  0  0  0
  -22.7660  -29.4449   22.4794 C   0  0  0  0  0  0
  -18.0321  -28.1408   22.8468 C   0  0  0  0  0  0
  -24.1493  -36.7209   23.2648 C   0  0  0  0  0  0
  -26.0446  -30.6350   21.3978 C   0  0  0  0  0  0
  -26.1136  -29.2235   20.7468 C   0  0  0  0  0  0
  -27.2569  -28.3054   20.7517 C   0  0  0  0  0  0
  -26.0019  -26.6767   19.5243 C   0  0  0  0  0  0
  -24.8966  -27.5655   19.4877 C   0  0  0  0  0  0
  -23.7155  -29.7482   20.1484 C   0  0  0  0  0  0
  -25.4134  -36.2970   24.0300 C   0  0  1  0  0  0
  -20.5944  -28.3752   23.1192 C   0  0  2  0  0  0
  -20.6798  -26.9435   22.5403 C   0  0  0  0  0  0
  -19.5772  -26.6378   21.5214 C   0  0  0  0  0  0
  -18.1954  -26.7942   22.1623 C   0  0  0  0  0  0
  -19.1582  -28.8901   23.2817 C   0  0  0  0  0  0
  -18.9493  -30.1491   23.8852 C   0  0  0  0  0  0
  -17.6486  -30.6598   24.0556 C   0  0  0  0  0  0
  -25.9098  -34.9353   23.5010 C   0  0  0  0  0  0
  -16.5376  -29.9085   23.6343 C   0  0  0  0  0  0
  -16.7303  -28.6506   23.0363 C   0  0  0  0  0  0
  -26.4559  -31.6536   25.0696 C   0  0  0  0  0  0
  -25.3687  -31.3784   26.1354 C   0  0  0  0  0  0
  -27.0455  -30.2904   24.6421 C   0  0  0  0  0  0
  -27.6050  -32.4345   25.7500 C   0  0  0  0  0  0
  -27.5569  -37.1762   24.8467 C   0  0  0  0  0  0
  -21.4331  -29.3044   22.3542 N   0  0  0  0  0  0
  -26.4280  -37.3705   23.9407 N   0  0  0  0  0  0
  -24.7491  -30.9919   22.0835 N   0  0  0  0  0  0
  -23.4211  -28.8021   23.3034 O   0  0  0  0  0  0
  -28.2432  -25.8546   20.1976 O   0  0  0  0  0  0
  -26.5710  -34.8888   22.4606 O   0  0  0  0  0  0
  -23.5694  -32.1209   23.6807 O   0  0  0  0  0  0
  -29.9032  -18.1505   20.6487 C   0  0  0  0  0  0
  -29.0916  -19.6523   20.0641 C   0  0  0  0  0  0
  -28.0410  -24.2465   20.5108 C   0  0  0  0  0  0
  -28.7182  -22.6665   19.9472 C   0  0  0  0  0  0
  -29.6593  -16.5123   20.4191 N   0  0  0  0  0  0
  -28.9892  -21.1936   20.6301 O   0  0  0  0  0  0
  -31.4561  -13.0183   19.1742 H   0  0  0  0  0  0
  -30.5160  -11.9000   20.1175 H   0  0  0  0  0  0
  -29.9090  -11.7401   17.6776 H   0  0  0  0  0  0
  -29.5601  -13.4510   17.6352 H   0  0  0  0  0  0
  -28.0368  -11.2719   19.0838 H   0  0  0  0  0  0
  -27.4101  -12.3372   17.8514 H   0  0  0  0  0  0
  -27.5259  -14.2383   19.3215 H   0  0  0  0  0  0
  -28.8185  -12.5046   21.4812 H   0  0  0  0  0  0
  -28.2924  -14.1615   21.6855 H   0  0  0  0  0  0
  -25.2776   -9.5679   22.4767 H   0  0  0  0  0  0
  -24.0007   -7.4633   22.7477 H   0  0  0  0  0  0
  -21.0856   -8.8780   19.8952 H   0  0  0  0  0  0
  -22.3719  -10.9674   19.6169 H   0  0  0  0  0  0
  -21.2009   -7.6149   23.9716 H   0  0  0  0  0  0
  -21.1482   -6.0524   25.9077 H   0  0  0  0  0  0
  -22.0597   -2.7610   23.2846 H   0  0  0  0  0  0
  -22.4051  -11.9839   22.4851 H   0  0  0  0  0  0
  -21.1031  -13.1176   22.2665 H   0  0  0  0  0  0
  -24.6298  -15.8453   20.5309 H   0  0  0  0  0  0
  -26.2396  -15.6403   20.0642 H   0  0  0  0  0  0
  -26.7377  -32.5137   23.0887 H   0  0  0  0  0  0
  -25.0070  -33.9485   25.0192 H   0  0  0  0  0  0
  -22.7891  -31.2670   21.3485 H   0  0  0  0  0  0
  -23.3765  -35.9530   23.3283 H   0  0  0  0  0  0
  -24.3569  -36.8881   22.2067 H   0  0  0  0  0  0
  -23.7242  -37.6387   23.6720 H   0  0  0  0  0  0
  -26.2213  -31.3747   20.6158 H   0  0  0  0  0  0
  -26.9062  -30.6947   22.0510 H   0  0  0  0  0  0
  -28.1614  -28.6200   21.2530 H   0  0  0  0  0  0
  -25.8841  -25.7202   19.0350 H   0  0  0  0  0  0
  -23.9962  -27.2498   18.9788 H   0  0  0  0  0  0
  -23.8728  -30.5146   19.3885 H   0  0  0  0  0  0
  -22.8250  -29.2028   19.8311 H   0  0  0  0  0  0
  -25.1332  -36.1767   25.0791 H   0  0  0  0  0  0
  -21.0032  -28.3358   24.1316 H   0  0  0  0  0  0
  -20.5680  -26.2370   23.3642 H   0  0  0  0  0  0
  -21.6662  -26.7414   22.1208 H   0  0  0  0  0  0
  -19.6931  -25.6277   21.1274 H   0  0  0  0  0  0
  -19.6710  -27.3164   20.6724 H   0  0  0  0  0  0
  -17.4222  -26.6685   21.4027 H   0  0  0  0  0  0
  -18.0350  -26.0095   22.9030 H   0  0  0  0  0  0
  -19.7968  -30.7320   24.2201 H   0  0  0  0  0  0
  -17.5037  -31.6274   24.5166 H   0  0  0  0  0  0
  -15.5375  -30.2973   23.7693 H   0  0  0  0  0  0
  -15.8704  -28.0808   22.7105 H   0  0  0  0  0  0
  -24.5885  -30.7117   25.7664 H   0  0  0  0  0  0
  -24.8859  -32.2984   26.4657 H   0  0  0  0  0  0
  -25.7920  -30.9033   27.0213 H   0  0  0  0  0  0
  -26.3120  -29.6580   24.1408 H   0  0  0  0  0  0
  -27.3971  -29.7268   25.5074 H   0  0  0  0  0  0
  -27.9066  -30.4088   23.9841 H   0  0  0  0  0  0
  -27.2619  -33.3690   26.1952 H   0  0  0  0  0  0
  -28.3927  -32.6835   25.0377 H   0  0  0  0  0  0
  -28.0645  -31.8555   26.5522 H   0  0  0  0  0  0
  -28.2572  -38.0071   24.7508 H   0  0  0  0  0  0
  -28.1079  -36.2597   24.6302 H   0  0  0  0  0  0
  -27.2284  -37.1414   25.8869 H   0  0  0  0  0  0
  -20.9586  -29.8729   21.6666 H   0  0  0  0  0  0
  -26.0128  -38.2764   24.1412 H   0  0  0  0  0  0
  -29.8343  -18.2328   21.7336 H   0  0  0  0  0  0
  -30.9655  -18.2990   20.4516 H   0  0  0  0  0  0
  -28.0459  -19.3727   19.9349 H   0  0  0  0  0  0
  -29.4521  -19.7769   19.0427 H   0  0  0  0  0  0
  -28.2693  -24.2286   21.5764 H   0  0  0  0  0  0
  -26.9610  -24.1021   20.4918 H   0  0  0  0  0  0
  -29.7032  -22.9230   19.5574 H   0  0  0  0  0  0
  -28.1449  -22.4326   19.0499 H   0  0  0  0  0  0
  -28.6725  -16.2975   20.4101 H   0  0  0  0  0  0
  1 25  1  0  0  0
  1 30  2  0  0  0
  1 75  1  0  0  0
  2  3  1  0  0  0
  2 25  1  0  0  0
  2 77  1  0  0  0
  2 78  1  0  0  0
  3  4  1  0  0  0
  3 79  1  0  0  0
  3 80  1  0  0  0
  4  5  1  0  0  0
  4 81  1  0  0  0
  4 82  1  0  0  0
  5  6  1  0  0  0
  5 26  1  0  0  0
  5 83  1  0  0  0
  6 25  1  0  0  0
  6 84  1  0  0  0
  6 85  1  0  0  0
  7  8  2  0  0  0
  7 26  1  0  0  0
  7 29  1  0  0  0
  8  9  1  0  0  0
  8 22  1  0  0  0
  9 10  1  0  0  0
  9 27  2  0  0  0
 10 11  2  0  0  0
 10 15  1  0  0  0
 11 12  1  0  0  0
 11 86  1  0  0  0
 12 13  2  0  0  0
 12 87  1  0  0  0
 13 14  1  0  0  0
 13 31  1  0  0  0
 14 15  2  0  0  0
 14 88  1  0  0  0
 15 89  1  0  0  0
 16 17  2  0  0  0
 16 21  1  0  0  0
 16 31  1  0  0  0
 17 18  1  0  0  0
 17 90  1  0  0  0
 18 19  2  0  0  0
 18 91  1  0  0  0
 19 20  1  0  0  0
 19 24  1  0  0  0
 20 21  2  0  0  0
 20 92  1  0  0  0
 21 23  1  0  0  0
 22 28  1  0  0  0
 22 32  2  0  0  0
 26 27  1  0  0  0
 28 93  1  0  0  0
 28 94  1  0  0  0
 29 95  1  0  0  0
 29 96  1  0  0  0
 33 34  1  0  0  0
 33 66  1  0  0  0
 33 70  2  0  0  0
 34 36  1  0  0  0
 34 59  1  0  0  0
 34 97  1  0  0  0
 35 44  2  0  0  0
 35 45  1  0  0  0
 35 68  1  0  0  0
 36 56  1  0  0  0
 36 98  1  0  0  0
 37 39  1  0  0  0
 37 47  1  0  0  0
 37 66  1  0  0  0
 37 99  1  0  0  0
 38 43  2  0  0  0
 38 46  1  0  0  0
 38 47  1  0  0  0
 39 64  1  0  0  0
 39 67  2  0  0  0
 40 52  1  0  0  0
 40 53  2  0  0  0
 40 58  1  0  0  0
 41100  1  0  0  0
 41101  1  0  0  0
 41102  1  0  0  0
 41 48  1  0  0  0
 42 43  1  0  0  0
 42 66  1  0  0  0
 42103  1  0  0  0
 42104  1  0  0  0
 43 44  1  0  0  0
 44105  1  0  0  0
 45 46  2  0  0  0
 45106  1  0  0  0
 46107  1  0  0  0
 47108  1  0  0  0
 47109  1  0  0  0
 48 56  1  0  0  0
 48 65  1  0  0  0
 48110  1  0  0  0
 49 50  1  0  0  0
 49 53  1  0  0  0
 49 64  1  0  0  0
 49111  1  0  0  0
 50 51  1  0  0  0
 50112  1  0  0  0
 50113  1  0  0  0
 51 52  1  0  0  0
 51114  1  0  0  0
 51115  1  0  0  0
 52116  1  0  0  0
 52117  1  0  0  0
 53 54  1  0  0  0
 54 55  2  0  0  0
 54118  1  0  0  0
 55 57  1  0  0  0
 55119  1  0  0  0
 56 69  2  0  0  0
 57 58  2  0  0  0
 57120  1  0  0  0
 58121  1  0  0  0
 59 60  1  0  0  0
 59 61  1  0  0  0
 59 62  1  0  0  0
 60122  1  0  0  0
 60123  1  0  0  0
 60124  1  0  0  0
 61125  1  0  0  0
 61126  1  0  0  0
 61127  1  0  0  0
 62128  1  0  0  0
 62129  1  0  0  0
 62130  1  0  0  0
 63 65  1  0  0  0
 63131  1  0  0  0
 63132  1  0  0  0
 63133  1  0  0  0
 64134  1  0  0  0
 65135  1  0  0  0
 68 73  1  0  0  0
 71 72  1  0  0  0
 71 75  1  0  0  0
 71136  1  0  0  0
 71137  1  0  0  0
 72 76  1  0  0  0
 72138  1  0  0  0
 72139  1  0  0  0
 73 74  1  0  0  0
 73140  1  0  0  0
 73141  1  0  0  0
 74 76  1  0  0  0
 74142  1  0  0  0
 74143  1  0  0  0
 75144  1  0  0  0
M  ISO  4   1 100  68 101  73 101  75 100
M  END
> <chiral flag>
0

> <version>
0

> <s_m_source_file>
/data/baiqing/PycharmProjects/Reinvent-master-3.2/result/LINK_invent/BTK/process_docking_weight1_custom_sum_contain_oxygen_bond_distance_aromatic_linkinvent_7_9_3/rearranged_h_0001.sdf

> <i_m_source_file_index>
52

> <r_mmod_Potential_Energy-OPLS-2005>
1272.39196777344

> <r_mmod_Stretch_Energy-OPLS-2005>
620.559265136719

> <r_mmod_Bend_Energy-OPLS-2005>
470.408538818359

> <r_mmod_Torsional_Energy-OPLS-2005>
228.680725097656

> <r_mmod_Improper_Torsional_Energy-OPLS-2005>
4.08042764663696

> <r_mmod_Van_der_Waal_Energy-OPLS-2005>
109.728851318359

> <r_mmod_Electrostatic_Energy-OPLS-2005>
-380.777038574219

> <r_mmod_Solvation_Energy-OPLS-2005>
-221.878372192383

> <b_mmod_Minimization_Converged-OPLS-2005>
0

> <r_mmod_RMS_Derivative-OPLS-2005>
0.0835052877664566

$$$$
52
                    3D
 Structure written by MMmdl.
137144  0  0  1  0            999 V2000
  -29.9622  -16.5635   20.2664 C   0  0  0  0  0  0
  -30.3146  -13.7964   19.5233 C   0  0  0  0  0  0
  -29.5702  -12.9451   18.4142 C   0  0  0  0  0  0
  -28.2376  -12.3814   18.9086 C   0  0  0  0  0  0
  -27.5746  -13.4257   19.8177 C   0  0  2  0  0  0
  -28.5152  -14.1357   20.8613 C   0  0  0  0  0  0
  -25.2174  -13.8479   20.5951 C   0  0  0  0  0  0
  -24.1675  -13.0467   20.9341 C   0  0  0  0  0  0
  -24.6541  -11.7031   20.8745 C   0  0  0  0  0  0
  -23.9255  -10.4321   21.0342 C   0  0  0  0  0  0
  -24.3739   -9.4228   21.9149 C   0  0  0  0  0  0
  -23.6364   -8.2283   22.0747 C   0  0  0  0  0  0
  -22.4340   -8.0323   21.3544 C   0  0  0  0  0  0
  -22.0014   -9.0304   20.4634 C   0  0  0  0  0  0
  -22.7395  -10.2158   20.3018 C   0  0  0  0  0  0
  -21.6878   -6.0765   22.5277 C   0  0  0  0  0  0
  -21.4033   -6.5657   23.8214 C   0  0  0  0  0  0
  -21.3665   -5.6802   24.9171 C   0  0  0  0  0  0
  -21.6043   -4.3064   24.7217 C   0  0  0  0  0  0
  -21.8816   -3.8163   23.4335 C   0  0  0  0  0  0
  -21.9200   -4.6987   22.3396 C   0  0  0  0  0  0
  -22.7650  -13.5092   21.1938 C   0  0  0  0  0  0
  -22.1663   -4.2170   21.0973 F   0  0  0  0  0  0
  -21.5624   -3.4543   25.7727 F   0  0  0  0  0  0
  -29.5188  -15.0444   20.1465 N   0  0  0  0  0  0
  -26.2805  -13.0063   20.3476 N   0  0  0  0  0  0
  -25.9548  -11.6990   20.5678 N   0  0  0  0  0  0
  -22.0351  -12.8040   22.0489 N   0  0  0  0  0  0
  -25.3555  -15.2242   20.4383 N   0  0  0  0  0  0
  -31.2063  -16.3142   20.2293 O   0  0  0  0  0  0
  -21.6677   -6.8928   21.4248 O   0  0  0  0  0  0
  -22.3283  -14.5375   20.6771 O   0  0  0  0  0  0
  -24.7449  -31.7216   23.0979 C   0  0  0  0  0  0
  -25.9712  -32.4091   23.7768 C   0  0  1  0  0  0
  -27.2626  -26.0606   20.2671 C   0  0  0  0  0  0
  -25.6018  -33.7953   24.1581 N   0  0  0  0  0  0
  -23.5996  -30.2922   21.4680 C   0  0  2  0  0  0
  -25.0624  -28.4936   20.1392 C   0  0  0  0  0  0
  -22.8035  -29.3895   22.4550 C   0  0  0  0  0  0
  -18.0376  -28.1454   22.8421 C   0  0  0  0  0  0
  -24.1496  -36.6992   23.2671 C   0  0  0  0  0  0
  -26.1999  -30.2411   21.4589 C   0  0  0  0  0  0
  -26.2597  -28.7329   20.8212 C   0  0  0  0  0  0
  -27.3097  -27.5690   20.8335 C   0  0  0  0  0  0
  -26.0272  -26.1946   19.5192 C   0  0  0  0  0  0
  -25.0234  -27.2541   19.4619 C   0  0  0  0  0  0
  -23.8874  -29.5253   20.1333 C   0  0  0  0  0  0
  -25.4170  -36.2677   24.0236 C   0  0  1  0  0  0
  -20.6038  -28.3836   23.1031 C   0  0  2  0  0  0
  -20.6806  -26.9436   22.5420 C   0  0  0  0  0  0
  -19.5796  -26.6348   21.5224 C   0  0  0  0  0  0
  -18.1977  -26.7969   22.1607 C   0  0  0  0  0  0
  -19.1657  -28.8984   23.2686 C   0  0  0  0  0  0
  -18.9553  -30.1552   23.8759 C   0  0  0  0  0  0
  -17.6536  -30.6619   24.0537 C   0  0  0  0  0  0
  -25.9187  -34.9084   23.4798 C   0  0  0  0  0  0
  -16.5422  -29.9090   23.6366 C   0  0  0  0  0  0
  -16.7352  -28.6518   23.0376 C   0  0  0  0  0  0
  -26.4693  -31.6408   25.0652 C   0  0  0  0  0  0
  -25.3596  -31.3898   26.1149 C   0  0  0  0  0  0
  -27.0730  -30.2690   24.7003 C   0  0  0  0  0  0
  -27.6017  -32.4426   25.7501 C   0  0  0  0  0  0
  -27.5543  -37.1648   24.8466 C   0  0  0  0  0  0
  -21.4628  -29.2949   22.3282 N   0  0  0  0  0  0
  -26.4242  -37.3509   23.9408 N   0  0  0  0  0  0
  -24.8802  -30.8007   22.0600 N   0  0  0  0  0  0
  -23.4175  -28.7613   23.3197 O   0  0  0  0  0  0
  -28.1668  -24.5661   20.3212 O   0  0  0  0  0  0
  -26.5925  -34.8791   22.4483 O   0  0  0  0  0  0
  -23.6336  -32.0588   23.5524 O   0  0  0  0  0  0
  -29.2006  -20.3375   20.3201 C   0  0  0  0  0  0
  -28.2004  -22.4649   20.2188 C   0  0  0  0  0  0
  -29.3170  -18.2279   20.2702 N   0  0  0  0  0  0
  -31.2155  -14.1817   19.0448 H   0  0  0  0  0  0
  -30.7050  -13.1434   20.3066 H   0  0  0  0  0  0
  -30.2109  -12.1390   18.0541 H   0  0  0  0  0  0
  -29.3823  -13.5901   17.5547 H   0  0  0  0  0  0
  -28.4305  -11.4738   19.4819 H   0  0  0  0  0  0
  -27.5913  -12.1016   18.0755 H   0  0  0  0  0  0
  -27.3204  -14.2160   19.1091 H   0  0  0  0  0  0
  -28.9720  -13.4238   21.5512 H   0  0  0  0  0  0
  -27.9168  -14.7884   21.4973 H   0  0  0  0  0  0
  -25.2871   -9.5690   22.4748 H   0  0  0  0  0  0
  -24.0047   -7.4683   22.7489 H   0  0  0  0  0  0
  -21.0938   -8.8851   19.8945 H   0  0  0  0  0  0
  -22.3854  -10.9697   19.6127 H   0  0  0  0  0  0
  -21.2035   -7.6165   23.9725 H   0  0  0  0  0  0
  -21.1486   -6.0529   25.9075 H   0  0  0  0  0  0
  -22.0587   -2.7625   23.2829 H   0  0  0  0  0  0
  -22.4039  -11.9742   22.4895 H   0  0  0  0  0  0
  -21.0937  -13.0980   22.2674 H   0  0  0  0  0  0
  -24.5768  -15.8638   20.5540 H   0  0  0  0  0  0
  -26.2060  -15.6839   20.1380 H   0  0  0  0  0  0
  -26.7876  -32.4443   23.0543 H   0  0  0  0  0  0
  -24.9961  -33.8879   24.9601 H   0  0  0  0  0  0
  -22.9629  -31.1444   21.2211 H   0  0  0  0  0  0
  -23.3792  -35.9283   23.3224 H   0  0  0  0  0  0
  -24.3542  -36.8804   22.2107 H   0  0  0  0  0  0
  -23.7229  -37.6104   23.6874 H   0  0  0  0  0  0
  -26.4659  -30.9211   20.6487 H   0  0  0  0  0  0
  -27.0298  -30.3291   22.1459 H   0  0  0  0  0  0
  -28.1985  -27.7908   21.4071 H   0  0  0  0  0  0
  -25.7596  -25.3099   18.9588 H   0  0  0  0  0  0
  -24.1415  -27.0455   18.8719 H   0  0  0  0  0  0
  -24.1127  -30.2559   19.3556 H   0  0  0  0  0  0
  -22.9802  -29.0216   19.7958 H   0  0  0  0  0  0
  -25.1411  -36.1346   25.0723 H   0  0  0  0  0  0
  -21.0093  -28.3507   24.1170 H   0  0  0  0  0  0
  -20.5606  -26.2478   23.3738 H   0  0  0  0  0  0
  -21.6663  -26.7276   22.1281 H   0  0  0  0  0  0
  -19.6940  -25.6222   21.1342 H   0  0  0  0  0  0
  -19.6763  -27.3084   20.6699 H   0  0  0  0  0  0
  -17.4253  -26.6718   21.4002 H   0  0  0  0  0  0
  -18.0338  -26.0144   22.9029 H   0  0  0  0  0  0
  -19.8031  -30.7398   24.2071 H   0  0  0  0  0  0
  -17.5087  -31.6284   24.5168 H   0  0  0  0  0  0
  -15.5417  -30.2952   23.7771 H   0  0  0  0  0  0
  -15.8752  -28.0794   22.7169 H   0  0  0  0  0  0
  -24.5845  -30.7190   25.7424 H   0  0  0  0  0  0
  -24.8725  -32.3171   26.4173 H   0  0  0  0  0  0
  -25.7627  -30.9316   27.0189 H   0  0  0  0  0  0
  -26.3552  -29.6093   24.2123 H   0  0  0  0  0  0
  -27.4038  -29.7408   25.5956 H   0  0  0  0  0  0
  -27.9570  -30.3690   24.0706 H   0  0  0  0  0  0
  -27.2476  -33.3875   26.1635 H   0  0  0  0  0  0
  -28.4042  -32.6752   25.0488 H   0  0  0  0  0  0
  -28.0450  -31.8868   26.5774 H   0  0  0  0  0  0
  -28.2488  -38.0006   24.7515 H   0  0  0  0  0  0
  -28.1107  -36.2518   24.6291 H   0  0  0  0  0  0
  -27.2256  -37.1265   25.8866 H   0  0  0  0  0  0
  -21.0089  -29.8498   21.6159 H   0  0  0  0  0  0
  -26.0011  -38.2526   24.1435 H   0  0  0  0  0  0
  -30.0015  -20.5173   19.6027 H   0  0  0  0  0  0
  -29.6902  -20.4553   21.2869 H   0  0  0  0  0  0
  -27.7199  -22.3753   19.2446 H   0  0  0  0  0  0
  -27.3860  -22.2933   20.9225 H   0  0  0  0  0  0
  -30.3181  -18.3884   20.2986 H   0  0  0  0  0  0
  1 25  1  0  0  0
  1 30  2  0  0  0
  1 73  1  0  0  0
  2  3  1  0  0  0
  2 25  1  0  0  0
  2 74  1  0  0  0
  2 75  1  0  0  0
  3  4  1  0  0  0
  3 76  1  0  0  0
  3 77  1  0  0  0
  4  5  1  0  0  0
  4 78  1  0  0  0
  4 79  1  0  0  0
  5  6  1  0  0  0
  5 26  1  0  0  0
  5 80  1  0  0  0
  6 25  1  0  0  0
  6 81  1  0  0  0
  6 82  1  0  0  0
  7  8  2  0  0  0
  7 26  1  0  0  0
  7 29  1  0  0  0
  8  9  1  0  0  0
  8 22  1  0  0  0
  9 10  1  0  0  0
  9 27  2  0  0  0
 10 11  2  0  0  0
 10 15  1  0  0  0
 11 12  1  0  0  0
 11 83  1  0  0  0
 12 13  2  0  0  0
 12 84  1  0  0  0
 13 14  1  0  0  0
 13 31  1  0  0  0
 14 15  2  0  0  0
 14 85  1  0  0  0
 15 86  1  0  0  0
 16 17  2  0  0  0
 16 21  1  0  0  0
 16 31  1  0  0  0
 17 18  1  0  0  0
 17 87  1  0  0  0
 18 19  2  0  0  0
 18 88  1  0  0  0
 19 20  1  0  0  0
 19 24  1  0  0  0
 20 21  2  0  0  0
 20 89  1  0  0  0
 21 23  1  0  0  0
 22 28  1  0  0  0
 22 32  2  0  0  0
 26 27  1  0  0  0
 28 90  1  0  0  0
 28 91  1  0  0  0
 29 92  1  0  0  0
 29 93  1  0  0  0
 33 34  1  0  0  0
 33 66  1  0  0  0
 33 70  2  0  0  0
 34 36  1  0  0  0
 34 59  1  0  0  0
 34 94  1  0  0  0
 35 44  2  0  0  0
 35 45  1  0  0  0
 35 68  1  0  0  0
 36 56  1  0  0  0
 36 95  1  0  0  0
 37 39  1  0  0  0
 37 47  1  0  0  0
 37 66  1  0  0  0
 37 96  1  0  0  0
 38 43  2  0  0  0
 38 46  1  0  0  0
 38 47  1  0  0  0
 39 64  1  0  0  0
 39 67  2  0  0  0
 40 52  1  0  0  0
 40 53  2  0  0  0
 40 58  1  0  0  0
 41 97  1  0  0  0
 41 98  1  0  0  0
 41 99  1  0  0  0
 41 48  1  0  0  0
 42 43  1  0  0  0
 42 66  1  0  0  0
 42100  1  0  0  0
 42101  1  0  0  0
 43 44  1  0  0  0
 44102  1  0  0  0
 45 46  2  0  0  0
 45103  1  0  0  0
 46104  1  0  0  0
 47105  1  0  0  0
 47106  1  0  0  0
 48 56  1  0  0  0
 48 65  1  0  0  0
 48107  1  0  0  0
 49 50  1  0  0  0
 49 53  1  0  0  0
 49 64  1  0  0  0
 49108  1  0  0  0
 50 51  1  0  0  0
 50109  1  0  0  0
 50110  1  0  0  0
 51 52  1  0  0  0
 51111  1  0  0  0
 51112  1  0  0  0
 52113  1  0  0  0
 52114  1  0  0  0
 53 54  1  0  0  0
 54 55  2  0  0  0
 54115  1  0  0  0
 55 57  1  0  0  0
 55116  1  0  0  0
 56 69  2  0  0  0
 57 58  2  0  0  0
 57117  1  0  0  0
 58118  1  0  0  0
 59 60  1  0  0  0
 59 61  1  0  0  0
 59 62  1  0  0  0
 60119  1  0  0  0
 60120  1  0  0  0
 60121  1  0  0  0
 61122  1  0  0  0
 61123  1  0  0  0
 61124  1  0  0  0
 62125  1  0  0  0
 62126  1  0  0  0
 62127  1  0  0  0
 63 65  1  0  0  0
 63128  1  0  0  0
 63129  1  0  0  0
 63130  1  0  0  0
 64131  1  0  0  0
 65132  1  0  0  0
 68 72  1  0  0  0
 71 72  1  0  0  0
 71 73  1  0  0  0
 71133  1  0  0  0
 71134  1  0  0  0
 72135  1  0  0  0
 72136  1  0  0  0
 73137  1  0  0  0
M  ISO  4   1 100  68 101  72 101  73 100
M  END
> <chiral flag>
0

> <version>
0

> <s_m_source_file>
/data/baiqing/PycharmProjects/Reinvent-master-3.2/result/LINK_invent/BTK/process_docking_weight1_custom_sum_contain_oxygen_bond_distance_aromatic_linkinvent_7_9_3/rearranged_h_0001.sdf

> <i_m_source_file_index>
53

> <r_mmod_Potential_Energy-OPLS-2005>
6948.9697265625

> <r_mmod_Stretch_Energy-OPLS-2005>
3136.46411132812

> <r_mmod_Bend_Energy-OPLS-2005>
1268.50207519531

> <r_mmod_Torsional_Energy-OPLS-2005>
217.324829101562

> <r_mmod_Improper_Torsional_Energy-OPLS-2005>
4.82364273071289

> <r_mmod_Van_der_Waal_Energy-OPLS-2005>
120.95548248291

> <r_mmod_Electrostatic_Energy-OPLS-2005>
-391.247985839844

> <r_mmod_Solvation_Energy-OPLS-2005>
-221.174652099609

> <b_mmod_Minimization_Converged-OPLS-2005>
1

> <r_mmod_RMS_Derivative-OPLS-2005>
0.042349461466074

$$$$
53
                    3D
 Structure written by MMmdl.
159166  0  0  1  0            999 V2000
  -30.7505  -14.3795   20.6543 C   0  0  0  0  0  0
  -30.4176  -12.2788   19.4154 C   0  0  0  0  0  0
  -29.4999  -12.5227   18.2024 C   0  0  0  0  0  0
  -28.0166  -12.3912   18.6058 C   0  0  0  0  0  0
  -27.6673  -13.2068   19.8796 C   0  0  2  0  0  0
  -28.6997  -12.9549   21.0015 C   0  0  0  0  0  0
  -25.2610  -13.8169   20.5649 C   0  0  0  0  0  0
  -24.1845  -13.0464   20.9122 C   0  0  0  0  0  0
  -24.6384  -11.6924   20.8684 C   0  0  0  0  0  0
  -23.9049  -10.4310   21.0387 C   0  0  0  0  0  0
  -24.3613   -9.4237   21.9170 C   0  0  0  0  0  0
  -23.6278   -8.2276   22.0751 C   0  0  0  0  0  0
  -22.4260   -8.0296   21.3541 C   0  0  0  0  0  0
  -21.9892   -9.0270   20.4648 C   0  0  0  0  0  0
  -22.7220  -10.2142   20.3050 C   0  0  0  0  0  0
  -21.6864   -6.0734   22.5280 C   0  0  0  0  0  0
  -21.4027   -6.5642   23.8215 C   0  0  0  0  0  0
  -21.3656   -5.6789   24.9177 C   0  0  0  0  0  0
  -21.6037   -4.3050   24.7224 C   0  0  0  0  0  0
  -21.8822   -3.8140   23.4346 C   0  0  0  0  0  0
  -21.9191   -4.6957   22.3402 C   0  0  0  0  0  0
  -22.7880  -13.5282   21.1800 C   0  0  0  0  0  0
  -22.1660   -4.2141   21.0981 F   0  0  0  0  0  0
  -21.5627   -3.4537   25.7741 F   0  0  0  0  0  0
  -30.0442  -13.2380   20.4653 N   0  0  0  0  0  0
  -26.3041  -12.9338   20.3336 N   0  0  0  0  0  0
  -25.9305  -11.6490   20.5712 N   0  0  0  0  0  0
  -22.0495  -12.8288   22.0362 N   0  0  0  0  0  0
  -25.4361  -15.1885   20.4108 N   0  0  0  0  0  0
  -31.8032  -14.6347   20.0597 O   0  0  0  0  0  0
  -21.6639   -6.8878   21.4241 O   0  0  0  0  0  0
  -22.3580  -14.5590   20.6645 O   0  0  0  0  0  0
  -24.6117  -31.8711   23.2088 C   0  0  0  0  0  0
  -25.9028  -32.4833   23.8377 C   0  0  1  0  0  0
  -27.2276  -27.4680   20.0959 C   0  0  0  0  0  0
  -25.5894  -33.8622   24.2320 N   0  0  0  0  0  0
  -23.3942  -30.4926   21.5500 C   0  0  2  0  0  0
  -24.8400  -28.9606   20.1102 C   0  0  0  0  0  0
  -22.7366  -29.4681   22.5019 C   0  0  0  0  0  0
  -18.0248  -28.1366   22.8484 C   0  0  0  0  0  0
  -24.1486  -36.7333   23.2626 C   0  0  0  0  0  0
  -25.9151  -30.8531   21.3459 C   0  0  0  0  0  0
  -25.9956  -29.4846   20.7053 C   0  0  0  0  0  0
  -27.1934  -28.7418   20.7063 C   0  0  0  0  0  0
  -26.0683  -26.9578   19.4826 C   0  0  0  0  0  0
  -24.8680  -27.6943   19.5006 C   0  0  0  0  0  0
  -23.5958  -29.8184   20.1652 C   0  0  0  0  0  0
  -25.4104  -36.3119   24.0332 C   0  0  1  0  0  0
  -20.5828  -28.3681   23.1347 C   0  0  2  0  0  0
  -20.6755  -26.9418   22.5457 C   0  0  0  0  0  0
  -19.5754  -26.6375   21.5241 C   0  0  0  0  0  0
  -18.1926  -26.7906   22.1637 C   0  0  0  0  0  0
  -19.1487  -28.8836   23.2906 C   0  0  0  0  0  0
  -18.9415  -30.1443   23.8917 C   0  0  0  0  0  0
  -17.6417  -30.6590   24.0546 C   0  0  0  0  0  0
  -25.9038  -34.9482   23.5129 C   0  0  0  0  0  0
  -16.5314  -29.9076   23.6312 C   0  0  0  0  0  0
  -16.7236  -28.6486   23.0347 C   0  0  0  0  0  0
  -26.4466  -31.6595   25.0674 C   0  0  0  0  0  0
  -25.3729  -31.3714   26.1425 C   0  0  0  0  0  0
  -27.0269  -30.3047   24.5971 C   0  0  0  0  0  0
  -27.6060  -32.4280   25.7442 C   0  0  0  0  0  0
  -27.5574  -37.1811   24.8455 C   0  0  0  0  0  0
  -21.4102  -29.3034   22.3747 N   0  0  0  0  0  0
  -26.4290  -37.3800   23.9397 N   0  0  0  0  0  0
  -24.6592  -31.0850   22.0952 N   0  0  0  0  0  0
  -23.4149  -28.8231   23.3060 O   0  0  0  0  0  0
  -28.3614  -26.6986   20.1034 O   0  0  0  0  0  0
  -26.5613  -34.8926   22.4692 O   0  0  0  0  0  0
  -23.5335  -32.1447   23.7529 O   0  0  0  0  0  0
  -28.1873  -21.6836   20.8607 C   0  0  0  0  0  0
  -27.8938  -20.2313   21.2533 C   0  0  0  0  0  0
  -29.1529  -19.4105   21.5871 C   0  0  0  0  0  0
  -28.7973  -18.0626   22.2500 C   0  0  0  0  0  0
  -30.0017  -17.3281   22.8724 C   0  0  0  0  0  0
  -28.9705  -24.8270   21.5405 C   0  0  0  0  0  0
  -30.8529  -16.5211   21.8776 C   0  0  0  0  0  0
  -27.6379  -24.0618   21.4184 C   0  0  0  0  0  0
  -28.8121  -26.3529   21.4146 C   0  0  0  0  0  0
  -27.7598  -22.6316   21.7045 N   0  0  0  0  0  0
  -30.2316  -15.2439   21.5338 N   0  0  0  0  0  0
  -28.7439  -21.9388   19.7922 O   0  0  0  0  0  0
  -31.4690  -12.3547   19.1295 H   0  0  0  0  0  0
  -30.2917  -11.2607   19.7862 H   0  0  0  0  0  0
  -29.7364  -11.8222   17.4012 H   0  0  0  0  0  0
  -29.6891  -13.5192   17.8018 H   0  0  0  0  0  0
  -27.8026  -11.3335   18.7656 H   0  0  0  0  0  0
  -27.3824  -12.7062   17.7771 H   0  0  0  0  0  0
  -27.7246  -14.2618   19.6092 H   0  0  0  0  0  0
  -28.6560  -11.9181   21.3363 H   0  0  0  0  0  0
  -28.4461  -13.5452   21.8821 H   0  0  0  0  0  0
  -25.2768   -9.5721   22.4727 H   0  0  0  0  0  0
  -23.9985   -7.4691   22.7490 H   0  0  0  0  0  0
  -21.0812   -8.8801   19.8962 H   0  0  0  0  0  0
  -22.3686  -10.9680   19.6156 H   0  0  0  0  0  0
  -21.2041   -7.6154   23.9724 H   0  0  0  0  0  0
  -21.1465   -6.0514   25.9076 H   0  0  0  0  0  0
  -22.0590   -2.7596   23.2857 H   0  0  0  0  0  0
  -22.4083  -11.9963   22.4788 H   0  0  0  0  0  0
  -21.1124  -13.1356   22.2563 H   0  0  0  0  0  0
  -24.6755  -15.8487   20.5312 H   0  0  0  0  0  0
  -26.3016  -15.6249   20.1187 H   0  0  0  0  0  0
  -26.7088  -32.5550   23.1152 H   0  0  0  0  0  0
  -25.0000  -33.9793   25.0435 H   0  0  0  0  0  0
  -22.6802  -31.3074   21.4113 H   0  0  0  0  0  0
  -23.3733  -35.9682   23.3310 H   0  0  0  0  0  0
  -24.3572  -36.8933   22.2032 H   0  0  0  0  0  0
  -23.7279  -37.6551   23.6643 H   0  0  0  0  0  0
  -25.9996  -31.6118   20.5660 H   0  0  0  0  0  0
  -26.8151  -30.9297   21.9436 H   0  0  0  0  0  0
  -28.0825  -29.1373   21.1747 H   0  0  0  0  0  0
  -26.0852  -25.9830   19.0130 H   0  0  0  0  0  0
  -23.9744  -27.2853   19.0471 H   0  0  0  0  0  0
  -23.6815  -30.5889   19.3979 H   0  0  0  0  0  0
  -22.7250  -29.2228   19.8830 H   0  0  0  0  0  0
  -25.1280  -36.1975   25.0828 H   0  0  0  0  0  0
  -20.9906  -28.3262   24.1470 H   0  0  0  0  0  0
  -20.5693  -26.2279   23.3646 H   0  0  0  0  0  0
  -21.6640  -26.7492   22.1247 H   0  0  0  0  0  0
  -19.6948  -25.6286   21.1290 H   0  0  0  0  0  0
  -19.6683  -27.3165   20.6760 H   0  0  0  0  0  0
  -17.4190  -26.6579   21.4055 H   0  0  0  0  0  0
  -18.0372  -26.0074   22.9066 H   0  0  0  0  0  0
  -19.7894  -30.7238   24.2320 H   0  0  0  0  0  0
  -17.4965  -31.6289   24.5107 H   0  0  0  0  0  0
  -15.5317  -30.2965   23.7648 H   0  0  0  0  0  0
  -15.8623  -28.0804   22.7070 H   0  0  0  0  0  0
  -24.5904  -30.7067   25.7750 H   0  0  0  0  0  0
  -24.8930  -32.2888   26.4833 H   0  0  0  0  0  0
  -25.8076  -30.8893   27.0192 H   0  0  0  0  0  0
  -26.2780  -29.6837   24.1045 H   0  0  0  0  0  0
  -27.4101  -29.7236   25.4369 H   0  0  0  0  0  0
  -27.8578  -30.4380   23.9042 H   0  0  0  0  0  0
  -27.2697  -33.3557   26.2075 H   0  0  0  0  0  0
  -28.3859  -32.6874   25.0272 H   0  0  0  0  0  0
  -28.0743  -31.8361   26.5317 H   0  0  0  0  0  0
  -28.2611  -38.0085   24.7480 H   0  0  0  0  0  0
  -28.1054  -36.2624   24.6313 H   0  0  0  0  0  0
  -27.2284  -37.1486   25.8854 H   0  0  0  0  0  0
  -20.9283  -29.8696   21.6913 H   0  0  0  0  0  0
  -26.0182  -38.2871   24.1413 H   0  0  0  0  0  0
  -27.3524  -19.7545   20.4340 H   0  0  0  0  0  0
  -27.2130  -20.2236   22.1071 H   0  0  0  0  0  0
  -29.7888  -19.9962   22.2546 H   0  0  0  0  0  0
  -29.7349  -19.2400   20.6805 H   0  0  0  0  0  0
  -28.2762  -17.4184   21.5397 H   0  0  0  0  0  0
  -28.0826  -18.2574   23.0529 H   0  0  0  0  0  0
  -29.6506  -16.6632   23.6620 H   0  0  0  0  0  0
  -30.6387  -18.0539   23.3783 H   0  0  0  0  0  0
  -29.6779  -24.4746   20.7907 H   0  0  0  0  0  0
  -29.4157  -24.6121   22.5131 H   0  0  0  0  0  0
  -31.8282  -16.3123   22.3197 H   0  0  0  0  0  0
  -31.0401  -17.1045   20.9734 H   0  0  0  0  0  0
  -27.2201  -24.1974   20.4202 H   0  0  0  0  0  0
  -26.9033  -24.4780   22.1112 H   0  0  0  0  0  0
  -29.7661  -26.8484   21.5922 H   0  0  0  0  0  0
  -28.1344  -26.6972   22.2007 H   0  0  0  0  0  0
  -27.3618  -22.3111   22.5778 H   0  0  0  0  0  0
  -29.3769  -14.9810   22.0019 H   0  0  0  0  0  0
  1 25  1  0  0  0
  1 30  2  0  0  0
  1 81  1  0  0  0
  2  3  1  0  0  0
  2 25  1  0  0  0
  2 83  1  0  0  0
  2 84  1  0  0  0
  3  4  1  0  0  0
  3 85  1  0  0  0
  3 86  1  0  0  0
  4  5  1  0  0  0
  4 87  1  0  0  0
  4 88  1  0  0  0
  5  6  1  0  0  0
  5 26  1  0  0  0
  5 89  1  0  0  0
  6 25  1  0  0  0
  6 90  1  0  0  0
  6 91  1  0  0  0
  7  8  2  0  0  0
  7 26  1  0  0  0
  7 29  1  0  0  0
  8  9  1  0  0  0
  8 22  1  0  0  0
  9 10  1  0  0  0
  9 27  2  0  0  0
 10 11  2  0  0  0
 10 15  1  0  0  0
 11 12  1  0  0  0
 11 92  1  0  0  0
 12 13  2  0  0  0
 12 93  1  0  0  0
 13 14  1  0  0  0
 13 31  1  0  0  0
 14 15  2  0  0  0
 14 94  1  0  0  0
 15 95  1  0  0  0
 16 17  2  0  0  0
 16 21  1  0  0  0
 16 31  1  0  0  0
 17 18  1  0  0  0
 17 96  1  0  0  0
 18 19  2  0  0  0
 18 97  1  0  0  0
 19 20  1  0  0  0
 19 24  1  0  0  0
 20 21  2  0  0  0
 20 98  1  0  0  0
 21 23  1  0  0  0
 22 28  1  0  0  0
 22 32  2  0  0  0
 26 27  1  0  0  0
 28 99  1  0  0  0
 28100  1  0  0  0
 29101  1  0  0  0
 29102  1  0  0  0
 33 34  1  0  0  0
 33 66  1  0  0  0
 33 70  2  0  0  0
 34 36  1  0  0  0
 34 59  1  0  0  0
 34103  1  0  0  0
 35 44  2  0  0  0
 35 45  1  0  0  0
 35 68  1  0  0  0
 36 56  1  0  0  0
 36104  1  0  0  0
 37 39  1  0  0  0
 37 47  1  0  0  0
 37 66  1  0  0  0
 37105  1  0  0  0
 38 43  2  0  0  0
 38 46  1  0  0  0
 38 47  1  0  0  0
 39 64  1  0  0  0
 39 67  2  0  0  0
 40 52  1  0  0  0
 40 53  2  0  0  0
 40 58  1  0  0  0
 41106  1  0  0  0
 41107  1  0  0  0
 41108  1  0  0  0
 41 48  1  0  0  0
 42 43  1  0  0  0
 42 66  1  0  0  0
 42109  1  0  0  0
 42110  1  0  0  0
 43 44  1  0  0  0
 44111  1  0  0  0
 45 46  2  0  0  0
 45112  1  0  0  0
 46113  1  0  0  0
 47114  1  0  0  0
 47115  1  0  0  0
 48 56  1  0  0  0
 48 65  1  0  0  0
 48116  1  0  0  0
 49 50  1  0  0  0
 49 53  1  0  0  0
 49 64  1  0  0  0
 49117  1  0  0  0
 50 51  1  0  0  0
 50118  1  0  0  0
 50119  1  0  0  0
 51 52  1  0  0  0
 51120  1  0  0  0
 51121  1  0  0  0
 52122  1  0  0  0
 52123  1  0  0  0
 53 54  1  0  0  0
 54 55  2  0  0  0
 54124  1  0  0  0
 55 57  1  0  0  0
 55125  1  0  0  0
 56 69  2  0  0  0
 57 58  2  0  0  0
 57126  1  0  0  0
 58127  1  0  0  0
 59 60  1  0  0  0
 59 61  1  0  0  0
 59 62  1  0  0  0
 60128  1  0  0  0
 60129  1  0  0  0
 60130  1  0  0  0
 61131  1  0  0  0
 61132  1  0  0  0
 61133  1  0  0  0
 62134  1  0  0  0
 62135  1  0  0  0
 62136  1  0  0  0
 63 65  1  0  0  0
 63137  1  0  0  0
 63138  1  0  0  0
 63139  1  0  0  0
 64140  1  0  0  0
 65141  1  0  0  0
 68 79  1  0  0  0
 71 72  1  0  0  0
 71 80  1  0  0  0
 71 82  2  0  0  0
 72 73  1  0  0  0
 72142  1  0  0  0
 72143  1  0  0  0
 73 74  1  0  0  0
 73144  1  0  0  0
 73145  1  0  0  0
 74 75  1  0  0  0
 74146  1  0  0  0
 74147  1  0  0  0
 75 77  1  0  0  0
 75148  1  0  0  0
 75149  1  0  0  0
 76 78  1  0  0  0
 76 79  1  0  0  0
 76150  1  0  0  0
 76151  1  0  0  0
 77 81  1  0  0  0
 77152  1  0  0  0
 77153  1  0  0  0
 78 80  1  0  0  0
 78154  1  0  0  0
 78155  1  0  0  0
 79156  1  0  0  0
 79157  1  0  0  0
 80158  1  0  0  0
 81159  1  0  0  0
M  ISO  4   1 100  68 101  79 101  81 100
M  END
> <chiral flag>
0

> <version>
0

> <s_m_source_file>
/data/baiqing/PycharmProjects/Reinvent-master-3.2/result/LINK_invent/BTK/process_docking_weight1_custom_sum_contain_oxygen_bond_distance_aromatic_linkinvent_7_9_3/rearranged_h_0001.sdf

> <i_m_source_file_index>
54

> <r_mmod_Potential_Energy-OPLS-2005>
-164.543869018555

> <r_mmod_Stretch_Energy-OPLS-2005>
30.5073356628418

> <r_mmod_Bend_Energy-OPLS-2005>
86.4119110107422

> <r_mmod_Torsional_Energy-OPLS-2005>
229.080459594727

> <r_mmod_Improper_Torsional_Energy-OPLS-2005>
2.14310598373413

> <r_mmod_Van_der_Waal_Energy-OPLS-2005>
128.860260009766

> <r_mmod_Electrostatic_Energy-OPLS-2005>
-412.541107177734

> <r_mmod_Solvation_Energy-OPLS-2005>
-236.403961181641

> <b_mmod_Minimization_Converged-OPLS-2005>
0

> <r_mmod_RMS_Derivative-OPLS-2005>
3.46835994720459

$$$$
54
                    3D
 Structure written by MMmdl.
158165  0  0  1  0            999 V2000
  -30.7658  -14.3889   20.6360 C   0  0  0  0  0  0
  -30.4074  -12.2785   19.4144 C   0  0  0  0  0  0
  -29.4903  -12.5247   18.1997 C   0  0  0  0  0  0
  -28.0096  -12.3990   18.6040 C   0  0  0  0  0  0
  -27.6673  -13.2142   19.8803 C   0  0  2  0  0  0
  -28.7046  -12.9686   21.0009 C   0  0  0  0  0  0
  -25.2610  -13.8184   20.5647 C   0  0  0  0  0  0
  -24.1858  -13.0456   20.9146 C   0  0  0  0  0  0
  -24.6424  -11.6929   20.8746 C   0  0  0  0  0  0
  -23.9089  -10.4310   21.0422 C   0  0  0  0  0  0
  -24.3632   -9.4216   21.9193 C   0  0  0  0  0  0
  -23.6297   -8.2260   22.0762 C   0  0  0  0  0  0
  -22.4270   -8.0312   21.3575 C   0  0  0  0  0  0
  -21.9914   -9.0289   20.4670 C   0  0  0  0  0  0
  -22.7263  -10.2147   20.3065 C   0  0  0  0  0  0
  -21.6865   -6.0758   22.5298 C   0  0  0  0  0  0
  -21.4021   -6.5664   23.8236 C   0  0  0  0  0  0
  -21.3647   -5.6804   24.9185 C   0  0  0  0  0  0
  -21.6029   -4.3063   24.7226 C   0  0  0  0  0  0
  -21.8820   -3.8171   23.4356 C   0  0  0  0  0  0
  -21.9192   -4.6994   22.3407 C   0  0  0  0  0  0
  -22.7896  -13.5264   21.1841 C   0  0  0  0  0  0
  -22.1674   -4.2188   21.0981 F   0  0  0  0  0  0
  -21.5602   -3.4532   25.7736 F   0  0  0  0  0  0
  -30.0476  -13.2474   20.4604 N   0  0  0  0  0  0
  -26.3053  -12.9366   20.3350 N   0  0  0  0  0  0
  -25.9345  -11.6514   20.5746 N   0  0  0  0  0  0
  -22.0528  -12.8243   22.0385 N   0  0  0  0  0  0
  -25.4334  -15.1903   20.4105 N   0  0  0  0  0  0
  -31.8181  -14.6281   20.0402 O   0  0  0  0  0  0
  -21.6647   -6.8898   21.4256 O   0  0  0  0  0  0
  -22.3575  -14.5598   20.6747 O   0  0  0  0  0  0
  -24.6101  -31.8715   23.2139 C   0  0  0  0  0  0
  -25.9010  -32.4844   23.8419 C   0  0  1  0  0  0
  -27.2304  -27.4522   20.0946 C   0  0  0  0  0  0
  -25.5879  -33.8642   24.2359 N   0  0  0  0  0  0
  -23.3960  -30.4948   21.5544 C   0  0  2  0  0  0
  -24.8404  -28.9644   20.1208 C   0  0  0  0  0  0
  -22.7356  -29.4691   22.5019 C   0  0  0  0  0  0
  -18.0253  -28.1394   22.8486 C   0  0  0  0  0  0
  -24.1489  -36.7329   23.2643 C   0  0  0  0  0  0
  -25.9212  -30.8438   21.3623 C   0  0  0  0  0  0
  -25.9996  -29.4780   20.7130 C   0  0  0  0  0  0
  -27.1971  -28.7292   20.6948 C   0  0  0  0  0  0
  -26.0461  -26.9464   19.5050 C   0  0  0  0  0  0
  -24.8574  -27.6953   19.5186 C   0  0  0  0  0  0
  -23.6038  -29.8301   20.1683 C   0  0  0  0  0  0
  -25.4106  -36.3135   24.0358 C   0  0  1  0  0  0
  -20.5828  -28.3668   23.1298 C   0  0  2  0  0  0
  -20.6728  -26.9382   22.5424 C   0  0  0  0  0  0
  -19.5700  -26.6354   21.5215 C   0  0  0  0  0  0
  -18.1898  -26.7920   22.1655 C   0  0  0  0  0  0
  -19.1504  -28.8837   23.2895 C   0  0  0  0  0  0
  -18.9473  -30.1463   23.8858 C   0  0  0  0  0  0
  -17.6481  -30.6617   24.0554 C   0  0  0  0  0  0
  -25.9029  -34.9498   23.5147 C   0  0  0  0  0  0
  -16.5367  -29.9126   23.6339 C   0  0  0  0  0  0
  -16.7258  -28.6546   23.0341 C   0  0  0  0  0  0
  -26.4436  -31.6599   25.0716 C   0  0  0  0  0  0
  -25.3739  -31.3674   26.1494 C   0  0  0  0  0  0
  -27.0236  -30.3066   24.5996 C   0  0  0  0  0  0
  -27.6022  -32.4286   25.7473 C   0  0  0  0  0  0
  -27.5581  -37.1820   24.8466 C   0  0  0  0  0  0
  -21.4087  -29.3057   22.3715 N   0  0  0  0  0  0
  -26.4307  -37.3794   23.9404 N   0  0  0  0  0  0
  -24.6609  -31.0829   22.1033 N   0  0  0  0  0  0
  -23.4132  -28.8227   23.3053 O   0  0  0  0  0  0
  -28.4214  -26.7587   20.0955 O   0  0  0  0  0  0
  -26.5578  -34.8930   22.4697 O   0  0  0  0  0  0
  -23.5302  -32.1467   23.7550 O   0  0  0  0  0  0
  -30.8032  -16.6265   21.6666 C   0  0  0  0  0  0
  -30.0066  -17.4124   22.7233 C   0  0  0  0  0  0
  -28.3843  -25.3277   20.1107 C   0  0  0  0  0  0
  -27.9345  -24.7756   21.4773 C   0  0  0  0  0  0
  -28.1748  -18.1294   21.3338 C   0  0  0  0  0  0
  -27.1010  -19.1651   21.7100 C   0  0  0  0  0  0
  -27.4055  -22.7646   22.6157 C   0  0  0  0  0  0
  -26.7461  -21.3890   22.4286 C   0  0  0  0  0  0
  -30.2482  -15.2873   21.4780 N   0  0  0  0  0  0
  -28.6015  -17.4062   22.4848 O   0  0  0  0  0  0
  -27.5942  -23.3981   21.3515 O   0  0  0  0  0  0
  -27.7040  -20.4209   22.0108 O   0  0  0  0  0  0
  -31.4545  -12.3509   19.1182 H   0  0  0  0  0  0
  -30.2767  -11.2628   19.7914 H   0  0  0  0  0  0
  -29.7224  -11.8254   17.3950 H   0  0  0  0  0  0
  -29.6777  -13.5220   17.7984 H   0  0  0  0  0  0
  -27.7996  -11.3426   18.7700 H   0  0  0  0  0  0
  -27.3646  -12.7129   17.7823 H   0  0  0  0  0  0
  -27.7166  -14.2687   19.6085 H   0  0  0  0  0  0
  -28.6574  -11.9347   21.3434 H   0  0  0  0  0  0
  -28.4595  -13.5680   21.8779 H   0  0  0  0  0  0
  -25.2789   -9.5683   22.4748 H   0  0  0  0  0  0
  -24.0037   -7.4633   22.7446 H   0  0  0  0  0  0
  -21.0869   -8.8814   19.8962 H   0  0  0  0  0  0
  -22.3768  -10.9680   19.6159 H   0  0  0  0  0  0
  -21.2035   -7.6184   23.9755 H   0  0  0  0  0  0
  -21.1443   -6.0531   25.9085 H   0  0  0  0  0  0
  -22.0608   -2.7644   23.2837 H   0  0  0  0  0  0
  -22.4168  -11.9919   22.4781 H   0  0  0  0  0  0
  -21.1157  -13.1310   22.2571 H   0  0  0  0  0  0
  -24.6752  -15.8507   20.5350 H   0  0  0  0  0  0
  -26.2984  -15.6303   20.1253 H   0  0  0  0  0  0
  -26.7092  -32.5561   23.1204 H   0  0  0  0  0  0
  -25.0030  -33.9781   25.0512 H   0  0  0  0  0  0
  -22.6840  -31.3118   21.4153 H   0  0  0  0  0  0
  -23.3746  -35.9659   23.3322 H   0  0  0  0  0  0
  -24.3596  -36.8909   22.2051 H   0  0  0  0  0  0
  -23.7252  -37.6548   23.6635 H   0  0  0  0  0  0
  -26.0240  -31.6055   20.5894 H   0  0  0  0  0  0
  -26.8156  -30.9024   21.9711 H   0  0  0  0  0  0
  -28.0959  -29.1251   21.1473 H   0  0  0  0  0  0
  -26.0144  -25.9838   19.0197 H   0  0  0  0  0  0
  -23.9650  -27.2922   19.0616 H   0  0  0  0  0  0
  -23.7141  -30.6060   19.4081 H   0  0  0  0  0  0
  -22.7275  -29.2498   19.8720 H   0  0  0  0  0  0
  -25.1284  -36.2002   25.0854 H   0  0  0  0  0  0
  -20.9891  -28.3229   24.1424 H   0  0  0  0  0  0
  -20.5602  -26.2251   23.3610 H   0  0  0  0  0  0
  -21.6611  -26.7407   22.1227 H   0  0  0  0  0  0
  -19.6846  -25.6250   21.1270 H   0  0  0  0  0  0
  -19.6652  -27.3143   20.6733 H   0  0  0  0  0  0
  -17.4137  -26.6615   21.4110 H   0  0  0  0  0  0
  -18.0347  -26.0112   22.9107 H   0  0  0  0  0  0
  -19.7981  -30.7257   24.2181 H   0  0  0  0  0  0
  -17.5108  -31.6305   24.5150 H   0  0  0  0  0  0
  -15.5386  -30.3040   23.7694 H   0  0  0  0  0  0
  -15.8663  -28.0877   22.7024 H   0  0  0  0  0  0
  -24.5943  -30.6961   25.7877 H   0  0  0  0  0  0
  -24.8897  -32.2806   26.4953 H   0  0  0  0  0  0
  -25.8157  -30.8882   27.0242 H   0  0  0  0  0  0
  -26.2729  -29.6882   24.1065 H   0  0  0  0  0  0
  -27.4075  -29.7227   25.4369 H   0  0  0  0  0  0
  -27.8537  -30.4433   23.9068 H   0  0  0  0  0  0
  -27.2658  -33.3587   26.2067 H   0  0  0  0  0  0
  -28.3831  -32.6835   25.0301 H   0  0  0  0  0  0
  -28.0682  -31.8392   26.5376 H   0  0  0  0  0  0
  -28.2621  -38.0097   24.7492 H   0  0  0  0  0  0
  -28.1059  -36.2630   24.6327 H   0  0  0  0  0  0
  -27.2290  -37.1508   25.8865 H   0  0  0  0  0  0
  -20.9228  -29.8741   21.6898 H   0  0  0  0  0  0
  -26.0211  -38.2877   24.1379 H   0  0  0  0  0  0
  -31.8503  -16.5537   21.9721 H   0  0  0  0  0  0
  -30.8015  -17.1641   20.7154 H   0  0  0  0  0  0
  -30.3767  -18.4353   22.8054 H   0  0  0  0  0  0
  -30.1733  -16.9517   23.6981 H   0  0  0  0  0  0
  -27.7738  -24.9237   19.3056 H   0  0  0  0  0  0
  -29.3912  -24.9687   19.9042 H   0  0  0  0  0  0
  -27.0649  -25.3227   21.8493 H   0  0  0  0  0  0
  -28.7350  -24.9156   22.2048 H   0  0  0  0  0  0
  -28.9949  -18.6094   20.7986 H   0  0  0  0  0  0
  -27.7358  -17.3974   20.6547 H   0  0  0  0  0  0
  -26.4948  -18.8077   22.5443 H   0  0  0  0  0  0
  -26.4299  -19.2956   20.8600 H   0  0  0  0  0  0
  -26.7483  -23.3755   23.2379 H   0  0  0  0  0  0
  -28.3573  -22.6684   23.1402 H   0  0  0  0  0  0
  -25.9108  -21.4697   21.7303 H   0  0  0  0  0  0
  -26.3306  -21.0636   23.3829 H   0  0  0  0  0  0
  -29.3893  -15.0652   21.9615 H   0  0  0  0  0  0
  1 25  1  0  0  0
  1 30  2  0  0  0
  1 79  1  0  0  0
  2  3  1  0  0  0
  2 25  1  0  0  0
  2 83  1  0  0  0
  2 84  1  0  0  0
  3  4  1  0  0  0
  3 85  1  0  0  0
  3 86  1  0  0  0
  4  5  1  0  0  0
  4 87  1  0  0  0
  4 88  1  0  0  0
  5  6  1  0  0  0
  5 26  1  0  0  0
  5 89  1  0  0  0
  6 25  1  0  0  0
  6 90  1  0  0  0
  6 91  1  0  0  0
  7  8  2  0  0  0
  7 26  1  0  0  0
  7 29  1  0  0  0
  8  9  1  0  0  0
  8 22  1  0  0  0
  9 10  1  0  0  0
  9 27  2  0  0  0
 10 11  2  0  0  0
 10 15  1  0  0  0
 11 12  1  0  0  0
 11 92  1  0  0  0
 12 13  2  0  0  0
 12 93  1  0  0  0
 13 14  1  0  0  0
 13 31  1  0  0  0
 14 15  2  0  0  0
 14 94  1  0  0  0
 15 95  1  0  0  0
 16 17  2  0  0  0
 16 21  1  0  0  0
 16 31  1  0  0  0
 17 18  1  0  0  0
 17 96  1  0  0  0
 18 19  2  0  0  0
 18 97  1  0  0  0
 19 20  1  0  0  0
 19 24  1  0  0  0
 20 21  2  0  0  0
 20 98  1  0  0  0
 21 23  1  0  0  0
 22 28  1  0  0  0
 22 32  2  0  0  0
 26 27  1  0  0  0
 28 99  1  0  0  0
 28100  1  0  0  0
 29101  1  0  0  0
 29102  1  0  0  0
 33 34  1  0  0  0
 33 66  1  0  0  0
 33 70  2  0  0  0
 34 36  1  0  0  0
 34 59  1  0  0  0
 34103  1  0  0  0
 35 44  2  0  0  0
 35 45  1  0  0  0
 35 68  1  0  0  0
 36 56  1  0  0  0
 36104  1  0  0  0
 37 39  1  0  0  0
 37 47  1  0  0  0
 37 66  1  0  0  0
 37105  1  0  0  0
 38 43  2  0  0  0
 38 46  1  0  0  0
 38 47  1  0  0  0
 39 64  1  0  0  0
 39 67  2  0  0  0
 40 52  1  0  0  0
 40 53  2  0  0  0
 40 58  1  0  0  0
 41106  1  0  0  0
 41107  1  0  0  0
 41108  1  0  0  0
 41 48  1  0  0  0
 42 43  1  0  0  0
 42 66  1  0  0  0
 42109  1  0  0  0
 42110  1  0  0  0
 43 44  1  0  0  0
 44111  1  0  0  0
 45 46  2  0  0  0
 45112  1  0  0  0
 46113  1  0  0  0
 47114  1  0  0  0
 47115  1  0  0  0
 48 56  1  0  0  0
 48 65  1  0  0  0
 48116  1  0  0  0
 49 50  1  0  0  0
 49 53  1  0  0  0
 49 64  1  0  0  0
 49117  1  0  0  0
 50 51  1  0  0  0
 50118  1  0  0  0
 50119  1  0  0  0
 51 52  1  0  0  0
 51120  1  0  0  0
 51121  1  0  0  0
 52122  1  0  0  0
 52123  1  0  0  0
 53 54  1  0  0  0
 54 55  2  0  0  0
 54124  1  0  0  0
 55 57  1  0  0  0
 55125  1  0  0  0
 56 69  2  0  0  0
 57 58  2  0  0  0
 57126  1  0  0  0
 58127  1  0  0  0
 59 60  1  0  0  0
 59 61  1  0  0  0
 59 62  1  0  0  0
 60128  1  0  0  0
 60129  1  0  0  0
 60130  1  0  0  0
 61131  1  0  0  0
 61132  1  0  0  0
 61133  1  0  0  0
 62134  1  0  0  0
 62135  1  0  0  0
 62136  1  0  0  0
 63 65  1  0  0  0
 63137  1  0  0  0
 63138  1  0  0  0
 63139  1  0  0  0
 64140  1  0  0  0
 65141  1  0  0  0
 68 73  1  0  0  0
 71 72  1  0  0  0
 71 79  1  0  0  0
 71142  1  0  0  0
 71143  1  0  0  0
 72 80  1  0  0  0
 72144  1  0  0  0
 72145  1  0  0  0
 73 74  1  0  0  0
 73146  1  0  0  0
 73147  1  0  0  0
 74 81  1  0  0  0
 74148  1  0  0  0
 74149  1  0  0  0
 75 76  1  0  0  0
 75 80  1  0  0  0
 75150  1  0  0  0
 75151  1  0  0  0
 76 82  1  0  0  0
 76152  1  0  0  0
 76153  1  0  0  0
 77 78  1  0  0  0
 77 81  1  0  0  0
 77154  1  0  0  0
 77155  1  0  0  0
 78 82  1  0  0  0
 78156  1  0  0  0
 78157  1  0  0  0
 79158  1  0  0  0
M  ISO  4   1 100  68 101  73 101  79 100
M  END
> <chiral flag>
0

> <version>
0

> <s_m_source_file>
/data/baiqing/PycharmProjects/Reinvent-master-3.2/result/LINK_invent/BTK/process_docking_weight1_custom_sum_contain_oxygen_bond_distance_aromatic_linkinvent_7_9_3/rearranged_h_0001.sdf

> <i_m_source_file_index>
55

> <r_mmod_Potential_Energy-OPLS-2005>
-132.649719238281

> <r_mmod_Stretch_Energy-OPLS-2005>
31.9378795623779

> <r_mmod_Bend_Energy-OPLS-2005>
94.8774032592773

> <r_mmod_Torsional_Energy-OPLS-2005>
201.347106933594

> <r_mmod_Improper_Torsional_Energy-OPLS-2005>
1.87841999530792

> <r_mmod_Van_der_Waal_Energy-OPLS-2005>
137.073379516602

> <r_mmod_Electrostatic_Energy-OPLS-2005>
-394.197540283203

> <r_mmod_Solvation_Energy-OPLS-2005>
-213.581817626953

> <b_mmod_Minimization_Converged-OPLS-2005>
0

> <r_mmod_RMS_Derivative-OPLS-2005>
4.17057800292969

$$$$
55
                    3D
 Structure written by MMmdl.
144151  0  0  1  0            999 V2000
  -30.4369  -15.2511   20.3767 C   0  0  0  0  0  0
  -30.4407  -12.8036   19.5103 C   0  0  0  0  0  0
  -29.5321  -12.5695   18.2777 C   0  0  0  0  0  0
  -28.0806  -12.2958   18.7105 C   0  0  0  0  0  0
  -27.6107  -13.2711   19.8186 C   0  0  2  0  0  0
  -28.6480  -13.4407   20.9474 C   0  0  0  0  0  0
  -25.2393  -13.8238   20.5742 C   0  0  0  0  0  0
  -24.1743  -13.0431   20.9260 C   0  0  0  0  0  0
  -24.6395  -11.6928   20.8764 C   0  0  0  0  0  0
  -23.9090  -10.4290   21.0409 C   0  0  0  0  0  0
  -24.3635   -9.4203   21.9186 C   0  0  0  0  0  0
  -23.6303   -8.2241   22.0755 C   0  0  0  0  0  0
  -22.4284   -8.0282   21.3545 C   0  0  0  0  0  0
  -21.9926   -9.0257   20.4646 C   0  0  0  0  0  0
  -22.7261  -10.2132   20.3056 C   0  0  0  0  0  0
  -21.6855   -6.0737   22.5279 C   0  0  0  0  0  0
  -21.4016   -6.5641   23.8212 C   0  0  0  0  0  0
  -21.3660   -5.6793   24.9174 C   0  0  0  0  0  0
  -21.6044   -4.3056   24.7225 C   0  0  0  0  0  0
  -21.8819   -3.8148   23.4346 C   0  0  0  0  0  0
  -21.9193   -4.6965   22.3402 C   0  0  0  0  0  0
  -22.7761  -13.5187   21.1906 C   0  0  0  0  0  0
  -22.1661   -4.2150   21.0980 F   0  0  0  0  0  0
  -21.5628   -3.4540   25.7737 F   0  0  0  0  0  0
  -29.8748  -13.9472   20.3118 N   0  0  0  0  0  0
  -26.2814  -12.9504   20.3207 N   0  0  0  0  0  0
  -25.9329  -11.6614   20.5719 N   0  0  0  0  0  0
  -22.0419  -12.8169   22.0460 N   0  0  0  0  0  0
  -25.4019  -15.1973   20.4173 N   0  0  0  0  0  0
  -31.6652  -15.2598   20.2187 O   0  0  0  0  0  0
  -21.6644   -6.8882   21.4242 O   0  0  0  0  0  0
  -22.3441  -14.5488   20.6746 O   0  0  0  0  0  0
  -24.6622  -31.8245   23.1706 C   0  0  0  0  0  0
  -25.9306  -32.4593   23.8170 C   0  0  1  0  0  0
  -27.2187  -26.9359   20.1919 C   0  0  0  0  0  0
  -25.5976  -33.8406   24.2077 N   0  0  0  0  0  0
  -23.4761  -30.4358   21.5204 C   0  0  2  0  0  0
  -24.9283  -28.8193   20.1193 C   0  0  0  0  0  0
  -22.7660  -29.4449   22.4794 C   0  0  0  0  0  0
  -18.0321  -28.1408   22.8468 C   0  0  0  0  0  0
  -24.1493  -36.7209   23.2648 C   0  0  0  0  0  0
  -26.0446  -30.6350   21.3978 C   0  0  0  0  0  0
  -26.1136  -29.2235   20.7468 C   0  0  0  0  0  0
  -27.2569  -28.3054   20.7517 C   0  0  0  0  0  0
  -26.0019  -26.6767   19.5243 C   0  0  0  0  0  0
  -24.8966  -27.5655   19.4877 C   0  0  0  0  0  0
  -23.7155  -29.7482   20.1484 C   0  0  0  0  0  0
  -25.4134  -36.2970   24.0300 C   0  0  1  0  0  0
  -20.5944  -28.3752   23.1192 C   0  0  2  0  0  0
  -20.6798  -26.9435   22.5403 C   0  0  0  0  0  0
  -19.5772  -26.6378   21.5214 C   0  0  0  0  0  0
  -18.1954  -26.7942   22.1623 C   0  0  0  0  0  0
  -19.1582  -28.8901   23.2817 C   0  0  0  0  0  0
  -18.9493  -30.1491   23.8852 C   0  0  0  0  0  0
  -17.6486  -30.6598   24.0556 C   0  0  0  0  0  0
  -25.9098  -34.9353   23.5010 C   0  0  0  0  0  0
  -16.5376  -29.9085   23.6343 C   0  0  0  0  0  0
  -16.7303  -28.6506   23.0363 C   0  0  0  0  0  0
  -26.4559  -31.6536   25.0696 C   0  0  0  0  0  0
  -25.3687  -31.3784   26.1354 C   0  0  0  0  0  0
  -27.0455  -30.2904   24.6421 C   0  0  0  0  0  0
  -27.6050  -32.4345   25.7500 C   0  0  0  0  0  0
  -27.5569  -37.1762   24.8467 C   0  0  0  0  0  0
  -21.4331  -29.3044   22.3542 N   0  0  0  0  0  0
  -26.4280  -37.3705   23.9407 N   0  0  0  0  0  0
  -24.7491  -30.9919   22.0835 N   0  0  0  0  0  0
  -23.4211  -28.8021   23.3034 O   0  0  0  0  0  0
  -28.2432  -25.8546   20.1976 O   0  0  0  0  0  0
  -26.5710  -34.8888   22.4606 O   0  0  0  0  0  0
  -23.5694  -32.1209   23.6807 O   0  0  0  0  0  0
  -29.9032  -18.1505   20.6487 C   0  0  0  0  0  0
  -29.0916  -19.6523   20.0641 C   0  0  0  0  0  0
  -28.0410  -24.2465   20.5108 C   0  0  0  0  0  0
  -28.7182  -22.6665   19.9472 C   0  0  0  0  0  0
  -29.6593  -16.5123   20.4191 N   0  0  0  0  0  0
  -28.9892  -21.1936   20.6301 O   0  0  0  0  0  0
  -31.4561  -13.0183   19.1742 H   0  0  0  0  0  0
  -30.5160  -11.9000   20.1175 H   0  0  0  0  0  0
  -29.9090  -11.7401   17.6776 H   0  0  0  0  0  0
  -29.5601  -13.4510   17.6352 H   0  0  0  0  0  0
  -28.0368  -11.2719   19.0838 H   0  0  0  0  0  0
  -27.4101  -12.3372   17.8514 H   0  0  0  0  0  0
  -27.5259  -14.2383   19.3215 H   0  0  0  0  0  0
  -28.8185  -12.5046   21.4812 H   0  0  0  0  0  0
  -28.2924  -14.1615   21.6855 H   0  0  0  0  0  0
  -25.2776   -9.5679   22.4767 H   0  0  0  0  0  0
  -24.0007   -7.4633   22.7477 H   0  0  0  0  0  0
  -21.0856   -8.8780   19.8952 H   0  0  0  0  0  0
  -22.3719  -10.9674   19.6169 H   0  0  0  0  0  0
  -21.2009   -7.6149   23.9716 H   0  0  0  0  0  0
  -21.1482   -6.0524   25.9077 H   0  0  0  0  0  0
  -22.0597   -2.7610   23.2846 H   0  0  0  0  0  0
  -22.4051  -11.9839   22.4851 H   0  0  0  0  0  0
  -21.1031  -13.1176   22.2665 H   0  0  0  0  0  0
  -24.6298  -15.8453   20.5309 H   0  0  0  0  0  0
  -26.2396  -15.6403   20.0642 H   0  0  0  0  0  0
  -26.7377  -32.5137   23.0887 H   0  0  0  0  0  0
  -25.0070  -33.9485   25.0192 H   0  0  0  0  0  0
  -22.7891  -31.2670   21.3485 H   0  0  0  0  0  0
  -23.3765  -35.9530   23.3283 H   0  0  0  0  0  0
  -24.3569  -36.8881   22.2067 H   0  0  0  0  0  0
  -23.7242  -37.6387   23.6720 H   0  0  0  0  0  0
  -26.2213  -31.3747   20.6158 H   0  0  0  0  0  0
  -26.9062  -30.6947   22.0510 H   0  0  0  0  0  0
  -28.1614  -28.6200   21.2530 H   0  0  0  0  0  0
  -25.8841  -25.7202   19.0350 H   0  0  0  0  0  0
  -23.9962  -27.2498   18.9788 H   0  0  0  0  0  0
  -23.8728  -30.5146   19.3885 H   0  0  0  0  0  0
  -22.8250  -29.2028   19.8311 H   0  0  0  0  0  0
  -25.1332  -36.1767   25.0791 H   0  0  0  0  0  0
  -21.0032  -28.3358   24.1316 H   0  0  0  0  0  0
  -20.5680  -26.2370   23.3642 H   0  0  0  0  0  0
  -21.6662  -26.7414   22.1208 H   0  0  0  0  0  0
  -19.6931  -25.6277   21.1274 H   0  0  0  0  0  0
  -19.6710  -27.3164   20.6724 H   0  0  0  0  0  0
  -17.4222  -26.6685   21.4027 H   0  0  0  0  0  0
  -18.0350  -26.0095   22.9030 H   0  0  0  0  0  0
  -19.7968  -30.7320   24.2201 H   0  0  0  0  0  0
  -17.5037  -31.6274   24.5166 H   0  0  0  0  0  0
  -15.5375  -30.2973   23.7693 H   0  0  0  0  0  0
  -15.8704  -28.0808   22.7105 H   0  0  0  0  0  0
  -24.5885  -30.7117   25.7664 H   0  0  0  0  0  0
  -24.8859  -32.2984   26.4657 H   0  0  0  0  0  0
  -25.7920  -30.9033   27.0213 H   0  0  0  0  0  0
  -26.3120  -29.6580   24.1408 H   0  0  0  0  0  0
  -27.3971  -29.7268   25.5074 H   0  0  0  0  0  0
  -27.9066  -30.4088   23.9841 H   0  0  0  0  0  0
  -27.2619  -33.3690   26.1952 H   0  0  0  0  0  0
  -28.3927  -32.6835   25.0377 H   0  0  0  0  0  0
  -28.0645  -31.8555   26.5522 H   0  0  0  0  0  0
  -28.2572  -38.0071   24.7508 H   0  0  0  0  0  0
  -28.1079  -36.2597   24.6302 H   0  0  0  0  0  0
  -27.2284  -37.1414   25.8869 H   0  0  0  0  0  0
  -20.9586  -29.8729   21.6666 H   0  0  0  0  0  0
  -26.0128  -38.2764   24.1412 H   0  0  0  0  0  0
  -29.8343  -18.2328   21.7336 H   0  0  0  0  0  0
  -30.9655  -18.2990   20.4516 H   0  0  0  0  0  0
  -28.0459  -19.3727   19.9349 H   0  0  0  0  0  0
  -29.4521  -19.7769   19.0427 H   0  0  0  0  0  0
  -28.2693  -24.2286   21.5764 H   0  0  0  0  0  0
  -26.9610  -24.1021   20.4918 H   0  0  0  0  0  0
  -29.7032  -22.9230   19.5574 H   0  0  0  0  0  0
  -28.1449  -22.4326   19.0499 H   0  0  0  0  0  0
  -28.6725  -16.2975   20.4101 H   0  0  0  0  0  0
  1 25  1  0  0  0
  1 30  2  0  0  0
  1 75  1  0  0  0
  2  3  1  0  0  0
  2 25  1  0  0  0
  2 77  1  0  0  0
  2 78  1  0  0  0
  3  4  1  0  0  0
  3 79  1  0  0  0
  3 80  1  0  0  0
  4  5  1  0  0  0
  4 81  1  0  0  0
  4 82  1  0  0  0
  5  6  1  0  0  0
  5 26  1  0  0  0
  5 83  1  0  0  0
  6 25  1  0  0  0
  6 84  1  0  0  0
  6 85  1  0  0  0
  7  8  2  0  0  0
  7 26  1  0  0  0
  7 29  1  0  0  0
  8  9  1  0  0  0
  8 22  1  0  0  0
  9 10  1  0  0  0
  9 27  2  0  0  0
 10 11  2  0  0  0
 10 15  1  0  0  0
 11 12  1  0  0  0
 11 86  1  0  0  0
 12 13  2  0  0  0
 12 87  1  0  0  0
 13 14  1  0  0  0
 13 31  1  0  0  0
 14 15  2  0  0  0
 14 88  1  0  0  0
 15 89  1  0  0  0
 16 17  2  0  0  0
 16 21  1  0  0  0
 16 31  1  0  0  0
 17 18  1  0  0  0
 17 90  1  0  0  0
 18 19  2  0  0  0
 18 91  1  0  0  0
 19 20  1  0  0  0
 19 24  1  0  0  0
 20 21  2  0  0  0
 20 92  1  0  0  0
 21 23  1  0  0  0
 22 28  1  0  0  0
 22 32  2  0  0  0
 26 27  1  0  0  0
 28 93  1  0  0  0
 28 94  1  0  0  0
 29 95  1  0  0  0
 29 96  1  0  0  0
 33 34  1  0  0  0
 33 66  1  0  0  0
 33 70  2  0  0  0
 34 36  1  0  0  0
 34 59  1  0  0  0
 34 97  1  0  0  0
 35 44  2  0  0  0
 35 45  1  0  0  0
 35 68  1  0  0  0
 36 56  1  0  0  0
 36 98  1  0  0  0
 37 39  1  0  0  0
 37 47  1  0  0  0
 37 66  1  0  0  0
 37 99  1  0  0  0
 38 43  2  0  0  0
 38 46  1  0  0  0
 38 47  1  0  0  0
 39 64  1  0  0  0
 39 67  2  0  0  0
 40 52  1  0  0  0
 40 53  2  0  0  0
 40 58  1  0  0  0
 41100  1  0  0  0
 41101  1  0  0  0
 41102  1  0  0  0
 41 48  1  0  0  0
 42 43  1  0  0  0
 42 66  1  0  0  0
 42103  1  0  0  0
 42104  1  0  0  0
 43 44  1  0  0  0
 44105  1  0  0  0
 45 46  2  0  0  0
 45106  1  0  0  0
 46107  1  0  0  0
 47108  1  0  0  0
 47109  1  0  0  0
 48 56  1  0  0  0
 48 65  1  0  0  0
 48110  1  0  0  0
 49 50  1  0  0  0
 49 53  1  0  0  0
 49 64  1  0  0  0
 49111  1  0  0  0
 50 51  1  0  0  0
 50112  1  0  0  0
 50113  1  0  0  0
 51 52  1  0  0  0
 51114  1  0  0  0
 51115  1  0  0  0
 52116  1  0  0  0
 52117  1  0  0  0
 53 54  1  0  0  0
 54 55  2  0  0  0
 54118  1  0  0  0
 55 57  1  0  0  0
 55119  1  0  0  0
 56 69  2  0  0  0
 57 58  2  0  0  0
 57120  1  0  0  0
 58121  1  0  0  0
 59 60  1  0  0  0
 59 61  1  0  0  0
 59 62  1  0  0  0
 60122  1  0  0  0
 60123  1  0  0  0
 60124  1  0  0  0
 61125  1  0  0  0
 61126  1  0  0  0
 61127  1  0  0  0
 62128  1  0  0  0
 62129  1  0  0  0
 62130  1  0  0  0
 63 65  1  0  0  0
 63131  1  0  0  0
 63132  1  0  0  0
 63133  1  0  0  0
 64134  1  0  0  0
 65135  1  0  0  0
 68 73  1  0  0  0
 71 72  1  0  0  0
 71 75  1  0  0  0
 71136  1  0  0  0
 71137  1  0  0  0
 72 76  1  0  0  0
 72138  1  0  0  0
 72139  1  0  0  0
 73 74  1  0  0  0
 73140  1  0  0  0
 73141  1  0  0  0
 74 76  1  0  0  0
 74142  1  0  0  0
 74143  1  0  0  0
 75144  1  0  0  0
M  ISO  4   1 100  68 101  73 101  75 100
M  END
> <chiral flag>
0

> <version>
0

> <s_m_source_file>
/data/baiqing/PycharmProjects/Reinvent-master-3.2/result/LINK_invent/BTK/process_docking_weight1_custom_sum_contain_oxygen_bond_distance_aromatic_linkinvent_7_9_3/rearranged_h_0001.sdf

> <i_m_source_file_index>
56

> <r_mmod_Potential_Energy-OPLS-2005>
1272.39196777344

> <r_mmod_Stretch_Energy-OPLS-2005>
620.559265136719

> <r_mmod_Bend_Energy-OPLS-2005>
470.408538818359

> <r_mmod_Torsional_Energy-OPLS-2005>
228.680725097656

> <r_mmod_Improper_Torsional_Energy-OPLS-2005>
4.08042764663696

> <r_mmod_Van_der_Waal_Energy-OPLS-2005>
109.728851318359

> <r_mmod_Electrostatic_Energy-OPLS-2005>
-380.777038574219

> <r_mmod_Solvation_Energy-OPLS-2005>
-221.878372192383

> <b_mmod_Minimization_Converged-OPLS-2005>
0

> <r_mmod_RMS_Derivative-OPLS-2005>
0.0835052877664566

$$$$
56
                    3D
 Structure written by MMmdl.
141148  0  0  1  0            999 V2000
  -30.2772  -15.6612   20.3263 C   0  0  0  0  0  0
  -30.4267  -13.0993   19.5397 C   0  0  0  0  0  0
  -29.5537  -12.6618   18.3268 C   0  0  0  0  0  0
  -28.1281  -12.2996   18.7706 C   0  0  0  0  0  0
  -27.5960  -13.3085   19.8127 C   0  0  2  0  0  0
  -28.6108  -13.6466   20.9306 C   0  0  0  0  0  0
  -25.2322  -13.8280   20.5792 C   0  0  0  0  0  0
  -24.1713  -13.0429   20.9290 C   0  0  0  0  0  0
  -24.6417  -11.6941   20.8764 C   0  0  0  0  0  0
  -23.9119  -10.4290   21.0397 C   0  0  0  0  0  0
  -24.3653   -9.4203   21.9180 C   0  0  0  0  0  0
  -23.6313   -8.2245   22.0754 C   0  0  0  0  0  0
  -22.4293   -8.0286   21.3545 C   0  0  0  0  0  0
  -21.9940   -9.0262   20.4644 C   0  0  0  0  0  0
  -22.7284  -10.2133   20.3049 C   0  0  0  0  0  0
  -21.6858   -6.0741   22.5279 C   0  0  0  0  0  0
  -21.4018   -6.5643   23.8213 C   0  0  0  0  0  0
  -21.3660   -5.6794   24.9174 C   0  0  0  0  0  0
  -21.6044   -4.3057   24.7224 C   0  0  0  0  0  0
  -21.8818   -3.8150   23.4344 C   0  0  0  0  0  0
  -21.9194   -4.6967   22.3401 C   0  0  0  0  0  0
  -22.7724  -13.5159   21.1924 C   0  0  0  0  0  0
  -22.1662   -4.2153   21.0979 F   0  0  0  0  0  0
  -21.5628   -3.4540   25.7736 F   0  0  0  0  0  0
  -29.7808  -14.2807   20.2760 N   0  0  0  0  0  0
  -26.2773  -12.9613   20.3230 N   0  0  0  0  0  0
  -25.9364  -11.6684   20.5696 N   0  0  0  0  0  0
  -22.0390  -12.8135   22.0476 N   0  0  0  0  0  0
  -25.3904  -15.2021   20.4227 N   0  0  0  0  0  0
  -31.5139  -15.6215   20.1669 O   0  0  0  0  0  0
  -21.6648   -6.8888   21.4243 O   0  0  0  0  0  0
  -22.3398  -14.5457   20.6759 O   0  0  0  0  0  0
  -24.6869  -31.7958   23.1483 C   0  0  0  0  0  0
  -25.9434  -32.4446   23.8043 C   0  0  1  0  0  0
  -27.2296  -26.6705   20.2194 C   0  0  0  0  0  0
  -25.5997  -33.8273   24.1927 N   0  0  0  0  0  0
  -23.5146  -30.3957   21.5031 C   0  0  2  0  0  0
  -24.9723  -28.7283   20.1201 C   0  0  0  0  0  0
  -22.7781  -29.4293   22.4703 C   0  0  0  0  0  0
  -18.0340  -28.1423   22.8453 C   0  0  0  0  0  0
  -24.1496  -36.7145   23.2654 C   0  0  0  0  0  0
  -26.0965  -30.5186   21.4169 C   0  0  0  0  0  0
  -26.1621  -29.0794   20.7683 C   0  0  0  0  0  0
  -27.2745  -28.0801   20.7821 C   0  0  0  0  0  0
  -26.0050  -26.5348   19.5152 C   0  0  0  0  0  0
  -24.9345  -27.4820   19.4696 C   0  0  0  0  0  0
  -23.7703  -29.6881   20.1405 C   0  0  0  0  0  0
  -25.4148  -36.2883   24.0279 C   0  0  1  0  0  0
  -20.5978  -28.3784   23.1136 C   0  0  2  0  0  0
  -20.6805  -26.9440   22.5404 C   0  0  0  0  0  0
  -19.5782  -26.6369   21.5217 C   0  0  0  0  0  0
  -18.1964  -26.7950   22.1618 C   0  0  0  0  0  0
  -19.1608  -28.8929   23.2774 C   0  0  0  0  0  0
  -18.9512  -30.1511   23.8821 C   0  0  0  0  0  0
  -17.6502  -30.6604   24.0549 C   0  0  0  0  0  0
  -25.9129  -34.9274   23.4943 C   0  0  0  0  0  0
  -16.5391  -29.9085   23.6351 C   0  0  0  0  0  0
  -16.7320  -28.6508   23.0367 C   0  0  0  0  0  0
  -26.4601  -31.6496   25.0681 C   0  0  0  0  0  0
  -25.3658  -31.3823   26.1290 C   0  0  0  0  0  0
  -27.0540  -30.2831   24.6604 C   0  0  0  0  0  0
  -27.6041  -32.4367   25.7502 C   0  0  0  0  0  0
  -27.5562  -37.1731   24.8468 C   0  0  0  0  0  0
  -21.4425  -29.3024   22.3452 N   0  0  0  0  0  0
  -26.4271  -37.3647   23.9405 N   0  0  0  0  0  0
  -24.7899  -30.9373   22.0752 N   0  0  0  0  0  0
  -23.4208  -28.7902   23.3065 O   0  0  0  0  0  0
  -28.2006  -25.4468   20.2863 O   0  0  0  0  0  0
  -26.5775  -34.8859   22.4564 O   0  0  0  0  0  0
  -23.5882  -32.1046   23.6417 O   0  0  0  0  0  0
  -28.7877  -20.1095   20.2983 C   0  0  0  0  0  0
  -29.0302  -21.9822   20.3032 C   0  0  0  0  0  0
  -28.0309  -23.6749   20.2043 C   0  0  0  0  0  0
  -29.6783  -18.8241   20.3254 N   0  0  0  0  0  0
  -29.4642  -16.9997   20.3735 N   0  0  0  0  0  0
  -27.5891  -19.8245   20.2719 O   0  0  0  0  0  0
  -31.4160  -13.3730   19.1713 H   0  0  0  0  0  0
  -30.5991  -12.2601   20.2159 H   0  0  0  0  0  0
  -30.0131  -11.8199   17.8072 H   0  0  0  0  0  0
  -29.5099  -13.4800   17.6065 H   0  0  0  0  0  0
  -28.1591  -11.3032   19.2134 H   0  0  0  0  0  0
  -27.4593  -12.2360   17.9114 H   0  0  0  0  0  0
  -27.4564  -14.2275   19.2417 H   0  0  0  0  0  0
  -28.8770  -12.7663   21.5177 H   0  0  0  0  0  0
  -28.1725  -14.3602   21.6300 H   0  0  0  0  0  0
  -25.2792   -9.5677   22.4765 H   0  0  0  0  0  0
  -24.0013   -7.4638   22.7479 H   0  0  0  0  0  0
  -21.0870   -8.8790   19.8950 H   0  0  0  0  0  0
  -22.3743  -10.9675   19.6161 H   0  0  0  0  0  0
  -21.2013   -7.6151   23.9717 H   0  0  0  0  0  0
  -21.1482   -6.0524   25.9077 H   0  0  0  0  0  0
  -22.0596   -2.7612   23.2844 H   0  0  0  0  0  0
  -22.4034  -11.9812   22.4871 H   0  0  0  0  0  0
  -21.0996  -13.1129   22.2674 H   0  0  0  0  0  0
  -24.6158  -15.8476   20.5333 H   0  0  0  0  0  0
  -26.2241  -15.6447   20.0602 H   0  0  0  0  0  0
  -26.7519  -32.4911   23.0757 H   0  0  0  0  0  0
  -25.0050  -33.9305   25.0017 H   0  0  0  0  0  0
  -22.8418  -31.2339   21.3096 H   0  0  0  0  0  0
  -23.3775  -35.9456   23.3267 H   0  0  0  0  0  0
  -24.3560  -36.8858   22.2078 H   0  0  0  0  0  0
  -23.7240  -37.6303   23.6766 H   0  0  0  0  0  0
  -26.3026  -31.2412   20.6263 H   0  0  0  0  0  0
  -26.9462  -30.5880   22.0837 H   0  0  0  0  0  0
  -28.1708  -28.3579   21.3185 H   0  0  0  0  0  0
  -25.8345  -25.5932   19.0128 H   0  0  0  0  0  0
  -24.0371  -27.2036   18.9342 H   0  0  0  0  0  0
  -23.9485  -30.4458   19.3766 H   0  0  0  0  0  0
  -22.8744  -29.1560   19.8159 H   0  0  0  0  0  0
  -25.1360  -36.1641   25.0769 H   0  0  0  0  0  0
  -21.0058  -28.3412   24.1263 H   0  0  0  0  0  0
  -20.5664  -26.2409   23.3669 H   0  0  0  0  0  0
  -21.6666  -26.7376   22.1225 H   0  0  0  0  0  0
  -19.6937  -25.6260   21.1296 H   0  0  0  0  0  0
  -19.6726  -27.3137   20.6714 H   0  0  0  0  0  0
  -17.4234  -26.6692   21.4021 H   0  0  0  0  0  0
  -18.0351  -26.0110   22.9032 H   0  0  0  0  0  0
  -19.7988  -30.7347   24.2158 H   0  0  0  0  0  0
  -17.5051  -31.6276   24.5166 H   0  0  0  0  0  0
  -15.5388  -30.2963   23.7719 H   0  0  0  0  0  0
  -15.8721  -28.0800   22.7126 H   0  0  0  0  0  0
  -24.5870  -30.7145   25.7588 H   0  0  0  0  0  0
  -24.8818  -32.3047   26.4507 H   0  0  0  0  0  0
  -25.7827  -30.9122   27.0205 H   0  0  0  0  0  0
  -26.3263  -29.6434   24.1602 H   0  0  0  0  0  0
  -27.3959  -29.7293   25.5358 H   0  0  0  0  0  0
  -27.9246  -30.3949   24.0140 H   0  0  0  0  0  0
  -27.2575  -33.3743   26.1860 H   0  0  0  0  0  0
  -28.3964  -32.6809   25.0413 H   0  0  0  0  0  0
  -28.0586  -31.8645   26.5600 H   0  0  0  0  0  0
  -28.2550  -38.0052   24.7507 H   0  0  0  0  0  0
  -28.1086  -36.2573   24.6308 H   0  0  0  0  0  0
  -27.2274  -37.1381   25.8869 H   0  0  0  0  0  0
  -20.9738  -29.8672   21.6506 H   0  0  0  0  0  0
  -26.0095  -38.2694   24.1413 H   0  0  0  0  0  0
  -29.7787  -22.0961   19.5197 H   0  0  0  0  0  0
  -29.6050  -22.1027   21.2209 H   0  0  0  0  0  0
  -27.2485  -23.5180   20.9469 H   0  0  0  0  0  0
  -27.4981  -23.5684   19.2594 H   0  0  0  0  0  0
  -30.6767  -18.9960   20.3393 H   0  0  0  0  0  0
  -28.4682  -16.8494   20.4524 H   0  0  0  0  0  0
  1 25  1  0  0  0
  1 30  2  0  0  0
  1 75  1  0  0  0
  2  3  1  0  0  0
  2 25  1  0  0  0
  2 77  1  0  0  0
  2 78  1  0  0  0
  3  4  1  0  0  0
  3 79  1  0  0  0
  3 80  1  0  0  0
  4  5  1  0  0  0
  4 81  1  0  0  0
  4 82  1  0  0  0
  5  6  1  0  0  0
  5 26  1  0  0  0
  5 83  1  0  0  0
  6 25  1  0  0  0
  6 84  1  0  0  0
  6 85  1  0  0  0
  7  8  2  0  0  0
  7 26  1  0  0  0
  7 29  1  0  0  0
  8  9  1  0  0  0
  8 22  1  0  0  0
  9 10  1  0  0  0
  9 27  2  0  0  0
 10 11  2  0  0  0
 10 15  1  0  0  0
 11 12  1  0  0  0
 11 86  1  0  0  0
 12 13  2  0  0  0
 12 87  1  0  0  0
 13 14  1  0  0  0
 13 31  1  0  0  0
 14 15  2  0  0  0
 14 88  1  0  0  0
 15 89  1  0  0  0
 16 17  2  0  0  0
 16 21  1  0  0  0
 16 31  1  0  0  0
 17 18  1  0  0  0
 17 90  1  0  0  0
 18 19  2  0  0  0
 18 91  1  0  0  0
 19 20  1  0  0  0
 19 24  1  0  0  0
 20 21  2  0  0  0
 20 92  1  0  0  0
 21 23  1  0  0  0
 22 28  1  0  0  0
 22 32  2  0  0  0
 26 27  1  0  0  0
 28 93  1  0  0  0
 28 94  1  0  0  0
 29 95  1  0  0  0
 29 96  1  0  0  0
 33 34  1  0  0  0
 33 66  1  0  0  0
 33 70  2  0  0  0
 34 36  1  0  0  0
 34 59  1  0  0  0
 34 97  1  0  0  0
 35 44  2  0  0  0
 35 45  1  0  0  0
 35 68  1  0  0  0
 36 56  1  0  0  0
 36 98  1  0  0  0
 37 39  1  0  0  0
 37 47  1  0  0  0
 37 66  1  0  0  0
 37 99  1  0  0  0
 38 43  2  0  0  0
 38 46  1  0  0  0
 38 47  1  0  0  0
 39 64  1  0  0  0
 39 67  2  0  0  0
 40 52  1  0  0  0
 40 53  2  0  0  0
 40 58  1  0  0  0
 41100  1  0  0  0
 41101  1  0  0  0
 41102  1  0  0  0
 41 48  1  0  0  0
 42 43  1  0  0  0
 42 66  1  0  0  0
 42103  1  0  0  0
 42104  1  0  0  0
 43 44  1  0  0  0
 44105  1  0  0  0
 45 46  2  0  0  0
 45106  1  0  0  0
 46107  1  0  0  0
 47108  1  0  0  0
 47109  1  0  0  0
 48 56  1  0  0  0
 48 65  1  0  0  0
 48110  1  0  0  0
 49 50  1  0  0  0
 49 53  1  0  0  0
 49 64  1  0  0  0
 49111  1  0  0  0
 50 51  1  0  0  0
 50112  1  0  0  0
 50113  1  0  0  0
 51 52  1  0  0  0
 51114  1  0  0  0
 51115  1  0  0  0
 52116  1  0  0  0
 52117  1  0  0  0
 53 54  1  0  0  0
 54 55  2  0  0  0
 54118  1  0  0  0
 55 57  1  0  0  0
 55119  1  0  0  0
 56 69  2  0  0  0
 57 58  2  0  0  0
 57120  1  0  0  0
 58121  1  0  0  0
 59 60  1  0  0  0
 59 61  1  0  0  0
 59 62  1  0  0  0
 60122  1  0  0  0
 60123  1  0  0  0
 60124  1  0  0  0
 61125  1  0  0  0
 61126  1  0  0  0
 61127  1  0  0  0
 62128  1  0  0  0
 62129  1  0  0  0
 62130  1  0  0  0
 63 65  1  0  0  0
 63131  1  0  0  0
 63132  1  0  0  0
 63133  1  0  0  0
 64134  1  0  0  0
 65135  1  0  0  0
 68 73  1  0  0  0
 71 72  1  0  0  0
 71 74  1  0  0  0
 71 76  2  0  0  0
 72 73  1  0  0  0
 72136  1  0  0  0
 72137  1  0  0  0
 73138  1  0  0  0
 73139  1  0  0  0
 74 75  1  0  0  0
 74140  1  0  0  0
 75141  1  0  0  0
M  ISO  4   1 100  68 101  73 101  75 100
M  END
> <chiral flag>
0

> <version>
0

> <s_m_source_file>
/data/baiqing/PycharmProjects/Reinvent-master-3.2/result/LINK_invent/BTK/process_docking_weight1_custom_sum_contain_oxygen_bond_distance_aromatic_linkinvent_7_9_3/rearranged_h_0001.sdf

> <i_m_source_file_index>
57

> <r_mmod_Potential_Energy-OPLS-2005>
2473.28979492188

> <r_mmod_Stretch_Energy-OPLS-2005>
1232.626953125

> <r_mmod_Bend_Energy-OPLS-2005>
632.611206054688

> <r_mmod_Torsional_Energy-OPLS-2005>
206.096466064453

> <r_mmod_Improper_Torsional_Energy-OPLS-2005>
3.57621335983276

> <r_mmod_Van_der_Waal_Energy-OPLS-2005>
108.753349304199

> <r_mmod_Electrostatic_Energy-OPLS-2005>
-425.954132080078

> <r_mmod_Solvation_Energy-OPLS-2005>
-238.424194335938

> <b_mmod_Minimization_Converged-OPLS-2005>
1

> <r_mmod_RMS_Derivative-OPLS-2005>
0.0398671589791775

$$$$
