0
                    3D
 Structure written by MMmdl.
173183  0  0  1  0            999 V2000
  -30.5684  -14.9313   20.4182 C   0  0  0  0  0  0
  -30.4113  -12.5831   19.4807 C   0  0  0  0  0  0
  -29.5016  -12.5180   18.2366 C   0  0  0  0  0  0
  -28.0364  -12.3123   18.6640 C   0  0  0  0  0  0
  -27.6168  -13.2489   19.8290 C   0  0  2  0  0  0
  -28.6608  -13.2803   20.9627 C   0  0  0  0  0  0
  -25.2387  -13.8208   20.5672 C   0  0  0  0  0  0
  -24.1739  -13.0424   20.9226 C   0  0  0  0  0  0
  -24.6372  -11.6913   20.8776 C   0  0  0  0  0  0
  -23.9075  -10.4282   21.0436 C   0  0  0  0  0  0
  -24.3631   -9.4194   21.9202 C   0  0  0  0  0  0
  -23.6294   -8.2239   22.0776 C   0  0  0  0  0  0
  -22.4286   -8.0276   21.3554 C   0  0  0  0  0  0
  -21.9917   -9.0255   20.4659 C   0  0  0  0  0  0
  -22.7261  -10.2127   20.3066 C   0  0  0  0  0  0
  -21.6846   -6.0742   22.5284 C   0  0  0  0  0  0
  -21.4010   -6.5648   23.8220 C   0  0  0  0  0  0
  -21.3647   -5.6797   24.9174 C   0  0  0  0  0  0
  -21.6044   -4.3065   24.7222 C   0  0  0  0  0  0
  -21.8815   -3.8151   23.4347 C   0  0  0  0  0  0
  -21.9191   -4.6968   22.3404 C   0  0  0  0  0  0
  -22.7763  -13.5199   21.1869 C   0  0  0  0  0  0
  -22.1661   -4.2158   21.0978 F   0  0  0  0  0  0
  -21.5622   -3.4540   25.7732 F   0  0  0  0  0  0
  -29.9158  -13.7025   20.3380 N   0  0  0  0  0  0
  -26.2813  -12.9445   20.3218 N   0  0  0  0  0  0
  -25.9296  -11.6584   20.5756 N   0  0  0  0  0  0
  -22.0416  -12.8200   22.0434 N   0  0  0  0  0  0
  -25.3942  -15.1924   20.3994 N   0  0  0  0  0  0
  -31.7862  -14.8836   20.2012 O   0  0  0  0  0  0
  -21.6638   -6.8884   21.4247 O   0  0  0  0  0  0
  -22.3458  -14.5510   20.6716 O   0  0  0  0  0  0
  -24.6382  -31.8432   23.1832 C   0  0  0  0  0  0
  -25.9166  -32.4677   23.8278 C   0  0  1  0  0  0
  -27.2171  -27.1494   20.1903 C   0  0  0  0  0  0
  -25.5927  -33.8485   24.2169 N   0  0  0  0  0  0
  -23.4411  -30.4598   21.5267 C   0  0  2  0  0  0
  -24.8934  -28.8778   20.1268 C   0  0  0  0  0  0
  -22.7580  -29.4497   22.4823 C   0  0  0  0  0  0
  -18.0335  -28.1378   22.8472 C   0  0  0  0  0  0
  -24.1492  -36.7235   23.2671 C   0  0  0  0  0  0
  -25.9947  -30.7241   21.3810 C   0  0  0  0  0  0
  -26.0653  -29.3306   20.7444 C   0  0  0  0  0  0
  -27.2334  -28.4843   20.7503 C   0  0  0  0  0  0
  -26.0209  -26.7793   19.5469 C   0  0  0  0  0  0
  -24.8823  -27.6146   19.5139 C   0  0  0  0  0  0
  -23.6730  -29.7822   20.1514 C   0  0  0  0  0  0
  -25.4104  -36.2982   24.0333 C   0  0  1  0  0  0
  -20.5938  -28.3645   23.1231 C   0  0  2  0  0  0
  -20.6805  -26.9350   22.5392 C   0  0  0  0  0  0
  -19.5764  -26.6338   21.5209 C   0  0  0  0  0  0
  -18.1930  -26.7917   22.1624 C   0  0  0  0  0  0
  -19.1590  -28.8844   23.2839 C   0  0  0  0  0  0
  -18.9509  -30.1473   23.8822 C   0  0  0  0  0  0
  -17.6497  -30.6560   24.0547 C   0  0  0  0  0  0
  -25.9076  -34.9389   23.5045 C   0  0  0  0  0  0
  -16.5391  -29.9051   23.6354 C   0  0  0  0  0  0
  -16.7318  -28.6490   23.0336 C   0  0  0  0  0  0
  -26.4497  -31.6531   25.0714 C   0  0  0  0  0  0
  -25.3701  -31.3753   26.1418 C   0  0  0  0  0  0
  -27.0385  -30.2937   24.6273 C   0  0  0  0  0  0
  -27.6006  -32.4313   25.7502 C   0  0  0  0  0  0
  -27.5557  -37.1754   24.8488 C   0  0  0  0  0  0
  -21.4266  -29.2976   22.3614 N   0  0  0  0  0  0
  -26.4272  -37.3697   23.9436 N   0  0  0  0  0  0
  -24.7107  -31.0346   22.0836 N   0  0  0  0  0  0
  -23.4251  -28.8054   23.2960 O   0  0  0  0  0  0
  -28.3286  -26.2620   20.0343 O   0  0  0  0  0  0
  -26.5672  -34.8894   22.4631 O   0  0  0  0  0  0
  -23.5483  -32.1339   23.6997 O   0  0  0  0  0  0
  -25.4766  -22.3868   22.1290 C   0  0  0  0  0  0
  -27.0678  -24.1692   22.2345 C   0  0  0  0  0  0
  -27.7429  -23.6730   21.0969 C   0  0  0  0  0  0
  -25.8901  -23.5804   22.7218 C   0  0  0  0  0  0
  -26.2938  -21.6966   21.2133 C   0  0  0  0  0  0
  -27.5746  -22.1961   20.7931 C   0  0  0  0  0  0
  -30.0594  -18.8378   19.6043 C   0  0  0  0  0  0
  -28.0722  -18.2206   20.6837 C   0  0  0  0  0  0
  -29.0962  -25.4358   22.0867 C   0  0  0  0  0  0
  -30.7432  -17.4468   20.0265 C   0  0  0  0  0  0
  -28.7008  -16.7597   21.0740 C   0  0  0  0  0  0
  -27.7909  -25.3395   22.8931 C   0  0  2  0  0  0
  -28.7083  -24.9114   20.7030 C   0  0  2  0  0  0
  -28.9988  -19.5189   20.5502 C   0  0  0  0  0  0
  -25.0374  -24.2077   23.8102 C   0  0  0  0  0  0
  -25.6601  -20.4261   20.6723 C   0  0  0  0  0  0
  -28.1057  -25.1588   24.3922 C   0  0  0  0  0  0
  -28.5218  -21.0821   20.0343 C   0  0  0  0  0  0
  -29.9231  -16.2227   20.3696 N   0  0  0  0  0  0
  -31.4489  -12.7126   19.1688 H   0  0  0  0  0  0
  -30.3846  -11.6371   20.0228 H   0  0  0  0  0  0
  -29.8157  -11.7084   17.5773 H   0  0  0  0  0  0
  -29.5909  -13.4391   17.6575 H   0  0  0  0  0  0
  -27.9325  -11.2723   18.9736 H   0  0  0  0  0  0
  -27.3696  -12.4433   17.8103 H   0  0  0  0  0  0
  -27.5748  -14.2479   19.3936 H   0  0  0  0  0  0
  -28.7613  -12.3020   21.4348 H   0  0  0  0  0  0
  -28.3703  -13.9698   21.7556 H   0  0  0  0  0  0
  -25.2778   -9.5664   22.4792 H   0  0  0  0  0  0
  -23.9991   -7.4630   22.7507 H   0  0  0  0  0  0
  -21.0847   -8.8783   19.8965 H   0  0  0  0  0  0
  -22.3732  -10.9671   19.6180 H   0  0  0  0  0  0
  -21.2011   -7.6155   23.9721 H   0  0  0  0  0  0
  -21.1467   -6.0529   25.9078 H   0  0  0  0  0  0
  -22.0605   -2.7611   23.2840 H   0  0  0  0  0  0
  -22.4042  -11.9860   22.4814 H   0  0  0  0  0  0
  -21.1038  -13.1231   22.2650 H   0  0  0  0  0  0
  -24.6112  -15.8294   20.4966 H   0  0  0  0  0  0
  -26.2241  -15.6367   20.0297 H   0  0  0  0  0  0
  -26.7203  -32.5288   23.0990 H   0  0  0  0  0  0
  -25.0078  -33.9641   25.0312 H   0  0  0  0  0  0
  -22.7432  -31.2838   21.3614 H   0  0  0  0  0  0
  -23.3761  -35.9565   23.3292 H   0  0  0  0  0  0
  -24.3606  -36.8909   22.2117 H   0  0  0  0  0  0
  -23.7273  -37.6447   23.6709 H   0  0  0  0  0  0
  -26.1615  -31.4698   20.6030 H   0  0  0  0  0  0
  -26.8625  -30.7722   22.0277 H   0  0  0  0  0  0
  -28.1431  -28.8467   21.2092 H   0  0  0  0  0  0
  -25.9696  -25.8177   19.0568 H   0  0  0  0  0  0
  -23.9887  -27.2675   19.0196 H   0  0  0  0  0  0
  -23.8277  -30.5544   19.3966 H   0  0  0  0  0  0
  -22.7864  -29.2311   19.8302 H   0  0  0  0  0  0
  -25.1274  -36.1807   25.0824 H   0  0  0  0  0  0
  -21.0049  -28.3213   24.1356 H   0  0  0  0  0  0
  -20.5704  -26.2234   23.3598 H   0  0  0  0  0  0
  -21.6639  -26.7359   22.1159 H   0  0  0  0  0  0
  -19.6913  -25.6249   21.1233 H   0  0  0  0  0  0
  -19.6709  -27.3170   20.6747 H   0  0  0  0  0  0
  -17.4208  -26.6703   21.4033 H   0  0  0  0  0  0
  -18.0295  -26.0088   22.9027 H   0  0  0  0  0  0
  -19.7999  -30.7315   24.2081 H   0  0  0  0  0  0
  -17.5077  -31.6241   24.5161 H   0  0  0  0  0  0
  -15.5386  -30.2919   23.7725 H   0  0  0  0  0  0
  -15.8730  -28.0803   22.7007 H   0  0  0  0  0  0
  -24.5847  -30.7101   25.7769 H   0  0  0  0  0  0
  -24.8945  -32.2986   26.4785 H   0  0  0  0  0  0
  -25.7990  -30.9011   27.0242 H   0  0  0  0  0  0
  -26.3024  -29.6640   24.1264 H   0  0  0  0  0  0
  -27.4093  -29.7215   25.4800 H   0  0  0  0  0  0
  -27.8849  -30.4238   23.9505 H   0  0  0  0  0  0
  -27.2546  -33.3615   26.1984 H   0  0  0  0  0  0
  -28.3816  -32.6883   25.0328 H   0  0  0  0  0  0
  -28.0629  -31.8556   26.5523 H   0  0  0  0  0  0
  -28.2498  -38.0109   24.7453 H   0  0  0  0  0  0
  -28.1084  -36.2616   24.6296 H   0  0  0  0  0  0
  -27.2284  -37.1386   25.8900 H   0  0  0  0  0  0
  -20.9443  -29.8753   21.6866 H   0  0  0  0  0  0
  -26.0129  -38.2752   24.1451 H   0  0  0  0  0  0
  -24.5314  -21.9552   22.4317 H   0  0  0  0  0  0
  -29.5981  -18.6931   18.6250 H   0  0  0  0  0  0
  -30.8570  -19.5575   19.4211 H   0  0  0  0  0  0
  -27.3172  -18.4219   21.4368 H   0  0  0  0  0  0
  -27.5268  -18.0960   19.7463 H   0  0  0  0  0  0
  -29.8370  -24.7497   22.5047 H   0  0  0  0  0  0
  -29.5450  -26.4310   22.0998 H   0  0  0  0  0  0
  -31.3968  -17.6391   20.8791 H   0  0  0  0  0  0
  -31.4101  -17.1750   19.2057 H   0  0  0  0  0  0
  -27.9058  -16.0263   20.9806 H   0  0  0  0  0  0
  -28.9460  -16.7716   22.1366 H   0  0  0  0  0  0
  -27.1954  -26.2421   22.7556 H   0  0  0  0  0  0
  -29.5838  -24.5225   20.1794 H   0  0  0  0  0  0
  -29.4791  -19.6583   21.5196 H   0  0  0  0  0  0
  -23.9953  -23.9015   23.7047 H   0  0  0  0  0  0
  -25.0624  -25.2966   23.7577 H   0  0  0  0  0  0
  -25.3829  -23.8989   24.7990 H   0  0  0  0  0  0
  -24.6379  -20.6516   20.3716 H   0  0  0  0  0  0
  -25.5828  -19.6706   21.4529 H   0  0  0  0  0  0
  -26.1428  -20.0192   19.7873 H   0  0  0  0  0  0
  -28.6590  -24.2367   24.5719 H   0  0  0  0  0  0
  -27.2156  -25.1316   25.0131 H   0  0  0  0  0  0
  -28.7172  -25.9849   24.7574 H   0  0  0  0  0  0
  -29.4411  -21.6201   19.8157 H   0  0  0  0  0  0
  -28.0737  -20.9555   19.0482 H   0  0  0  0  0  0
  1 25  1  0  0  0
  1 30  2  0  0  0
  1 89  1  0  0  0
  2  3  1  0  0  0
  2 25  1  0  0  0
  2 90  1  0  0  0
  2 91  1  0  0  0
  3  4  1  0  0  0
  3 92  1  0  0  0
  3 93  1  0  0  0
  4  5  1  0  0  0
  4 94  1  0  0  0
  4 95  1  0  0  0
  5  6  1  0  0  0
  5 26  1  0  0  0
  5 96  1  0  0  0
  6 25  1  0  0  0
  6 97  1  0  0  0
  6 98  1  0  0  0
  7  8  2  0  0  0
  7 26  1  0  0  0
  7 29  1  0  0  0
  8  9  1  0  0  0
  8 22  1  0  0  0
  9 10  1  0  0  0
  9 27  2  0  0  0
 10 11  2  0  0  0
 10 15  1  0  0  0
 11 12  1  0  0  0
 11 99  1  0  0  0
 12 13  2  0  0  0
 12100  1  0  0  0
 13 14  1  0  0  0
 13 31  1  0  0  0
 14 15  2  0  0  0
 14101  1  0  0  0
 15102  1  0  0  0
 16 17  2  0  0  0
 16 21  1  0  0  0
 16 31  1  0  0  0
 17 18  1  0  0  0
 17103  1  0  0  0
 18 19  2  0  0  0
 18104  1  0  0  0
 19 20  1  0  0  0
 19 24  1  0  0  0
 20 21  2  0  0  0
 20105  1  0  0  0
 21 23  1  0  0  0
 22 28  1  0  0  0
 22 32  2  0  0  0
 26 27  1  0  0  0
 28106  1  0  0  0
 28107  1  0  0  0
 29108  1  0  0  0
 29109  1  0  0  0
 33 34  1  0  0  0
 33 66  1  0  0  0
 33 70  2  0  0  0
 34 36  1  0  0  0
 34 59  1  0  0  0
 34110  1  0  0  0
 35 44  2  0  0  0
 35 45  1  0  0  0
 35 68  1  0  0  0
 36 56  1  0  0  0
 36111  1  0  0  0
 37 39  1  0  0  0
 37 47  1  0  0  0
 37 66  1  0  0  0
 37112  1  0  0  0
 38 43  2  0  0  0
 38 46  1  0  0  0
 38 47  1  0  0  0
 39 64  1  0  0  0
 39 67  2  0  0  0
 40 52  1  0  0  0
 40 53  2  0  0  0
 40 58  1  0  0  0
 41113  1  0  0  0
 41114  1  0  0  0
 41115  1  0  0  0
 41 48  1  0  0  0
 42 43  1  0  0  0
 42 66  1  0  0  0
 42116  1  0  0  0
 42117  1  0  0  0
 43 44  1  0  0  0
 44118  1  0  0  0
 45 46  2  0  0  0
 45119  1  0  0  0
 46120  1  0  0  0
 47121  1  0  0  0
 47122  1  0  0  0
 48 56  1  0  0  0
 48 65  1  0  0  0
 48123  1  0  0  0
 49 50  1  0  0  0
 49 53  1  0  0  0
 49 64  1  0  0  0
 49124  1  0  0  0
 50 51  1  0  0  0
 50125  1  0  0  0
 50126  1  0  0  0
 51 52  1  0  0  0
 51127  1  0  0  0
 51128  1  0  0  0
 52129  1  0  0  0
 52130  1  0  0  0
 53 54  1  0  0  0
 54 55  2  0  0  0
 54131  1  0  0  0
 55 57  1  0  0  0
 55132  1  0  0  0
 56 69  2  0  0  0
 57 58  2  0  0  0
 57133  1  0  0  0
 58134  1  0  0  0
 59 60  1  0  0  0
 59 61  1  0  0  0
 59 62  1  0  0  0
 60135  1  0  0  0
 60136  1  0  0  0
 60137  1  0  0  0
 61138  1  0  0  0
 61139  1  0  0  0
 61140  1  0  0  0
 62141  1  0  0  0
 62142  1  0  0  0
 62143  1  0  0  0
 63 65  1  0  0  0
 63144  1  0  0  0
 63145  1  0  0  0
 63146  1  0  0  0
 64147  1  0  0  0
 65148  1  0  0  0
 68 83  1  0  0  0
 71 74  2  0  0  0
 71 75  1  0  0  0
 71149  1  0  0  0
 72 73  2  0  0  0
 72 74  1  0  0  0
 72 82  1  0  0  0
 73 76  1  0  0  0
 73 83  1  0  0  0
 74 85  1  0  0  0
 75 76  2  0  0  0
 75 86  1  0  0  0
 76 88  1  0  0  0
 77 80  1  0  0  0
 77 84  1  0  0  0
 77150  1  0  0  0
 77151  1  0  0  0
 78 81  1  0  0  0
 78 84  1  0  0  0
 78152  1  0  0  0
 78153  1  0  0  0
 79 82  1  0  0  0
 79 83  1  0  0  0
 79154  1  0  0  0
 79155  1  0  0  0
 80 89  1  0  0  0
 80156  1  0  0  0
 80157  1  0  0  0
 81 89  1  0  0  0
 81158  1  0  0  0
 81159  1  0  0  0
 82 87  1  0  0  0
 82160  1  0  0  0
 83161  1  0  0  0
 84 88  1  0  0  0
 84162  1  0  0  0
 85163  1  0  0  0
 85164  1  0  0  0
 85165  1  0  0  0
 86166  1  0  0  0
 86167  1  0  0  0
 86168  1  0  0  0
 87169  1  0  0  0
 87170  1  0  0  0
 87171  1  0  0  0
 88172  1  0  0  0
 88173  1  0  0  0
M  ISO  4   1 100  68 101  83 101  89 100
M  END
> <chiral flag>
0

> <version>
0

> <s_m_source_file>
/data/baiqing/PycharmProjects/Reinvent-master-3.2/result/LINK_invent/BTK/process_docking_weight1_custom_sum_contain_oxygen_bond_distance_aromatic_linkinvent_7_9_3/rearranged_h_0030.sdf

> <i_m_source_file_index>
1

> <r_mmod_Potential_Energy-OPLS-2005>
945.429809570312

> <r_mmod_Stretch_Energy-OPLS-2005>
257.372650146484

> <r_mmod_Bend_Energy-OPLS-2005>
468.585418701172

> <r_mmod_Torsional_Energy-OPLS-2005>
390.54150390625

> <r_mmod_Improper_Torsional_Energy-OPLS-2005>
15.198938369751

> <r_mmod_Van_der_Waal_Energy-OPLS-2005>
130.643798828125

> <r_mmod_Electrostatic_Energy-OPLS-2005>
-292.873352050781

> <r_mmod_Solvation_Energy-OPLS-2005>
-191.912887573242

> <b_mmod_Minimization_Converged-OPLS-2005>
0

> <r_mmod_RMS_Derivative-OPLS-2005>
4.95537042617798

$$$$
1
                    3D
 Structure written by MMmdl.
153161  0  0  1  0            999 V2000
  -30.4817  -15.1785   20.3789 C   0  0  0  0  0  0
  -30.4364  -12.7499   19.5146 C   0  0  0  0  0  0
  -29.5245  -12.5571   18.2785 C   0  0  0  0  0  0
  -28.0727  -12.2924   18.7137 C   0  0  0  0  0  0
  -27.6138  -13.2672   19.8270 C   0  0  2  0  0  0
  -28.6521  -13.4145   20.9586 C   0  0  0  0  0  0
  -25.2393  -13.8238   20.5757 C   0  0  0  0  0  0
  -24.1735  -13.0434   20.9255 C   0  0  0  0  0  0
  -24.6384  -11.6929   20.8775 C   0  0  0  0  0  0
  -23.9083  -10.4288   21.0408 C   0  0  0  0  0  0
  -24.3631   -9.4199   21.9179 C   0  0  0  0  0  0
  -23.6305   -8.2236   22.0744 C   0  0  0  0  0  0
  -22.4285   -8.0279   21.3535 C   0  0  0  0  0  0
  -21.9926   -9.0250   20.4633 C   0  0  0  0  0  0
  -22.7261  -10.2128   20.3046 C   0  0  0  0  0  0
  -21.6853   -6.0734   22.5273 C   0  0  0  0  0  0
  -21.4017   -6.5634   23.8207 C   0  0  0  0  0  0
  -21.3665   -5.6785   24.9170 C   0  0  0  0  0  0
  -21.6045   -4.3046   24.7218 C   0  0  0  0  0  0
  -21.8821   -3.8141   23.4338 C   0  0  0  0  0  0
  -21.9194   -4.6960   22.3394 C   0  0  0  0  0  0
  -22.7756  -13.5186   21.1914 C   0  0  0  0  0  0
  -22.1661   -4.2145   21.0973 F   0  0  0  0  0  0
  -21.5637   -3.4533   25.7734 F   0  0  0  0  0  0
  -29.8954  -13.8903   20.3331 N   0  0  0  0  0  0
  -26.2818  -12.9503   20.3251 N   0  0  0  0  0  0
  -25.9318  -11.6611   20.5750 N   0  0  0  0  0  0
  -22.0427  -12.8147   22.0467 N   0  0  0  0  0  0
  -25.4044  -15.1975   20.4209 N   0  0  0  0  0  0
  -31.7007  -15.1776   20.1653 O   0  0  0  0  0  0
  -21.6642   -6.8879   21.4232 O   0  0  0  0  0  0
  -22.3423  -14.5486   20.6762 O   0  0  0  0  0  0
  -24.6596  -31.8292   23.1762 C   0  0  0  0  0  0
  -25.9294  -32.4628   23.8200 C   0  0  1  0  0  0
  -27.2098  -26.9701   20.1693 C   0  0  0  0  0  0
  -25.5981  -33.8441   24.2103 N   0  0  0  0  0  0
  -23.4709  -30.4445   21.5260 C   0  0  2  0  0  0
  -24.9219  -28.8456   20.1112 C   0  0  0  0  0  0
  -22.7641  -29.4473   22.4812 C   0  0  0  0  0  0
  -18.0306  -28.1416   22.8472 C   0  0  0  0  0  0
  -24.1489  -36.7222   23.2648 C   0  0  0  0  0  0
  -26.0395  -30.6478   21.4006 C   0  0  0  0  0  0
  -26.1072  -29.2440   20.7419 C   0  0  0  0  0  0
  -27.2487  -28.3274   20.7492 C   0  0  0  0  0  0
  -25.9946  -26.7217   19.4884 C   0  0  0  0  0  0
  -24.8888  -27.6035   19.4655 C   0  0  0  0  0  0
  -23.7063  -29.7675   20.1495 C   0  0  0  0  0  0
  -25.4131  -36.2987   24.0298 C   0  0  1  0  0  0
  -20.5932  -28.3752   23.1202 C   0  0  2  0  0  0
  -20.6790  -26.9437   22.5404 C   0  0  0  0  0  0
  -19.5762  -26.6376   21.5225 C   0  0  0  0  0  0
  -18.1938  -26.7954   22.1621 C   0  0  0  0  0  0
  -19.1571  -28.8901   23.2818 C   0  0  0  0  0  0
  -18.9492  -30.1494   23.8850 C   0  0  0  0  0  0
  -17.6490  -30.6610   24.0560 C   0  0  0  0  0  0
  -25.9098  -34.9375   23.5016 C   0  0  0  0  0  0
  -16.5374  -29.9104   23.6357 C   0  0  0  0  0  0
  -16.7291  -28.6523   23.0376 C   0  0  0  0  0  0
  -26.4550  -31.6572   25.0721 C   0  0  0  0  0  0
  -25.3677  -31.3830   26.1378 C   0  0  0  0  0  0
  -27.0440  -30.2944   24.6439 C   0  0  0  0  0  0
  -27.6042  -32.4380   25.7521 C   0  0  0  0  0  0
  -27.5564  -37.1757   24.8461 C   0  0  0  0  0  0
  -21.4312  -29.3062   22.3565 N   0  0  0  0  0  0
  -26.4273  -37.3723   23.9413 N   0  0  0  0  0  0
  -24.7447  -30.9990   22.0884 N   0  0  0  0  0  0
  -23.4210  -28.8020   23.3015 O   0  0  0  0  0  0
  -28.1968  -25.8629   20.2427 O   0  0  0  0  0  0
  -26.5699  -34.8894   22.4605 O   0  0  0  0  0  0
  -23.5678  -32.1242   23.6879 O   0  0  0  0  0  0
  -29.1295  -20.3750   19.1548 C   0  0  0  0  0  0
  -28.7292  -21.8009   19.0703 C   0  0  0  0  0  0
  -29.4232  -19.5944   20.3414 C   0  0  0  0  0  0
  -28.5612  -22.7412   20.1800 C   0  0  0  0  0  0
  -28.8562  -21.9663   21.3854 C   0  0  0  0  0  0
  -29.2638  -20.5277   21.4539 C   0  0  0  0  0  0
  -28.4432  -22.3188   17.6699 C   0  0  0  0  0  0
  -28.7160  -22.7054   22.7080 C   0  0  0  0  0  0
  -30.1788  -18.0295   20.3724 C   0  0  0  0  0  0
  -27.7884  -24.3000   20.0580 C   0  0  0  0  0  0
  -29.7411  -16.4459   20.4557 N   0  0  0  0  0  0
  -29.6166  -19.8718   23.0170 Cl  0  0  0  0  0  0
  -31.4573  -12.9400   19.1803 H   0  0  0  0  0  0
  -30.4875  -11.8355   20.1079 H   0  0  0  0  0  0
  -29.8872  -11.7349   17.6593 H   0  0  0  0  0  0
  -29.5590  -13.4517   17.6550 H   0  0  0  0  0  0
  -28.0260  -11.2690   19.0867 H   0  0  0  0  0  0
  -27.3978  -12.3368   17.8582 H   0  0  0  0  0  0
  -27.5385  -14.2395   19.3382 H   0  0  0  0  0  0
  -28.7978  -12.4721   21.4900 H   0  0  0  0  0  0
  -28.3094  -14.1398   21.6981 H   0  0  0  0  0  0
  -25.2778   -9.5671   22.4755 H   0  0  0  0  0  0
  -24.0016   -7.4619   22.7456 H   0  0  0  0  0  0
  -21.0868   -8.8773   19.8930 H   0  0  0  0  0  0
  -22.3729  -10.9666   19.6156 H   0  0  0  0  0  0
  -21.2003   -7.6142   23.9712 H   0  0  0  0  0  0
  -21.1493   -6.0513   25.9075 H   0  0  0  0  0  0
  -22.0597   -2.7602   23.2836 H   0  0  0  0  0  0
  -22.4098  -11.9830   22.4847 H   0  0  0  0  0  0
  -21.1028  -13.1112   22.2684 H   0  0  0  0  0  0
  -24.6359  -15.8492   20.5368 H   0  0  0  0  0  0
  -26.2515  -15.6406   20.0906 H   0  0  0  0  0  0
  -26.7354  -32.5153   23.0903 H   0  0  0  0  0  0
  -25.0113  -33.9560   25.0243 H   0  0  0  0  0  0
  -22.7823  -31.2758   21.3610 H   0  0  0  0  0  0
  -23.3774  -35.9528   23.3274 H   0  0  0  0  0  0
  -24.3565  -36.8919   22.2071 H   0  0  0  0  0  0
  -23.7224  -37.6387   23.6734 H   0  0  0  0  0  0
  -26.2164  -31.3932   20.6238 H   0  0  0  0  0  0
  -26.9019  -30.6994   22.0534 H   0  0  0  0  0  0
  -28.1436  -28.6297   21.2755 H   0  0  0  0  0  0
  -25.8450  -25.7794   18.9857 H   0  0  0  0  0  0
  -23.9876  -27.2942   18.9539 H   0  0  0  0  0  0
  -23.8541  -30.5402   19.3938 H   0  0  0  0  0  0
  -22.8160  -29.2193   19.8366 H   0  0  0  0  0  0
  -25.1323  -36.1789   25.0788 H   0  0  0  0  0  0
  -21.0004  -28.3361   24.1335 H   0  0  0  0  0  0
  -20.5699  -26.2372   23.3644 H   0  0  0  0  0  0
  -21.6649  -26.7440   22.1191 H   0  0  0  0  0  0
  -19.6926  -25.6273   21.1298 H   0  0  0  0  0  0
  -19.6713  -27.3156   20.6731 H   0  0  0  0  0  0
  -17.4212  -26.6723   21.4015 H   0  0  0  0  0  0
  -18.0293  -26.0111   22.9022 H   0  0  0  0  0  0
  -19.7972  -30.7310   24.2208 H   0  0  0  0  0  0
  -17.5053  -31.6297   24.5152 H   0  0  0  0  0  0
  -15.5377  -30.2991   23.7720 H   0  0  0  0  0  0
  -15.8690  -28.0829   22.7128 H   0  0  0  0  0  0
  -24.5851  -30.7204   25.7672 H   0  0  0  0  0  0
  -24.8881  -32.3045   26.4687 H   0  0  0  0  0  0
  -25.7890  -30.9054   27.0235 H   0  0  0  0  0  0
  -26.3113  -29.6626   24.1414 H   0  0  0  0  0  0
  -27.3953  -29.7300   25.5088 H   0  0  0  0  0  0
  -27.9054  -30.4143   23.9869 H   0  0  0  0  0  0
  -27.2635  -33.3759   26.1917 H   0  0  0  0  0  0
  -28.3939  -32.6821   25.0405 H   0  0  0  0  0  0
  -28.0600  -31.8626   26.5586 H   0  0  0  0  0  0
  -28.2544  -38.0086   24.7518 H   0  0  0  0  0  0
  -28.1090  -36.2608   24.6268 H   0  0  0  0  0  0
  -27.2276  -37.1372   25.8861 H   0  0  0  0  0  0
  -20.9549  -29.8803   21.6749 H   0  0  0  0  0  0
  -26.0123  -38.2775   24.1453 H   0  0  0  0  0  0
  -29.2469  -19.8460   18.2186 H   0  0  0  0  0  0
  -28.7658  -21.6157   16.9017 H   0  0  0  0  0  0
  -28.9657  -23.2589   17.4913 H   0  0  0  0  0  0
  -27.3741  -22.4845   17.5341 H   0  0  0  0  0  0
  -28.4046  -23.7416   22.5824 H   0  0  0  0  0  0
  -29.6698  -22.7194   23.2357 H   0  0  0  0  0  0
  -27.9794  -22.2128   23.3423 H   0  0  0  0  0  0
  -30.8990  -18.1196   21.1856 H   0  0  0  0  0  0
  -30.8119  -18.0535   19.4853 H   0  0  0  0  0  0
  -26.9218  -24.1882   20.7096 H   0  0  0  0  0  0
  -27.3576  -24.2760   19.0607 H   0  0  0  0  0  0
  -28.7482  -16.3122   20.5747 H   0  0  0  0  0  0
  1 25  1  0  0  0
  1 30  2  0  0  0
  1 81  1  0  0  0
  2  3  1  0  0  0
  2 25  1  0  0  0
  2 83  1  0  0  0
  2 84  1  0  0  0
  3  4  1  0  0  0
  3 85  1  0  0  0
  3 86  1  0  0  0
  4  5  1  0  0  0
  4 87  1  0  0  0
  4 88  1  0  0  0
  5  6  1  0  0  0
  5 26  1  0  0  0
  5 89  1  0  0  0
  6 25  1  0  0  0
  6 90  1  0  0  0
  6 91  1  0  0  0
  7  8  2  0  0  0
  7 26  1  0  0  0
  7 29  1  0  0  0
  8  9  1  0  0  0
  8 22  1  0  0  0
  9 10  1  0  0  0
  9 27  2  0  0  0
 10 11  2  0  0  0
 10 15  1  0  0  0
 11 12  1  0  0  0
 11 92  1  0  0  0
 12 13  2  0  0  0
 12 93  1  0  0  0
 13 14  1  0  0  0
 13 31  1  0  0  0
 14 15  2  0  0  0
 14 94  1  0  0  0
 15 95  1  0  0  0
 16 17  2  0  0  0
 16 21  1  0  0  0
 16 31  1  0  0  0
 17 18  1  0  0  0
 17 96  1  0  0  0
 18 19  2  0  0  0
 18 97  1  0  0  0
 19 20  1  0  0  0
 19 24  1  0  0  0
 20 21  2  0  0  0
 20 98  1  0  0  0
 21 23  1  0  0  0
 22 28  1  0  0  0
 22 32  2  0  0  0
 26 27  1  0  0  0
 28 99  1  0  0  0
 28100  1  0  0  0
 29101  1  0  0  0
 29102  1  0  0  0
 33 34  1  0  0  0
 33 66  1  0  0  0
 33 70  2  0  0  0
 34 36  1  0  0  0
 34 59  1  0  0  0
 34103  1  0  0  0
 35 44  2  0  0  0
 35 45  1  0  0  0
 35 68  1  0  0  0
 36 56  1  0  0  0
 36104  1  0  0  0
 37 39  1  0  0  0
 37 47  1  0  0  0
 37 66  1  0  0  0
 37105  1  0  0  0
 38 43  2  0  0  0
 38 46  1  0  0  0
 38 47  1  0  0  0
 39 64  1  0  0  0
 39 67  2  0  0  0
 40 52  1  0  0  0
 40 53  2  0  0  0
 40 58  1  0  0  0
 41106  1  0  0  0
 41107  1  0  0  0
 41108  1  0  0  0
 41 48  1  0  0  0
 42 43  1  0  0  0
 42 66  1  0  0  0
 42109  1  0  0  0
 42110  1  0  0  0
 43 44  1  0  0  0
 44111  1  0  0  0
 45 46  2  0  0  0
 45112  1  0  0  0
 46113  1  0  0  0
 47114  1  0  0  0
 47115  1  0  0  0
 48 56  1  0  0  0
 48 65  1  0  0  0
 48116  1  0  0  0
 49 50  1  0  0  0
 49 53  1  0  0  0
 49 64  1  0  0  0
 49117  1  0  0  0
 50 51  1  0  0  0
 50118  1  0  0  0
 50119  1  0  0  0
 51 52  1  0  0  0
 51120  1  0  0  0
 51121  1  0  0  0
 52122  1  0  0  0
 52123  1  0  0  0
 53 54  1  0  0  0
 54 55  2  0  0  0
 54124  1  0  0  0
 55 57  1  0  0  0
 55125  1  0  0  0
 56 69  2  0  0  0
 57 58  2  0  0  0
 57126  1  0  0  0
 58127  1  0  0  0
 59 60  1  0  0  0
 59 61  1  0  0  0
 59 62  1  0  0  0
 60128  1  0  0  0
 60129  1  0  0  0
 60130  1  0  0  0
 61131  1  0  0  0
 61132  1  0  0  0
 61133  1  0  0  0
 62134  1  0  0  0
 62135  1  0  0  0
 62136  1  0  0  0
 63 65  1  0  0  0
 63137  1  0  0  0
 63138  1  0  0  0
 63139  1  0  0  0
 64140  1  0  0  0
 65141  1  0  0  0
 68 80  1  0  0  0
 71 72  2  0  0  0
 71 73  1  0  0  0
 71142  1  0  0  0
 72 74  1  0  0  0
 72 77  1  0  0  0
 73 76  2  0  0  0
 73 79  1  0  0  0
 74 75  2  0  0  0
 74 80  1  0  0  0
 75 76  1  0  0  0
 75 78  1  0  0  0
 76 82  1  0  0  0
 77143  1  0  0  0
 77144  1  0  0  0
 77145  1  0  0  0
 78146  1  0  0  0
 78147  1  0  0  0
 78148  1  0  0  0
 79 81  1  0  0  0
 79149  1  0  0  0
 79150  1  0  0  0
 80151  1  0  0  0
 80152  1  0  0  0
 81153  1  0  0  0
M  ISO  4   1 100  68 101  80 101  81 100
M  END
> <chiral flag>
0

> <version>
0

> <s_m_source_file>
/data/baiqing/PycharmProjects/Reinvent-master-3.2/result/LINK_invent/BTK/process_docking_weight1_custom_sum_contain_oxygen_bond_distance_aromatic_linkinvent_7_9_3/rearranged_h_0030.sdf

> <i_m_source_file_index>
2

> <r_mmod_Potential_Energy-OPLS-2005>
1033.8701171875

> <r_mmod_Stretch_Energy-OPLS-2005>
455.53271484375

> <r_mmod_Bend_Energy-OPLS-2005>
404.500823974609

> <r_mmod_Torsional_Energy-OPLS-2005>
228.973526000977

> <r_mmod_Improper_Torsional_Energy-OPLS-2005>
9.63313007354736

> <r_mmod_Van_der_Waal_Energy-OPLS-2005>
137.423614501953

> <r_mmod_Electrostatic_Energy-OPLS-2005>
-380.553558349609

> <r_mmod_Solvation_Energy-OPLS-2005>
-208.101409912109

> <b_mmod_Minimization_Converged-OPLS-2005>
0

> <r_mmod_RMS_Derivative-OPLS-2005>
1.44581437110901

$$$$
2
                    3D
 Structure written by MMmdl.
159167  0  0  1  0            999 V2000
  -30.7705  -14.3361   20.7162 C   0  0  0  0  0  0
  -30.4195  -12.2900   19.3792 C   0  0  0  0  0  0
  -29.4833  -12.5415   18.1833 C   0  0  0  0  0  0
  -28.0077  -12.3921   18.5984 C   0  0  0  0  0  0
  -27.6677  -13.2006   19.8772 C   0  0  2  0  0  0
  -28.7036  -12.9171   20.9860 C   0  0  0  0  0  0
  -25.2622  -13.8161   20.5689 C   0  0  0  0  0  0
  -24.1853  -13.0440   20.9163 C   0  0  0  0  0  0
  -24.6391  -11.6902   20.8698 C   0  0  0  0  0  0
  -23.9053  -10.4293   21.0395 C   0  0  0  0  0  0
  -24.3605   -9.4213   21.9176 C   0  0  0  0  0  0
  -23.6287   -8.2242   22.0750 C   0  0  0  0  0  0
  -22.4267   -8.0278   21.3542 C   0  0  0  0  0  0
  -21.9896   -9.0254   20.4648 C   0  0  0  0  0  0
  -22.7223  -10.2136   20.3052 C   0  0  0  0  0  0
  -21.6853   -6.0735   22.5281 C   0  0  0  0  0  0
  -21.4014   -6.5637   23.8214 C   0  0  0  0  0  0
  -21.3666   -5.6790   24.9177 C   0  0  0  0  0  0
  -21.6044   -4.3051   24.7223 C   0  0  0  0  0  0
  -21.8821   -3.8139   23.4347 C   0  0  0  0  0  0
  -21.9193   -4.6961   22.3404 C   0  0  0  0  0  0
  -22.7871  -13.5244   21.1831 C   0  0  0  0  0  0
  -22.1660   -4.2145   21.0980 F   0  0  0  0  0  0
  -21.5632   -3.4536   25.7736 F   0  0  0  0  0  0
  -30.0512  -13.2145   20.4604 N   0  0  0  0  0  0
  -26.3044  -12.9320   20.3345 N   0  0  0  0  0  0
  -25.9310  -11.6483   20.5701 N   0  0  0  0  0  0
  -22.0501  -12.8255   22.0398 N   0  0  0  0  0  0
  -25.4376  -15.1878   20.4162 N   0  0  0  0  0  0
  -31.7702  -14.6701   20.0720 O   0  0  0  0  0  0
  -21.6638   -6.8871   21.4240 O   0  0  0  0  0  0
  -22.3559  -14.5554   20.6694 O   0  0  0  0  0  0
  -24.6140  -31.8698   23.2118 C   0  0  0  0  0  0
  -25.9039  -32.4834   23.8401 C   0  0  1  0  0  0
  -27.2302  -27.4467   20.0880 C   0  0  0  0  0  0
  -25.5906  -33.8628   24.2341 N   0  0  0  0  0  0
  -23.4007  -30.4950   21.5534 C   0  0  2  0  0  0
  -24.8447  -28.9681   20.1142 C   0  0  0  0  0  0
  -22.7402  -29.4674   22.5001 C   0  0  0  0  0  0
  -18.0276  -28.1361   22.8491 C   0  0  0  0  0  0
  -24.1491  -36.7317   23.2639 C   0  0  0  0  0  0
  -25.9293  -30.8399   21.3640 C   0  0  0  0  0  0
  -26.0065  -29.4773   20.7069 C   0  0  0  0  0  0
  -27.2041  -28.7259   20.6885 C   0  0  0  0  0  0
  -26.0491  -26.9579   19.4811 C   0  0  0  0  0  0
  -24.8612  -27.7076   19.4966 C   0  0  0  0  0  0
  -23.6082  -29.8329   20.1662 C   0  0  0  0  0  0
  -25.4106  -36.3110   24.0339 C   0  0  1  0  0  0
  -20.5862  -28.3648   23.1327 C   0  0  2  0  0  0
  -20.6763  -26.9383   22.5428 C   0  0  0  0  0  0
  -19.5734  -26.6351   21.5228 C   0  0  0  0  0  0
  -18.1922  -26.7900   22.1640 C   0  0  0  0  0  0
  -19.1527  -28.8823   23.2901 C   0  0  0  0  0  0
  -18.9452  -30.1445   23.8896 C   0  0  0  0  0  0
  -17.6455  -30.6579   24.0556 C   0  0  0  0  0  0
  -25.9031  -34.9483   23.5132 C   0  0  0  0  0  0
  -16.5345  -29.9075   23.6320 C   0  0  0  0  0  0
  -16.7266  -28.6492   23.0344 C   0  0  0  0  0  0
  -26.4470  -31.6601   25.0716 C   0  0  0  0  0  0
  -25.3740  -31.3689   26.1464 C   0  0  0  0  0  0
  -27.0295  -30.3045   24.6083 C   0  0  0  0  0  0
  -27.6056  -32.4309   25.7469 C   0  0  0  0  0  0
  -27.5575  -37.1820   24.8466 C   0  0  0  0  0  0
  -21.4135  -29.3028   22.3743 N   0  0  0  0  0  0
  -26.4294  -37.3788   23.9403 N   0  0  0  0  0  0
  -24.6658  -31.0817   22.1013 N   0  0  0  0  0  0
  -23.4189  -28.8206   23.3018 O   0  0  0  0  0  0
  -28.3902  -26.6983   20.1045 O   0  0  0  0  0  0
  -26.5586  -34.8930   22.4690 O   0  0  0  0  0  0
  -23.5340  -32.1439   23.7537 O   0  0  0  0  0  0
  -29.5199  -17.6727   20.7659 C   0  0  0  0  0  0
  -29.3895  -19.7715   22.6199 C   0  0  0  0  0  0
  -30.1752  -17.5323   22.0104 C   0  0  0  0  0  0
  -28.7044  -19.8924   21.3908 C   0  0  0  0  0  0
  -30.1229  -18.6083   22.9317 C   0  0  0  0  0  0
  -28.7910  -18.8361   20.4536 C   0  0  0  0  0  0
  -30.9340  -16.2445   22.3393 C   0  0  0  0  0  0
  -27.8232  -21.1139   21.1325 C   0  0  0  0  0  0
  -29.5147  -24.5320   20.5898 C   0  0  0  0  0  0
  -29.3242  -23.1286   21.2214 C   0  0  0  0  0  0
  -28.1981  -25.3165   20.4383 C   0  0  0  0  0  0
  -30.3395  -15.0359   21.7715 N   0  0  0  0  0  0
  -28.4891  -22.2166   20.3991 N   0  3  0  0  0  0
  -30.9316  -18.5281   24.4584 Cl  0  0  0  0  0  0
  -28.0016  -18.9259   18.9189 Cl  0  0  0  0  0  0
  -31.4612  -12.4039   19.0728 H   0  0  0  0  0  0
  -30.3220  -11.2589   19.7250 H   0  0  0  0  0  0
  -29.7126  -11.8508   17.3712 H   0  0  0  0  0  0
  -29.6549  -13.5448   17.7888 H   0  0  0  0  0  0
  -27.8148  -11.3319   18.7691 H   0  0  0  0  0  0
  -27.3536  -12.6920   17.7788 H   0  0  0  0  0  0
  -27.7326  -14.2580   19.6191 H   0  0  0  0  0  0
  -28.6589  -11.8666   21.2781 H   0  0  0  0  0  0
  -28.4415  -13.4717   21.8867 H   0  0  0  0  0  0
  -25.2758   -9.5690   22.4742 H   0  0  0  0  0  0
  -24.0006   -7.4637   22.7471 H   0  0  0  0  0  0
  -21.0822   -8.8774   19.8960 H   0  0  0  0  0  0
  -22.3681  -10.9674   19.6156 H   0  0  0  0  0  0
  -21.2003   -7.6144   23.9716 H   0  0  0  0  0  0
  -21.1488   -6.0519   25.9084 H   0  0  0  0  0  0
  -22.0592   -2.7599   23.2849 H   0  0  0  0  0  0
  -22.4103  -11.9921   22.4816 H   0  0  0  0  0  0
  -21.1121  -13.1302   22.2590 H   0  0  0  0  0  0
  -24.6776  -15.8490   20.5344 H   0  0  0  0  0  0
  -26.3015  -15.6257   20.1225 H   0  0  0  0  0  0
  -26.7107  -32.5552   23.1168 H   0  0  0  0  0  0
  -25.0059  -33.9780   25.0486 H   0  0  0  0  0  0
  -22.6876  -31.3104   21.4181 H   0  0  0  0  0  0
  -23.3734  -35.9669   23.3330 H   0  0  0  0  0  0
  -24.3576  -36.8893   22.2044 H   0  0  0  0  0  0
  -23.7276  -37.6548   23.6626 H   0  0  0  0  0  0
  -26.0408  -31.6101   20.5993 H   0  0  0  0  0  0
  -26.8158  -30.8903   21.9838 H   0  0  0  0  0  0
  -28.1003  -29.1192   21.1476 H   0  0  0  0  0  0
  -26.0248  -26.0031   18.9772 H   0  0  0  0  0  0
  -23.9715  -27.3147   19.0257 H   0  0  0  0  0  0
  -23.7157  -30.6114   19.4095 H   0  0  0  0  0  0
  -22.7304  -29.2556   19.8696 H   0  0  0  0  0  0
  -25.1291  -36.1975   25.0832 H   0  0  0  0  0  0
  -20.9947  -28.3226   24.1456 H   0  0  0  0  0  0
  -20.5637  -26.2278   23.3626 H   0  0  0  0  0  0
  -21.6652  -26.7411   22.1263 H   0  0  0  0  0  0
  -19.6865  -25.6255   21.1271 H   0  0  0  0  0  0
  -19.6677  -27.3149   20.6740 H   0  0  0  0  0  0
  -17.4173  -26.6592   21.4071 H   0  0  0  0  0  0
  -18.0332  -26.0062   22.9075 H   0  0  0  0  0  0
  -19.7921  -30.7271   24.2259 H   0  0  0  0  0  0
  -17.5007  -31.6258   24.5150 H   0  0  0  0  0  0
  -15.5340  -30.2974   23.7639 H   0  0  0  0  0  0
  -15.8673  -28.0803   22.7051 H   0  0  0  0  0  0
  -24.5908  -30.7046   25.7800 H   0  0  0  0  0  0
  -24.8925  -32.2830   26.4938 H   0  0  0  0  0  0
  -25.8089  -30.8840   27.0214 H   0  0  0  0  0  0
  -26.2837  -29.6803   24.1153 H   0  0  0  0  0  0
  -27.4085  -29.7288   25.4539 H   0  0  0  0  0  0
  -27.8662  -30.4355   23.9219 H   0  0  0  0  0  0
  -27.2678  -33.3598   26.2079 H   0  0  0  0  0  0
  -28.3834  -32.6885   25.0265 H   0  0  0  0  0  0
  -28.0753  -31.8410   26.5351 H   0  0  0  0  0  0
  -28.2624  -38.0087   24.7473 H   0  0  0  0  0  0
  -28.1051  -36.2625   24.6349 H   0  0  0  0  0  0
  -27.2292  -37.1528   25.8871 H   0  0  0  0  0  0
  -20.9283  -29.8771   21.6993 H   0  0  0  0  0  0
  -26.0193  -38.2879   24.1376 H   0  0  0  0  0  0
  -29.5598  -16.8814   20.0325 H   0  0  0  0  0  0
  -29.3334  -20.5657   23.3507 H   0  0  0  0  0  0
  -30.9518  -16.0856   23.4179 H   0  0  0  0  0  0
  -31.9751  -16.3545   22.0334 H   0  0  0  0  0  0
  -27.4158  -21.4790   22.0763 H   0  0  0  0  0  0
  -26.9502  -20.8027   20.5590 H   0  0  0  0  0  0
  -30.0143  -24.4506   19.6246 H   0  0  0  0  0  0
  -30.1887  -25.1028   21.2299 H   0  0  0  0  0  0
  -28.8818  -23.2519   22.2118 H   0  0  0  0  0  0
  -30.2957  -22.6591   21.3793 H   0  0  0  0  0  0
  -27.6338  -25.2595   21.3719 H   0  0  0  0  0  0
  -27.6094  -24.8127   19.6731 H   0  0  0  0  0  0
  -29.5401  -14.6560   22.2564 H   0  0  0  0  0  0
  -27.7393  -22.7579   20.0033 H   0  0  0  0  0  0
  -29.0219  -21.8450   19.6296 H   0  0  0  0  0  0
  1 25  1  0  0  0
  1 30  2  0  0  0
  1 82  1  0  0  0
  2  3  1  0  0  0
  2 25  1  0  0  0
  2 86  1  0  0  0
  2 87  1  0  0  0
  3  4  1  0  0  0
  3 88  1  0  0  0
  3 89  1  0  0  0
  4  5  1  0  0  0
  4 90  1  0  0  0
  4 91  1  0  0  0
  5  6  1  0  0  0
  5 26  1  0  0  0
  5 92  1  0  0  0
  6 25  1  0  0  0
  6 93  1  0  0  0
  6 94  1  0  0  0
  7  8  2  0  0  0
  7 26  1  0  0  0
  7 29  1  0  0  0
  8  9  1  0  0  0
  8 22  1  0  0  0
  9 10  1  0  0  0
  9 27  2  0  0  0
 10 11  2  0  0  0
 10 15  1  0  0  0
 11 12  1  0  0  0
 11 95  1  0  0  0
 12 13  2  0  0  0
 12 96  1  0  0  0
 13 14  1  0  0  0
 13 31  1  0  0  0
 14 15  2  0  0  0
 14 97  1  0  0  0
 15 98  1  0  0  0
 16 17  2  0  0  0
 16 21  1  0  0  0
 16 31  1  0  0  0
 17 18  1  0  0  0
 17 99  1  0  0  0
 18 19  2  0  0  0
 18100  1  0  0  0
 19 20  1  0  0  0
 19 24  1  0  0  0
 20 21  2  0  0  0
 20101  1  0  0  0
 21 23  1  0  0  0
 22 28  1  0  0  0
 22 32  2  0  0  0
 26 27  1  0  0  0
 28102  1  0  0  0
 28103  1  0  0  0
 29104  1  0  0  0
 29105  1  0  0  0
 33 34  1  0  0  0
 33 66  1  0  0  0
 33 70  2  0  0  0
 34 36  1  0  0  0
 34 59  1  0  0  0
 34106  1  0  0  0
 35 44  2  0  0  0
 35 45  1  0  0  0
 35 68  1  0  0  0
 36 56  1  0  0  0
 36107  1  0  0  0
 37 39  1  0  0  0
 37 47  1  0  0  0
 37 66  1  0  0  0
 37108  1  0  0  0
 38 43  2  0  0  0
 38 46  1  0  0  0
 38 47  1  0  0  0
 39 64  1  0  0  0
 39 67  2  0  0  0
 40 52  1  0  0  0
 40 53  2  0  0  0
 40 58  1  0  0  0
 41109  1  0  0  0
 41110  1  0  0  0
 41111  1  0  0  0
 41 48  1  0  0  0
 42 43  1  0  0  0
 42 66  1  0  0  0
 42112  1  0  0  0
 42113  1  0  0  0
 43 44  1  0  0  0
 44114  1  0  0  0
 45 46  2  0  0  0
 45115  1  0  0  0
 46116  1  0  0  0
 47117  1  0  0  0
 47118  1  0  0  0
 48 56  1  0  0  0
 48 65  1  0  0  0
 48119  1  0  0  0
 49 50  1  0  0  0
 49 53  1  0  0  0
 49 64  1  0  0  0
 49120  1  0  0  0
 50 51  1  0  0  0
 50121  1  0  0  0
 50122  1  0  0  0
 51 52  1  0  0  0
 51123  1  0  0  0
 51124  1  0  0  0
 52125  1  0  0  0
 52126  1  0  0  0
 53 54  1  0  0  0
 54 55  2  0  0  0
 54127  1  0  0  0
 55 57  1  0  0  0
 55128  1  0  0  0
 56 69  2  0  0  0
 57 58  2  0  0  0
 57129  1  0  0  0
 58130  1  0  0  0
 59 60  1  0  0  0
 59 61  1  0  0  0
 59 62  1  0  0  0
 60131  1  0  0  0
 60132  1  0  0  0
 60133  1  0  0  0
 61134  1  0  0  0
 61135  1  0  0  0
 61136  1  0  0  0
 62137  1  0  0  0
 62138  1  0  0  0
 62139  1  0  0  0
 63 65  1  0  0  0
 63140  1  0  0  0
 63141  1  0  0  0
 63142  1  0  0  0
 64143  1  0  0  0
 65144  1  0  0  0
 68 81  1  0  0  0
 71 73  2  0  0  0
 71 76  1  0  0  0
 71145  1  0  0  0
 72 74  1  0  0  0
 72 75  2  0  0  0
 72146  1  0  0  0
 73 75  1  0  0  0
 73 77  1  0  0  0
 74 76  2  0  0  0
 74 78  1  0  0  0
 75 84  1  0  0  0
 76 85  1  0  0  0
 77 82  1  0  0  0
 77147  1  0  0  0
 77148  1  0  0  0
 78 83  1  0  0  0
 78149  1  0  0  0
 78150  1  0  0  0
 79 80  1  0  0  0
 79 81  1  0  0  0
 79151  1  0  0  0
 79152  1  0  0  0
 80 83  1  0  0  0
 80153  1  0  0  0
 80154  1  0  0  0
 81155  1  0  0  0
 81156  1  0  0  0
 82157  1  0  0  0
 83158  1  0  0  0
 83159  1  0  0  0
M  CHG  1  83   1
M  ISO  4   1 100  68 101  81 101  82 100
M  END
> <chiral flag>
0

> <version>
0

> <s_m_source_file>
/data/baiqing/PycharmProjects/Reinvent-master-3.2/result/LINK_invent/BTK/process_docking_weight1_custom_sum_contain_oxygen_bond_distance_aromatic_linkinvent_7_9_3/rearranged_h_0030.sdf

> <i_m_source_file_index>
3

> <r_mmod_Potential_Energy-OPLS-2005>
-338.915008544922

> <r_mmod_Stretch_Energy-OPLS-2005>
34.2291793823242

> <r_mmod_Bend_Energy-OPLS-2005>
90.0460586547852

> <r_mmod_Torsional_Energy-OPLS-2005>
202.370178222656

> <r_mmod_Improper_Torsional_Energy-OPLS-2005>
1.98848819732666

> <r_mmod_Van_der_Waal_Energy-OPLS-2005>
153.71711730957

> <r_mmod_Electrostatic_Energy-OPLS-2005>
-348.312255859375

> <r_mmod_Solvation_Energy-OPLS-2005>
-481.584930419922

> <b_mmod_Minimization_Converged-OPLS-2005>
0

> <r_mmod_RMS_Derivative-OPLS-2005>
1.85295510292053

$$$$
3
                    3D
 Structure written by MMmdl.
153161  0  0  1  0            999 V2000
  -30.6719  -14.6050   20.4649 C   0  0  0  0  0  0
  -30.4131  -12.3611   19.4569 C   0  0  0  0  0  0
  -29.5022  -12.4814   18.2188 C   0  0  0  0  0  0
  -28.0199  -12.3568   18.6254 C   0  0  0  0  0  0
  -27.6452  -13.2342   19.8535 C   0  0  2  0  0  0
  -28.6900  -13.1127   20.9852 C   0  0  0  0  0  0
  -25.2517  -13.8233   20.5695 C   0  0  0  0  0  0
  -24.1809  -13.0470   20.9206 C   0  0  0  0  0  0
  -24.6406  -11.6942   20.8744 C   0  0  0  0  0  0
  -23.9083  -10.4313   21.0403 C   0  0  0  0  0  0
  -24.3635   -9.4222   21.9164 C   0  0  0  0  0  0
  -23.6306   -8.2256   22.0740 C   0  0  0  0  0  0
  -22.4286   -8.0295   21.3543 C   0  0  0  0  0  0
  -21.9927   -9.0277   20.4657 C   0  0  0  0  0  0
  -22.7254  -10.2155   20.3060 C   0  0  0  0  0  0
  -21.6877   -6.0745   22.5272 C   0  0  0  0  0  0
  -21.4028   -6.5634   23.8210 C   0  0  0  0  0  0
  -21.3666   -5.6779   24.9164 C   0  0  0  0  0  0
  -21.6050   -4.3038   24.7214 C   0  0  0  0  0  0
  -21.8822   -3.8146   23.4328 C   0  0  0  0  0  0
  -21.9190   -4.6971   22.3392 C   0  0  0  0  0  0
  -22.7820  -13.5243   21.1815 C   0  0  0  0  0  0
  -22.1653   -4.2155   21.0966 F   0  0  0  0  0  0
  -21.5616   -3.4523   25.7723 F   0  0  0  0  0  0
  -30.0004  -13.4167   20.4016 N   0  0  0  0  0  0
  -26.2964  -12.9446   20.3300 N   0  0  0  0  0  0
  -25.9335  -11.6586   20.5747 N   0  0  0  0  0  0
  -22.0455  -12.8275   22.0402 N   0  0  0  0  0  0
  -25.4175  -15.1965   20.4114 N   0  0  0  0  0  0
  -31.8644  -14.6694   20.1586 O   0  0  0  0  0  0
  -21.6654   -6.8889   21.4241 O   0  0  0  0  0  0
  -22.3511  -14.5509   20.6584 O   0  0  0  0  0  0
  -24.6210  -31.8619   23.2027 C   0  0  0  0  0  0
  -25.9064  -32.4784   23.8352 C   0  0  1  0  0  0
  -27.2209  -27.3516   20.1195 C   0  0  0  0  0  0
  -25.5888  -33.8576   24.2283 N   0  0  0  0  0  0
  -23.4135  -30.4854   21.5439 C   0  0  2  0  0  0
  -24.8612  -28.9401   20.1124 C   0  0  0  0  0  0
  -22.7450  -29.4641   22.4936 C   0  0  0  0  0  0
  -18.0291  -28.1398   22.8498 C   0  0  0  0  0  0
  -24.1481  -36.7296   23.2651 C   0  0  0  0  0  0
  -25.9526  -30.8007   21.3721 C   0  0  0  0  0  0
  -26.0274  -29.4311   20.7154 C   0  0  0  0  0  0
  -27.2140  -28.6481   20.7083 C   0  0  0  0  0  0
  -26.0375  -26.8915   19.5118 C   0  0  0  0  0  0
  -24.8664  -27.6740   19.5016 C   0  0  0  0  0  0
  -23.6276  -29.8169   20.1595 C   0  0  0  0  0  0
  -25.4091  -36.3059   24.0346 C   0  0  1  0  0  0
  -20.5884  -28.3694   23.1299 C   0  0  2  0  0  0
  -20.6783  -26.9416   22.5434 C   0  0  0  0  0  0
  -19.5757  -26.6390   21.5248 C   0  0  0  0  0  0
  -18.1932  -26.7950   22.1644 C   0  0  0  0  0  0
  -19.1542  -28.8865   23.2896 C   0  0  0  0  0  0
  -18.9468  -30.1483   23.8902 C   0  0  0  0  0  0
  -17.6462  -30.6599   24.0584 C   0  0  0  0  0  0
  -25.9022  -34.9440   23.5117 C   0  0  0  0  0  0
  -16.5358  -29.9109   23.6340 C   0  0  0  0  0  0
  -16.7273  -28.6532   23.0342 C   0  0  0  0  0  0
  -26.4466  -31.6607   25.0727 C   0  0  0  0  0  0
  -25.3721  -31.3761   26.1473 C   0  0  0  0  0  0
  -27.0322  -30.3035   24.6197 C   0  0  0  0  0  0
  -27.6026  -32.4363   25.7495 C   0  0  0  0  0  0
  -27.5586  -37.1792   24.8461 C   0  0  0  0  0  0
  -21.4165  -29.3040   22.3685 N   0  0  0  0  0  0
  -26.4271  -37.3744   23.9432 N   0  0  0  0  0  0
  -24.6803  -31.0665   22.0952 N   0  0  0  0  0  0
  -23.4186  -28.8173   23.3000 O   0  0  0  0  0  0
  -28.3383  -26.5226   20.1207 O   0  0  0  0  0  0
  -26.5599  -34.8912   22.4683 O   0  0  0  0  0  0
  -23.5377  -32.1415   23.7362 O   0  0  0  0  0  0
  -29.8170  -19.2120   19.2549 C   0  0  0  0  0  0
  -29.8646  -18.4855   20.4733 C   0  0  0  0  0  0
  -29.3275  -21.3600   20.3979 C   0  0  0  0  0  0
  -29.5570  -20.6121   19.2100 C   0  0  0  0  0  0
  -29.4876  -19.1972   21.6424 C   0  0  0  0  0  0
  -29.2237  -20.6054   21.6039 C   0  0  0  0  0  0
  -29.4304  -22.9315   20.4127 C   0  0  0  0  0  0
  -30.6127  -17.1070   20.5274 C   0  0  0  0  0  0
  -28.1649  -23.8608   20.2432 C   0  0  0  0  0  0
  -28.2386  -25.2971   20.9201 C   0  0  0  0  0  0
  -29.9588  -15.7610   20.6381 N   0  0  0  0  0  0
  -29.6324  -21.4106   17.6786 Cl  0  0  0  0  0  0
  -29.4595  -18.3588   23.1596 Cl  0  0  0  0  0  0
  -28.8640  -21.4310   23.0845 Cl  0  0  0  0  0  0
  -31.4599  -12.4424   19.1613 H   0  0  0  0  0  0
  -30.3088  -11.3760   19.9144 H   0  0  0  0  0  0
  -29.7538  -11.7113   17.4879 H   0  0  0  0  0  0
  -29.6783  -13.4376   17.7253 H   0  0  0  0  0  0
  -27.8268  -11.3066   18.8466 H   0  0  0  0  0  0
  -27.3821  -12.6062   17.7750 H   0  0  0  0  0  0
  -27.6607  -14.2683   19.5070 H   0  0  0  0  0  0
  -28.6916  -12.1075   21.4107 H   0  0  0  0  0  0
  -28.4575  -13.7928   21.8059 H   0  0  0  0  0  0
  -25.2802   -9.5692   22.4718 H   0  0  0  0  0  0
  -24.0019   -7.4666   22.7481 H   0  0  0  0  0  0
  -21.0834   -8.8825   19.8999 H   0  0  0  0  0  0
  -22.3718  -10.9689   19.6158 H   0  0  0  0  0  0
  -21.2040   -7.6146   23.9716 H   0  0  0  0  0  0
  -21.1474   -6.0501   25.9064 H   0  0  0  0  0  0
  -22.0593   -2.7609   23.2821 H   0  0  0  0  0  0
  -22.4092  -12.0005   22.4903 H   0  0  0  0  0  0
  -21.1063  -13.1309   22.2545 H   0  0  0  0  0  0
  -24.6426  -15.8396   20.5330 H   0  0  0  0  0  0
  -26.2523  -15.6464   20.0595 H   0  0  0  0  0  0
  -26.7128  -32.5457   23.1090 H   0  0  0  0  0  0
  -25.0007  -33.9707   25.0414 H   0  0  0  0  0  0
  -22.7059  -31.3041   21.4001 H   0  0  0  0  0  0
  -23.3723  -35.9649   23.3282 H   0  0  0  0  0  0
  -24.3600  -36.8944   22.2078 H   0  0  0  0  0  0
  -23.7271  -37.6506   23.6691 H   0  0  0  0  0  0
  -26.0956  -31.5662   20.6071 H   0  0  0  0  0  0
  -26.8278  -30.8382   22.0090 H   0  0  0  0  0  0
  -28.1110  -29.0226   21.1835 H   0  0  0  0  0  0
  -26.0164  -25.9137   19.0521 H   0  0  0  0  0  0
  -23.9706  -27.2918   19.0309 H   0  0  0  0  0  0
  -23.7409  -30.5917   19.4009 H   0  0  0  0  0  0
  -22.7484  -29.2423   19.8617 H   0  0  0  0  0  0
  -25.1277  -36.1884   25.0842 H   0  0  0  0  0  0
  -21.0013  -28.3281   24.1412 H   0  0  0  0  0  0
  -20.5741  -26.2295   23.3623 H   0  0  0  0  0  0
  -21.6640  -26.7479   22.1204 H   0  0  0  0  0  0
  -19.6908  -25.6309   21.1272 H   0  0  0  0  0  0
  -19.6700  -27.3204   20.6784 H   0  0  0  0  0  0
  -17.4221  -26.6739   21.4021 H   0  0  0  0  0  0
  -18.0298  -26.0087   22.9033 H   0  0  0  0  0  0
  -19.7934  -30.7309   24.2256 H   0  0  0  0  0  0
  -17.5008  -31.6274   24.5205 H   0  0  0  0  0  0
  -15.5351  -30.3007   23.7650 H   0  0  0  0  0  0
  -15.8683  -28.0855   22.7030 H   0  0  0  0  0  0
  -24.5783  -30.7241   25.7815 H   0  0  0  0  0  0
  -24.9028  -32.2940   26.5013 H   0  0  0  0  0  0
  -25.8055  -30.8832   27.0178 H   0  0  0  0  0  0
  -26.2920  -29.6781   24.1184 H   0  0  0  0  0  0
  -27.3982  -29.7309   25.4731 H   0  0  0  0  0  0
  -27.8792  -30.4349   23.9458 H   0  0  0  0  0  0
  -27.2611  -33.3616   26.2151 H   0  0  0  0  0  0
  -28.3784  -32.7020   25.0305 H   0  0  0  0  0  0
  -28.0754  -31.8465   26.5355 H   0  0  0  0  0  0
  -28.2560  -38.0127   24.7506 H   0  0  0  0  0  0
  -28.1119  -36.2657   24.6236 H   0  0  0  0  0  0
  -27.2328  -37.1383   25.8869 H   0  0  0  0  0  0
  -20.9341  -29.8722   21.6856 H   0  0  0  0  0  0
  -26.0143  -38.2821   24.1405 H   0  0  0  0  0  0
  -30.0953  -18.7158   18.3372 H   0  0  0  0  0  0
  -30.1612  -23.2323   19.6592 H   0  0  0  0  0  0
  -29.9217  -23.1907   21.3515 H   0  0  0  0  0  0
  -31.3342  -17.1764   21.3438 H   0  0  0  0  0  0
  -31.2298  -17.0867   19.6274 H   0  0  0  0  0  0
  -27.3348  -23.3368   20.7215 H   0  0  0  0  0  0
  -27.8808  -23.9453   19.1947 H   0  0  0  0  0  0
  -29.0901  -25.3165   21.6034 H   0  0  0  0  0  0
  -27.3762  -25.3831   21.5844 H   0  0  0  0  0  0
  -28.9644  -15.7090   20.7999 H   0  0  0  0  0  0
  1 25  1  0  0  0
  1 30  2  0  0  0
  1 81  1  0  0  0
  2  3  1  0  0  0
  2 25  1  0  0  0
  2 85  1  0  0  0
  2 86  1  0  0  0
  3  4  1  0  0  0
  3 87  1  0  0  0
  3 88  1  0  0  0
  4  5  1  0  0  0
  4 89  1  0  0  0
  4 90  1  0  0  0
  5  6  1  0  0  0
  5 26  1  0  0  0
  5 91  1  0  0  0
  6 25  1  0  0  0
  6 92  1  0  0  0
  6 93  1  0  0  0
  7  8  2  0  0  0
  7 26  1  0  0  0
  7 29  1  0  0  0
  8  9  1  0  0  0
  8 22  1  0  0  0
  9 10  1  0  0  0
  9 27  2  0  0  0
 10 11  2  0  0  0
 10 15  1  0  0  0
 11 12  1  0  0  0
 11 94  1  0  0  0
 12 13  2  0  0  0
 12 95  1  0  0  0
 13 14  1  0  0  0
 13 31  1  0  0  0
 14 15  2  0  0  0
 14 96  1  0  0  0
 15 97  1  0  0  0
 16 17  2  0  0  0
 16 21  1  0  0  0
 16 31  1  0  0  0
 17 18  1  0  0  0
 17 98  1  0  0  0
 18 19  2  0  0  0
 18 99  1  0  0  0
 19 20  1  0  0  0
 19 24  1  0  0  0
 20 21  2  0  0  0
 20100  1  0  0  0
 21 23  1  0  0  0
 22 28  1  0  0  0
 22 32  2  0  0  0
 26 27  1  0  0  0
 28101  1  0  0  0
 28102  1  0  0  0
 29103  1  0  0  0
 29104  1  0  0  0
 33 34  1  0  0  0
 33 66  1  0  0  0
 33 70  2  0  0  0
 34 36  1  0  0  0
 34 59  1  0  0  0
 34105  1  0  0  0
 35 44  2  0  0  0
 35 45  1  0  0  0
 35 68  1  0  0  0
 36 56  1  0  0  0
 36106  1  0  0  0
 37 39  1  0  0  0
 37 47  1  0  0  0
 37 66  1  0  0  0
 37107  1  0  0  0
 38 43  2  0  0  0
 38 46  1  0  0  0
 38 47  1  0  0  0
 39 64  1  0  0  0
 39 67  2  0  0  0
 40 52  1  0  0  0
 40 53  2  0  0  0
 40 58  1  0  0  0
 41108  1  0  0  0
 41109  1  0  0  0
 41110  1  0  0  0
 41 48  1  0  0  0
 42 43  1  0  0  0
 42 66  1  0  0  0
 42111  1  0  0  0
 42112  1  0  0  0
 43 44  1  0  0  0
 44113  1  0  0  0
 45 46  2  0  0  0
 45114  1  0  0  0
 46115  1  0  0  0
 47116  1  0  0  0
 47117  1  0  0  0
 48 56  1  0  0  0
 48 65  1  0  0  0
 48118  1  0  0  0
 49 50  1  0  0  0
 49 53  1  0  0  0
 49 64  1  0  0  0
 49119  1  0  0  0
 50 51  1  0  0  0
 50120  1  0  0  0
 50121  1  0  0  0
 51 52  1  0  0  0
 51122  1  0  0  0
 51123  1  0  0  0
 52124  1  0  0  0
 52125  1  0  0  0
 53 54  1  0  0  0
 54 55  2  0  0  0
 54126  1  0  0  0
 55 57  1  0  0  0
 55127  1  0  0  0
 56 69  2  0  0  0
 57 58  2  0  0  0
 57128  1  0  0  0
 58129  1  0  0  0
 59 60  1  0  0  0
 59 61  1  0  0  0
 59 62  1  0  0  0
 60130  1  0  0  0
 60131  1  0  0  0
 60132  1  0  0  0
 61133  1  0  0  0
 61134  1  0  0  0
 61135  1  0  0  0
 62136  1  0  0  0
 62137  1  0  0  0
 62138  1  0  0  0
 63 65  1  0  0  0
 63139  1  0  0  0
 63140  1  0  0  0
 63141  1  0  0  0
 64142  1  0  0  0
 65143  1  0  0  0
 68 80  1  0  0  0
 71 72  2  0  0  0
 71 74  1  0  0  0
 71144  1  0  0  0
 72 75  1  0  0  0
 72 78  1  0  0  0
 73 74  2  0  0  0
 73 76  1  0  0  0
 73 77  1  0  0  0
 74 82  1  0  0  0
 75 76  2  0  0  0
 75 83  1  0  0  0
 76 84  1  0  0  0
 77 79  1  0  0  0
 77145  1  0  0  0
 77146  1  0  0  0
 78 81  1  0  0  0
 78147  1  0  0  0
 78148  1  0  0  0
 79 80  1  0  0  0
 79149  1  0  0  0
 79150  1  0  0  0
 80151  1  0  0  0
 80152  1  0  0  0
 81153  1  0  0  0
M  ISO  4   1 100  68 101  80 101  81 100
M  END
> <chiral flag>
0

> <version>
0

> <s_m_source_file>
/data/baiqing/PycharmProjects/Reinvent-master-3.2/result/LINK_invent/BTK/process_docking_weight1_custom_sum_contain_oxygen_bond_distance_aromatic_linkinvent_7_9_3/rearranged_h_0030.sdf

> <i_m_source_file_index>
4

> <r_mmod_Potential_Energy-OPLS-2005>
75.0447235107422

> <r_mmod_Stretch_Energy-OPLS-2005>
68.1036224365234

> <r_mmod_Bend_Energy-OPLS-2005>
139.31950378418

> <r_mmod_Torsional_Energy-OPLS-2005>
265.93017578125

> <r_mmod_Improper_Torsional_Energy-OPLS-2005>
9.24929141998291

> <r_mmod_Van_der_Waal_Energy-OPLS-2005>
143.175918579102

> <r_mmod_Electrostatic_Energy-OPLS-2005>
-388.000640869141

> <r_mmod_Solvation_Energy-OPLS-2005>
-203.957061767578

> <b_mmod_Minimization_Converged-OPLS-2005>
0

> <r_mmod_RMS_Derivative-OPLS-2005>
3.3263201713562

$$$$
4
                    3D
 Structure written by MMmdl.
162170  0  0  1  0            999 V2000
  -30.7012  -14.4464   20.6008 C   0  0  0  0  0  0
  -30.4324  -12.2975   19.4207 C   0  0  0  0  0  0
  -29.5000  -12.5109   18.2085 C   0  0  0  0  0  0
  -28.0202  -12.3678   18.6203 C   0  0  0  0  0  0
  -27.6697  -13.1986   19.8837 C   0  0  2  0  0  0
  -28.7096  -12.9488   21.0020 C   0  0  0  0  0  0
  -25.2616  -13.8137   20.5666 C   0  0  0  0  0  0
  -24.1850  -13.0431   20.9152 C   0  0  0  0  0  0
  -24.6390  -11.6892   20.8709 C   0  0  0  0  0  0
  -23.9048  -10.4286   21.0398 C   0  0  0  0  0  0
  -24.3597   -9.4207   21.9172 C   0  0  0  0  0  0
  -23.6273   -8.2247   22.0759 C   0  0  0  0  0  0
  -22.4254   -8.0289   21.3555 C   0  0  0  0  0  0
  -21.9881   -9.0256   20.4650 C   0  0  0  0  0  0
  -22.7214  -10.2130   20.3049 C   0  0  0  0  0  0
  -21.6852   -6.0730   22.5273 C   0  0  0  0  0  0
  -21.4027   -6.5633   23.8209 C   0  0  0  0  0  0
  -21.3667   -5.6791   24.9176 C   0  0  0  0  0  0
  -21.6043   -4.3051   24.7222 C   0  0  0  0  0  0
  -21.8812   -3.8139   23.4350 C   0  0  0  0  0  0
  -21.9189   -4.6955   22.3402 C   0  0  0  0  0  0
  -22.7868  -13.5246   21.1815 C   0  0  0  0  0  0
  -22.1655   -4.2141   21.0981 F   0  0  0  0  0  0
  -21.5627   -3.4537   25.7745 F   0  0  0  0  0  0
  -30.0482  -13.2609   20.4644 N   0  0  0  0  0  0
  -26.3060  -12.9295   20.3380 N   0  0  0  0  0  0
  -25.9316  -11.6460   20.5742 N   0  0  0  0  0  0
  -22.0498  -12.8259   22.0382 N   0  0  0  0  0  0
  -25.4365  -15.1854   20.4086 N   0  0  0  0  0  0
  -31.7889  -14.6878   20.0696 O   0  0  0  0  0  0
  -21.6641   -6.8868   21.4237 O   0  0  0  0  0  0
  -22.3560  -14.5550   20.6662 O   0  0  0  0  0  0
  -24.6131  -31.8683   23.2130 C   0  0  0  0  0  0
  -25.9032  -32.4827   23.8420 C   0  0  1  0  0  0
  -27.2577  -27.4497   20.0992 C   0  0  0  0  0  0
  -25.5897  -33.8627   24.2350 N   0  0  0  0  0  0
  -23.4032  -30.4900   21.5505 C   0  0  2  0  0  0
  -24.8574  -28.9557   20.1188 C   0  0  0  0  0  0
  -22.7406  -29.4659   22.4993 C   0  0  0  0  0  0
  -18.0273  -28.1372   22.8489 C   0  0  0  0  0  0
  -24.1485  -36.7315   23.2638 C   0  0  0  0  0  0
  -25.9302  -30.8345   21.3705 C   0  0  0  0  0  0
  -26.0112  -29.4672   20.7253 C   0  0  0  0  0  0
  -27.2110  -28.7196   20.7261 C   0  0  0  0  0  0
  -26.0896  -26.9584   19.4808 C   0  0  0  0  0  0
  -24.8892  -27.6956   19.4965 C   0  0  0  0  0  0
  -23.6154  -29.8184   20.1666 C   0  0  0  0  0  0
  -25.4102  -36.3116   24.0342 C   0  0  1  0  0  0
  -20.5862  -28.3662   23.1317 C   0  0  2  0  0  0
  -20.6761  -26.9398   22.5418 C   0  0  0  0  0  0
  -19.5745  -26.6388   21.5207 C   0  0  0  0  0  0
  -18.1923  -26.7923   22.1618 C   0  0  0  0  0  0
  -19.1523  -28.8835   23.2904 C   0  0  0  0  0  0
  -18.9450  -30.1438   23.8917 C   0  0  0  0  0  0
  -17.6450  -30.6580   24.0571 C   0  0  0  0  0  0
  -25.9026  -34.9478   23.5139 C   0  0  0  0  0  0
  -16.5342  -29.9081   23.6327 C   0  0  0  0  0  0
  -16.7261  -28.6497   23.0348 C   0  0  0  0  0  0
  -26.4489  -31.6610   25.0740 C   0  0  0  0  0  0
  -25.3777  -31.3697   26.1505 C   0  0  0  0  0  0
  -27.0331  -30.3057   24.6116 C   0  0  0  0  0  0
  -27.6080  -32.4337   25.7476 C   0  0  0  0  0  0
  -27.5583  -37.1804   24.8461 C   0  0  0  0  0  0
  -21.4137  -29.3029   22.3724 N   0  0  0  0  0  0
  -26.4290  -37.3798   23.9414 N   0  0  0  0  0  0
  -24.6657  -31.0794   22.1026 N   0  0  0  0  0  0
  -23.4176  -28.8202   23.3042 O   0  0  0  0  0  0
  -28.3869  -26.6587   20.0207 O   0  0  0  0  0  0
  -26.5578  -34.8924   22.4697 O   0  0  0  0  0  0
  -23.5326  -32.1431   23.7529 O   0  0  0  0  0  0
  -31.6179  -26.0687   20.3084 C   0  0  0  0  0  0
  -32.7270  -25.2059   20.2471 C   0  0  0  0  0  0
  -30.3677  -24.3630   21.5203 C   0  0  0  0  0  0
  -30.4369  -25.6660   20.9633 C   0  0  0  0  0  0
  -31.4878  -23.4875   21.4779 C   0  0  0  0  0  0
  -32.6745  -23.9312   20.8425 C   0  0  0  0  0  0
  -31.4469  -22.1340   22.2052 C   0  0  0  0  0  0
  -29.2954  -26.6737   21.1203 C   0  0  0  0  0  0
  -30.6782  -17.6824   22.0903 C   0  0  0  0  0  0
  -30.1305  -19.1327   22.1821 C   0  0  0  0  0  0
  -30.0610  -16.8475   20.9461 C   0  0  0  0  0  0
  -30.4982  -20.1101   21.0319 C   0  0  0  0  0  0
  -29.9935  -15.4063   21.2181 N   0  0  0  0  0  0
  -31.6790  -20.9540   21.3330 N   0  3  0  0  0  0
  -34.0929  -22.9434   20.7917 Cl  0  0  0  0  0  0
  -31.4772  -12.4021   19.1223 H   0  0  0  0  0  0
  -30.3359  -11.2805   19.8026 H   0  0  0  0  0  0
  -29.7379  -11.7946   17.4201 H   0  0  0  0  0  0
  -29.6685  -13.4999   17.7806 H   0  0  0  0  0  0
  -27.8262  -11.3105   18.8062 H   0  0  0  0  0  0
  -27.3702  -12.6505   17.7910 H   0  0  0  0  0  0
  -27.7258  -14.2496   19.6007 H   0  0  0  0  0  0
  -28.6802  -11.9027   21.3117 H   0  0  0  0  0  0
  -28.4659  -13.5184   21.8995 H   0  0  0  0  0  0
  -25.2745   -9.5690   22.4740 H   0  0  0  0  0  0
  -23.9990   -7.4639   22.7467 H   0  0  0  0  0  0
  -21.0816   -8.8763   19.8953 H   0  0  0  0  0  0
  -22.3668  -10.9664   19.6155 H   0  0  0  0  0  0
  -21.2037   -7.6145   23.9713 H   0  0  0  0  0  0
  -21.1497   -6.0525   25.9078 H   0  0  0  0  0  0
  -22.0585   -2.7600   23.2851 H   0  0  0  0  0  0
  -22.4116  -11.9951   22.4815 H   0  0  0  0  0  0
  -21.1111  -13.1299   22.2555 H   0  0  0  0  0  0
  -24.6753  -15.8441   20.5259 H   0  0  0  0  0  0
  -26.2935  -15.6228   20.0910 H   0  0  0  0  0  0
  -26.7104  -32.5558   23.1189 H   0  0  0  0  0  0
  -25.0094  -33.9800   25.0525 H   0  0  0  0  0  0
  -22.6918  -31.3061   21.4089 H   0  0  0  0  0  0
  -23.3742  -35.9655   23.3315 H   0  0  0  0  0  0
  -24.3584  -36.8908   22.2050 H   0  0  0  0  0  0
  -23.7239  -37.6527   23.6634 H   0  0  0  0  0  0
  -26.0451  -31.5989   20.6011 H   0  0  0  0  0  0
  -26.8158  -30.8901   21.9910 H   0  0  0  0  0  0
  -28.0918  -29.1351   21.1923 H   0  0  0  0  0  0
  -26.1106  -25.9964   18.9875 H   0  0  0  0  0  0
  -24.0050  -27.2961   19.0195 H   0  0  0  0  0  0
  -23.7196  -30.5906   19.4039 H   0  0  0  0  0  0
  -22.7423  -29.2330   19.8732 H   0  0  0  0  0  0
  -25.1275  -36.1988   25.0834 H   0  0  0  0  0  0
  -20.9956  -28.3227   24.1438 H   0  0  0  0  0  0
  -20.5652  -26.2271   23.3605 H   0  0  0  0  0  0
  -21.6635  -26.7437   22.1220 H   0  0  0  0  0  0
  -19.6910  -25.6306   21.1220 H   0  0  0  0  0  0
  -19.6686  -27.3214   20.6748 H   0  0  0  0  0  0
  -17.4195  -26.6674   21.4018 H   0  0  0  0  0  0
  -18.0326  -26.0056   22.9006 H   0  0  0  0  0  0
  -19.7923  -30.7250   24.2300 H   0  0  0  0  0  0
  -17.5004  -31.6259   24.5169 H   0  0  0  0  0  0
  -15.5344  -30.2987   23.7642 H   0  0  0  0  0  0
  -15.8662  -28.0822   22.7056 H   0  0  0  0  0  0
  -24.5959  -30.7025   25.7856 H   0  0  0  0  0  0
  -24.8960  -32.2840   26.4980 H   0  0  0  0  0  0
  -25.8165  -30.8865   27.0246 H   0  0  0  0  0  0
  -26.2864  -29.6780   24.1237 H   0  0  0  0  0  0
  -27.4178  -29.7335   25.4568 H   0  0  0  0  0  0
  -27.8669  -30.4383   23.9218 H   0  0  0  0  0  0
  -27.2715  -33.3639   26.2070 H   0  0  0  0  0  0
  -28.3863  -32.6895   25.0270 H   0  0  0  0  0  0
  -28.0779  -31.8453   26.5369 H   0  0  0  0  0  0
  -28.2599  -38.0102   24.7525 H   0  0  0  0  0  0
  -28.1078  -36.2640   24.6260 H   0  0  0  0  0  0
  -27.2310  -37.1427   25.8865 H   0  0  0  0  0  0
  -20.9300  -29.8746   21.6940 H   0  0  0  0  0  0
  -26.0183  -38.2875   24.1428 H   0  0  0  0  0  0
  -31.6887  -27.0565   19.8759 H   0  0  0  0  0  0
  -33.6369  -25.5354   19.7659 H   0  0  0  0  0  0
  -29.4644  -24.0566   22.0290 H   0  0  0  0  0  0
  -30.5135  -22.0269   22.7588 H   0  0  0  0  0  0
  -32.2313  -22.1479   22.9630 H   0  0  0  0  0  0
  -29.7402  -27.6642   21.2204 H   0  0  0  0  0  0
  -28.7613  -26.4691   22.0489 H   0  0  0  0  0  0
  -30.4530  -17.1936   23.0394 H   0  0  0  0  0  0
  -31.7662  -17.6824   22.0107 H   0  0  0  0  0  0
  -30.4232  -19.5619   23.1407 H   0  0  0  0  0  0
  -29.0432  -19.0701   22.2322 H   0  0  0  0  0  0
  -30.5762  -17.0486   20.0041 H   0  0  0  0  0  0
  -29.0295  -17.1638   20.7889 H   0  0  0  0  0  0
  -29.6547  -20.7679   20.8141 H   0  0  0  0  0  0
  -30.6799  -19.5562   20.1107 H   0  0  0  0  0  0
  -29.1490  -15.0834   21.6682 H   0  0  0  0  0  0
  -32.3719  -20.3677   21.7699 H   0  0  0  0  0  0
  -32.0845  -21.2900   20.4737 H   0  0  0  0  0  0
  1 25  1  0  0  0
  1 30  2  0  0  0
  1 83  1  0  0  0
  2  3  1  0  0  0
  2 25  1  0  0  0
  2 86  1  0  0  0
  2 87  1  0  0  0
  3  4  1  0  0  0
  3 88  1  0  0  0
  3 89  1  0  0  0
  4  5  1  0  0  0
  4 90  1  0  0  0
  4 91  1  0  0  0
  5  6  1  0  0  0
  5 26  1  0  0  0
  5 92  1  0  0  0
  6 25  1  0  0  0
  6 93  1  0  0  0
  6 94  1  0  0  0
  7  8  2  0  0  0
  7 26  1  0  0  0
  7 29  1  0  0  0
  8  9  1  0  0  0
  8 22  1  0  0  0
  9 10  1  0  0  0
  9 27  2  0  0  0
 10 11  2  0  0  0
 10 15  1  0  0  0
 11 12  1  0  0  0
 11 95  1  0  0  0
 12 13  2  0  0  0
 12 96  1  0  0  0
 13 14  1  0  0  0
 13 31  1  0  0  0
 14 15  2  0  0  0
 14 97  1  0  0  0
 15 98  1  0  0  0
 16 17  2  0  0  0
 16 21  1  0  0  0
 16 31  1  0  0  0
 17 18  1  0  0  0
 17 99  1  0  0  0
 18 19  2  0  0  0
 18100  1  0  0  0
 19 20  1  0  0  0
 19 24  1  0  0  0
 20 21  2  0  0  0
 20101  1  0  0  0
 21 23  1  0  0  0
 22 28  1  0  0  0
 22 32  2  0  0  0
 26 27  1  0  0  0
 28102  1  0  0  0
 28103  1  0  0  0
 29104  1  0  0  0
 29105  1  0  0  0
 33 34  1  0  0  0
 33 66  1  0  0  0
 33 70  2  0  0  0
 34 36  1  0  0  0
 34 59  1  0  0  0
 34106  1  0  0  0
 35 44  2  0  0  0
 35 45  1  0  0  0
 35 68  1  0  0  0
 36 56  1  0  0  0
 36107  1  0  0  0
 37 39  1  0  0  0
 37 47  1  0  0  0
 37 66  1  0  0  0
 37108  1  0  0  0
 38 43  2  0  0  0
 38 46  1  0  0  0
 38 47  1  0  0  0
 39 64  1  0  0  0
 39 67  2  0  0  0
 40 52  1  0  0  0
 40 53  2  0  0  0
 40 58  1  0  0  0
 41109  1  0  0  0
 41110  1  0  0  0
 41111  1  0  0  0
 41 48  1  0  0  0
 42 43  1  0  0  0
 42 66  1  0  0  0
 42112  1  0  0  0
 42113  1  0  0  0
 43 44  1  0  0  0
 44114  1  0  0  0
 45 46  2  0  0  0
 45115  1  0  0  0
 46116  1  0  0  0
 47117  1  0  0  0
 47118  1  0  0  0
 48 56  1  0  0  0
 48 65  1  0  0  0
 48119  1  0  0  0
 49 50  1  0  0  0
 49 53  1  0  0  0
 49 64  1  0  0  0
 49120  1  0  0  0
 50 51  1  0  0  0
 50121  1  0  0  0
 50122  1  0  0  0
 51 52  1  0  0  0
 51123  1  0  0  0
 51124  1  0  0  0
 52125  1  0  0  0
 52126  1  0  0  0
 53 54  1  0  0  0
 54 55  2  0  0  0
 54127  1  0  0  0
 55 57  1  0  0  0
 55128  1  0  0  0
 56 69  2  0  0  0
 57 58  2  0  0  0
 57129  1  0  0  0
 58130  1  0  0  0
 59 60  1  0  0  0
 59 61  1  0  0  0
 59 62  1  0  0  0
 60131  1  0  0  0
 60132  1  0  0  0
 60133  1  0  0  0
 61134  1  0  0  0
 61135  1  0  0  0
 61136  1  0  0  0
 62137  1  0  0  0
 62138  1  0  0  0
 62139  1  0  0  0
 63 65  1  0  0  0
 63140  1  0  0  0
 63141  1  0  0  0
 63142  1  0  0  0
 64143  1  0  0  0
 65144  1  0  0  0
 68 78  1  0  0  0
 71 72  2  0  0  0
 71 74  1  0  0  0
 71145  1  0  0  0
 72 76  1  0  0  0
 72146  1  0  0  0
 73 74  2  0  0  0
 73 75  1  0  0  0
 73147  1  0  0  0
 74 78  1  0  0  0
 75 76  2  0  0  0
 75 77  1  0  0  0
 76 85  1  0  0  0
 77 84  1  0  0  0
 77148  1  0  0  0
 77149  1  0  0  0
 78150  1  0  0  0
 78151  1  0  0  0
 79 80  1  0  0  0
 79 81  1  0  0  0
 79152  1  0  0  0
 79153  1  0  0  0
 80 82  1  0  0  0
 80154  1  0  0  0
 80155  1  0  0  0
 81 83  1  0  0  0
 81156  1  0  0  0
 81157  1  0  0  0
 82 84  1  0  0  0
 82158  1  0  0  0
 82159  1  0  0  0
 83160  1  0  0  0
 84161  1  0  0  0
 84162  1  0  0  0
M  CHG  1  84   1
M  ISO  4   1 100  68 101  78 101  83 100
M  END
> <chiral flag>
0

> <version>
0

> <s_m_source_file>
/data/baiqing/PycharmProjects/Reinvent-master-3.2/result/LINK_invent/BTK/process_docking_weight1_custom_sum_contain_oxygen_bond_distance_aromatic_linkinvent_7_9_3/rearranged_h_0030.sdf

> <i_m_source_file_index>
5

> <r_mmod_Potential_Energy-OPLS-2005>
-237.44010925293

> <r_mmod_Stretch_Energy-OPLS-2005>
37.4217109680176

> <r_mmod_Bend_Energy-OPLS-2005>
98.7153778076172

> <r_mmod_Torsional_Energy-OPLS-2005>
242.284271240234

> <r_mmod_Improper_Torsional_Energy-OPLS-2005>
5.33052968978882

> <r_mmod_Van_der_Waal_Energy-OPLS-2005>
148.110504150391

> <r_mmod_Electrostatic_Energy-OPLS-2005>
-316.217376708984

> <r_mmod_Solvation_Energy-OPLS-2005>
-462.510925292969

> <b_mmod_Minimization_Converged-OPLS-2005>
0

> <r_mmod_RMS_Derivative-OPLS-2005>
1.67153525352478

$$$$
5
                    3D
 Structure written by MMmdl.
165174  0  0  1  0            999 V2000
  -30.4359  -15.2275   20.3842 C   0  0  0  0  0  0
  -30.4474  -12.7728   19.5578 C   0  0  0  0  0  0
  -29.5456  -12.5427   18.3152 C   0  0  0  0  0  0
  -28.0888  -12.2852   18.7353 C   0  0  0  0  0  0
  -27.6209  -13.2647   19.8388 C   0  0  2  0  0  0
  -28.6470  -13.4204   20.9841 C   0  0  0  0  0  0
  -25.2428  -13.8222   20.5753 C   0  0  0  0  0  0
  -24.1740  -13.0445   20.9207 C   0  0  0  0  0  0
  -24.6379  -11.6936   20.8736 C   0  0  0  0  0  0
  -23.9065  -10.4319   21.0406 C   0  0  0  0  0  0
  -24.3638   -9.4242   21.9182 C   0  0  0  0  0  0
  -23.6313   -8.2266   22.0759 C   0  0  0  0  0  0
  -22.4286   -8.0303   21.3549 C   0  0  0  0  0  0
  -21.9927   -9.0274   20.4649 C   0  0  0  0  0  0
  -22.7245  -10.2151   20.3055 C   0  0  0  0  0  0
  -21.6862   -6.0760   22.5278 C   0  0  0  0  0  0
  -21.4021   -6.5661   23.8211 C   0  0  0  0  0  0
  -21.3646   -5.6803   24.9167 C   0  0  0  0  0  0
  -21.6047   -4.3069   24.7214 C   0  0  0  0  0  0
  -21.8818   -3.8167   23.4329 C   0  0  0  0  0  0
  -21.9196   -4.6992   22.3394 C   0  0  0  0  0  0
  -22.7769  -13.5229   21.1869 C   0  0  0  0  0  0
  -22.1662   -4.2173   21.0973 F   0  0  0  0  0  0
  -21.5616   -3.4552   25.7724 F   0  0  0  0  0  0
  -29.8966  -13.9110   20.3825 N   0  0  0  0  0  0
  -26.2850  -12.9483   20.3273 N   0  0  0  0  0  0
  -25.9315  -11.6600   20.5754 N   0  0  0  0  0  0
  -22.0443  -12.8212   22.0443 N   0  0  0  0  0  0
  -25.4124  -15.1933   20.4250 N   0  0  0  0  0  0
  -31.6254  -15.2644   20.0395 O   0  0  0  0  0  0
  -21.6654   -6.8901   21.4242 O   0  0  0  0  0  0
  -22.3462  -14.5537   20.6738 O   0  0  0  0  0  0
  -24.6618  -31.8232   23.1720 C   0  0  0  0  0  0
  -25.9303  -32.4619   23.8190 C   0  0  1  0  0  0
  -27.2130  -26.9426   20.2012 C   0  0  0  0  0  0
  -25.5989  -33.8419   24.2083 N   0  0  0  0  0  0
  -23.4778  -30.4348   21.5190 C   0  0  2  0  0  0
  -24.9299  -28.8257   20.1160 C   0  0  0  0  0  0
  -22.7685  -29.4404   22.4785 C   0  0  0  0  0  0
  -18.0304  -28.1412   22.8452 C   0  0  0  0  0  0
  -24.1480  -36.7208   23.2665 C   0  0  0  0  0  0
  -26.0449  -30.6400   21.3949 C   0  0  0  0  0  0
  -26.1134  -29.2277   20.7500 C   0  0  0  0  0  0
  -27.2521  -28.3076   20.7637 C   0  0  0  0  0  0
  -26.0048  -26.6873   19.5171 C   0  0  0  0  0  0
  -24.9021  -27.5769   19.4788 C   0  0  0  0  0  0
  -23.7205  -29.7563   20.1439 C   0  0  0  0  0  0
  -25.4114  -36.2972   24.0317 C   0  0  1  0  0  0
  -20.5938  -28.3723   23.1205 C   0  0  2  0  0  0
  -20.6789  -26.9413   22.5395 C   0  0  0  0  0  0
  -19.5766  -26.6361   21.5206 C   0  0  0  0  0  0
  -18.1933  -26.7940   22.1595 C   0  0  0  0  0  0
  -19.1577  -28.8886   23.2814 C   0  0  0  0  0  0
  -18.9508  -30.1473   23.8825 C   0  0  0  0  0  0
  -17.6508  -30.6597   24.0560 C   0  0  0  0  0  0
  -25.9071  -34.9363   23.5007 C   0  0  0  0  0  0
  -16.5385  -29.9092   23.6351 C   0  0  0  0  0  0
  -16.7290  -28.6529   23.0335 C   0  0  0  0  0  0
  -26.4544  -31.6553   25.0689 C   0  0  0  0  0  0
  -25.3699  -31.3812   26.1368 C   0  0  0  0  0  0
  -27.0465  -30.2957   24.6351 C   0  0  0  0  0  0
  -27.6062  -32.4339   25.7465 C   0  0  0  0  0  0
  -27.5540  -37.1740   24.8478 C   0  0  0  0  0  0
  -21.4349  -29.3032   22.3582 N   0  0  0  0  0  0
  -26.4249  -37.3699   23.9442 N   0  0  0  0  0  0
  -24.7500  -30.9927   22.0847 N   0  0  0  0  0  0
  -23.4254  -28.7937   23.2972 O   0  0  0  0  0  0
  -28.2235  -25.8530   20.2436 O   0  0  0  0  0  0
  -26.5685  -34.8904   22.4592 O   0  0  0  0  0  0
  -23.5687  -32.1172   23.6826 O   0  0  0  0  0  0
  -28.0733  -18.1217   19.3017 C   0  0  0  0  0  0
  -27.1071  -19.1542   19.6090 C   0  0  0  0  0  0
  -27.7165  -17.1587   18.3150 C   0  0  0  0  0  0
  -26.3964  -17.1193   17.8325 C   0  0  0  0  0  0
  -25.8199  -19.0151   19.0215 C   0  0  0  0  0  0
  -29.7720  -19.5996   20.5826 C   0  0  0  0  0  0
  -27.3129  -20.3996   20.5364 C   0  0  2  0  0  0
  -29.4590  -17.9984   19.9781 C   0  0  1  0  0  0
  -28.7373  -21.0086   20.6326 C   0  0  2  0  0  0
  -26.7703  -20.0903   21.9497 C   0  0  0  0  0  0
  -24.4832  -16.0657   16.4245 C   0  0  0  0  0  0
  -25.9453  -15.9988   16.8951 C   0  0  0  0  0  0
  -28.9077  -22.7371   20.1420 C   0  0  0  0  0  0
  -27.9531  -24.2375   20.4045 C   0  0  0  0  0  0
  -25.4700  -18.0174   18.1950 N   0  0  0  0  0  0
  -29.6555  -16.4635   20.6040 N   0  0  0  0  0  0
  -28.8702  -16.0665   17.6247 Cl  0  0  0  0  0  0
  -24.5308  -20.1219   19.3519 Cl  0  0  0  0  0  0
  -31.4681  -12.9704   19.2253 H   0  0  0  0  0  0
  -30.5162  -11.8646   20.1592 H   0  0  0  0  0  0
  -29.9150  -11.7006   17.7277 H   0  0  0  0  0  0
  -29.5938  -13.4115   17.6590 H   0  0  0  0  0  0
  -28.0370  -11.2628   19.1155 H   0  0  0  0  0  0
  -27.4222  -12.3252   17.8722 H   0  0  0  0  0  0
  -27.5455  -14.2347   19.3465 H   0  0  0  0  0  0
  -28.7965  -12.4818   21.5193 H   0  0  0  0  0  0
  -28.2892  -14.1435   21.7179 H   0  0  0  0  0  0
  -25.2776   -9.5738   22.4749 H   0  0  0  0  0  0
  -24.0031   -7.4683   22.7490 H   0  0  0  0  0  0
  -21.0849   -8.8796   19.8955 H   0  0  0  0  0  0
  -22.3701  -10.9702   19.6170 H   0  0  0  0  0  0
  -21.2019   -7.6169   23.9719 H   0  0  0  0  0  0
  -21.1456   -6.0535   25.9068 H   0  0  0  0  0  0
  -22.0606   -2.7629   23.2821 H   0  0  0  0  0  0
  -22.4085  -11.9874   22.4791 H   0  0  0  0  0  0
  -21.1064  -13.1241   22.2702 H   0  0  0  0  0  0
  -24.6375  -15.8407   20.5128 H   0  0  0  0  0  0
  -26.2664  -15.6323   20.1152 H   0  0  0  0  0  0
  -26.7367  -32.5132   23.0904 H   0  0  0  0  0  0
  -25.0179  -33.9504   25.0279 H   0  0  0  0  0  0
  -22.7905  -31.2660   21.3483 H   0  0  0  0  0  0
  -23.3746  -35.9536   23.3280 H   0  0  0  0  0  0
  -24.3593  -36.8868   22.2092 H   0  0  0  0  0  0
  -23.7213  -37.6381   23.6718 H   0  0  0  0  0  0
  -26.2100  -31.3755   20.6060 H   0  0  0  0  0  0
  -26.9150  -30.7078   22.0359 H   0  0  0  0  0  0
  -28.1493  -28.6135   21.2817 H   0  0  0  0  0  0
  -25.8879  -25.7360   19.0199 H   0  0  0  0  0  0
  -24.0049  -27.2601   18.9636 H   0  0  0  0  0  0
  -23.8949  -30.5246   19.3882 H   0  0  0  0  0  0
  -22.8296  -29.2182   19.8150 H   0  0  0  0  0  0
  -25.1293  -36.1756   25.0800 H   0  0  0  0  0  0
  -20.9988  -28.3264   24.1349 H   0  0  0  0  0  0
  -20.5647  -26.2339   23.3609 H   0  0  0  0  0  0
  -21.6659  -26.7377   22.1214 H   0  0  0  0  0  0
  -19.6958  -25.6256   21.1249 H   0  0  0  0  0  0
  -19.6733  -27.3158   20.6719 H   0  0  0  0  0  0
  -17.4214  -26.6665   21.3984 H   0  0  0  0  0  0
  -18.0328  -26.0100   22.9007 H   0  0  0  0  0  0
  -19.7998  -30.7297   24.2149 H   0  0  0  0  0  0
  -17.5086  -31.6268   24.5178 H   0  0  0  0  0  0
  -15.5400  -30.3006   23.7729 H   0  0  0  0  0  0
  -15.8671  -28.0865   22.7075 H   0  0  0  0  0  0
  -24.5920  -30.7107   25.7672 H   0  0  0  0  0  0
  -24.8888  -32.3049   26.4593 H   0  0  0  0  0  0
  -25.7972  -30.9114   27.0245 H   0  0  0  0  0  0
  -26.3150  -29.6627   24.1311 H   0  0  0  0  0  0
  -27.4062  -29.7276   25.4936 H   0  0  0  0  0  0
  -27.9024  -30.4227   23.9731 H   0  0  0  0  0  0
  -27.2663  -33.3715   26.1875 H   0  0  0  0  0  0
  -28.3939  -32.6736   25.0313 H   0  0  0  0  0  0
  -28.0640  -31.8566   26.5504 H   0  0  0  0  0  0
  -28.2512  -38.0059   24.7497 H   0  0  0  0  0  0
  -28.1041  -36.2576   24.6285 H   0  0  0  0  0  0
  -27.2292  -37.1386   25.8889 H   0  0  0  0  0  0
  -20.9588  -29.8823   21.6808 H   0  0  0  0  0  0
  -26.0073  -38.2737   24.1497 H   0  0  0  0  0  0
  -30.6773  -19.9296   20.0729 H   0  0  0  0  0  0
  -30.1187  -19.4436   21.6051 H   0  0  0  0  0  0
  -26.7093  -21.2163   20.1440 H   0  0  0  0  0  0
  -30.1499  -17.9525   19.1359 H   0  0  0  0  0  0
  -28.8530  -21.2414   21.6923 H   0  0  0  0  0  0
  -27.3956  -19.3684   22.4786 H   0  0  0  0  0  0
  -25.7597  -19.6844   21.9221 H   0  0  0  0  0  0
  -26.7289  -20.9954   22.5583 H   0  0  0  0  0  0
  -24.2843  -15.2683   15.7087 H   0  0  0  0  0  0
  -24.2635  -17.0141   15.9351 H   0  0  0  0  0  0
  -23.7931  -15.9504   17.2626 H   0  0  0  0  0  0
  -26.1034  -15.0535   17.4162 H   0  0  0  0  0  0
  -26.5980  -15.9819   16.0232 H   0  0  0  0  0  0
  -29.0328  -22.6984   19.0584 H   0  0  0  0  0  0
  -29.8985  -23.0094   20.5029 H   0  0  0  0  0  0
  -27.6203  -24.1608   21.4402 H   0  0  0  0  0  0
  -27.0436  -24.0588   19.8325 H   0  0  0  0  0  0
  -28.7925  -16.2086   21.0593 H   0  0  0  0  0  0
  1 25  1  0  0  0
  1 30  2  0  0  0
  1 86  1  0  0  0
  2  3  1  0  0  0
  2 25  1  0  0  0
  2 89  1  0  0  0
  2 90  1  0  0  0
  3  4  1  0  0  0
  3 91  1  0  0  0
  3 92  1  0  0  0
  4  5  1  0  0  0
  4 93  1  0  0  0
  4 94  1  0  0  0
  5  6  1  0  0  0
  5 26  1  0  0  0
  5 95  1  0  0  0
  6 25  1  0  0  0
  6 96  1  0  0  0
  6 97  1  0  0  0
  7  8  2  0  0  0
  7 26  1  0  0  0
  7 29  1  0  0  0
  8  9  1  0  0  0
  8 22  1  0  0  0
  9 10  1  0  0  0
  9 27  2  0  0  0
 10 11  2  0  0  0
 10 15  1  0  0  0
 11 12  1  0  0  0
 11 98  1  0  0  0
 12 13  2  0  0  0
 12 99  1  0  0  0
 13 14  1  0  0  0
 13 31  1  0  0  0
 14 15  2  0  0  0
 14100  1  0  0  0
 15101  1  0  0  0
 16 17  2  0  0  0
 16 21  1  0  0  0
 16 31  1  0  0  0
 17 18  1  0  0  0
 17102  1  0  0  0
 18 19  2  0  0  0
 18103  1  0  0  0
 19 20  1  0  0  0
 19 24  1  0  0  0
 20 21  2  0  0  0
 20104  1  0  0  0
 21 23  1  0  0  0
 22 28  1  0  0  0
 22 32  2  0  0  0
 26 27  1  0  0  0
 28105  1  0  0  0
 28106  1  0  0  0
 29107  1  0  0  0
 29108  1  0  0  0
 33 34  1  0  0  0
 33 66  1  0  0  0
 33 70  2  0  0  0
 34 36  1  0  0  0
 34 59  1  0  0  0
 34109  1  0  0  0
 35 44  2  0  0  0
 35 45  1  0  0  0
 35 68  1  0  0  0
 36 56  1  0  0  0
 36110  1  0  0  0
 37 39  1  0  0  0
 37 47  1  0  0  0
 37 66  1  0  0  0
 37111  1  0  0  0
 38 43  2  0  0  0
 38 46  1  0  0  0
 38 47  1  0  0  0
 39 64  1  0  0  0
 39 67  2  0  0  0
 40 52  1  0  0  0
 40 53  2  0  0  0
 40 58  1  0  0  0
 41112  1  0  0  0
 41113  1  0  0  0
 41114  1  0  0  0
 41 48  1  0  0  0
 42 43  1  0  0  0
 42 66  1  0  0  0
 42115  1  0  0  0
 42116  1  0  0  0
 43 44  1  0  0  0
 44117  1  0  0  0
 45 46  2  0  0  0
 45118  1  0  0  0
 46119  1  0  0  0
 47120  1  0  0  0
 47121  1  0  0  0
 48 56  1  0  0  0
 48 65  1  0  0  0
 48122  1  0  0  0
 49 50  1  0  0  0
 49 53  1  0  0  0
 49 64  1  0  0  0
 49123  1  0  0  0
 50 51  1  0  0  0
 50124  1  0  0  0
 50125  1  0  0  0
 51 52  1  0  0  0
 51126  1  0  0  0
 51127  1  0  0  0
 52128  1  0  0  0
 52129  1  0  0  0
 53 54  1  0  0  0
 54 55  2  0  0  0
 54130  1  0  0  0
 55 57  1  0  0  0
 55131  1  0  0  0
 56 69  2  0  0  0
 57 58  2  0  0  0
 57132  1  0  0  0
 58133  1  0  0  0
 59 60  1  0  0  0
 59 61  1  0  0  0
 59 62  1  0  0  0
 60134  1  0  0  0
 60135  1  0  0  0
 60136  1  0  0  0
 61137  1  0  0  0
 61138  1  0  0  0
 61139  1  0  0  0
 62140  1  0  0  0
 62141  1  0  0  0
 62142  1  0  0  0
 63 65  1  0  0  0
 63143  1  0  0  0
 63144  1  0  0  0
 63145  1  0  0  0
 64146  1  0  0  0
 65147  1  0  0  0
 68 84  1  0  0  0
 71 72  1  0  0  0
 71 73  2  0  0  0
 71 78  1  0  0  0
 72 75  2  0  0  0
 72 77  1  0  0  0
 73 74  1  0  0  0
 73 87  1  0  0  0
 74 82  1  0  0  0
 74 85  2  0  0  0
 75 85  1  0  0  0
 75 88  1  0  0  0
 76 78  1  0  0  0
 76 79  1  0  0  0
 76148  1  0  0  0
 76149  1  0  0  0
 77 79  1  0  0  0
 77 80  1  0  0  0
 77150  1  0  0  0
 78 86  1  0  0  0
 78151  1  0  0  0
 79 83  1  0  0  0
 79152  1  0  0  0
 80153  1  0  0  0
 80154  1  0  0  0
 80155  1  0  0  0
 81 82  1  0  0  0
 81156  1  0  0  0
 81157  1  0  0  0
 81158  1  0  0  0
 82159  1  0  0  0
 82160  1  0  0  0
 83 84  1  0  0  0
 83161  1  0  0  0
 83162  1  0  0  0
 84163  1  0  0  0
 84164  1  0  0  0
 86165  1  0  0  0
M  ISO  4   1 100  68 101  84 101  86 100
M  END
> <chiral flag>
0

> <version>
0

> <s_m_source_file>
/data/baiqing/PycharmProjects/Reinvent-master-3.2/result/LINK_invent/BTK/process_docking_weight1_custom_sum_contain_oxygen_bond_distance_aromatic_linkinvent_7_9_3/rearranged_h_0030.sdf

> <i_m_source_file_index>
6

> <r_mmod_Potential_Energy-OPLS-2005>
1130.05688476562

> <r_mmod_Stretch_Energy-OPLS-2005>
573.604858398438

> <r_mmod_Bend_Energy-OPLS-2005>
490.673248291016

> <r_mmod_Torsional_Energy-OPLS-2005>
277.626190185547

> <r_mmod_Improper_Torsional_Energy-OPLS-2005>
4.88423538208008

> <r_mmod_Van_der_Waal_Energy-OPLS-2005>
129.320907592773

> <r_mmod_Electrostatic_Energy-OPLS-2005>
-563.214050292969

> <r_mmod_Solvation_Energy-OPLS-2005>
-209.179550170898

> <b_mmod_Minimization_Converged-OPLS-2005>
0

> <r_mmod_RMS_Derivative-OPLS-2005>
4.25564956665039

$$$$
6
                    3D
 Structure written by MMmdl.
197206  0  0  1  0            999 V2000
  -30.6620  -14.6191   20.5590 C   0  0  0  0  0  0
  -30.4416  -12.3835   19.4649 C   0  0  0  0  0  0
  -29.5164  -12.5149   18.2321 C   0  0  0  0  0  0
  -28.0360  -12.3622   18.6347 C   0  0  0  0  0  0
  -27.6624  -13.2217   19.8720 C   0  0  2  0  0  0
  -28.7034  -13.0779   21.0061 C   0  0  0  0  0  0
  -25.2595  -13.8165   20.5644 C   0  0  0  0  0  0
  -24.1846  -13.0439   20.9094 C   0  0  0  0  0  0
  -24.6442  -11.6927   20.8695 C   0  0  0  0  0  0
  -23.9108  -10.4304   21.0386 C   0  0  0  0  0  0
  -24.3655   -9.4219   21.9183 C   0  0  0  0  0  0
  -23.6316   -8.2251   22.0758 C   0  0  0  0  0  0
  -22.4291   -8.0286   21.3555 C   0  0  0  0  0  0
  -21.9937   -9.0261   20.4631 C   0  0  0  0  0  0
  -22.7265  -10.2149   20.3061 C   0  0  0  0  0  0
  -21.6835   -6.0758   22.5297 C   0  0  0  0  0  0
  -21.4001   -6.5662   23.8223 C   0  0  0  0  0  0
  -21.3645   -5.6810   24.9165 C   0  0  0  0  0  0
  -21.6046   -4.3078   24.7203 C   0  0  0  0  0  0
  -21.8814   -3.8180   23.4328 C   0  0  0  0  0  0
  -21.9173   -4.6997   22.3397 C   0  0  0  0  0  0
  -22.7869  -13.5232   21.1759 C   0  0  0  0  0  0
  -22.1645   -4.2192   21.0967 F   0  0  0  0  0  0
  -21.5616   -3.4554   25.7695 F   0  0  0  0  0  0
  -30.0261  -13.4049   20.4505 N   0  0  0  0  0  0
  -26.3053  -12.9366   20.3350 N   0  0  0  0  0  0
  -25.9381  -11.6527   20.5761 N   0  0  0  0  0  0
  -22.0554  -12.8213   22.0335 N   0  0  0  0  0  0
  -25.4233  -15.1892   20.4118 N   0  0  0  0  0  0
  -31.8067  -14.7604   20.1188 O   0  0  0  0  0  0
  -21.6648   -6.8898   21.4267 O   0  0  0  0  0  0
  -22.3529  -14.5530   20.6600 O   0  0  0  0  0  0
  -24.6287  -31.8610   23.2024 C   0  0  0  0  0  0
  -25.9149  -32.4760   23.8357 C   0  0  1  0  0  0
  -27.2177  -27.2947   20.1007 C   0  0  0  0  0  0
  -25.5993  -33.8563   24.2298 N   0  0  0  0  0  0
  -23.4204  -30.4853   21.5474 C   0  0  2  0  0  0
  -24.8637  -28.9381   20.1102 C   0  0  0  0  0  0
  -22.7458  -29.4642   22.4952 C   0  0  0  0  0  0
  -18.0288  -28.1394   22.8461 C   0  0  0  0  0  0
  -24.1499  -36.7256   23.2625 C   0  0  0  0  0  0
  -25.9636  -30.7751   21.3836 C   0  0  0  0  0  0
  -26.0341  -29.4019   20.7250 C   0  0  0  0  0  0
  -27.2085  -28.5863   20.7249 C   0  0  0  0  0  0
  -26.0292  -26.9129   19.4471 C   0  0  0  0  0  0
  -24.8630  -27.6921   19.4662 C   0  0  0  0  0  0
  -23.6364  -29.8256   20.1595 C   0  0  0  0  0  0
  -25.4124  -36.3065   24.0314 C   0  0  1  0  0  0
  -20.5869  -28.3707   23.1275 C   0  0  2  0  0  0
  -20.6796  -26.9449   22.5413 C   0  0  0  0  0  0
  -19.5793  -26.6391   21.5204 C   0  0  0  0  0  0
  -18.1946  -26.7952   22.1589 C   0  0  0  0  0  0
  -19.1529  -28.8874   23.2856 C   0  0  0  0  0  0
  -18.9464  -30.1452   23.8897 C   0  0  0  0  0  0
  -17.6468  -30.6609   24.0556 C   0  0  0  0  0  0
  -25.9048  -34.9425   23.5083 C   0  0  0  0  0  0
  -16.5364  -29.9106   23.6353 C   0  0  0  0  0  0
  -16.7266  -28.6514   23.0360 C   0  0  0  0  0  0
  -26.4520  -31.6557   25.0734 C   0  0  0  0  0  0
  -25.3726  -31.3708   26.1458 C   0  0  0  0  0  0
  -27.0382  -30.2984   24.6190 C   0  0  0  0  0  0
  -27.6072  -32.4288   25.7509 C   0  0  0  0  0  0
  -27.5566  -37.1792   24.8458 C   0  0  0  0  0  0
  -21.4188  -29.3048   22.3675 N   0  0  0  0  0  0
  -26.4285  -37.3765   23.9380 N   0  0  0  0  0  0
  -24.6887  -31.0578   22.0989 N   0  0  0  0  0  0
  -23.4192  -28.8185   23.3063 O   0  0  0  0  0  0
  -28.3223  -26.4222   20.1605 O   0  0  0  0  0  0
  -26.5584  -34.8894   22.4636 O   0  0  0  0  0  0
  -23.5463  -32.1433   23.7366 O   0  0  0  0  0  0
  -22.7301  -24.0587   17.4706 C   0  0  0  0  0  0
  -23.7034  -23.2507   16.8476 C   0  0  0  0  0  0
  -23.6078  -22.9750   15.4476 C   0  0  0  0  0  0
  -21.5132  -24.2777   15.3746 C   0  0  0  0  0  0
  -21.6426  -24.5689   16.7455 C   0  0  0  0  0  0
  -22.4892  -23.4866   14.7364 C   0  0  0  0  0  0
  -26.5998  -21.6154   19.7614 C   0  0  0  0  0  0
  -27.6879  -20.6228   20.0901 C   0  0  0  0  0  0
  -29.1788  -22.6597   20.4549 C   0  0  0  0  0  0
  -27.9846  -23.6514   19.9448 C   0  0  2  0  0  0
  -27.1020  -22.8129   18.9212 C   0  0  2  0  0  0
  -20.3164  -24.7806   14.5857 C   0  0  0  0  0  0
  -26.9214  -26.0598   13.8004 C   0  0  0  0  0  0
  -24.7218  -22.5977   17.7724 C   0  0  0  0  0  0
  -24.5988  -22.0525   14.7095 C   0  0  0  0  0  0
  -29.9145  -15.9039   21.1016 C   0  0  0  0  0  0
  -28.4155  -25.1293   19.4075 C   0  0  0  0  0  0
  -25.8203  -23.5258   18.3686 C   0  0  0  0  0  0
  -25.8949  -24.9497   14.0523 C   0  0  0  0  0  0
  -25.2048  -22.5630   13.3796 C   0  0  0  0  0  0
  -30.5512  -17.3629   20.8920 C   0  0  0  0  0  0
  -26.3448  -23.5895   13.5059 C   0  0  0  0  0  0
  -29.5364  -18.5875   20.9868 C   0  0  0  0  0  0
  -29.9737  -20.1380   20.7934 C   0  0  0  0  0  0
  -27.9746  -22.3517   17.7026 C   0  0  0  0  0  0
  -28.8488  -21.1868   20.8114 N   0  3  2  0  0  0
  -20.7051  -25.3111   17.3838 F   0  0  0  0  0  0
  -22.3106  -23.1897   13.4270 F   0  0  0  0  0  0
  -28.3459  -23.3844   16.9503 F   0  0  0  0  0  0
  -27.3558  -21.4674   16.9227 F   0  0  0  0  0  0
  -31.4883  -12.4888   19.1675 H   0  0  0  0  0  0
  -30.3539  -11.3880   19.8966 H   0  0  0  0  0  0
  -29.7813  -11.7726   17.4796 H   0  0  0  0  0  0
  -29.6642  -13.4884   17.7616 H   0  0  0  0  0  0
  -27.8628  -11.3063   18.8472 H   0  0  0  0  0  0
  -27.3884  -12.6176   17.7952 H   0  0  0  0  0  0
  -27.6804  -14.2572   19.5362 H   0  0  0  0  0  0
  -28.6950  -12.0595   21.3992 H   0  0  0  0  0  0
  -28.4516  -13.7214   21.8520 H   0  0  0  0  0  0
  -25.2833   -9.5670   22.4702 H   0  0  0  0  0  0
  -24.0006   -7.4661   22.7514 H   0  0  0  0  0  0
  -21.0841   -8.8826   19.8948 H   0  0  0  0  0  0
  -22.3771  -10.9689   19.6152 H   0  0  0  0  0  0
  -21.2033   -7.6175   23.9729 H   0  0  0  0  0  0
  -21.1461   -6.0545   25.9055 H   0  0  0  0  0  0
  -22.0605   -2.7644   23.2829 H   0  0  0  0  0  0
  -22.4214  -11.9919   22.4765 H   0  0  0  0  0  0
  -21.1186  -13.1211   22.2594 H   0  0  0  0  0  0
  -24.6446  -15.8271   20.5323 H   0  0  0  0  0  0
  -26.2726  -15.6478   20.1092 H   0  0  0  0  0  0
  -26.7211  -32.5452   23.1095 H   0  0  0  0  0  0
  -25.0302  -33.9697   25.0570 H   0  0  0  0  0  0
  -22.7174  -31.3067   21.4115 H   0  0  0  0  0  0
  -23.3772  -35.9575   23.3270 H   0  0  0  0  0  0
  -24.3616  -36.8894   22.2043 H   0  0  0  0  0  0
  -23.7219  -37.6438   23.6666 H   0  0  0  0  0  0
  -26.1080  -31.5372   20.6199 H   0  0  0  0  0  0
  -26.8418  -30.8195   22.0149 H   0  0  0  0  0  0
  -28.1059  -28.9331   21.2205 H   0  0  0  0  0  0
  -25.9847  -25.9953   18.9059 H   0  0  0  0  0  0
  -23.9722  -27.3305   18.9713 H   0  0  0  0  0  0
  -23.7641  -30.6078   19.4097 H   0  0  0  0  0  0
  -22.7536  -29.2654   19.8492 H   0  0  0  0  0  0
  -25.1303  -36.1916   25.0805 H   0  0  0  0  0  0
  -20.9937  -28.3336   24.1397 H   0  0  0  0  0  0
  -20.5760  -26.2310   23.3602 H   0  0  0  0  0  0
  -21.6658  -26.7552   22.1174 H   0  0  0  0  0  0
  -19.6952  -25.6296   21.1243 H   0  0  0  0  0  0
  -19.6729  -27.3185   20.6717 H   0  0  0  0  0  0
  -17.4238  -26.6673   21.3961 H   0  0  0  0  0  0
  -18.0340  -26.0089   22.8979 H   0  0  0  0  0  0
  -19.7942  -30.7233   24.2305 H   0  0  0  0  0  0
  -17.5048  -31.6302   24.5134 H   0  0  0  0  0  0
  -15.5372  -30.3007   23.7691 H   0  0  0  0  0  0
  -15.8647  -28.0825   22.7124 H   0  0  0  0  0  0
  -24.5911  -30.7027   25.7804 H   0  0  0  0  0  0
  -24.8880  -32.2871   26.4804 H   0  0  0  0  0  0
  -25.8057  -30.8942   27.0259 H   0  0  0  0  0  0
  -26.2961  -29.6716   24.1235 H   0  0  0  0  0  0
  -27.4101  -29.7257   25.4699 H   0  0  0  0  0  0
  -27.8822  -30.4272   23.9423 H   0  0  0  0  0  0
  -27.2689  -33.3607   26.2036 H   0  0  0  0  0  0
  -28.3938  -32.6794   25.0377 H   0  0  0  0  0  0
  -28.0682  -31.8417   26.5459 H   0  0  0  0  0  0
  -28.2608  -38.0080   24.7570 H   0  0  0  0  0  0
  -28.1074  -36.2631   24.6269 H   0  0  0  0  0  0
  -27.2301  -37.1401   25.8870 H   0  0  0  0  0  0
  -20.9386  -29.8737   21.6825 H   0  0  0  0  0  0
  -26.0180  -38.2821   24.1452 H   0  0  0  0  0  0
  -22.7903  -24.2502   18.5323 H   0  0  0  0  0  0
  -26.1088  -21.9537   20.6746 H   0  0  0  0  0  0
  -25.8548  -21.0142   19.2484 H   0  0  0  0  0  0
  -28.0221  -20.1462   19.1672 H   0  0  0  0  0  0
  -27.2340  -19.8383   20.6993 H   0  0  0  0  0  0
  -29.6269  -23.1095   21.3424 H   0  0  0  0  0  0
  -29.9848  -22.6621   19.7199 H   0  0  0  0  0  0
  -27.3523  -23.8696   20.8074 H   0  0  0  0  0  0
  -19.6336  -25.3716   15.1953 H   0  0  0  0  0  0
  -19.7533  -23.9395   14.1824 H   0  0  0  0  0  0
  -20.6487  -25.3979   13.7514 H   0  0  0  0  0  0
  -26.5785  -27.0068   14.2191 H   0  0  0  0  0  0
  -27.0703  -26.2036   12.7291 H   0  0  0  0  0  0
  -27.8894  -25.8298   14.2473 H   0  0  0  0  0  0
  -25.1230  -21.6989   17.3218 H   0  0  0  0  0  0
  -24.1377  -22.2078   18.6083 H   0  0  0  0  0  0
  -24.0591  -21.1237   14.5108 H   0  0  0  0  0  0
  -25.4446  -21.7677   15.3258 H   0  0  0  0  0  0
  -28.9395  -15.9081   20.6201 H   0  0  0  0  0  0
  -29.7145  -15.7531   22.1640 H   0  0  0  0  0  0
  -27.9835  -25.2996   18.4237 H   0  0  0  0  0  0
  -29.4760  -25.0514   19.1711 H   0  0  0  0  0  0
  -25.3499  -24.0781   19.1787 H   0  0  0  0  0  0
  -26.1016  -24.2362   17.5920 H   0  0  0  0  0  0
  -24.9546  -25.2318   13.5792 H   0  0  0  0  0  0
  -25.6945  -24.8682   15.1227 H   0  0  0  0  0  0
  -24.4518  -22.9267   12.6848 H   0  0  0  0  0  0
  -25.6356  -21.6929   12.8829 H   0  0  0  0  0  0
  -31.0493  -17.3954   19.9194 H   0  0  0  0  0  0
  -31.3458  -17.4976   21.6279 H   0  0  0  0  0  0
  -27.1550  -23.1938   14.1207 H   0  0  0  0  0  0
  -26.7698  -23.7262   12.5096 H   0  0  0  0  0  0
  -29.0169  -18.5033   21.9411 H   0  0  0  0  0  0
  -28.8007  -18.3372   20.2231 H   0  0  0  0  0  0
  -30.5014  -20.2247   19.8407 H   0  0  0  0  0  0
  -30.6987  -20.4123   21.5560 H   0  0  0  0  0  0
  -28.9064  -21.8559   17.9683 H   0  0  0  0  0  0
  -28.5534  -21.2326   21.7763 H   0  0  0  0  0  0
  1 25  1  0  0  0
  1 30  2  0  0  0
  1 86  1  0  0  0
  2  3  1  0  0  0
  2 25  1  0  0  0
  2101  1  0  0  0
  2102  1  0  0  0
  3  4  1  0  0  0
  3103  1  0  0  0
  3104  1  0  0  0
  4  5  1  0  0  0
  4105  1  0  0  0
  4106  1  0  0  0
  5  6  1  0  0  0
  5 26  1  0  0  0
  5107  1  0  0  0
  6 25  1  0  0  0
  6108  1  0  0  0
  6109  1  0  0  0
  7  8  2  0  0  0
  7 26  1  0  0  0
  7 29  1  0  0  0
  8  9  1  0  0  0
  8 22  1  0  0  0
  9 10  1  0  0  0
  9 27  2  0  0  0
 10 11  2  0  0  0
 10 15  1  0  0  0
 11 12  1  0  0  0
 11110  1  0  0  0
 12 13  2  0  0  0
 12111  1  0  0  0
 13 14  1  0  0  0
 13 31  1  0  0  0
 14 15  2  0  0  0
 14112  1  0  0  0
 15113  1  0  0  0
 16 17  2  0  0  0
 16 21  1  0  0  0
 16 31  1  0  0  0
 17 18  1  0  0  0
 17114  1  0  0  0
 18 19  2  0  0  0
 18115  1  0  0  0
 19 20  1  0  0  0
 19 24  1  0  0  0
 20 21  2  0  0  0
 20116  1  0  0  0
 21 23  1  0  0  0
 22 28  1  0  0  0
 22 32  2  0  0  0
 26 27  1  0  0  0
 28117  1  0  0  0
 28118  1  0  0  0
 29119  1  0  0  0
 29120  1  0  0  0
 33 34  1  0  0  0
 33 66  1  0  0  0
 33 70  2  0  0  0
 34 36  1  0  0  0
 34 59  1  0  0  0
 34121  1  0  0  0
 35 44  2  0  0  0
 35 45  1  0  0  0
 35 68  1  0  0  0
 36 56  1  0  0  0
 36122  1  0  0  0
 37 39  1  0  0  0
 37 47  1  0  0  0
 37 66  1  0  0  0
 37123  1  0  0  0
 38 43  2  0  0  0
 38 46  1  0  0  0
 38 47  1  0  0  0
 39 64  1  0  0  0
 39 67  2  0  0  0
 40 52  1  0  0  0
 40 53  2  0  0  0
 40 58  1  0  0  0
 41124  1  0  0  0
 41125  1  0  0  0
 41126  1  0  0  0
 41 48  1  0  0  0
 42 43  1  0  0  0
 42 66  1  0  0  0
 42127  1  0  0  0
 42128  1  0  0  0
 43 44  1  0  0  0
 44129  1  0  0  0
 45 46  2  0  0  0
 45130  1  0  0  0
 46131  1  0  0  0
 47132  1  0  0  0
 47133  1  0  0  0
 48 56  1  0  0  0
 48 65  1  0  0  0
 48134  1  0  0  0
 49 50  1  0  0  0
 49 53  1  0  0  0
 49 64  1  0  0  0
 49135  1  0  0  0
 50 51  1  0  0  0
 50136  1  0  0  0
 50137  1  0  0  0
 51 52  1  0  0  0
 51138  1  0  0  0
 51139  1  0  0  0
 52140  1  0  0  0
 52141  1  0  0  0
 53 54  1  0  0  0
 54 55  2  0  0  0
 54142  1  0  0  0
 55 57  1  0  0  0
 55143  1  0  0  0
 56 69  2  0  0  0
 57 58  2  0  0  0
 57144  1  0  0  0
 58145  1  0  0  0
 59 60  1  0  0  0
 59 61  1  0  0  0
 59 62  1  0  0  0
 60146  1  0  0  0
 60147  1  0  0  0
 60148  1  0  0  0
 61149  1  0  0  0
 61150  1  0  0  0
 61151  1  0  0  0
 62152  1  0  0  0
 62153  1  0  0  0
 62154  1  0  0  0
 63 65  1  0  0  0
 63155  1  0  0  0
 63156  1  0  0  0
 63157  1  0  0  0
 64158  1  0  0  0
 65159  1  0  0  0
 68 87  1  0  0  0
 71 72  2  0  0  0
 71 75  1  0  0  0
 71160  1  0  0  0
 72 73  1  0  0  0
 72 84  1  0  0  0
 73 76  2  0  0  0
 73 85  1  0  0  0
 74 75  2  0  0  0
 74 76  1  0  0  0
 74 82  1  0  0  0
 75 97  1  0  0  0
 76 98  1  0  0  0
 77 78  1  0  0  0
 77 81  1  0  0  0
 77161  1  0  0  0
 77162  1  0  0  0
 78 96  1  0  0  0
 78163  1  0  0  0
 78164  1  0  0  0
 79 80  1  0  0  0
 79 96  1  0  0  0
 79165  1  0  0  0
 79166  1  0  0  0
 80 81  1  0  0  0
 80 87  1  0  0  0
 80167  1  0  0  0
 81 88  1  0  0  0
 81 95  1  0  0  0
 82168  1  0  0  0
 82169  1  0  0  0
 82170  1  0  0  0
 83 89  1  0  0  0
 83171  1  0  0  0
 83172  1  0  0  0
 83173  1  0  0  0
 84 88  1  0  0  0
 84174  1  0  0  0
 84175  1  0  0  0
 85 90  1  0  0  0
 85176  1  0  0  0
 85177  1  0  0  0
 86 91  1  0  0  0
 86178  1  0  0  0
 86179  1  0  0  0
 87180  1  0  0  0
 87181  1  0  0  0
 88182  1  0  0  0
 88183  1  0  0  0
 89 92  1  0  0  0
 89184  1  0  0  0
 89185  1  0  0  0
 90 92  1  0  0  0
 90186  1  0  0  0
 90187  1  0  0  0
 91 93  1  0  0  0
 91188  1  0  0  0
 91189  1  0  0  0
 92190  1  0  0  0
 92191  1  0  0  0
 93 94  1  0  0  0
 93192  1  0  0  0
 93193  1  0  0  0
 94194  1  0  0  0
 94195  1  0  0  0
 94 96  1  0  0  0
 95 99  1  0  0  0
 95100  1  0  0  0
 95196  1  0  0  0
 96197  1  0  0  0
M  CHG  1  96   1
M  ISO  4   1 100  68 101  86 100  87 101
M  END
> <chiral flag>
0

> <version>
0

> <s_m_source_file>
/data/baiqing/PycharmProjects/Reinvent-master-3.2/result/LINK_invent/BTK/process_docking_weight1_custom_sum_contain_oxygen_bond_distance_aromatic_linkinvent_7_9_3/rearranged_h_0030.sdf

> <i_m_source_file_index>
7

> <r_mmod_Potential_Energy-OPLS-2005>
196.121231079102

> <r_mmod_Stretch_Energy-OPLS-2005>
132.193939208984

> <r_mmod_Bend_Energy-OPLS-2005>
220.982406616211

> <r_mmod_Torsional_Energy-OPLS-2005>
261.6650390625

> <r_mmod_Improper_Torsional_Energy-OPLS-2005>
3.6806857585907

> <r_mmod_Van_der_Waal_Energy-OPLS-2005>
165.289520263672

> <r_mmod_Electrostatic_Energy-OPLS-2005>
-187.080551147461

> <r_mmod_Solvation_Energy-OPLS-2005>
-450.268737792969

> <b_mmod_Minimization_Converged-OPLS-2005>
0

> <r_mmod_RMS_Derivative-OPLS-2005>
5.79984188079834

$$$$
7
                    3D
 Structure written by MMmdl.
165173  0  0  1  0            999 V2000
  -30.6468  -14.6981   20.4783 C   0  0  0  0  0  0
  -30.4289  -12.4281   19.4689 C   0  0  0  0  0  0
  -29.5081  -12.5086   18.2331 C   0  0  0  0  0  0
  -28.0321  -12.3411   18.6438 C   0  0  0  0  0  0
  -27.6466  -13.2296   19.8562 C   0  0  2  0  0  0
  -28.6942  -13.1503   20.9891 C   0  0  0  0  0  0
  -25.2554  -13.8203   20.5740 C   0  0  0  0  0  0
  -24.1825  -13.0448   20.9210 C   0  0  0  0  0  0
  -24.6402  -11.6918   20.8727 C   0  0  0  0  0  0
  -23.9071  -10.4299   21.0379 C   0  0  0  0  0  0
  -24.3618   -9.4223   21.9168 C   0  0  0  0  0  0
  -23.6287   -8.2257   22.0752 C   0  0  0  0  0  0
  -22.4262   -8.0291   21.3547 C   0  0  0  0  0  0
  -21.9906   -9.0258   20.4641 C   0  0  0  0  0  0
  -22.7235  -10.2135   20.3036 C   0  0  0  0  0  0
  -21.6849   -6.0748   22.5292 C   0  0  0  0  0  0
  -21.4012   -6.5651   23.8226 C   0  0  0  0  0  0
  -21.3653   -5.6808   24.9189 C   0  0  0  0  0  0
  -21.6032   -4.3065   24.7230 C   0  0  0  0  0  0
  -21.8814   -3.8162   23.4352 C   0  0  0  0  0  0
  -21.9185   -4.6978   22.3408 C   0  0  0  0  0  0
  -22.7847  -13.5210   21.1877 C   0  0  0  0  0  0
  -22.1647   -4.2163   21.0981 F   0  0  0  0  0  0
  -21.5615   -3.4546   25.7751 F   0  0  0  0  0  0
  -30.0000  -13.4867   20.4086 N   0  0  0  0  0  0
  -26.2976  -12.9403   20.3330 N   0  0  0  0  0  0
  -25.9344  -11.6541   20.5777 N   0  0  0  0  0  0
  -22.0529  -12.8166   22.0438 N   0  0  0  0  0  0
  -25.4282  -15.1939   20.4220 N   0  0  0  0  0  0
  -31.8283  -14.7927   20.1379 O   0  0  0  0  0  0
  -21.6617   -6.8891   21.4255 O   0  0  0  0  0  0
  -22.3509  -14.5512   20.6734 O   0  0  0  0  0  0
  -24.6303  -31.8575   23.2028 C   0  0  0  0  0  0
  -25.9140  -32.4770   23.8359 C   0  0  1  0  0  0
  -27.2147  -27.2720   20.1212 C   0  0  0  0  0  0
  -25.5938  -33.8575   24.2268 N   0  0  0  0  0  0
  -23.4270  -30.4831   21.5465 C   0  0  2  0  0  0
  -24.8744  -28.9450   20.1063 C   0  0  0  0  0  0
  -22.7504  -29.4612   22.4926 C   0  0  0  0  0  0
  -18.0288  -28.1381   22.8471 C   0  0  0  0  0  0
  -24.1490  -36.7297   23.2639 C   0  0  0  0  0  0
  -25.9748  -30.7713   21.3883 C   0  0  0  0  0  0
  -26.0469  -29.3987   20.7249 C   0  0  0  0  0  0
  -27.2180  -28.5720   20.7307 C   0  0  0  0  0  0
  -26.0264  -26.9154   19.4363 C   0  0  0  0  0  0
  -24.8700  -27.7104   19.4500 C   0  0  0  0  0  0
  -23.6439  -29.8272   20.1592 C   0  0  0  0  0  0
  -25.4119  -36.3076   24.0316 C   0  0  1  0  0  0
  -20.5893  -28.3695   23.1266 C   0  0  2  0  0  0
  -20.6786  -26.9418   22.5402 C   0  0  0  0  0  0
  -19.5759  -26.6381   21.5208 C   0  0  0  0  0  0
  -18.1940  -26.7923   22.1623 C   0  0  0  0  0  0
  -19.1541  -28.8853   23.2858 C   0  0  0  0  0  0
  -18.9464  -30.1452   23.8880 C   0  0  0  0  0  0
  -17.6463  -30.6584   24.0554 C   0  0  0  0  0  0
  -25.9058  -34.9448   23.5092 C   0  0  0  0  0  0
  -16.5352  -29.9075   23.6331 C   0  0  0  0  0  0
  -16.7276  -28.6492   23.0353 C   0  0  0  0  0  0
  -26.4507  -31.6589   25.0744 C   0  0  0  0  0  0
  -25.3717  -31.3756   26.1452 C   0  0  0  0  0  0
  -27.0368  -30.2992   24.6268 C   0  0  0  0  0  0
  -27.6046  -32.4354   25.7514 C   0  0  0  0  0  0
  -27.5578  -37.1804   24.8461 C   0  0  0  0  0  0
  -21.4209  -29.3043   22.3659 N   0  0  0  0  0  0
  -26.4294  -37.3773   23.9401 N   0  0  0  0  0  0
  -24.6960  -31.0551   22.1010 N   0  0  0  0  0  0
  -23.4205  -28.8151   23.3025 O   0  0  0  0  0  0
  -28.2772  -26.3319   20.2196 O   0  0  0  0  0  0
  -26.5632  -34.8911   22.4663 O   0  0  0  0  0  0
  -23.5451  -32.1413   23.7315 O   0  0  0  0  0  0
  -27.4021  -20.7171   17.4775 C   0  0  0  0  0  0
  -26.4267  -21.5240   18.0774 C   0  0  0  0  0  0
  -28.5577  -20.3707   18.1948 C   0  0  0  0  0  0
  -26.7237  -22.1832   19.2904 C   0  0  0  0  0  0
  -28.7974  -20.9249   19.4851 C   0  0  0  0  0  0
  -28.0479  -22.1411   19.8231 C   0  0  0  0  0  0
  -25.0809  -21.6944   17.3900 C   0  0  0  0  0  0
  -29.4984  -19.3642   17.5420 C   0  0  0  0  0  0
  -25.5804  -22.8614   20.0330 C   0  0  0  0  0  0
  -29.6956  -20.0360   20.4341 C   0  0  0  0  0  0
  -28.6194  -23.4934   20.4692 C   0  0  0  0  0  0
  -29.2694  -18.4695   20.5968 C   0  0  0  0  0  0
  -30.3640  -17.2876   20.6318 C   0  0  0  0  0  0
  -27.9186  -24.8877   19.9860 C   0  0  0  0  0  0
  -29.9060  -15.8364   20.7282 N   0  0  0  0  0  0
  -31.4713  -12.5395   19.1660 H   0  0  0  0  0  0
  -30.3568  -11.4480   19.9419 H   0  0  0  0  0  0
  -29.7833  -11.7453   17.5043 H   0  0  0  0  0  0
  -29.6451  -13.4709   17.7378 H   0  0  0  0  0  0
  -27.8742  -11.2904   18.8893 H   0  0  0  0  0  0
  -27.3797  -12.5554   17.7964 H   0  0  0  0  0  0
  -27.6466  -14.2549   19.4874 H   0  0  0  0  0  0
  -28.7205  -12.1533   21.4319 H   0  0  0  0  0  0
  -28.4403  -13.8378   21.7974 H   0  0  0  0  0  0
  -25.2769   -9.5696   22.4732 H   0  0  0  0  0  0
  -23.9983   -7.4665   22.7492 H   0  0  0  0  0  0
  -21.0836   -8.8753   19.8949 H   0  0  0  0  0  0
  -22.3674  -10.9648   19.6118 H   0  0  0  0  0  0
  -21.2003   -7.6164   23.9728 H   0  0  0  0  0  0
  -21.1473   -6.0541   25.9085 H   0  0  0  0  0  0
  -22.0587   -2.7624   23.2846 H   0  0  0  0  0  0
  -22.4145  -11.9793   22.4760 H   0  0  0  0  0  0
  -21.1160  -13.1187   22.2713 H   0  0  0  0  0  0
  -26.2907  -15.6388   20.1364 H   0  0  0  0  0  0
  -24.6727  -15.8553   20.5614 H   0  0  0  0  0  0
  -26.7215  -32.5411   23.1106 H   0  0  0  0  0  0
  -25.0063  -33.9729   25.0392 H   0  0  0  0  0  0
  -22.7216  -31.3049   21.4060 H   0  0  0  0  0  0
  -23.3744  -35.9639   23.3305 H   0  0  0  0  0  0
  -24.3575  -36.8925   22.2055 H   0  0  0  0  0  0
  -23.7255  -37.6499   23.6672 H   0  0  0  0  0  0
  -26.1228  -31.5366   20.6253 H   0  0  0  0  0  0
  -26.8491  -30.8119   22.0269 H   0  0  0  0  0  0
  -28.1051  -28.9063   21.2505 H   0  0  0  0  0  0
  -25.9438  -25.9882   18.8915 H   0  0  0  0  0  0
  -23.9792  -27.3637   18.9439 H   0  0  0  0  0  0
  -23.7657  -30.6107   19.4102 H   0  0  0  0  0  0
  -22.7635  -29.2596   19.8516 H   0  0  0  0  0  0
  -25.1305  -36.1925   25.0810 H   0  0  0  0  0  0
  -20.9973  -28.3275   24.1392 H   0  0  0  0  0  0
  -20.5705  -26.2308   23.3606 H   0  0  0  0  0  0
  -21.6652  -26.7458   22.1186 H   0  0  0  0  0  0
  -19.6935  -25.6291   21.1241 H   0  0  0  0  0  0
  -19.6696  -27.3185   20.6736 H   0  0  0  0  0  0
  -17.4208  -26.6641   21.4032 H   0  0  0  0  0  0
  -18.0352  -26.0075   22.9033 H   0  0  0  0  0  0
  -19.7942  -30.7264   24.2254 H   0  0  0  0  0  0
  -17.5022  -31.6269   24.5150 H   0  0  0  0  0  0
  -15.5354  -30.2975   23.7673 H   0  0  0  0  0  0
  -15.8673  -28.0809   22.7088 H   0  0  0  0  0  0
  -24.5859  -30.7153   25.7767 H   0  0  0  0  0  0
  -24.8947  -32.2942   26.4880 H   0  0  0  0  0  0
  -25.8002  -30.8904   27.0228 H   0  0  0  0  0  0
  -26.2969  -29.6724   24.1271 H   0  0  0  0  0  0
  -27.4007  -29.7273   25.4818 H   0  0  0  0  0  0
  -27.8872  -30.4258   23.9562 H   0  0  0  0  0  0
  -27.2619  -33.3635   26.2105 H   0  0  0  0  0  0
  -28.3837  -32.6953   25.0337 H   0  0  0  0  0  0
  -28.0746  -31.8485   26.5418 H   0  0  0  0  0  0
  -28.2591  -38.0101   24.7496 H   0  0  0  0  0  0
  -28.1072  -36.2628   24.6298 H   0  0  0  0  0  0
  -27.2295  -37.1467   25.8863 H   0  0  0  0  0  0
  -20.9398  -29.8773   21.6859 H   0  0  0  0  0  0
  -26.0169  -38.2849   24.1376 H   0  0  0  0  0  0
  -27.2110  -20.2619   16.5151 H   0  0  0  0  0  0
  -25.0836  -21.2609   16.3891 H   0  0  0  0  0  0
  -24.8354  -22.7514   17.2862 H   0  0  0  0  0  0
  -24.2914  -21.2060   17.9611 H   0  0  0  0  0  0
  -29.5875  -19.5808   16.4766 H   0  0  0  0  0  0
  -29.1240  -18.3449   17.6372 H   0  0  0  0  0  0
  -30.5065  -19.4076   17.9491 H   0  0  0  0  0  0
  -25.2562  -23.7724   19.5307 H   0  0  0  0  0  0
  -24.7206  -22.1933   20.0911 H   0  0  0  0  0  0
  -25.8501  -23.0821   21.0659 H   0  0  0  0  0  0
  -29.7099  -20.5030   21.4190 H   0  0  0  0  0  0
  -30.7253  -20.0963   20.0810 H   0  0  0  0  0  0
  -29.6830  -23.5363   20.2336 H   0  0  0  0  0  0
  -28.5522  -23.4153   21.5541 H   0  0  0  0  0  0
  -28.5647  -18.2157   19.8073 H   0  0  0  0  0  0
  -28.6634  -18.3949   21.4999 H   0  0  0  0  0  0
  -31.0381  -17.4678   21.4696 H   0  0  0  0  0  0
  -30.9823  -17.3742   19.7378 H   0  0  0  0  0  0
  -26.9547  -24.8341   20.4750 H   0  0  0  0  0  0
  -27.7713  -24.7960   18.9095 H   0  0  0  0  0  0
  -28.9395  -15.6857   20.9720 H   0  0  0  0  0  0
  1 25  1  0  0  0
  1 30  2  0  0  0
  1 85  1  0  0  0
  2  3  1  0  0  0
  2 25  1  0  0  0
  2 86  1  0  0  0
  2 87  1  0  0  0
  3  4  1  0  0  0
  3 88  1  0  0  0
  3 89  1  0  0  0
  4  5  1  0  0  0
  4 90  1  0  0  0
  4 91  1  0  0  0
  5  6  1  0  0  0
  5 26  1  0  0  0
  5 92  1  0  0  0
  6 25  1  0  0  0
  6 93  1  0  0  0
  6 94  1  0  0  0
  7  8  2  0  0  0
  7 26  1  0  0  0
  7 29  1  0  0  0
  8  9  1  0  0  0
  8 22  1  0  0  0
  9 10  1  0  0  0
  9 27  2  0  0  0
 10 11  2  0  0  0
 10 15  1  0  0  0
 11 12  1  0  0  0
 11 95  1  0  0  0
 12 13  2  0  0  0
 12 96  1  0  0  0
 13 14  1  0  0  0
 13 31  1  0  0  0
 14 15  2  0  0  0
 14 97  1  0  0  0
 15 98  1  0  0  0
 16 17  2  0  0  0
 16 21  1  0  0  0
 16 31  1  0  0  0
 17 18  1  0  0  0
 17 99  1  0  0  0
 18 19  2  0  0  0
 18100  1  0  0  0
 19 20  1  0  0  0
 19 24  1  0  0  0
 20 21  2  0  0  0
 20101  1  0  0  0
 21 23  1  0  0  0
 22 28  1  0  0  0
 22 32  2  0  0  0
 26 27  1  0  0  0
 28102  1  0  0  0
 28103  1  0  0  0
 29104  1  0  0  0
 29105  1  0  0  0
 33 34  1  0  0  0
 33 66  1  0  0  0
 33 70  2  0  0  0
 34 36  1  0  0  0
 34 59  1  0  0  0
 34106  1  0  0  0
 35 44  2  0  0  0
 35 45  1  0  0  0
 35 68  1  0  0  0
 36 56  1  0  0  0
 36107  1  0  0  0
 37 39  1  0  0  0
 37 47  1  0  0  0
 37 66  1  0  0  0
 37108  1  0  0  0
 38 43  2  0  0  0
 38 46  1  0  0  0
 38 47  1  0  0  0
 39 64  1  0  0  0
 39 67  2  0  0  0
 40 52  1  0  0  0
 40 53  2  0  0  0
 40 58  1  0  0  0
 41109  1  0  0  0
 41110  1  0  0  0
 41111  1  0  0  0
 41 48  1  0  0  0
 42 43  1  0  0  0
 42 66  1  0  0  0
 42112  1  0  0  0
 42113  1  0  0  0
 43 44  1  0  0  0
 44114  1  0  0  0
 45 46  2  0  0  0
 45115  1  0  0  0
 46116  1  0  0  0
 47117  1  0  0  0
 47118  1  0  0  0
 48 56  1  0  0  0
 48 65  1  0  0  0
 48119  1  0  0  0
 49 50  1  0  0  0
 49 53  1  0  0  0
 49 64  1  0  0  0
 49120  1  0  0  0
 50 51  1  0  0  0
 50121  1  0  0  0
 50122  1  0  0  0
 51 52  1  0  0  0
 51123  1  0  0  0
 51124  1  0  0  0
 52125  1  0  0  0
 52126  1  0  0  0
 53 54  1  0  0  0
 54 55  2  0  0  0
 54127  1  0  0  0
 55 57  1  0  0  0
 55128  1  0  0  0
 56 69  2  0  0  0
 57 58  2  0  0  0
 57129  1  0  0  0
 58130  1  0  0  0
 59 60  1  0  0  0
 59 61  1  0  0  0
 59 62  1  0  0  0
 60131  1  0  0  0
 60132  1  0  0  0
 60133  1  0  0  0
 61134  1  0  0  0
 61135  1  0  0  0
 61136  1  0  0  0
 62137  1  0  0  0
 62138  1  0  0  0
 62139  1  0  0  0
 63 65  1  0  0  0
 63140  1  0  0  0
 63141  1  0  0  0
 63142  1  0  0  0
 64143  1  0  0  0
 65144  1  0  0  0
 68 84  1  0  0  0
 71 72  2  0  0  0
 71 73  1  0  0  0
 71145  1  0  0  0
 72 74  1  0  0  0
 72 77  1  0  0  0
 73 75  2  0  0  0
 73 78  1  0  0  0
 74 76  2  0  0  0
 74 79  1  0  0  0
 75 76  1  0  0  0
 75 80  1  0  0  0
 76 81  1  0  0  0
 77146  1  0  0  0
 77147  1  0  0  0
 77148  1  0  0  0
 78149  1  0  0  0
 78150  1  0  0  0
 78151  1  0  0  0
 79152  1  0  0  0
 79153  1  0  0  0
 79154  1  0  0  0
 80 82  1  0  0  0
 80155  1  0  0  0
 80156  1  0  0  0
 81 84  1  0  0  0
 81157  1  0  0  0
 81158  1  0  0  0
 82 83  1  0  0  0
 82159  1  0  0  0
 82160  1  0  0  0
 83 85  1  0  0  0
 83161  1  0  0  0
 83162  1  0  0  0
 84163  1  0  0  0
 84164  1  0  0  0
 85165  1  0  0  0
M  ISO  4   1 100  68 101  84 101  85 100
M  END
> <chiral flag>
0

> <version>
0

> <s_m_source_file>
/data/baiqing/PycharmProjects/Reinvent-master-3.2/result/LINK_invent/BTK/process_docking_weight1_custom_sum_contain_oxygen_bond_distance_aromatic_linkinvent_7_9_3/rearranged_h_0030.sdf

> <i_m_source_file_index>
8

> <r_mmod_Potential_Energy-OPLS-2005>
288.2412109375

> <r_mmod_Stretch_Energy-OPLS-2005>
130.942886352539

> <r_mmod_Bend_Energy-OPLS-2005>
180.724136352539

> <r_mmod_Torsional_Energy-OPLS-2005>
339.619079589844

> <r_mmod_Improper_Torsional_Energy-OPLS-2005>
7.02931547164917

> <r_mmod_Van_der_Waal_Energy-OPLS-2005>
164.065582275391

> <r_mmod_Electrostatic_Energy-OPLS-2005>
-405.654479980469

> <r_mmod_Solvation_Energy-OPLS-2005>
-207.376525878906

> <b_mmod_Minimization_Converged-OPLS-2005>
0

> <r_mmod_RMS_Derivative-OPLS-2005>
2.26820302009583

$$$$
8
                    3D
 Structure written by MMmdl.
149157  0  0  1  0            999 V2000
  -30.4336  -15.2741   20.3653 C   0  0  0  0  0  0
  -30.4369  -12.8144   19.5218 C   0  0  0  0  0  0
  -29.5351  -12.5857   18.2831 C   0  0  0  0  0  0
  -28.0853  -12.3025   18.7124 C   0  0  0  0  0  0
  -27.6101  -13.2778   19.8189 C   0  0  2  0  0  0
  -28.6438  -13.4607   20.9509 C   0  0  0  0  0  0
  -25.2378  -13.8246   20.5762 C   0  0  0  0  0  0
  -24.1737  -13.0432   20.9275 C   0  0  0  0  0  0
  -24.6400  -11.6933   20.8764 C   0  0  0  0  0  0
  -23.9105  -10.4284   21.0404 C   0  0  0  0  0  0
  -24.3656   -9.4197   21.9177 C   0  0  0  0  0  0
  -23.6319   -8.2238   22.0751 C   0  0  0  0  0  0
  -22.4297   -8.0279   21.3549 C   0  0  0  0  0  0
  -21.9943   -9.0247   20.4645 C   0  0  0  0  0  0
  -22.7277  -10.2120   20.3047 C   0  0  0  0  0  0
  -21.6857   -6.0741   22.5277 C   0  0  0  0  0  0
  -21.4020   -6.5649   23.8212 C   0  0  0  0  0  0
  -21.3659   -5.6799   24.9170 C   0  0  0  0  0  0
  -21.6044   -4.3060   24.7220 C   0  0  0  0  0  0
  -21.8818   -3.8155   23.4342 C   0  0  0  0  0  0
  -21.9194   -4.6972   22.3399 C   0  0  0  0  0  0
  -22.7751  -13.5172   21.1909 C   0  0  0  0  0  0
  -22.1655   -4.2160   21.0976 F   0  0  0  0  0  0
  -21.5625   -3.4543   25.7733 F   0  0  0  0  0  0
  -29.8763  -13.9634   20.3229 N   0  0  0  0  0  0
  -26.2812  -12.9531   20.3206 N   0  0  0  0  0  0
  -25.9338  -11.6637   20.5715 N   0  0  0  0  0  0
  -22.0423  -12.8134   22.0463 N   0  0  0  0  0  0
  -25.3998  -15.1982   20.4191 N   0  0  0  0  0  0
  -31.6571  -15.2784   20.1675 O   0  0  0  0  0  0
  -21.6651   -6.8884   21.4242 O   0  0  0  0  0  0
  -22.3418  -14.5462   20.6737 O   0  0  0  0  0  0
  -24.6645  -31.8232   23.1698 C   0  0  0  0  0  0
  -25.9322  -32.4585   23.8164 C   0  0  1  0  0  0
  -27.2231  -26.9246   20.1840 C   0  0  0  0  0  0
  -25.5988  -33.8399   24.2078 N   0  0  0  0  0  0
  -23.4790  -30.4350   21.5198 C   0  0  2  0  0  0
  -24.9325  -28.8197   20.1141 C   0  0  0  0  0  0
  -22.7670  -29.4451   22.4791 C   0  0  0  0  0  0
  -18.0328  -28.1422   22.8469 C   0  0  0  0  0  0
  -24.1501  -36.7206   23.2649 C   0  0  0  0  0  0
  -26.0498  -30.6292   21.3999 C   0  0  0  0  0  0
  -26.1180  -29.2184   20.7440 C   0  0  0  0  0  0
  -27.2580  -28.2943   20.7511 C   0  0  0  0  0  0
  -26.0052  -26.6765   19.5098 C   0  0  0  0  0  0
  -24.9022  -27.5688   19.4777 C   0  0  0  0  0  0
  -23.7188  -29.7490   20.1474 C   0  0  0  0  0  0
  -25.4143  -36.2968   24.0300 C   0  0  1  0  0  0
  -20.5950  -28.3770   23.1190 C   0  0  2  0  0  0
  -20.6814  -26.9455   22.5406 C   0  0  0  0  0  0
  -19.5783  -26.6387   21.5225 C   0  0  0  0  0  0
  -18.1958  -26.7955   22.1624 C   0  0  0  0  0  0
  -19.1588  -28.8915   23.2813 C   0  0  0  0  0  0
  -18.9499  -30.1503   23.8851 C   0  0  0  0  0  0
  -17.6489  -30.6605   24.0559 C   0  0  0  0  0  0
  -25.9106  -34.9349   23.5009 C   0  0  0  0  0  0
  -16.5380  -29.9093   23.6343 C   0  0  0  0  0  0
  -16.7308  -28.6514   23.0359 C   0  0  0  0  0  0
  -26.4573  -31.6523   25.0688 C   0  0  0  0  0  0
  -25.3686  -31.3762   26.1328 C   0  0  0  0  0  0
  -27.0473  -30.2894   24.6413 C   0  0  0  0  0  0
  -27.6081  -32.4324   25.7472 C   0  0  0  0  0  0
  -27.5577  -37.1763   24.8469 C   0  0  0  0  0  0
  -21.4340  -29.3056   22.3534 N   0  0  0  0  0  0
  -26.4293  -37.3702   23.9393 N   0  0  0  0  0  0
  -24.7526  -30.9891   22.0834 N   0  0  0  0  0  0
  -23.4211  -28.8032   23.3044 O   0  0  0  0  0  0
  -28.2286  -25.8188   20.2560 O   0  0  0  0  0  0
  -26.5716  -34.8886   22.4609 O   0  0  0  0  0  0
  -23.5715  -32.1204   23.6794 O   0  0  0  0  0  0
  -26.3018  -20.1424   18.8343 C   0  0  0  0  0  0
  -28.2697  -20.9456   20.0583 C   0  0  0  0  0  0
  -28.8190  -19.4704   19.7753 C   0  0  0  0  0  0
  -26.8728  -20.9925   19.7839 C   0  0  0  0  0  0
  -28.2000  -18.9029   18.6233 C   0  0  0  0  0  0
  -28.8082  -22.5878   20.3733 C   0  0  0  0  0  0
  -29.8300  -18.2164   20.4520 C   0  0  0  0  0  0
  -27.9456  -24.1913   20.1340 C   0  0  0  0  0  0
  -26.9949  -19.2359   18.1466 N   0  0  0  0  0  0
  -29.6484  -16.5354   20.4415 N   0  0  0  0  0  0
  -25.7753  -22.0541   20.5900 Cl  0  0  0  0  0  0
  -28.9574  -17.6478   17.7031 Cl  0  0  0  0  0  0
  -31.4563  -13.0192   19.1930 H   0  0  0  0  0  0
  -30.4988  -11.9070   20.1260 H   0  0  0  0  0  0
  -29.9163  -11.7621   17.6783 H   0  0  0  0  0  0
  -29.5637  -13.4722   17.6473 H   0  0  0  0  0  0
  -28.0463  -11.2778   19.0854 H   0  0  0  0  0  0
  -27.4161  -12.3395   17.8517 H   0  0  0  0  0  0
  -27.5190  -14.2426   19.3189 H   0  0  0  0  0  0
  -28.8119  -12.5311   21.4967 H   0  0  0  0  0  0
  -28.2817  -14.1899   21.6775 H   0  0  0  0  0  0
  -25.2804   -9.5668   22.4749 H   0  0  0  0  0  0
  -24.0030   -7.4629   22.7469 H   0  0  0  0  0  0
  -21.0879   -8.8760   19.8952 H   0  0  0  0  0  0
  -22.3738  -10.9654   19.6151 H   0  0  0  0  0  0
  -21.2013   -7.6159   23.9715 H   0  0  0  0  0  0
  -21.1483   -6.0531   25.9071 H   0  0  0  0  0  0
  -22.0601   -2.7623   23.2835 H   0  0  0  0  0  0
  -22.4099  -11.9826   22.4861 H   0  0  0  0  0  0
  -21.1011  -13.1081   22.2655 H   0  0  0  0  0  0
  -24.6248  -15.8433   20.5243 H   0  0  0  0  0  0
  -26.2278  -15.6357   20.0378 H   0  0  0  0  0  0
  -26.7386  -32.5124   23.0872 H   0  0  0  0  0  0
  -25.0092  -33.9474   25.0198 H   0  0  0  0  0  0
  -22.7934  -31.2679   21.3486 H   0  0  0  0  0  0
  -23.3776  -35.9528   23.3296 H   0  0  0  0  0  0
  -24.3579  -36.8862   22.2068 H   0  0  0  0  0  0
  -23.7250  -37.6387   23.6710 H   0  0  0  0  0  0
  -26.2330  -31.3692   20.6203 H   0  0  0  0  0  0
  -26.9089  -30.6839   22.0555 H   0  0  0  0  0  0
  -28.1570  -28.6023   21.2667 H   0  0  0  0  0  0
  -25.8705  -25.7202   19.0254 H   0  0  0  0  0  0
  -23.9990  -27.2543   18.9719 H   0  0  0  0  0  0
  -23.8768  -30.5174   19.3899 H   0  0  0  0  0  0
  -22.8271  -29.2052   19.8273 H   0  0  0  0  0  0
  -25.1345  -36.1777   25.0795 H   0  0  0  0  0  0
  -21.0038  -28.3389   24.1312 H   0  0  0  0  0  0
  -20.5730  -26.2392   23.3648 H   0  0  0  0  0  0
  -21.6672  -26.7459   22.1189 H   0  0  0  0  0  0
  -19.6951  -25.6286   21.1284 H   0  0  0  0  0  0
  -19.6717  -27.3176   20.6737 H   0  0  0  0  0  0
  -17.4239  -26.6714   21.4012 H   0  0  0  0  0  0
  -18.0342  -26.0102   22.9023 H   0  0  0  0  0  0
  -19.7969  -30.7335   24.2196 H   0  0  0  0  0  0
  -17.5037  -31.6276   24.5181 H   0  0  0  0  0  0
  -15.5377  -30.2982   23.7688 H   0  0  0  0  0  0
  -15.8709  -28.0814   22.7105 H   0  0  0  0  0  0
  -24.5904  -30.7084   25.7609 H   0  0  0  0  0  0
  -24.8836  -32.2958   26.4614 H   0  0  0  0  0  0
  -25.7904  -30.9005   27.0189 H   0  0  0  0  0  0
  -26.3139  -29.6558   24.1414 H   0  0  0  0  0  0
  -27.4011  -29.7263   25.5058 H   0  0  0  0  0  0
  -27.9075  -30.4081   23.9823 H   0  0  0  0  0  0
  -27.2678  -33.3687   26.1902 H   0  0  0  0  0  0
  -28.3954  -32.6776   25.0331 H   0  0  0  0  0  0
  -28.0675  -31.8537   26.5491 H   0  0  0  0  0  0
  -28.2588  -38.0065   24.7507 H   0  0  0  0  0  0
  -28.1077  -36.2591   24.6312 H   0  0  0  0  0  0
  -27.2283  -37.1423   25.8868 H   0  0  0  0  0  0
  -20.9618  -29.8704   21.6610 H   0  0  0  0  0  0
  -26.0148  -38.2769   24.1371 H   0  0  0  0  0  0
  -25.2587  -20.2394   18.5730 H   0  0  0  0  0  0
  -29.7294  -22.6683   19.7975 H   0  0  0  0  0  0
  -29.1417  -22.5741   21.4100 H   0  0  0  0  0  0
  -29.9355  -18.4770   21.5055 H   0  0  0  0  0  0
  -30.8213  -18.3943   20.0317 H   0  0  0  0  0  0
  -27.1133  -24.1501   20.8294 H   0  0  0  0  0  0
  -27.5081  -24.0982   19.1404 H   0  0  0  0  0  0
  -28.6766  -16.2921   20.5594 H   0  0  0  0  0  0
  1 25  1  0  0  0
  1 30  2  0  0  0
  1 80  1  0  0  0
  2  3  1  0  0  0
  2 25  1  0  0  0
  2 83  1  0  0  0
  2 84  1  0  0  0
  3  4  1  0  0  0
  3 85  1  0  0  0
  3 86  1  0  0  0
  4  5  1  0  0  0
  4 87  1  0  0  0
  4 88  1  0  0  0
  5  6  1  0  0  0
  5 26  1  0  0  0
  5 89  1  0  0  0
  6 25  1  0  0  0
  6 90  1  0  0  0
  6 91  1  0  0  0
  7  8  2  0  0  0
  7 26  1  0  0  0
  7 29  1  0  0  0
  8  9  1  0  0  0
  8 22  1  0  0  0
  9 10  1  0  0  0
  9 27  2  0  0  0
 10 11  2  0  0  0
 10 15  1  0  0  0
 11 12  1  0  0  0
 11 92  1  0  0  0
 12 13  2  0  0  0
 12 93  1  0  0  0
 13 14  1  0  0  0
 13 31  1  0  0  0
 14 15  2  0  0  0
 14 94  1  0  0  0
 15 95  1  0  0  0
 16 17  2  0  0  0
 16 21  1  0  0  0
 16 31  1  0  0  0
 17 18  1  0  0  0
 17 96  1  0  0  0
 18 19  2  0  0  0
 18 97  1  0  0  0
 19 20  1  0  0  0
 19 24  1  0  0  0
 20 21  2  0  0  0
 20 98  1  0  0  0
 21 23  1  0  0  0
 22 28  1  0  0  0
 22 32  2  0  0  0
 26 27  1  0  0  0
 28 99  1  0  0  0
 28100  1  0  0  0
 29101  1  0  0  0
 29102  1  0  0  0
 33 34  1  0  0  0
 33 66  1  0  0  0
 33 70  2  0  0  0
 34 36  1  0  0  0
 34 59  1  0  0  0
 34103  1  0  0  0
 35 44  2  0  0  0
 35 45  1  0  0  0
 35 68  1  0  0  0
 36 56  1  0  0  0
 36104  1  0  0  0
 37 39  1  0  0  0
 37 47  1  0  0  0
 37 66  1  0  0  0
 37105  1  0  0  0
 38 43  2  0  0  0
 38 46  1  0  0  0
 38 47  1  0  0  0
 39 64  1  0  0  0
 39 67  2  0  0  0
 40 52  1  0  0  0
 40 53  2  0  0  0
 40 58  1  0  0  0
 41106  1  0  0  0
 41107  1  0  0  0
 41108  1  0  0  0
 41 48  1  0  0  0
 42 43  1  0  0  0
 42 66  1  0  0  0
 42109  1  0  0  0
 42110  1  0  0  0
 43 44  1  0  0  0
 44111  1  0  0  0
 45 46  2  0  0  0
 45112  1  0  0  0
 46113  1  0  0  0
 47114  1  0  0  0
 47115  1  0  0  0
 48 56  1  0  0  0
 48 65  1  0  0  0
 48116  1  0  0  0
 49 50  1  0  0  0
 49 53  1  0  0  0
 49 64  1  0  0  0
 49117  1  0  0  0
 50 51  1  0  0  0
 50118  1  0  0  0
 50119  1  0  0  0
 51 52  1  0  0  0
 51120  1  0  0  0
 51121  1  0  0  0
 52122  1  0  0  0
 52123  1  0  0  0
 53 54  1  0  0  0
 54 55  2  0  0  0
 54124  1  0  0  0
 55 57  1  0  0  0
 55125  1  0  0  0
 56 69  2  0  0  0
 57 58  2  0  0  0
 57126  1  0  0  0
 58127  1  0  0  0
 59 60  1  0  0  0
 59 61  1  0  0  0
 59 62  1  0  0  0
 60128  1  0  0  0
 60129  1  0  0  0
 60130  1  0  0  0
 61131  1  0  0  0
 61132  1  0  0  0
 61133  1  0  0  0
 62134  1  0  0  0
 62135  1  0  0  0
 62136  1  0  0  0
 63 65  1  0  0  0
 63137  1  0  0  0
 63138  1  0  0  0
 63139  1  0  0  0
 64140  1  0  0  0
 65141  1  0  0  0
 68 78  1  0  0  0
 71 74  2  0  0  0
 71 79  1  0  0  0
 71142  1  0  0  0
 72 73  2  0  0  0
 72 74  1  0  0  0
 72 76  1  0  0  0
 73 75  1  0  0  0
 73 77  1  0  0  0
 74 81  1  0  0  0
 75 79  2  0  0  0
 75 82  1  0  0  0
 76 78  1  0  0  0
 76143  1  0  0  0
 76144  1  0  0  0
 77 80  1  0  0  0
 77145  1  0  0  0
 77146  1  0  0  0
 78147  1  0  0  0
 78148  1  0  0  0
 80149  1  0  0  0
M  ISO  4   1 100  68 101  78 101  80 100
M  END
> <chiral flag>
0

> <version>
0

> <s_m_source_file>
/data/baiqing/PycharmProjects/Reinvent-master-3.2/result/LINK_invent/BTK/process_docking_weight1_custom_sum_contain_oxygen_bond_distance_aromatic_linkinvent_7_9_3/rearranged_h_0030.sdf

> <i_m_source_file_index>
9

> <r_mmod_Potential_Energy-OPLS-2005>
1452.90087890625

> <r_mmod_Stretch_Energy-OPLS-2005>
667.084289550781

> <r_mmod_Bend_Energy-OPLS-2005>
490.988647460938

> <r_mmod_Torsional_Energy-OPLS-2005>
336.763122558594

> <r_mmod_Improper_Torsional_Energy-OPLS-2005>
5.77912139892578

> <r_mmod_Van_der_Waal_Energy-OPLS-2005>
141.926910400391

> <r_mmod_Electrostatic_Energy-OPLS-2005>
-432.638153076172

> <r_mmod_Solvation_Energy-OPLS-2005>
-223.453079223633

> <b_mmod_Minimization_Converged-OPLS-2005>
0

> <r_mmod_RMS_Derivative-OPLS-2005>
1.47905647754669

$$$$
9
                    3D
 Structure written by MMmdl.
156164  0  0  1  0            999 V2000
  -30.6406  -14.6768   20.4445 C   0  0  0  0  0  0
  -30.4298  -12.4105   19.4536 C   0  0  0  0  0  0
  -29.5022  -12.4958   18.2216 C   0  0  0  0  0  0
  -28.0253  -12.3424   18.6371 C   0  0  0  0  0  0
  -27.6455  -13.2337   19.8501 C   0  0  2  0  0  0
  -28.6943  -13.1364   20.9817 C   0  0  0  0  0  0
  -25.2552  -13.8272   20.5750 C   0  0  0  0  0  0
  -24.1815  -13.0485   20.9214 C   0  0  0  0  0  0
  -24.6401  -11.6980   20.8720 C   0  0  0  0  0  0
  -23.9083  -10.4329   21.0356 C   0  0  0  0  0  0
  -24.3638   -9.4254   21.9136 C   0  0  0  0  0  0
  -23.6327   -8.2280   22.0720 C   0  0  0  0  0  0
  -22.4300   -8.0302   21.3538 C   0  0  0  0  0  0
  -21.9932   -9.0268   20.4624 C   0  0  0  0  0  0
  -22.7258  -10.2158   20.3015 C   0  0  0  0  0  0
  -21.6866   -6.0741   22.5288 C   0  0  0  0  0  0
  -21.4013   -6.5633   23.8225 C   0  0  0  0  0  0
  -21.3667   -5.6788   24.9183 C   0  0  0  0  0  0
  -21.6056   -4.3051   24.7231 C   0  0  0  0  0  0
  -21.8829   -3.8146   23.4351 C   0  0  0  0  0  0
  -21.9210   -4.6964   22.3414 C   0  0  0  0  0  0
  -22.7857  -13.5262   21.1905 C   0  0  0  0  0  0
  -22.1700   -4.2165   21.0989 F   0  0  0  0  0  0
  -21.5613   -3.4524   25.7733 F   0  0  0  0  0  0
  -30.0020  -13.4635   20.3984 N   0  0  0  0  0  0
  -26.2961  -12.9467   20.3306 N   0  0  0  0  0  0
  -25.9323  -11.6605   20.5730 N   0  0  0  0  0  0
  -22.0525  -12.8177   22.0428 N   0  0  0  0  0  0
  -25.4243  -15.2001   20.4316 N   0  0  0  0  0  0
  -31.8273  -14.7782   20.1268 O   0  0  0  0  0  0
  -21.6679   -6.8891   21.4244 O   0  0  0  0  0  0
  -22.3512  -14.5569   20.6798 O   0  0  0  0  0  0
  -24.6301  -31.8502   23.1935 C   0  0  0  0  0  0
  -25.9149  -32.4699   23.8270 C   0  0  1  0  0  0
  -27.2442  -27.2917   20.1071 C   0  0  0  0  0  0
  -25.5954  -33.8506   24.2181 N   0  0  0  0  0  0
  -23.4218  -30.4752   21.5305 C   0  0  2  0  0  0
  -24.8688  -28.9066   20.1079 C   0  0  0  0  0  0
  -22.7365  -29.4668   22.4817 C   0  0  0  0  0  0
  -18.0285  -28.1377   22.8438 C   0  0  0  0  0  0
  -24.1511  -36.7290   23.2645 C   0  0  0  0  0  0
  -25.9631  -30.7649   21.3677 C   0  0  0  0  0  0
  -26.0344  -29.3898   20.7138 C   0  0  0  0  0  0
  -27.2165  -28.5922   20.7044 C   0  0  0  0  0  0
  -26.0526  -26.8506   19.4891 C   0  0  0  0  0  0
  -24.8807  -27.6409   19.4919 C   0  0  0  0  0  0
  -23.6371  -29.7929   20.1523 C   0  0  0  0  0  0
  -25.4126  -36.3020   24.0314 C   0  0  1  0  0  0
  -20.5855  -28.3763   23.1183 C   0  0  2  0  0  0
  -20.6733  -26.9452   22.5412 C   0  0  0  0  0  0
  -19.5764  -26.6373   21.5178 C   0  0  0  0  0  0
  -18.1953  -26.7934   22.1543 C   0  0  0  0  0  0
  -19.1525  -28.8886   23.2816 C   0  0  0  0  0  0
  -18.9435  -30.1447   23.8898 C   0  0  0  0  0  0
  -17.6434  -30.6543   24.0560 C   0  0  0  0  0  0
  -25.9066  -34.9403   23.5036 C   0  0  0  0  0  0
  -16.5349  -29.9055   23.6252 C   0  0  0  0  0  0
  -16.7278  -28.6466   23.0292 C   0  0  0  0  0  0
  -26.4512  -31.6547   25.0671 C   0  0  0  0  0  0
  -25.3732  -31.3738   26.1393 C   0  0  0  0  0  0
  -27.0355  -30.2969   24.6136 C   0  0  0  0  0  0
  -27.6040  -32.4302   25.7473 C   0  0  0  0  0  0
  -27.5563  -37.1809   24.8466 C   0  0  0  0  0  0
  -21.4087  -29.3052   22.3461 N   0  0  0  0  0  0
  -26.4279  -37.3725   23.9406 N   0  0  0  0  0  0
  -24.6908  -31.0475   22.0896 N   0  0  0  0  0  0
  -23.4015  -28.8265   23.3006 O   0  0  0  0  0  0
  -28.4038  -26.4968   20.1791 O   0  0  0  0  0  0
  -26.5630  -34.8920   22.4604 O   0  0  0  0  0  0
  -23.5472  -32.1336   23.7266 O   0  0  0  0  0  0
  -29.5118  -19.8186   20.2351 C   0  0  0  0  0  0
  -28.0178  -18.1603   21.1865 C   0  0  0  0  0  0
  -29.2621  -18.4332   20.5965 C   0  0  0  0  0  0
  -28.5677  -20.9046   20.4423 C   0  0  0  0  0  0
  -27.3396  -20.5327   21.0639 C   0  0  0  0  0  0
  -27.0803  -19.1774   21.4197 C   0  0  0  0  0  0
  -26.2650  -21.5713   21.3126 C   0  0  0  0  0  0
  -28.8197  -22.3726   19.8436 C   0  0  0  0  0  0
  -30.2937  -17.2513   20.4044 C   0  0  0  0  0  0
  -28.3425  -23.7991   20.4856 C   0  0  0  0  0  0
  -28.5524  -25.1324   19.6047 C   0  0  0  0  0  0
  -29.8726  -15.8060   20.6219 N   0  0  0  0  0  0
  -25.5831  -18.6828   22.1352 Cl  0  0  0  0  0  0
  -31.4696  -12.5257   19.1422 H   0  0  0  0  0  0
  -30.3662  -11.4285   19.9255 H   0  0  0  0  0  0
  -29.7642  -11.7201   17.5019 H   0  0  0  0  0  0
  -29.6447  -13.4496   17.7108 H   0  0  0  0  0  0
  -27.8629  -11.2911   18.8820 H   0  0  0  0  0  0
  -27.3704  -12.5579   17.7929 H   0  0  0  0  0  0
  -27.6455  -14.2616   19.4881 H   0  0  0  0  0  0
  -28.7102  -12.1338   21.4131 H   0  0  0  0  0  0
  -28.4453  -13.8174   21.7970 H   0  0  0  0  0  0
  -25.2769   -9.5759   22.4721 H   0  0  0  0  0  0
  -24.0046   -7.4688   22.7437 H   0  0  0  0  0  0
  -21.0865   -8.8796   19.8933 H   0  0  0  0  0  0
  -22.3706  -10.9693   19.6132 H   0  0  0  0  0  0
  -21.1999   -7.6141   23.9729 H   0  0  0  0  0  0
  -21.1474   -6.0511   25.9095 H   0  0  0  0  0  0
  -22.0593   -2.7602   23.2861 H   0  0  0  0  0  0
  -22.4163  -11.9834   22.4776 H   0  0  0  0  0  0
  -21.1124  -13.1135   22.2603 H   0  0  0  0  0  0
  -24.6758  -15.8537   20.6303 H   0  0  0  0  0  0
  -26.2713  -15.6600   20.1223 H   0  0  0  0  0  0
  -26.7175  -32.5303   23.0962 H   0  0  0  0  0  0
  -25.0112  -33.9629   25.0331 H   0  0  0  0  0  0
  -22.7279  -31.3043   21.3782 H   0  0  0  0  0  0
  -23.3719  -35.9670   23.3289 H   0  0  0  0  0  0
  -24.3614  -36.8919   22.2060 H   0  0  0  0  0  0
  -23.7330  -37.6526   23.6678 H   0  0  0  0  0  0
  -26.0970  -31.5142   20.5888 H   0  0  0  0  0  0
  -26.8477  -30.8158   21.9886 H   0  0  0  0  0  0
  -28.1124  -28.9571   21.1873 H   0  0  0  0  0  0
  -26.0000  -25.8773   19.0218 H   0  0  0  0  0  0
  -23.9875  -27.2556   19.0196 H   0  0  0  0  0  0
  -23.7596  -30.5650   19.3920 H   0  0  0  0  0  0
  -22.7533  -29.2248   19.8551 H   0  0  0  0  0  0
  -25.1310  -36.1816   25.0796 H   0  0  0  0  0  0
  -20.9955  -28.3428   24.1296 H   0  0  0  0  0  0
  -20.5584  -26.2435   23.3692 H   0  0  0  0  0  0
  -21.6596  -26.7435   22.1255 H   0  0  0  0  0  0
  -19.6881  -25.6242   21.1246 H   0  0  0  0  0  0
  -19.6713  -27.3123   20.6673 H   0  0  0  0  0  0
  -17.4230  -26.6686   21.3943 H   0  0  0  0  0  0
  -18.0340  -26.0036   22.8908 H   0  0  0  0  0  0
  -19.7883  -30.7260   24.2274 H   0  0  0  0  0  0
  -17.4965  -31.6200   24.5180 H   0  0  0  0  0  0
  -15.5325  -30.2912   23.7508 H   0  0  0  0  0  0
  -15.8697  -28.0794   22.6966 H   0  0  0  0  0  0
  -24.5887  -30.7081   25.7759 H   0  0  0  0  0  0
  -24.8939  -32.2935   26.4779 H   0  0  0  0  0  0
  -25.8053  -30.8958   27.0191 H   0  0  0  0  0  0
  -26.2930  -29.6702   24.1158 H   0  0  0  0  0  0
  -27.4072  -29.7231   25.4637 H   0  0  0  0  0  0
  -27.8791  -30.4267   23.9343 H   0  0  0  0  0  0
  -27.2608  -33.3587   26.2063 H   0  0  0  0  0  0
  -28.3886  -32.6884   25.0341 H   0  0  0  0  0  0
  -28.0669  -31.8413   26.5403 H   0  0  0  0  0  0
  -28.2579  -38.0103   24.7456 H   0  0  0  0  0  0
  -28.1065  -36.2631   24.6327 H   0  0  0  0  0  0
  -27.2313  -37.1490   25.8883 H   0  0  0  0  0  0
  -20.9268  -29.8407   21.6362 H   0  0  0  0  0  0
  -26.0127  -38.2798   24.1337 H   0  0  0  0  0  0
  -30.4600  -20.0416   19.7615 H   0  0  0  0  0  0
  -27.7530  -17.1568   21.4782 H   0  0  0  0  0  0
  -25.3084  -21.1668   21.6298 H   0  0  0  0  0  0
  -26.0693  -22.1130   20.3876 H   0  0  0  0  0  0
  -26.5972  -22.2554   22.0936 H   0  0  0  0  0  0
  -28.3923  -22.3305   18.8413 H   0  0  0  0  0  0
  -29.8958  -22.4382   19.6649 H   0  0  0  0  0  0
  -30.7256  -17.3379   19.4056 H   0  0  0  0  0  0
  -31.1237  -17.4453   21.0846 H   0  0  0  0  0  0
  -28.8418  -23.9298   21.4446 H   0  0  0  0  0  0
  -27.2824  -23.8209   20.7253 H   0  0  0  0  0  0
  -27.9926  -25.0581   18.6749 H   0  0  0  0  0  0
  -29.5938  -25.1009   19.2766 H   0  0  0  0  0  0
  -28.9005  -15.6408   20.8304 H   0  0  0  0  0  0
  1 25  1  0  0  0
  1 30  2  0  0  0
  1 82  1  0  0  0
  2  3  1  0  0  0
  2 25  1  0  0  0
  2 84  1  0  0  0
  2 85  1  0  0  0
  3  4  1  0  0  0
  3 86  1  0  0  0
  3 87  1  0  0  0
  4  5  1  0  0  0
  4 88  1  0  0  0
  4 89  1  0  0  0
  5  6  1  0  0  0
  5 26  1  0  0  0
  5 90  1  0  0  0
  6 25  1  0  0  0
  6 91  1  0  0  0
  6 92  1  0  0  0
  7  8  2  0  0  0
  7 26  1  0  0  0
  7 29  1  0  0  0
  8  9  1  0  0  0
  8 22  1  0  0  0
  9 10  1  0  0  0
  9 27  2  0  0  0
 10 11  2  0  0  0
 10 15  1  0  0  0
 11 12  1  0  0  0
 11 93  1  0  0  0
 12 13  2  0  0  0
 12 94  1  0  0  0
 13 14  1  0  0  0
 13 31  1  0  0  0
 14 15  2  0  0  0
 14 95  1  0  0  0
 15 96  1  0  0  0
 16 17  2  0  0  0
 16 21  1  0  0  0
 16 31  1  0  0  0
 17 18  1  0  0  0
 17 97  1  0  0  0
 18 19  2  0  0  0
 18 98  1  0  0  0
 19 20  1  0  0  0
 19 24  1  0  0  0
 20 21  2  0  0  0
 20 99  1  0  0  0
 21 23  1  0  0  0
 22 28  1  0  0  0
 22 32  2  0  0  0
 26 27  1  0  0  0
 28100  1  0  0  0
 28101  1  0  0  0
 29102  1  0  0  0
 29103  1  0  0  0
 33 34  1  0  0  0
 33 66  1  0  0  0
 33 70  2  0  0  0
 34 36  1  0  0  0
 34 59  1  0  0  0
 34104  1  0  0  0
 35 44  2  0  0  0
 35 45  1  0  0  0
 35 68  1  0  0  0
 36 56  1  0  0  0
 36105  1  0  0  0
 37 39  1  0  0  0
 37 47  1  0  0  0
 37 66  1  0  0  0
 37106  1  0  0  0
 38 43  2  0  0  0
 38 46  1  0  0  0
 38 47  1  0  0  0
 39 64  1  0  0  0
 39 67  2  0  0  0
 40 52  1  0  0  0
 40 53  2  0  0  0
 40 58  1  0  0  0
 41107  1  0  0  0
 41108  1  0  0  0
 41109  1  0  0  0
 41 48  1  0  0  0
 42 43  1  0  0  0
 42 66  1  0  0  0
 42110  1  0  0  0
 42111  1  0  0  0
 43 44  1  0  0  0
 44112  1  0  0  0
 45 46  2  0  0  0
 45113  1  0  0  0
 46114  1  0  0  0
 47115  1  0  0  0
 47116  1  0  0  0
 48 56  1  0  0  0
 48 65  1  0  0  0
 48117  1  0  0  0
 49 50  1  0  0  0
 49 53  1  0  0  0
 49 64  1  0  0  0
 49118  1  0  0  0
 50 51  1  0  0  0
 50119  1  0  0  0
 50120  1  0  0  0
 51 52  1  0  0  0
 51121  1  0  0  0
 51122  1  0  0  0
 52123  1  0  0  0
 52124  1  0  0  0
 53 54  1  0  0  0
 54 55  2  0  0  0
 54125  1  0  0  0
 55 57  1  0  0  0
 55126  1  0  0  0
 56 69  2  0  0  0
 57 58  2  0  0  0
 57127  1  0  0  0
 58128  1  0  0  0
 59 60  1  0  0  0
 59 61  1  0  0  0
 59 62  1  0  0  0
 60129  1  0  0  0
 60130  1  0  0  0
 60131  1  0  0  0
 61132  1  0  0  0
 61133  1  0  0  0
 61134  1  0  0  0
 62135  1  0  0  0
 62136  1  0  0  0
 62137  1  0  0  0
 63 65  1  0  0  0
 63138  1  0  0  0
 63139  1  0  0  0
 63140  1  0  0  0
 64141  1  0  0  0
 65142  1  0  0  0
 68 81  1  0  0  0
 71 73  2  0  0  0
 71 74  1  0  0  0
 71143  1  0  0  0
 72 73  1  0  0  0
 72 76  2  0  0  0
 72144  1  0  0  0
 73 79  1  0  0  0
 74 75  2  0  0  0
 74 78  1  0  0  0
 75 76  1  0  0  0
 75 77  1  0  0  0
 76 83  1  0  0  0
 77145  1  0  0  0
 77146  1  0  0  0
 77147  1  0  0  0
 78 80  1  0  0  0
 78148  1  0  0  0
 78149  1  0  0  0
 79 82  1  0  0  0
 79150  1  0  0  0
 79151  1  0  0  0
 80 81  1  0  0  0
 80152  1  0  0  0
 80153  1  0  0  0
 81154  1  0  0  0
 81155  1  0  0  0
 82156  1  0  0  0
M  ISO  4   1 100  68 101  81 101  82 100
M  END
> <chiral flag>
0

> <version>
0

> <s_m_source_file>
/data/baiqing/PycharmProjects/Reinvent-master-3.2/result/LINK_invent/BTK/process_docking_weight1_custom_sum_contain_oxygen_bond_distance_aromatic_linkinvent_7_9_3/rearranged_h_0030.sdf

> <i_m_source_file_index>
10

> <r_mmod_Potential_Energy-OPLS-2005>
66.3555145263672

> <r_mmod_Stretch_Energy-OPLS-2005>
110.871643066406

> <r_mmod_Bend_Energy-OPLS-2005>
172.567749023438

> <r_mmod_Torsional_Energy-OPLS-2005>
193.797729492188

> <r_mmod_Improper_Torsional_Energy-OPLS-2005>
5.85963201522827

> <r_mmod_Van_der_Waal_Energy-OPLS-2005>
141.698104858398

> <r_mmod_Electrostatic_Energy-OPLS-2005>
-416.227325439453

> <r_mmod_Solvation_Energy-OPLS-2005>
-203.385772705078

> <b_mmod_Minimization_Converged-OPLS-2005>
0

> <r_mmod_RMS_Derivative-OPLS-2005>
6.05232954025269

$$$$
10
                    3D
 Structure written by MMmdl.
165173  0  0  1  0            999 V2000
  -30.6561  -14.7166   20.4580 C   0  0  0  0  0  0
  -30.4184  -12.4395   19.4801 C   0  0  0  0  0  0
  -29.5059  -12.5267   18.2378 C   0  0  0  0  0  0
  -28.0299  -12.3556   18.6456 C   0  0  0  0  0  0
  -27.6328  -13.2405   19.8579 C   0  0  2  0  0  0
  -28.6817  -13.1791   20.9933 C   0  0  0  0  0  0
  -25.2165  -13.7832   20.5508 C   0  0  0  0  0  0
  -24.1606  -13.0129   20.9253 C   0  0  0  0  0  0
  -24.6364  -11.6707   20.8818 C   0  0  0  0  0  0
  -23.9067  -10.4125   21.0441 C   0  0  0  0  0  0
  -24.3616   -9.4064   21.9225 C   0  0  0  0  0  0
  -23.6268   -8.2127   22.0760 C   0  0  0  0  0  0
  -22.4254   -8.0197   21.3537 C   0  0  0  0  0  0
  -21.9901   -9.0177   20.4649 C   0  0  0  0  0  0
  -22.7251  -10.2032   20.3071 C   0  0  0  0  0  0
  -21.6827   -6.0705   22.5279 C   0  0  0  0  0  0
  -21.3989   -6.5617   23.8209 C   0  0  0  0  0  0
  -21.3651   -5.6775   24.9178 C   0  0  0  0  0  0
  -21.6047   -4.3043   24.7235 C   0  0  0  0  0  0
  -21.8826   -3.8125   23.4360 C   0  0  0  0  0  0
  -21.9184   -4.6933   22.3410 C   0  0  0  0  0  0
  -22.7648  -13.4955   21.1926 C   0  0  0  0  0  0
  -22.1661   -4.2121   21.0995 F   0  0  0  0  0  0
  -21.5646   -3.4535   25.7757 F   0  0  0  0  0  0
  -29.9953  -13.5077   20.4152 N   0  0  0  0  0  0
  -26.2836  -12.9303   20.3308 N   0  0  0  0  0  0
  -25.9323  -11.6429   20.5836 N   0  0  0  0  0  0
  -22.0307  -12.8000   22.0522 N   0  0  0  0  0  0
  -25.3137  -15.1410   20.3441 N   0  0  0  0  0  0
  -31.8337  -14.7925   20.1049 O   0  0  0  0  0  0
  -21.6591   -6.8830   21.4238 O   0  0  0  0  0  0
  -22.3362  -14.5312   20.6811 O   0  0  0  0  0  0
  -24.6225  -31.8577   23.1995 C   0  0  0  0  0  0
  -25.9072  -32.4775   23.8348 C   0  0  1  0  0  0
  -27.2628  -27.3317   20.1140 C   0  0  0  0  0  0
  -25.5893  -33.8579   24.2282 N   0  0  0  0  0  0
  -23.4212  -30.4752   21.5381 C   0  0  2  0  0  0
  -24.8771  -28.9199   20.1124 C   0  0  0  0  0  0
  -22.7474  -29.4603   22.4906 C   0  0  0  0  0  0
  -18.0290  -28.1373   22.8499 C   0  0  0  0  0  0
  -24.1479  -36.7283   23.2647 C   0  0  0  0  0  0
  -25.9577  -30.7914   21.3709 C   0  0  0  0  0  0
  -26.0382  -29.4165   20.7162 C   0  0  0  0  0  0
  -27.2259  -28.6310   20.7076 C   0  0  0  0  0  0
  -26.0759  -26.8707   19.5026 C   0  0  0  0  0  0
  -24.8973  -27.6521   19.5013 C   0  0  0  0  0  0
  -23.6410  -29.7981   20.1572 C   0  0  0  0  0  0
  -25.4105  -36.3084   24.0343 C   0  0  1  0  0  0
  -20.5887  -28.3680   23.1275 C   0  0  2  0  0  0
  -20.6756  -26.9397   22.5409 C   0  0  0  0  0  0
  -19.5733  -26.6379   21.5206 C   0  0  0  0  0  0
  -18.1921  -26.7918   22.1629 C   0  0  0  0  0  0
  -19.1542  -28.8843   23.2891 C   0  0  0  0  0  0
  -18.9460  -30.1445   23.8909 C   0  0  0  0  0  0
  -17.6457  -30.6577   24.0557 C   0  0  0  0  0  0
  -25.9041  -34.9455   23.5118 C   0  0  0  0  0  0
  -16.5356  -29.9071   23.6312 C   0  0  0  0  0  0
  -16.7276  -28.6483   23.0350 C   0  0  0  0  0  0
  -26.4472  -31.6599   25.0726 C   0  0  0  0  0  0
  -25.3726  -31.3735   26.1472 C   0  0  0  0  0  0
  -27.0322  -30.3031   24.6179 C   0  0  0  0  0  0
  -27.6030  -32.4342   25.7490 C   0  0  0  0  0  0
  -27.5573  -37.1797   24.8468 C   0  0  0  0  0  0
  -21.4181  -29.3046   22.3672 N   0  0  0  0  0  0
  -26.4281  -37.3778   23.9422 N   0  0  0  0  0  0
  -24.6850  -31.0581   22.0943 N   0  0  0  0  0  0
  -23.4191  -28.8156   23.3001 O   0  0  0  0  0  0
  -28.4363  -26.5646   20.1794 O   0  0  0  0  0  0
  -26.5607  -34.8914   22.4685 O   0  0  0  0  0  0
  -23.5386  -32.1374   23.7322 O   0  0  0  0  0  0
  -27.2492  -19.5020   21.3740 C   0  0  0  0  0  0
  -27.7603  -20.8230   21.3939 C   0  0  0  0  0  0
  -28.0198  -18.4431   20.8293 C   0  0  0  0  0  0
  -29.8131  -19.9828   20.3776 C   0  0  0  0  0  0
  -28.9623  -21.1252   20.6947 C   0  0  0  0  0  0
  -29.3923  -18.5981   20.5393 C   0  0  0  0  0  0
  -25.8449  -19.2416   21.9330 C   0  0  0  0  0  0
  -27.0000  -21.8843   22.1847 C   0  0  0  0  0  0
  -27.3310  -17.1661   20.4490 C   0  0  0  0  0  0
  -31.1994  -20.2756   19.8197 C   0  0  0  0  0  0
  -29.3505  -22.6206   20.2761 C   0  0  0  0  0  0
  -30.3426  -17.3156   20.3329 C   0  0  0  0  0  0
  -28.3853  -23.9084   20.4512 C   0  0  0  0  0  0
  -28.6239  -25.2235   19.5835 C   0  0  0  0  0  0
  -29.9357  -15.8751   20.6692 N   0  0  0  0  0  0
  -31.4667  -12.5308   19.1888 H   0  0  0  0  0  0
  -30.3281  -11.4616   19.9546 H   0  0  0  0  0  0
  -29.7806  -11.7644   17.5072 H   0  0  0  0  0  0
  -29.6487  -13.4907   17.7439 H   0  0  0  0  0  0
  -27.8800  -11.3045   18.8927 H   0  0  0  0  0  0
  -27.3748  -12.5641   17.7987 H   0  0  0  0  0  0
  -27.6154  -14.2650   19.4883 H   0  0  0  0  0  0
  -28.4147  -13.8756   21.7896 H   0  0  0  0  0  0
  -28.6963  -12.1869   21.4476 H   0  0  0  0  0  0
  -25.2756   -9.5541   22.4809 H   0  0  0  0  0  0
  -23.9955   -7.4499   22.7474 H   0  0  0  0  0  0
  -21.0835   -8.8728   19.8952 H   0  0  0  0  0  0
  -22.3734  -10.9596   19.6190 H   0  0  0  0  0  0
  -21.1962   -7.6117   23.9703 H   0  0  0  0  0  0
  -21.1471   -6.0509   25.9082 H   0  0  0  0  0  0
  -22.0612   -2.7587   23.2866 H   0  0  0  0  0  0
  -22.3959  -11.9679   22.4920 H   0  0  0  0  0  0
  -21.0938  -13.1031   22.2785 H   0  0  0  0  0  0
  -24.4899  -15.7280   20.4047 H   0  0  0  0  0  0
  -26.0966  -15.5910   19.8925 H   0  0  0  0  0  0
  -26.7141  -32.5460   23.1101 H   0  0  0  0  0  0
  -25.0041  -33.9728   25.0425 H   0  0  0  0  0  0
  -22.7156  -31.2954   21.3865 H   0  0  0  0  0  0
  -23.3747  -35.9609   23.3311 H   0  0  0  0  0  0
  -24.3563  -36.8896   22.2057 H   0  0  0  0  0  0
  -23.7216  -37.6485   23.6659 H   0  0  0  0  0  0
  -26.0873  -31.5552   20.6030 H   0  0  0  0  0  0
  -26.8375  -30.8444   22.0013 H   0  0  0  0  0  0
  -28.1201  -29.0158   21.1790 H   0  0  0  0  0  0
  -26.0407  -25.8956   19.0409 H   0  0  0  0  0  0
  -24.0062  -27.2613   19.0310 H   0  0  0  0  0  0
  -23.7626  -30.5701   19.3963 H   0  0  0  0  0  0
  -22.7641  -29.2234   19.8529 H   0  0  0  0  0  0
  -25.1280  -36.1938   25.0834 H   0  0  0  0  0  0
  -21.0008  -28.3250   24.1383 H   0  0  0  0  0  0
  -20.5601  -26.2304   23.3619 H   0  0  0  0  0  0
  -21.6624  -26.7372   22.1240 H   0  0  0  0  0  0
  -19.6882  -25.6289   21.1227 H   0  0  0  0  0  0
  -19.6654  -27.3189   20.6734 H   0  0  0  0  0  0
  -17.4186  -26.6680   21.4036 H   0  0  0  0  0  0
  -18.0321  -26.0051   22.9013 H   0  0  0  0  0  0
  -19.7940  -30.7256   24.2287 H   0  0  0  0  0  0
  -17.5009  -31.6258   24.5151 H   0  0  0  0  0  0
  -15.5351  -30.2968   23.7617 H   0  0  0  0  0  0
  -15.8688  -28.0789   22.7057 H   0  0  0  0  0  0
  -24.5887  -30.7092   25.7821 H   0  0  0  0  0  0
  -24.8927  -32.2896   26.4924 H   0  0  0  0  0  0
  -25.8068  -30.8906   27.0235 H   0  0  0  0  0  0
  -26.2898  -29.6792   24.1185 H   0  0  0  0  0  0
  -27.4010  -29.7279   25.4680 H   0  0  0  0  0  0
  -27.8769  -30.4336   23.9412 H   0  0  0  0  0  0
  -27.2641  -33.3642   26.2067 H   0  0  0  0  0  0
  -28.3834  -32.6907   25.0315 H   0  0  0  0  0  0
  -28.0709  -31.8476   26.5406 H   0  0  0  0  0  0
  -28.2595  -38.0091   24.7506 H   0  0  0  0  0  0
  -28.1064  -36.2617   24.6298 H   0  0  0  0  0  0
  -27.2296  -37.1456   25.8875 H   0  0  0  0  0  0
  -20.9350  -29.8800   21.6916 H   0  0  0  0  0  0
  -26.0165  -38.2857   24.1423 H   0  0  0  0  0  0
  -25.4266  -18.2635   21.7106 H   0  0  0  0  0  0
  -25.1373  -19.9720   21.5403 H   0  0  0  0  0  0
  -25.8517  -19.3213   23.0204 H   0  0  0  0  0  0
  -26.2855  -22.4223   21.5641 H   0  0  0  0  0  0
  -27.6927  -22.5741   22.6615 H   0  0  0  0  0  0
  -26.4378  -21.4687   23.0170 H   0  0  0  0  0  0
  -27.2194  -16.5202   21.3192 H   0  0  0  0  0  0
  -27.8317  -16.6410   19.6373 H   0  0  0  0  0  0
  -26.3631  -17.4207   20.0191 H   0  0  0  0  0  0
  -31.6992  -21.0320   20.4240 H   0  0  0  0  0  0
  -31.1231  -20.6527   18.7991 H   0  0  0  0  0  0
  -31.8533  -19.4055   19.7997 H   0  0  0  0  0  0
  -29.5867  -22.5619   19.2130 H   0  0  0  0  0  0
  -30.2957  -22.8584   20.7622 H   0  0  0  0  0  0
  -31.2458  -17.5083   20.9130 H   0  0  0  0  0  0
  -30.6540  -17.3180   19.2880 H   0  0  0  0  0  0
  -28.3875  -24.2156   21.4967 H   0  0  0  0  0  0
  -27.3662  -23.6229   20.2037 H   0  0  0  0  0  0
  -28.0818  -25.1436   18.6409 H   0  0  0  0  0  0
  -29.6707  -25.2082   19.2797 H   0  0  0  0  0  0
  -28.9776  -15.7490   20.9504 H   0  0  0  0  0  0
  1 25  1  0  0  0
  1 30  2  0  0  0
  1 85  1  0  0  0
  2  3  1  0  0  0
  2 25  1  0  0  0
  2 86  1  0  0  0
  2 87  1  0  0  0
  3  4  1  0  0  0
  3 88  1  0  0  0
  3 89  1  0  0  0
  4  5  1  0  0  0
  4 90  1  0  0  0
  4 91  1  0  0  0
  5  6  1  0  0  0
  5 26  1  0  0  0
  5 92  1  0  0  0
  6 25  1  0  0  0
  6 93  1  0  0  0
  6 94  1  0  0  0
  7  8  2  0  0  0
  7 26  1  0  0  0
  7 29  1  0  0  0
  8  9  1  0  0  0
  8 22  1  0  0  0
  9 10  1  0  0  0
  9 27  2  0  0  0
 10 11  2  0  0  0
 10 15  1  0  0  0
 11 12  1  0  0  0
 11 95  1  0  0  0
 12 13  2  0  0  0
 12 96  1  0  0  0
 13 14  1  0  0  0
 13 31  1  0  0  0
 14 15  2  0  0  0
 14 97  1  0  0  0
 15 98  1  0  0  0
 16 17  2  0  0  0
 16 21  1  0  0  0
 16 31  1  0  0  0
 17 18  1  0  0  0
 17 99  1  0  0  0
 18 19  2  0  0  0
 18100  1  0  0  0
 19 20  1  0  0  0
 19 24  1  0  0  0
 20 21  2  0  0  0
 20101  1  0  0  0
 21 23  1  0  0  0
 22 28  1  0  0  0
 22 32  2  0  0  0
 26 27  1  0  0  0
 28102  1  0  0  0
 28103  1  0  0  0
 29104  1  0  0  0
 29105  1  0  0  0
 33 34  1  0  0  0
 33 66  1  0  0  0
 33 70  2  0  0  0
 34 36  1  0  0  0
 34 59  1  0  0  0
 34106  1  0  0  0
 35 44  2  0  0  0
 35 45  1  0  0  0
 35 68  1  0  0  0
 36 56  1  0  0  0
 36107  1  0  0  0
 37 39  1  0  0  0
 37 47  1  0  0  0
 37 66  1  0  0  0
 37108  1  0  0  0
 38 43  2  0  0  0
 38 46  1  0  0  0
 38 47  1  0  0  0
 39 64  1  0  0  0
 39 67  2  0  0  0
 40 52  1  0  0  0
 40 53  2  0  0  0
 40 58  1  0  0  0
 41109  1  0  0  0
 41110  1  0  0  0
 41111  1  0  0  0
 41 48  1  0  0  0
 42 43  1  0  0  0
 42 66  1  0  0  0
 42112  1  0  0  0
 42113  1  0  0  0
 43 44  1  0  0  0
 44114  1  0  0  0
 45 46  2  0  0  0
 45115  1  0  0  0
 46116  1  0  0  0
 47117  1  0  0  0
 47118  1  0  0  0
 48 56  1  0  0  0
 48 65  1  0  0  0
 48119  1  0  0  0
 49 50  1  0  0  0
 49 53  1  0  0  0
 49 64  1  0  0  0
 49120  1  0  0  0
 50 51  1  0  0  0
 50121  1  0  0  0
 50122  1  0  0  0
 51 52  1  0  0  0
 51123  1  0  0  0
 51124  1  0  0  0
 52125  1  0  0  0
 52126  1  0  0  0
 53 54  1  0  0  0
 54 55  2  0  0  0
 54127  1  0  0  0
 55 57  1  0  0  0
 55128  1  0  0  0
 56 69  2  0  0  0
 57 58  2  0  0  0
 57129  1  0  0  0
 58130  1  0  0  0
 59 60  1  0  0  0
 59 61  1  0  0  0
 59 62  1  0  0  0
 60131  1  0  0  0
 60132  1  0  0  0
 60133  1  0  0  0
 61134  1  0  0  0
 61135  1  0  0  0
 61136  1  0  0  0
 62137  1  0  0  0
 62138  1  0  0  0
 62139  1  0  0  0
 63 65  1  0  0  0
 63140  1  0  0  0
 63141  1  0  0  0
 63142  1  0  0  0
 64143  1  0  0  0
 65144  1  0  0  0
 68 84  1  0  0  0
 71 72  2  0  0  0
 71 73  1  0  0  0
 71 77  1  0  0  0
 72 75  1  0  0  0
 72 78  1  0  0  0
 73 76  2  0  0  0
 73 79  1  0  0  0
 74 75  2  0  0  0
 74 76  1  0  0  0
 74 80  1  0  0  0
 75 81  1  0  0  0
 76 82  1  0  0  0
 77145  1  0  0  0
 77146  1  0  0  0
 77147  1  0  0  0
 78148  1  0  0  0
 78149  1  0  0  0
 78150  1  0  0  0
 79151  1  0  0  0
 79152  1  0  0  0
 79153  1  0  0  0
 80154  1  0  0  0
 80155  1  0  0  0
 80156  1  0  0  0
 81 83  1  0  0  0
 81157  1  0  0  0
 81158  1  0  0  0
 82 85  1  0  0  0
 82159  1  0  0  0
 82160  1  0  0  0
 83 84  1  0  0  0
 83161  1  0  0  0
 83162  1  0  0  0
 84163  1  0  0  0
 84164  1  0  0  0
 85165  1  0  0  0
M  ISO  4   1 100  68 101  84 101  85 100
M  END
> <chiral flag>
0

> <version>
0

> <s_m_source_file>
/data/baiqing/PycharmProjects/Reinvent-master-3.2/result/LINK_invent/BTK/process_docking_weight1_custom_sum_contain_oxygen_bond_distance_aromatic_linkinvent_7_9_3/rearranged_h_0030.sdf

> <i_m_source_file_index>
11

> <r_mmod_Potential_Energy-OPLS-2005>
135.014846801758

> <r_mmod_Stretch_Energy-OPLS-2005>
114.898956298828

> <r_mmod_Bend_Energy-OPLS-2005>
181.161315917969

> <r_mmod_Torsional_Energy-OPLS-2005>
250.770431518555

> <r_mmod_Improper_Torsional_Energy-OPLS-2005>
6.68946933746338

> <r_mmod_Van_der_Waal_Energy-OPLS-2005>
179.962554931641

> <r_mmod_Electrostatic_Energy-OPLS-2005>
-459.765380859375

> <r_mmod_Solvation_Energy-OPLS-2005>
-202.161117553711

> <b_mmod_Minimization_Converged-OPLS-2005>
0

> <r_mmod_RMS_Derivative-OPLS-2005>
2.50391745567322

$$$$
11
                    3D
 Structure written by MMmdl.
146154  0  0  1  0            999 V2000
  -30.4725  -15.1986   20.3782 C   0  0  0  0  0  0
  -30.4377  -12.7628   19.5169 C   0  0  0  0  0  0
  -29.5307  -12.5609   18.2784 C   0  0  0  0  0  0
  -28.0760  -12.2992   18.7067 C   0  0  0  0  0  0
  -27.6135  -13.2700   19.8225 C   0  0  2  0  0  0
  -28.6508  -13.4231   20.9551 C   0  0  0  0  0  0
  -25.2399  -13.8242   20.5744 C   0  0  0  0  0  0
  -24.1746  -13.0435   20.9254 C   0  0  0  0  0  0
  -24.6396  -11.6931   20.8763 C   0  0  0  0  0  0
  -23.9091  -10.4291   21.0409 C   0  0  0  0  0  0
  -24.3636   -9.4203   21.9186 C   0  0  0  0  0  0
  -23.6304   -8.2242   22.0757 C   0  0  0  0  0  0
  -22.4285   -8.0283   21.3547 C   0  0  0  0  0  0
  -21.9926   -9.0257   20.4648 C   0  0  0  0  0  0
  -22.7262  -10.2133   20.3056 C   0  0  0  0  0  0
  -21.6854   -6.0740   22.5277 C   0  0  0  0  0  0
  -21.4016   -6.5643   23.8212 C   0  0  0  0  0  0
  -21.3659   -5.6794   24.9174 C   0  0  0  0  0  0
  -21.6044   -4.3057   24.7223 C   0  0  0  0  0  0
  -21.8818   -3.8149   23.4343 C   0  0  0  0  0  0
  -21.9193   -4.6967   22.3400 C   0  0  0  0  0  0
  -22.7764  -13.5189   21.1899 C   0  0  0  0  0  0
  -22.1660   -4.2153   21.0977 F   0  0  0  0  0  0
  -21.5628   -3.4540   25.7736 F   0  0  0  0  0  0
  -29.8900  -13.9071   20.3280 N   0  0  0  0  0  0
  -26.2824  -12.9508   20.3218 N   0  0  0  0  0  0
  -25.9330  -11.6618   20.5724 N   0  0  0  0  0  0
  -22.0422  -12.8174   22.0456 N   0  0  0  0  0  0
  -25.4034  -15.1976   20.4181 N   0  0  0  0  0  0
  -31.6945  -15.1945   20.1785 O   0  0  0  0  0  0
  -21.6643   -6.8884   21.4241 O   0  0  0  0  0  0
  -22.3441  -14.5487   20.6735 O   0  0  0  0  0  0
  -24.6600  -31.8278   23.1748 C   0  0  0  0  0  0
  -25.9297  -32.4610   23.8196 C   0  0  1  0  0  0
  -27.2144  -26.9651   20.1736 C   0  0  0  0  0  0
  -25.5982  -33.8423   24.2104 N   0  0  0  0  0  0
  -23.4725  -30.4428   21.5239 C   0  0  2  0  0  0
  -24.9247  -28.8412   20.1119 C   0  0  0  0  0  0
  -22.7652  -29.4466   22.4795 C   0  0  0  0  0  0
  -18.0320  -28.1409   22.8468 C   0  0  0  0  0  0
  -24.1497  -36.7218   23.2648 C   0  0  0  0  0  0
  -26.0407  -30.6470   21.3998 C   0  0  0  0  0  0
  -26.1095  -29.2414   20.7427 C   0  0  0  0  0  0
  -27.2512  -28.3244   20.7505 C   0  0  0  0  0  0
  -25.9999  -26.7151   19.4929 C   0  0  0  0  0  0
  -24.8936  -27.5971   19.4671 C   0  0  0  0  0  0
  -23.7099  -29.7644   20.1481 C   0  0  0  0  0  0
  -25.4136  -36.2979   24.0302 C   0  0  1  0  0  0
  -20.5943  -28.3750   23.1196 C   0  0  2  0  0  0
  -20.6797  -26.9434   22.5403 C   0  0  0  0  0  0
  -19.5771  -26.6378   21.5214 C   0  0  0  0  0  0
  -18.1953  -26.7944   22.1621 C   0  0  0  0  0  0
  -19.1581  -28.8899   23.2820 C   0  0  0  0  0  0
  -18.9491  -30.1490   23.8853 C   0  0  0  0  0  0
  -17.6483  -30.6598   24.0555 C   0  0  0  0  0  0
  -25.9094  -34.9361   23.5018 C   0  0  0  0  0  0
  -16.5375  -29.9085   23.6342 C   0  0  0  0  0  0
  -16.7301  -28.6507   23.0359 C   0  0  0  0  0  0
  -26.4561  -31.6538   25.0706 C   0  0  0  0  0  0
  -25.3699  -31.3782   26.1370 C   0  0  0  0  0  0
  -27.0444  -30.2908   24.6410 C   0  0  0  0  0  0
  -27.6066  -32.4335   25.7499 C   0  0  0  0  0  0
  -27.5567  -37.1773   24.8472 C   0  0  0  0  0  0
  -21.4324  -29.3050   22.3548 N   0  0  0  0  0  0
  -26.4288  -37.3707   23.9397 N   0  0  0  0  0  0
  -24.7457  -30.9979   22.0868 N   0  0  0  0  0  0
  -23.4216  -28.8025   23.3016 O   0  0  0  0  0  0
  -28.2058  -25.8602   20.2471 O   0  0  0  0  0  0
  -26.5694  -34.8886   22.4606 O   0  0  0  0  0  0
  -23.5678  -32.1230   23.6861 O   0  0  0  0  0  0
  -29.0294  -21.9258   19.0922 C   0  0  0  0  0  0
  -29.4120  -19.6461   20.3187 C   0  0  0  0  0  0
  -29.4103  -20.5006   19.1424 C   0  0  0  0  0  0
  -28.6133  -22.7446   20.2087 C   0  0  0  0  0  0
  -28.9777  -20.5399   21.3920 C   0  0  0  0  0  0
  -30.1559  -18.0681   20.4448 C   0  0  0  0  0  0
  -27.8083  -24.2851   20.1022 C   0  0  0  0  0  0
  -28.5936  -21.9154   21.3330 N   0  0  0  0  0  0
  -29.7287  -16.4703   20.4500 N   0  0  0  0  0  0
  -29.9211  -19.7935   17.6520 Cl  0  0  0  0  0  0
  -28.9426  -19.8687   22.9807 Cl  0  0  0  0  0  0
  -31.4600  -12.9541   19.1881 H   0  0  0  0  0  0
  -30.4881  -11.8513   20.1145 H   0  0  0  0  0  0
  -29.8975  -11.7345   17.6680 H   0  0  0  0  0  0
  -29.5722  -13.4507   17.6483 H   0  0  0  0  0  0
  -28.0209  -11.2723   19.0705 H   0  0  0  0  0  0
  -27.4073  -12.3549   17.8469 H   0  0  0  0  0  0
  -27.5355  -14.2421   19.3340 H   0  0  0  0  0  0
  -28.8040  -12.4832   21.4872 H   0  0  0  0  0  0
  -28.3037  -14.1475   21.6936 H   0  0  0  0  0  0
  -25.2781   -9.5678   22.4763 H   0  0  0  0  0  0
  -24.0008   -7.4634   22.7479 H   0  0  0  0  0  0
  -21.0857   -8.8779   19.8954 H   0  0  0  0  0  0
  -22.3720  -10.9673   19.6166 H   0  0  0  0  0  0
  -21.2010   -7.6153   23.9716 H   0  0  0  0  0  0
  -21.1482   -6.0526   25.9077 H   0  0  0  0  0  0
  -22.0598   -2.7611   23.2841 H   0  0  0  0  0  0
  -22.4055  -11.9843   22.4845 H   0  0  0  0  0  0
  -21.1033  -13.1181   22.2660 H   0  0  0  0  0  0
  -24.6329  -15.8469   20.5345 H   0  0  0  0  0  0
  -26.2426  -15.6403   20.0682 H   0  0  0  0  0  0
  -26.7363  -32.5159   23.0912 H   0  0  0  0  0  0
  -25.0093  -33.9514   25.0229 H   0  0  0  0  0  0
  -22.7840  -31.2737   21.3575 H   0  0  0  0  0  0
  -23.3756  -35.9554   23.3311 H   0  0  0  0  0  0
  -24.3571  -36.8855   22.2061 H   0  0  0  0  0  0
  -23.7264  -37.6416   23.6696 H   0  0  0  0  0  0
  -26.2163  -31.3906   20.6214 H   0  0  0  0  0  0
  -26.9034  -30.7030   22.0522 H   0  0  0  0  0  0
  -28.1472  -28.6284   21.2732 H   0  0  0  0  0  0
  -25.8576  -25.7713   18.9906 H   0  0  0  0  0  0
  -23.9938  -27.2859   18.9542 H   0  0  0  0  0  0
  -23.8633  -30.5354   19.3923 H   0  0  0  0  0  0
  -22.8201  -29.2183   19.8296 H   0  0  0  0  0  0
  -25.1337  -36.1785   25.0795 H   0  0  0  0  0  0
  -21.0032  -28.3351   24.1318 H   0  0  0  0  0  0
  -20.5682  -26.2365   23.3640 H   0  0  0  0  0  0
  -21.6660  -26.7415   22.1207 H   0  0  0  0  0  0
  -19.6930  -25.6278   21.1271 H   0  0  0  0  0  0
  -19.6710  -27.3165   20.6726 H   0  0  0  0  0  0
  -17.4222  -26.6684   21.4026 H   0  0  0  0  0  0
  -18.0350  -26.0100   22.9032 H   0  0  0  0  0  0
  -19.7965  -30.7322   24.2201 H   0  0  0  0  0  0
  -17.5033  -31.6273   24.5167 H   0  0  0  0  0  0
  -15.5373  -30.2972   23.7694 H   0  0  0  0  0  0
  -15.8701  -28.0811   22.7098 H   0  0  0  0  0  0
  -24.5898  -30.7108   25.7688 H   0  0  0  0  0  0
  -24.8868  -32.2980   26.4678 H   0  0  0  0  0  0
  -25.7944  -30.9033   27.0223 H   0  0  0  0  0  0
  -26.3098  -29.6601   24.1393 H   0  0  0  0  0  0
  -27.3963  -29.7255   25.5050 H   0  0  0  0  0  0
  -27.9048  -30.4099   23.9822 H   0  0  0  0  0  0
  -27.2649  -33.3678   26.1966 H   0  0  0  0  0  0
  -28.3935  -32.6825   25.0365 H   0  0  0  0  0  0
  -28.0672  -31.8530   26.5505 H   0  0  0  0  0  0
  -28.2598  -38.0053   24.7472 H   0  0  0  0  0  0
  -28.1044  -36.2578   24.6359 H   0  0  0  0  0  0
  -27.2274  -37.1489   25.8875 H   0  0  0  0  0  0
  -20.9567  -29.8747   21.6690 H   0  0  0  0  0  0
  -26.0138  -38.2771   24.1382 H   0  0  0  0  0  0
  -29.0318  -22.3989   18.1200 H   0  0  0  0  0  0
  -30.7278  -18.1533   21.3691 H   0  0  0  0  0  0
  -30.9326  -18.0991   19.6802 H   0  0  0  0  0  0
  -26.9554  -24.1699   20.7711 H   0  0  0  0  0  0
  -27.3767  -24.2264   19.1041 H   0  0  0  0  0  0
  -28.7352  -16.3225   20.5453 H   0  0  0  0  0  0
  1 25  1  0  0  0
  1 30  2  0  0  0
  1 79  1  0  0  0
  2  3  1  0  0  0
  2 25  1  0  0  0
  2 82  1  0  0  0
  2 83  1  0  0  0
  3  4  1  0  0  0
  3 84  1  0  0  0
  3 85  1  0  0  0
  4  5  1  0  0  0
  4 86  1  0  0  0
  4 87  1  0  0  0
  5  6  1  0  0  0
  5 26  1  0  0  0
  5 88  1  0  0  0
  6 25  1  0  0  0
  6 89  1  0  0  0
  6 90  1  0  0  0
  7  8  2  0  0  0
  7 26  1  0  0  0
  7 29  1  0  0  0
  8  9  1  0  0  0
  8 22  1  0  0  0
  9 10  1  0  0  0
  9 27  2  0  0  0
 10 11  2  0  0  0
 10 15  1  0  0  0
 11 12  1  0  0  0
 11 91  1  0  0  0
 12 13  2  0  0  0
 12 92  1  0  0  0
 13 14  1  0  0  0
 13 31  1  0  0  0
 14 15  2  0  0  0
 14 93  1  0  0  0
 15 94  1  0  0  0
 16 17  2  0  0  0
 16 21  1  0  0  0
 16 31  1  0  0  0
 17 18  1  0  0  0
 17 95  1  0  0  0
 18 19  2  0  0  0
 18 96  1  0  0  0
 19 20  1  0  0  0
 19 24  1  0  0  0
 20 21  2  0  0  0
 20 97  1  0  0  0
 21 23  1  0  0  0
 22 28  1  0  0  0
 22 32  2  0  0  0
 26 27  1  0  0  0
 28 98  1  0  0  0
 28 99  1  0  0  0
 29100  1  0  0  0
 29101  1  0  0  0
 33 34  1  0  0  0
 33 66  1  0  0  0
 33 70  2  0  0  0
 34 36  1  0  0  0
 34 59  1  0  0  0
 34102  1  0  0  0
 35 44  2  0  0  0
 35 45  1  0  0  0
 35 68  1  0  0  0
 36 56  1  0  0  0
 36103  1  0  0  0
 37 39  1  0  0  0
 37 47  1  0  0  0
 37 66  1  0  0  0
 37104  1  0  0  0
 38 43  2  0  0  0
 38 46  1  0  0  0
 38 47  1  0  0  0
 39 64  1  0  0  0
 39 67  2  0  0  0
 40 52  1  0  0  0
 40 53  2  0  0  0
 40 58  1  0  0  0
 41105  1  0  0  0
 41106  1  0  0  0
 41107  1  0  0  0
 41 48  1  0  0  0
 42 43  1  0  0  0
 42 66  1  0  0  0
 42108  1  0  0  0
 42109  1  0  0  0
 43 44  1  0  0  0
 44110  1  0  0  0
 45 46  2  0  0  0
 45111  1  0  0  0
 46112  1  0  0  0
 47113  1  0  0  0
 47114  1  0  0  0
 48 56  1  0  0  0
 48 65  1  0  0  0
 48115  1  0  0  0
 49 50  1  0  0  0
 49 53  1  0  0  0
 49 64  1  0  0  0
 49116  1  0  0  0
 50 51  1  0  0  0
 50117  1  0  0  0
 50118  1  0  0  0
 51 52  1  0  0  0
 51119  1  0  0  0
 51120  1  0  0  0
 52121  1  0  0  0
 52122  1  0  0  0
 53 54  1  0  0  0
 54 55  2  0  0  0
 54123  1  0  0  0
 55 57  1  0  0  0
 55124  1  0  0  0
 56 69  2  0  0  0
 57 58  2  0  0  0
 57125  1  0  0  0
 58126  1  0  0  0
 59 60  1  0  0  0
 59 61  1  0  0  0
 59 62  1  0  0  0
 60127  1  0  0  0
 60128  1  0  0  0
 60129  1  0  0  0
 61130  1  0  0  0
 61131  1  0  0  0
 61132  1  0  0  0
 62133  1  0  0  0
 62134  1  0  0  0
 62135  1  0  0  0
 63 65  1  0  0  0
 63136  1  0  0  0
 63137  1  0  0  0
 63138  1  0  0  0
 64139  1  0  0  0
 65140  1  0  0  0
 68 77  1  0  0  0
 71 73  2  0  0  0
 71 74  1  0  0  0
 71141  1  0  0  0
 72 73  1  0  0  0
 72 75  2  0  0  0
 72 76  1  0  0  0
 73 80  1  0  0  0
 74 77  1  0  0  0
 74 78  2  0  0  0
 75 78  1  0  0  0
 75 81  1  0  0  0
 76 79  1  0  0  0
 76142  1  0  0  0
 76143  1  0  0  0
 77144  1  0  0  0
 77145  1  0  0  0
 79146  1  0  0  0
M  ISO  4   1 100  68 101  77 101  79 100
M  END
> <chiral flag>
0

> <version>
0

> <s_m_source_file>
/data/baiqing/PycharmProjects/Reinvent-master-3.2/result/LINK_invent/BTK/process_docking_weight1_custom_sum_contain_oxygen_bond_distance_aromatic_linkinvent_7_9_3/rearranged_h_0030.sdf

> <i_m_source_file_index>
12

> <r_mmod_Potential_Energy-OPLS-2005>
921.070434570312

> <r_mmod_Stretch_Energy-OPLS-2005>
465.086364746094

> <r_mmod_Bend_Energy-OPLS-2005>
425.762054443359

> <r_mmod_Torsional_Energy-OPLS-2005>
226.755340576172

> <r_mmod_Improper_Torsional_Energy-OPLS-2005>
10.0135583877563

> <r_mmod_Van_der_Waal_Energy-OPLS-2005>
131.249542236328

> <r_mmod_Electrostatic_Energy-OPLS-2005>
-514.371520996094

> <r_mmod_Solvation_Energy-OPLS-2005>
-222.785400390625

> <b_mmod_Minimization_Converged-OPLS-2005>
0

> <r_mmod_RMS_Derivative-OPLS-2005>
0.448894470930099

$$$$
12
                    3D
 Structure written by MMmdl.
163172  0  0  1  0            999 V2000
  -30.4494  -15.3733   20.3306 C   0  0  0  0  0  0
  -30.4577  -12.8982   19.5020 C   0  0  0  0  0  0
  -29.5583  -12.5841   18.2823 C   0  0  0  0  0  0
  -28.1145  -12.2859   18.7241 C   0  0  0  0  0  0
  -27.6163  -13.2801   19.8010 C   0  0  2  0  0  0
  -28.6542  -13.5365   20.9174 C   0  0  0  0  0  0
  -25.2462  -13.8257   20.5680 C   0  0  0  0  0  0
  -24.1807  -13.0447   20.9237 C   0  0  0  0  0  0
  -24.6443  -11.6941   20.8721 C   0  0  0  0  0  0
  -23.9088  -10.4301   21.0373 C   0  0  0  0  0  0
  -24.3639   -9.4209   21.9165 C   0  0  0  0  0  0
  -23.6319   -8.2230   22.0724 C   0  0  0  0  0  0
  -22.4298   -8.0249   21.3526 C   0  0  0  0  0  0
  -21.9927   -9.0222   20.4626 C   0  0  0  0  0  0
  -22.7248  -10.2130   20.3039 C   0  0  0  0  0  0
  -21.6856   -6.0708   22.5281 C   0  0  0  0  0  0
  -21.4006   -6.5614   23.8206 C   0  0  0  0  0  0
  -21.3689   -5.6787   24.9181 C   0  0  0  0  0  0
  -21.6061   -4.3033   24.7235 C   0  0  0  0  0  0
  -21.8830   -3.8124   23.4359 C   0  0  0  0  0  0
  -21.9190   -4.6938   22.3411 C   0  0  0  0  0  0
  -22.7828  -13.5204   21.1859 C   0  0  0  0  0  0
  -22.1658   -4.2148   21.0989 F   0  0  0  0  0  0
  -21.5643   -3.4499   25.7735 F   0  0  0  0  0  0
  -29.8661  -14.0679   20.2562 N   0  0  0  0  0  0
  -26.2896  -12.9525   20.3154 N   0  0  0  0  0  0
  -25.9393  -11.6631   20.5665 N   0  0  0  0  0  0
  -22.0391  -12.8248   22.0403 N   0  0  0  0  0  0
  -25.4061  -15.1973   20.4113 N   0  0  0  0  0  0
  -31.6855  -15.3322   20.2608 O   0  0  0  0  0  0
  -21.6653   -6.8852   21.4249 O   0  0  0  0  0  0
  -22.3518  -14.5485   20.6625 O   0  0  0  0  0  0
  -24.6677  -31.8258   23.1735 C   0  0  0  0  0  0
  -25.9347  -32.4589   23.8218 C   0  0  1  0  0  0
  -27.2670  -26.9385   20.1282 C   0  0  0  0  0  0
  -25.5967  -33.8408   24.2118 N   0  0  0  0  0  0
  -23.4814  -30.4434   21.5260 C   0  0  2  0  0  0
  -24.9445  -28.8476   20.1162 C   0  0  0  0  0  0
  -22.7682  -29.4501   22.4806 C   0  0  0  0  0  0
  -18.0325  -28.1372   22.8461 C   0  0  0  0  0  0
  -24.1513  -36.7160   23.2653 C   0  0  0  0  0  0
  -26.0628  -30.6460   21.4031 C   0  0  0  0  0  0
  -26.1442  -29.2435   20.7194 C   0  0  0  0  0  0
  -27.2992  -28.3223   20.6852 C   0  0  0  0  0  0
  -25.9918  -26.6941   19.5543 C   0  0  0  0  0  0
  -24.8945  -27.5863   19.5203 C   0  0  0  0  0  0
  -23.7157  -29.7616   20.1550 C   0  0  0  0  0  0
  -25.4173  -36.2943   24.0294 C   0  0  1  0  0  0
  -20.5974  -28.3749   23.1147 C   0  0  2  0  0  0
  -20.6798  -26.9421   22.5391 C   0  0  0  0  0  0
  -19.5771  -26.6354   21.5195 C   0  0  0  0  0  0
  -18.1952  -26.7908   22.1621 C   0  0  0  0  0  0
  -19.1604  -28.8883   23.2796 C   0  0  0  0  0  0
  -18.9502  -30.1463   23.8830 C   0  0  0  0  0  0
  -17.6494  -30.6574   24.0531 C   0  0  0  0  0  0
  -25.9118  -34.9316   23.5049 C   0  0  0  0  0  0
  -16.5381  -29.9046   23.6330 C   0  0  0  0  0  0
  -16.7310  -28.6460   23.0380 C   0  0  0  0  0  0
  -26.4591  -31.6496   25.0725 C   0  0  0  0  0  0
  -25.3699  -31.3689   26.1345 C   0  0  0  0  0  0
  -27.0489  -30.2827   24.6515 C   0  0  0  0  0  0
  -27.6096  -32.4310   25.7472 C   0  0  0  0  0  0
  -27.5579  -37.1738   24.8488 C   0  0  0  0  0  0
  -21.4363  -29.3040   22.3488 N   0  0  0  0  0  0
  -26.4329  -37.3662   23.9361 N   0  0  0  0  0  0
  -24.7582  -30.9961   22.0856 N   0  0  0  0  0  0
  -23.4227  -28.8082   23.3057 O   0  0  0  0  0  0
  -28.2989  -25.8185   20.1454 O   0  0  0  0  0  0
  -26.5747  -34.8859   22.4639 O   0  0  0  0  0  0
  -23.5752  -32.1219   23.6829 O   0  0  0  0  0  0
  -30.8977  -21.5632   18.5229 C   0  0  0  0  0  0
  -30.7026  -20.2588   19.0498 C   0  0  0  0  0  0
  -28.9395  -21.2531   20.3674 C   0  0  0  0  0  0
  -30.1292  -22.7138   18.8620 C   0  0  0  0  0  0
  -29.0965  -22.7106   19.8372 C   0  0  0  0  0  0
  -29.7175  -19.9435   20.0136 C   0  0  0  0  0  0
  -30.3126  -23.9660   18.0242 C   0  0  0  0  0  0
  -27.7516  -24.1991   18.3200 C   0  0  0  0  0  0
  -28.0821  -24.1759   19.8566 C   0  0  2  0  0  0
  -28.9807  -24.4235   17.3684 C   0  0  0  0  0  0
  -26.9505  -23.8165   20.8360 C   0  0  0  0  0  0
  -28.7160  -23.6178   16.0676 C   0  0  0  0  0  0
  -29.1440  -25.9081   16.9750 C   0  0  0  0  0  0
  -29.8679  -18.3145   20.6953 C   0  0  0  0  0  0
  -29.7143  -16.6786   20.2716 N   0  0  0  0  0  0
  -31.4688  -13.1274   19.1575 H   0  0  0  0  0  0
  -30.5521  -12.0268   20.1503 H   0  0  0  0  0  0
  -29.9667  -11.7449   17.7184 H   0  0  0  0  0  0
  -29.5718  -13.4407   17.6061 H   0  0  0  0  0  0
  -28.1016  -11.2744   19.1324 H   0  0  0  0  0  0
  -27.4445  -12.2738   17.8657 H   0  0  0  0  0  0
  -27.5015  -14.2295   19.2759 H   0  0  0  0  0  0
  -28.8613  -12.6366   21.4967 H   0  0  0  0  0  0
  -28.2727  -14.2822   21.6172 H   0  0  0  0  0  0
  -25.2775   -9.5699   22.4752 H   0  0  0  0  0  0
  -24.0037   -7.4631   22.7452 H   0  0  0  0  0  0
  -21.0829   -8.8756   19.8937 H   0  0  0  0  0  0
  -22.3690  -10.9659   19.6155 H   0  0  0  0  0  0
  -21.1994   -7.6129   23.9727 H   0  0  0  0  0  0
  -21.1498   -6.0477   25.9088 H   0  0  0  0  0  0
  -22.0593   -2.7567   23.2852 H   0  0  0  0  0  0
  -22.3967  -12.0059   22.5087 H   0  0  0  0  0  0
  -21.0957  -13.1298   22.2383 H   0  0  0  0  0  0
  -24.6221  -15.8385   20.4837 H   0  0  0  0  0  0
  -26.2405  -15.6316   20.0417 H   0  0  0  0  0  0
  -26.7423  -32.5158   23.0950 H   0  0  0  0  0  0
  -24.9895  -33.9506   25.0105 H   0  0  0  0  0  0
  -22.7982  -31.2787   21.3605 H   0  0  0  0  0  0
  -23.3772  -35.9498   23.3377 H   0  0  0  0  0  0
  -24.3571  -36.8729   22.2059 H   0  0  0  0  0  0
  -23.7321  -37.6381   23.6678 H   0  0  0  0  0  0
  -26.2720  -31.4225   20.6626 H   0  0  0  0  0  0
  -26.9043  -30.6685   22.0821 H   0  0  0  0  0  0
  -28.2180  -28.6506   21.1527 H   0  0  0  0  0  0
  -25.7247  -25.7273   19.1825 H   0  0  0  0  0  0
  -23.9725  -27.2428   19.0732 H   0  0  0  0  0  0
  -23.8328  -30.5299   19.3899 H   0  0  0  0  0  0
  -22.8261  -29.2014   19.8601 H   0  0  0  0  0  0
  -25.1391  -36.1734   25.0792 H   0  0  0  0  0  0
  -21.0098  -28.3342   24.1256 H   0  0  0  0  0  0
  -20.5625  -26.2367   23.3649 H   0  0  0  0  0  0
  -21.6653  -26.7323   22.1231 H   0  0  0  0  0  0
  -19.6922  -25.6247   21.1248 H   0  0  0  0  0  0
  -19.6692  -27.3131   20.6702 H   0  0  0  0  0  0
  -17.4217  -26.6644   21.4025 H   0  0  0  0  0  0
  -18.0351  -26.0055   22.9033 H   0  0  0  0  0  0
  -19.7976  -30.7296   24.2180 H   0  0  0  0  0  0
  -17.5034  -31.6254   24.5121 H   0  0  0  0  0  0
  -15.5379  -30.2928   23.7684 H   0  0  0  0  0  0
  -15.8712  -28.0740   22.7169 H   0  0  0  0  0  0
  -24.5899  -30.7066   25.7558 H   0  0  0  0  0  0
  -24.8887  -32.2870   26.4732 H   0  0  0  0  0  0
  -25.7906  -30.8807   27.0145 H   0  0  0  0  0  0
  -26.3172  -29.6463   24.1525 H   0  0  0  0  0  0
  -27.3928  -29.7238   25.5233 H   0  0  0  0  0  0
  -27.9161  -30.3919   23.9997 H   0  0  0  0  0  0
  -27.2670  -33.3643   26.1951 H   0  0  0  0  0  0
  -28.3897  -32.6833   25.0267 H   0  0  0  0  0  0
  -28.0779  -31.8510   26.5435 H   0  0  0  0  0  0
  -28.2643  -37.9979   24.7439 H   0  0  0  0  0  0
  -28.1016  -36.2504   24.6447 H   0  0  0  0  0  0
  -27.2244  -37.1518   25.8876 H   0  0  0  0  0  0
  -20.9634  -29.8646   21.6527 H   0  0  0  0  0  0
  -26.0172  -38.2716   24.1292 H   0  0  0  0  0  0
  -31.6753  -21.6784   17.7769 H   0  0  0  0  0  0
  -31.3772  -19.4767   18.7227 H   0  0  0  0  0  0
  -28.1468  -21.1336   21.0940 H   0  0  0  0  0  0
  -31.0869  -23.8245   17.2654 H   0  0  0  0  0  0
  -30.6995  -24.7449   18.6859 H   0  0  0  0  0  0
  -27.0051  -24.9056   17.9955 H   0  0  0  0  0  0
  -27.3031  -23.2300   18.0940 H   0  0  0  0  0  0
  -27.3942  -23.4213   21.7498 H   0  0  0  0  0  0
  -26.2726  -23.0559   20.4496 H   0  0  0  0  0  0
  -26.3555  -24.6663   21.1593 H   0  0  0  0  0  0
  -28.5702  -22.5573   16.2814 H   0  0  0  0  0  0
  -29.5349  -23.6863   15.3515 H   0  0  0  0  0  0
  -27.8173  -23.9670   15.5529 H   0  0  0  0  0  0
  -29.2058  -26.5543   17.8489 H   0  0  0  0  0  0
  -28.3195  -26.2708   16.3627 H   0  0  0  0  0  0
  -30.0615  -26.0650   16.4059 H   0  0  0  0  0  0
  -29.3355  -18.3874   21.6429 H   0  0  0  0  0  0
  -30.9189  -18.3365   20.9864 H   0  0  0  0  0  0
  -28.7368  -16.4688   20.1239 H   0  0  0  0  0  0
  1 25  1  0  0  0
  1 30  2  0  0  0
  1 85  1  0  0  0
  2  3  1  0  0  0
  2 25  1  0  0  0
  2 86  1  0  0  0
  2 87  1  0  0  0
  3  4  1  0  0  0
  3 88  1  0  0  0
  3 89  1  0  0  0
  4  5  1  0  0  0
  4 90  1  0  0  0
  4 91  1  0  0  0
  5  6  1  0  0  0
  5 26  1  0  0  0
  5 92  1  0  0  0
  6 25  1  0  0  0
  6 93  1  0  0  0
  6 94  1  0  0  0
  7  8  2  0  0  0
  7 26  1  0  0  0
  7 29  1  0  0  0
  8  9  1  0  0  0
  8 22  1  0  0  0
  9 10  1  0  0  0
  9 27  2  0  0  0
 10 11  2  0  0  0
 10 15  1  0  0  0
 11 12  1  0  0  0
 11 95  1  0  0  0
 12 13  2  0  0  0
 12 96  1  0  0  0
 13 14  1  0  0  0
 13 31  1  0  0  0
 14 15  2  0  0  0
 14 97  1  0  0  0
 15 98  1  0  0  0
 16 17  2  0  0  0
 16 21  1  0  0  0
 16 31  1  0  0  0
 17 18  1  0  0  0
 17 99  1  0  0  0
 18 19  2  0  0  0
 18100  1  0  0  0
 19 20  1  0  0  0
 19 24  1  0  0  0
 20 21  2  0  0  0
 20101  1  0  0  0
 21 23  1  0  0  0
 22 28  1  0  0  0
 22 32  2  0  0  0
 26 27  1  0  0  0
 28102  1  0  0  0
 28103  1  0  0  0
 29104  1  0  0  0
 29105  1  0  0  0
 33 34  1  0  0  0
 33 66  1  0  0  0
 33 70  2  0  0  0
 34 36  1  0  0  0
 34 59  1  0  0  0
 34106  1  0  0  0
 35 44  2  0  0  0
 35 45  1  0  0  0
 35 68  1  0  0  0
 36 56  1  0  0  0
 36107  1  0  0  0
 37 39  1  0  0  0
 37 47  1  0  0  0
 37 66  1  0  0  0
 37108  1  0  0  0
 38 43  2  0  0  0
 38 46  1  0  0  0
 38 47  1  0  0  0
 39 64  1  0  0  0
 39 67  2  0  0  0
 40 52  1  0  0  0
 40 53  2  0  0  0
 40 58  1  0  0  0
 41109  1  0  0  0
 41110  1  0  0  0
 41111  1  0  0  0
 41 48  1  0  0  0
 42 43  1  0  0  0
 42 66  1  0  0  0
 42112  1  0  0  0
 42113  1  0  0  0
 43 44  1  0  0  0
 44114  1  0  0  0
 45 46  2  0  0  0
 45115  1  0  0  0
 46116  1  0  0  0
 47117  1  0  0  0
 47118  1  0  0  0
 48 56  1  0  0  0
 48 65  1  0  0  0
 48119  1  0  0  0
 49 50  1  0  0  0
 49 53  1  0  0  0
 49 64  1  0  0  0
 49120  1  0  0  0
 50 51  1  0  0  0
 50121  1  0  0  0
 50122  1  0  0  0
 51 52  1  0  0  0
 51123  1  0  0  0
 51124  1  0  0  0
 52125  1  0  0  0
 52126  1  0  0  0
 53 54  1  0  0  0
 54 55  2  0  0  0
 54127  1  0  0  0
 55 57  1  0  0  0
 55128  1  0  0  0
 56 69  2  0  0  0
 57 58  2  0  0  0
 57129  1  0  0  0
 58130  1  0  0  0
 59 60  1  0  0  0
 59 61  1  0  0  0
 59 62  1  0  0  0
 60131  1  0  0  0
 60132  1  0  0  0
 60133  1  0  0  0
 61134  1  0  0  0
 61135  1  0  0  0
 61136  1  0  0  0
 62137  1  0  0  0
 62138  1  0  0  0
 62139  1  0  0  0
 63 65  1  0  0  0
 63140  1  0  0  0
 63141  1  0  0  0
 63142  1  0  0  0
 64143  1  0  0  0
 65144  1  0  0  0
 68 79  1  0  0  0
 71 72  2  0  0  0
 71 74  1  0  0  0
 71145  1  0  0  0
 72 76  1  0  0  0
 72146  1  0  0  0
 73 75  1  0  0  0
 73 76  2  0  0  0
 73147  1  0  0  0
 74 75  2  0  0  0
 74 77  1  0  0  0
 75 79  1  0  0  0
 76 84  1  0  0  0
 77 80  1  0  0  0
 77148  1  0  0  0
 77149  1  0  0  0
 78 79  1  0  0  0
 78 80  1  0  0  0
 78150  1  0  0  0
 78151  1  0  0  0
 79 81  1  0  0  0
 80 82  1  0  0  0
 80 83  1  0  0  0
 81152  1  0  0  0
 81153  1  0  0  0
 81154  1  0  0  0
 82155  1  0  0  0
 82156  1  0  0  0
 82157  1  0  0  0
 83158  1  0  0  0
 83159  1  0  0  0
 83160  1  0  0  0
 84 85  1  0  0  0
 84161  1  0  0  0
 84162  1  0  0  0
 85163  1  0  0  0
M  ISO  4   1 100  68 101  79 101  85 100
M  END
> <chiral flag>
0

> <version>
0

> <s_m_source_file>
/data/baiqing/PycharmProjects/Reinvent-master-3.2/result/LINK_invent/BTK/process_docking_weight1_custom_sum_contain_oxygen_bond_distance_aromatic_linkinvent_7_9_3/rearranged_h_0030.sdf

> <i_m_source_file_index>
13

> <r_mmod_Potential_Energy-OPLS-2005>
1566.54418945312

> <r_mmod_Stretch_Energy-OPLS-2005>
681.90966796875

> <r_mmod_Bend_Energy-OPLS-2005>
538.629699707031

> <r_mmod_Torsional_Energy-OPLS-2005>
257.167694091797

> <r_mmod_Improper_Torsional_Energy-OPLS-2005>
11.9229707717896

> <r_mmod_Van_der_Waal_Energy-OPLS-2005>
145.980346679688

> <r_mmod_Electrostatic_Energy-OPLS-2005>
-388.330047607422

> <r_mmod_Solvation_Energy-OPLS-2005>
-203.290145874023

> <b_mmod_Minimization_Converged-OPLS-2005>
0

> <r_mmod_RMS_Derivative-OPLS-2005>
7.12148714065552

$$$$
13
                    3D
 Structure written by MMmdl.
162170  0  0  1  0            999 V2000
  -30.6145  -14.6597   20.5249 C   0  0  0  0  0  0
  -30.4277  -12.3981   19.4821 C   0  0  0  0  0  0
  -29.5068  -12.5049   18.2465 C   0  0  0  0  0  0
  -28.0267  -12.3535   18.6491 C   0  0  0  0  0  0
  -27.6471  -13.2231   19.8791 C   0  0  2  0  0  0
  -28.6883  -13.0835   21.0128 C   0  0  0  0  0  0
  -25.2449  -13.8157   20.5719 C   0  0  0  0  0  0
  -24.1725  -13.0403   20.9247 C   0  0  0  0  0  0
  -24.6299  -11.6893   20.8772 C   0  0  0  0  0  0
  -23.8977  -10.4262   21.0402 C   0  0  0  0  0  0
  -24.3538   -9.4179   21.9170 C   0  0  0  0  0  0
  -23.6242   -8.2197   22.0718 C   0  0  0  0  0  0
  -22.4236   -8.0210   21.3515 C   0  0  0  0  0  0
  -21.9857   -9.0171   20.4626 C   0  0  0  0  0  0
  -22.7149  -10.2080   20.3051 C   0  0  0  0  0  0
  -21.6844   -6.0654   22.5252 C   0  0  0  0  0  0
  -21.4031   -6.5585   23.8180 C   0  0  0  0  0  0
  -21.3692   -5.6765   24.9161 C   0  0  0  0  0  0
  -21.6055   -4.3025   24.7244 C   0  0  0  0  0  0
  -21.8815   -3.8079   23.4380 C   0  0  0  0  0  0
  -21.9191   -4.6873   22.3409 C   0  0  0  0  0  0
  -22.7752  -13.5193   21.1895 C   0  0  0  0  0  0
  -22.1650   -4.2035   21.0993 F   0  0  0  0  0  0
  -21.5645   -3.4546   25.7784 F   0  0  0  0  0  0
  -29.9990  -13.4331   20.4503 N   0  0  0  0  0  0
  -26.2906  -12.9363   20.3414 N   0  0  0  0  0  0
  -25.9240  -11.6510   20.5810 N   0  0  0  0  0  0
  -22.0387  -12.8196   22.0484 N   0  0  0  0  0  0
  -25.4137  -15.1856   20.4040 N   0  0  0  0  0  0
  -31.7761  -14.8039   20.1313 O   0  0  0  0  0  0
  -21.6642   -6.8778   21.4202 O   0  0  0  0  0  0
  -22.3425  -14.5469   20.6702 O   0  0  0  0  0  0
  -24.6233  -31.8614   23.2008 C   0  0  0  0  0  0
  -25.9090  -32.4793   23.8348 C   0  0  1  0  0  0
  -27.2153  -27.2995   20.1199 C   0  0  0  0  0  0
  -25.5921  -33.8593   24.2270 N   0  0  0  0  0  0
  -23.4187  -30.4833   21.5406 C   0  0  2  0  0  0
  -24.8633  -28.9344   20.1061 C   0  0  0  0  0  0
  -22.7471  -29.4618   22.4891 C   0  0  0  0  0  0
  -18.0286  -28.1368   22.8486 C   0  0  0  0  0  0
  -24.1476  -36.7288   23.2635 C   0  0  0  0  0  0
  -25.9576  -30.7859   21.3743 C   0  0  0  0  0  0
  -26.0288  -29.4097   20.7162 C   0  0  0  0  0  0
  -27.2045  -28.6015   20.7132 C   0  0  0  0  0  0
  -26.0212  -26.8693   19.4971 C   0  0  0  0  0  0
  -24.8624  -27.6727   19.4875 C   0  0  0  0  0  0
  -23.6366  -29.8225   20.1527 C   0  0  0  0  0  0
  -25.4105  -36.3083   24.0321 C   0  0  1  0  0  0
  -20.5884  -28.3689   23.1270 C   0  0  2  0  0  0
  -20.6749  -26.9410   22.5403 C   0  0  0  0  0  0
  -19.5732  -26.6377   21.5195 C   0  0  0  0  0  0
  -18.1920  -26.7910   22.1620 C   0  0  0  0  0  0
  -19.1536  -28.8847   23.2882 C   0  0  0  0  0  0
  -18.9451  -30.1435   23.8913 C   0  0  0  0  0  0
  -17.6449  -30.6579   24.0552 C   0  0  0  0  0  0
  -25.9041  -34.9457   23.5092 C   0  0  0  0  0  0
  -16.5348  -29.9070   23.6316 C   0  0  0  0  0  0
  -16.7270  -28.6480   23.0362 C   0  0  0  0  0  0
  -26.4483  -31.6606   25.0717 C   0  0  0  0  0  0
  -25.3722  -31.3760   26.1451 C   0  0  0  0  0  0
  -27.0315  -30.3026   24.6169 C   0  0  0  0  0  0
  -27.6031  -32.4346   25.7500 C   0  0  0  0  0  0
  -27.5572  -37.1806   24.8466 C   0  0  0  0  0  0
  -21.4179  -29.3053   22.3674 N   0  0  0  0  0  0
  -26.4281  -37.3781   23.9412 N   0  0  0  0  0  0
  -24.6849  -31.0617   22.0958 N   0  0  0  0  0  0
  -23.4207  -28.8153   23.2958 O   0  0  0  0  0  0
  -28.3538  -26.4806   20.1900 O   0  0  0  0  0  0
  -26.5602  -34.8926   22.4652 O   0  0  0  0  0  0
  -23.5403  -32.1423   23.7347 O   0  0  0  0  0  0
  -27.2916  -19.3968   22.1649 C   0  0  0  0  0  0
  -27.4539  -20.6732   21.5854 C   0  0  0  0  0  0
  -28.1520  -18.3116   21.9006 C   0  0  0  0  0  0
  -29.3981  -19.7887   20.4012 C   0  0  0  0  0  0
  -28.5355  -20.9372   20.7001 C   0  0  0  0  0  0
  -29.2164  -18.4490   20.9684 C   0  0  0  0  0  0
  -26.4263  -21.7202   21.9807 C   0  0  0  0  0  0
  -27.9058  -17.0334   22.6906 C   0  0  0  0  0  0
  -30.5855  -20.0252   19.4695 C   0  0  0  0  0  0
  -28.7695  -22.3846   20.0329 C   0  0  0  0  0  0
  -30.1950  -17.2166   20.6457 C   0  0  0  0  0  0
  -28.1477  -23.7993   20.5261 C   0  0  0  0  0  0
  -28.4425  -25.1014   19.6388 C   0  0  0  0  0  0
  -29.8440  -15.7519   20.8545 N   0  0  0  0  0  0
  -31.4681  -12.5201   19.1815 H   0  0  0  0  0  0
  -30.3647  -11.4003   19.9248 H   0  0  0  0  0  0
  -29.7742  -11.7455   17.5111 H   0  0  0  0  0  0
  -29.6573  -13.4705   17.7625 H   0  0  0  0  0  0
  -27.8551  -11.3018   18.8768 H   0  0  0  0  0  0
  -27.3770  -12.5928   17.8057 H   0  0  0  0  0  0
  -27.6681  -14.2599   19.5437 H   0  0  0  0  0  0
  -28.7032  -12.0607   21.3933 H   0  0  0  0  0  0
  -28.4353  -13.7158   21.8648 H   0  0  0  0  0  0
  -25.2642   -9.5670   22.4798 H   0  0  0  0  0  0
  -23.9955   -7.4586   22.7427 H   0  0  0  0  0  0
  -21.0787   -8.8635   19.8944 H   0  0  0  0  0  0
  -22.3517  -10.9611   19.6200 H   0  0  0  0  0  0
  -21.2041   -7.6096   23.9646 H   0  0  0  0  0  0
  -21.1538   -6.0513   25.9059 H   0  0  0  0  0  0
  -22.0577   -2.7535   23.2924 H   0  0  0  0  0  0
  -22.3998  -11.9893   22.4947 H   0  0  0  0  0  0
  -21.1000  -13.1228   22.2677 H   0  0  0  0  0  0
  -24.6354  -15.8309   20.4635 H   0  0  0  0  0  0
  -26.2570  -15.6175   20.0480 H   0  0  0  0  0  0
  -26.7144  -32.5465   23.1086 H   0  0  0  0  0  0
  -25.0102  -33.9751   25.0444 H   0  0  0  0  0  0
  -22.7115  -31.3039   21.3991 H   0  0  0  0  0  0
  -23.3750  -35.9616   23.3311 H   0  0  0  0  0  0
  -24.3551  -36.8903   22.2046 H   0  0  0  0  0  0
  -23.7241  -37.6492   23.6657 H   0  0  0  0  0  0
  -26.0891  -31.5545   20.6111 H   0  0  0  0  0  0
  -26.8355  -30.8352   22.0056 H   0  0  0  0  0  0
  -28.0989  -28.9625   21.2014 H   0  0  0  0  0  0
  -25.9504  -25.8958   19.0354 H   0  0  0  0  0  0
  -23.9644  -27.3090   19.0052 H   0  0  0  0  0  0
  -23.7673  -30.6045   19.4025 H   0  0  0  0  0  0
  -22.7541  -29.2606   19.8405 H   0  0  0  0  0  0
  -25.1294  -36.1917   25.0817 H   0  0  0  0  0  0
  -20.9981  -28.3235   24.1386 H   0  0  0  0  0  0
  -20.5588  -26.2309   23.3609 H   0  0  0  0  0  0
  -21.6618  -26.7381   22.1238 H   0  0  0  0  0  0
  -19.6883  -25.6280   21.1232 H   0  0  0  0  0  0
  -19.6646  -27.3172   20.6711 H   0  0  0  0  0  0
  -17.4182  -26.6671   21.4028 H   0  0  0  0  0  0
  -18.0323  -26.0039   22.9004 H   0  0  0  0  0  0
  -19.7927  -30.7242   24.2305 H   0  0  0  0  0  0
  -17.5004  -31.6256   24.5148 H   0  0  0  0  0  0
  -15.5345  -30.2976   23.7610 H   0  0  0  0  0  0
  -15.8674  -28.0778   22.7087 H   0  0  0  0  0  0
  -24.5894  -30.7102   25.7798 H   0  0  0  0  0  0
  -24.8914  -32.2929   26.4855 H   0  0  0  0  0  0
  -25.8045  -30.8965   27.0242 H   0  0  0  0  0  0
  -26.2870  -29.6807   24.1172 H   0  0  0  0  0  0
  -27.3988  -29.7255   25.4668 H   0  0  0  0  0  0
  -27.8765  -30.4314   23.9403 H   0  0  0  0  0  0
  -27.2623  -33.3647   26.2069 H   0  0  0  0  0  0
  -28.3854  -32.6918   25.0343 H   0  0  0  0  0  0
  -28.0696  -31.8490   26.5437 H   0  0  0  0  0  0
  -28.2591  -38.0097   24.7492 H   0  0  0  0  0  0
  -28.1059  -36.2624   24.6307 H   0  0  0  0  0  0
  -27.2287  -37.1479   25.8869 H   0  0  0  0  0  0
  -20.9342  -29.8865   21.6971 H   0  0  0  0  0  0
  -26.0157  -38.2853   24.1429 H   0  0  0  0  0  0
  -26.4719  -19.2475   22.8556 H   0  0  0  0  0  0
  -25.9147  -22.1129   21.1027 H   0  0  0  0  0  0
  -26.8940  -22.5275   22.5458 H   0  0  0  0  0  0
  -25.6466  -21.2976   22.6137 H   0  0  0  0  0  0
  -28.8277  -16.6659   23.1442 H   0  0  0  0  0  0
  -27.4734  -16.2555   22.0622 H   0  0  0  0  0  0
  -27.2044  -17.2017   23.5092 H   0  0  0  0  0  0
  -31.4433  -20.3734   20.0443 H   0  0  0  0  0  0
  -30.3624  -20.7613   18.6983 H   0  0  0  0  0  0
  -30.9003  -19.1419   18.9228 H   0  0  0  0  0  0
  -28.5149  -22.2791   18.9779 H   0  0  0  0  0  0
  -29.8461  -22.5501   20.0507 H   0  0  0  0  0  0
  -31.1373  -17.4066   21.1657 H   0  0  0  0  0  0
  -30.4315  -17.2523   19.5873 H   0  0  0  0  0  0
  -28.4777  -23.9895   21.5464 H   0  0  0  0  0  0
  -27.0642  -23.7569   20.5576 H   0  0  0  0  0  0
  -27.8959  -25.0273   18.6978 H   0  0  0  0  0  0
  -29.4822  -25.0143   19.3278 H   0  0  0  0  0  0
  -28.9127  -15.5580   21.1842 H   0  0  0  0  0  0
  1 25  1  0  0  0
  1 30  2  0  0  0
  1 84  1  0  0  0
  2  3  1  0  0  0
  2 25  1  0  0  0
  2 85  1  0  0  0
  2 86  1  0  0  0
  3  4  1  0  0  0
  3 87  1  0  0  0
  3 88  1  0  0  0
  4  5  1  0  0  0
  4 89  1  0  0  0
  4 90  1  0  0  0
  5  6  1  0  0  0
  5 26  1  0  0  0
  5 91  1  0  0  0
  6 25  1  0  0  0
  6 92  1  0  0  0
  6 93  1  0  0  0
  7  8  2  0  0  0
  7 26  1  0  0  0
  7 29  1  0  0  0
  8  9  1  0  0  0
  8 22  1  0  0  0
  9 10  1  0  0  0
  9 27  2  0  0  0
 10 11  2  0  0  0
 10 15  1  0  0  0
 11 12  1  0  0  0
 11 94  1  0  0  0
 12 13  2  0  0  0
 12 95  1  0  0  0
 13 14  1  0  0  0
 13 31  1  0  0  0
 14 15  2  0  0  0
 14 96  1  0  0  0
 15 97  1  0  0  0
 16 17  2  0  0  0
 16 21  1  0  0  0
 16 31  1  0  0  0
 17 18  1  0  0  0
 17 98  1  0  0  0
 18 19  2  0  0  0
 18 99  1  0  0  0
 19 20  1  0  0  0
 19 24  1  0  0  0
 20 21  2  0  0  0
 20100  1  0  0  0
 21 23  1  0  0  0
 22 28  1  0  0  0
 22 32  2  0  0  0
 26 27  1  0  0  0
 28101  1  0  0  0
 28102  1  0  0  0
 29103  1  0  0  0
 29104  1  0  0  0
 33 34  1  0  0  0
 33 66  1  0  0  0
 33 70  2  0  0  0
 34 36  1  0  0  0
 34 59  1  0  0  0
 34105  1  0  0  0
 35 44  2  0  0  0
 35 45  1  0  0  0
 35 68  1  0  0  0
 36 56  1  0  0  0
 36106  1  0  0  0
 37 39  1  0  0  0
 37 47  1  0  0  0
 37 66  1  0  0  0
 37107  1  0  0  0
 38 43  2  0  0  0
 38 46  1  0  0  0
 38 47  1  0  0  0
 39 64  1  0  0  0
 39 67  2  0  0  0
 40 52  1  0  0  0
 40 53  2  0  0  0
 40 58  1  0  0  0
 41108  1  0  0  0
 41109  1  0  0  0
 41110  1  0  0  0
 41 48  1  0  0  0
 42 43  1  0  0  0
 42 66  1  0  0  0
 42111  1  0  0  0
 42112  1  0  0  0
 43 44  1  0  0  0
 44113  1  0  0  0
 45 46  2  0  0  0
 45114  1  0  0  0
 46115  1  0  0  0
 47116  1  0  0  0
 47117  1  0  0  0
 48 56  1  0  0  0
 48 65  1  0  0  0
 48118  1  0  0  0
 49 50  1  0  0  0
 49 53  1  0  0  0
 49 64  1  0  0  0
 49119  1  0  0  0
 50 51  1  0  0  0
 50120  1  0  0  0
 50121  1  0  0  0
 51 52  1  0  0  0
 51122  1  0  0  0
 51123  1  0  0  0
 52124  1  0  0  0
 52125  1  0  0  0
 53 54  1  0  0  0
 54 55  2  0  0  0
 54126  1  0  0  0
 55 57  1  0  0  0
 55127  1  0  0  0
 56 69  2  0  0  0
 57 58  2  0  0  0
 57128  1  0  0  0
 58129  1  0  0  0
 59 60  1  0  0  0
 59 61  1  0  0  0
 59 62  1  0  0  0
 60130  1  0  0  0
 60131  1  0  0  0
 60132  1  0  0  0
 61133  1  0  0  0
 61134  1  0  0  0
 61135  1  0  0  0
 62136  1  0  0  0
 62137  1  0  0  0
 62138  1  0  0  0
 63 65  1  0  0  0
 63139  1  0  0  0
 63140  1  0  0  0
 63141  1  0  0  0
 64142  1  0  0  0
 65143  1  0  0  0
 68 83  1  0  0  0
 71 72  2  0  0  0
 71 73  1  0  0  0
 71144  1  0  0  0
 72 75  1  0  0  0
 72 77  1  0  0  0
 73 76  2  0  0  0
 73 78  1  0  0  0
 74 75  2  0  0  0
 74 76  1  0  0  0
 74 79  1  0  0  0
 75 80  1  0  0  0
 76 81  1  0  0  0
 77145  1  0  0  0
 77146  1  0  0  0
 77147  1  0  0  0
 78148  1  0  0  0
 78149  1  0  0  0
 78150  1  0  0  0
 79151  1  0  0  0
 79152  1  0  0  0
 79153  1  0  0  0
 80 82  1  0  0  0
 80154  1  0  0  0
 80155  1  0  0  0
 81 84  1  0  0  0
 81156  1  0  0  0
 81157  1  0  0  0
 82 83  1  0  0  0
 82158  1  0  0  0
 82159  1  0  0  0
 83160  1  0  0  0
 83161  1  0  0  0
 84162  1  0  0  0
M  ISO  4   1 100  68 101  83 101  84 100
M  END
> <chiral flag>
0

> <version>
0

> <s_m_source_file>
/data/baiqing/PycharmProjects/Reinvent-master-3.2/result/LINK_invent/BTK/process_docking_weight1_custom_sum_contain_oxygen_bond_distance_aromatic_linkinvent_7_9_3/rearranged_h_0030.sdf

> <i_m_source_file_index>
14

> <r_mmod_Potential_Energy-OPLS-2005>
66.7956848144531

> <r_mmod_Stretch_Energy-OPLS-2005>
119.878105163574

> <r_mmod_Bend_Energy-OPLS-2005>
181.732727050781

> <r_mmod_Torsional_Energy-OPLS-2005>
192.667694091797

> <r_mmod_Improper_Torsional_Energy-OPLS-2005>
5.03271293640137

> <r_mmod_Van_der_Waal_Energy-OPLS-2005>
153.859970092773

> <r_mmod_Electrostatic_Energy-OPLS-2005>
-438.223754882812

> <r_mmod_Solvation_Energy-OPLS-2005>
-202.415878295898

> <b_mmod_Minimization_Converged-OPLS-2005>
0

> <r_mmod_RMS_Derivative-OPLS-2005>
3.80944037437439

$$$$
14
                    3D
 Structure written by MMmdl.
153161  0  0  1  0            999 V2000
  -30.4102  -15.3280   20.3758 C   0  0  0  0  0  0
  -30.4386  -12.8612   19.5105 C   0  0  0  0  0  0
  -29.5324  -12.5824   18.2835 C   0  0  0  0  0  0
  -28.0846  -12.2954   18.7202 C   0  0  0  0  0  0
  -27.6059  -13.2775   19.8175 C   0  0  2  0  0  0
  -28.6438  -13.4763   20.9412 C   0  0  0  0  0  0
  -25.2364  -13.8240   20.5757 C   0  0  0  0  0  0
  -24.1724  -13.0426   20.9268 C   0  0  0  0  0  0
  -24.6391  -11.6925   20.8769 C   0  0  0  0  0  0
  -23.9086  -10.4286   21.0407 C   0  0  0  0  0  0
  -24.3634   -9.4202   21.9183 C   0  0  0  0  0  0
  -23.6299   -8.2242   22.0754 C   0  0  0  0  0  0
  -22.4280   -8.0287   21.3546 C   0  0  0  0  0  0
  -21.9922   -9.0256   20.4644 C   0  0  0  0  0  0
  -22.7258  -10.2128   20.3052 C   0  0  0  0  0  0
  -21.6856   -6.0735   22.5272 C   0  0  0  0  0  0
  -21.4020   -6.5640   23.8205 C   0  0  0  0  0  0
  -21.3657   -5.6792   24.9167 C   0  0  0  0  0  0
  -21.6040   -4.3053   24.7216 C   0  0  0  0  0  0
  -21.8822   -3.8145   23.4339 C   0  0  0  0  0  0
  -21.9195   -4.6961   22.3394 C   0  0  0  0  0  0
  -22.7741  -13.5175   21.1911 C   0  0  0  0  0  0
  -22.1660   -4.2146   21.0971 F   0  0  0  0  0  0
  -21.5627   -3.4539   25.7732 F   0  0  0  0  0  0
  -29.8548  -14.0130   20.2947 N   0  0  0  0  0  0
  -26.2797  -12.9516   20.3235 N   0  0  0  0  0  0
  -25.9330  -11.6621   20.5733 N   0  0  0  0  0  0
  -22.0406  -12.8158   22.0472 N   0  0  0  0  0  0
  -25.3985  -15.1979   20.4187 N   0  0  0  0  0  0
  -31.6450  -15.3167   20.2587 O   0  0  0  0  0  0
  -21.6646   -6.8880   21.4236 O   0  0  0  0  0  0
  -22.3415  -14.5475   20.6750 O   0  0  0  0  0  0
  -24.6691  -31.8177   23.1655 C   0  0  0  0  0  0
  -25.9340  -32.4558   23.8141 C   0  0  1  0  0  0
  -27.2158  -26.8730   20.1935 C   0  0  0  0  0  0
  -25.5982  -33.8379   24.2029 N   0  0  0  0  0  0
  -23.4860  -30.4283   21.5160 C   0  0  2  0  0  0
  -24.9375  -28.8014   20.1179 C   0  0  0  0  0  0
  -22.7696  -29.4427   22.4761 C   0  0  0  0  0  0
  -18.0331  -28.1431   22.8471 C   0  0  0  0  0  0
  -24.1475  -36.7176   23.2656 C   0  0  0  0  0  0
  -26.0595  -30.6054   21.4038 C   0  0  0  0  0  0
  -26.1250  -29.1889   20.7511 C   0  0  0  0  0  0
  -27.2608  -28.2503   20.7572 C   0  0  0  0  0  0
  -25.9956  -26.6486   19.5169 C   0  0  0  0  0  0
  -24.9008  -27.5526   19.4791 C   0  0  0  0  0  0
  -23.7289  -29.7393   20.1453 C   0  0  0  0  0  0
  -25.4120  -36.2942   24.0297 C   0  0  1  0  0  0
  -20.5956  -28.3779   23.1178 C   0  0  2  0  0  0
  -20.6801  -26.9450   22.5409 C   0  0  0  0  0  0
  -19.5770  -26.6382   21.5230 C   0  0  0  0  0  0
  -18.1951  -26.7965   22.1629 C   0  0  0  0  0  0
  -19.1595  -28.8929   23.2811 C   0  0  0  0  0  0
  -18.9517  -30.1516   23.8851 C   0  0  0  0  0  0
  -17.6512  -30.6619   24.0569 C   0  0  0  0  0  0
  -25.9107  -34.9336   23.4983 C   0  0  0  0  0  0
  -16.5396  -29.9101   23.6368 C   0  0  0  0  0  0
  -16.7315  -28.6524   23.0376 C   0  0  0  0  0  0
  -26.4563  -31.6546   25.0707 C   0  0  0  0  0  0
  -25.3667  -31.3820   26.1353 C   0  0  0  0  0  0
  -27.0472  -30.2906   24.6499 C   0  0  0  0  0  0
  -27.6042  -32.4389   25.7507 C   0  0  0  0  0  0
  -27.5545  -37.1741   24.8473 C   0  0  0  0  0  0
  -21.4358  -29.3056   22.3515 N   0  0  0  0  0  0
  -26.4249  -37.3698   23.9427 N   0  0  0  0  0  0
  -24.7605  -30.9791   22.0816 N   0  0  0  0  0  0
  -23.4216  -28.7998   23.3028 O   0  0  0  0  0  0
  -28.2172  -25.7472   20.1917 O   0  0  0  0  0  0
  -26.5726  -34.8898   22.4588 O   0  0  0  0  0  0
  -23.5741  -32.1173   23.6707 O   0  0  0  0  0  0
  -29.4889  -19.9541   18.7087 C   0  0  0  0  0  0
  -29.3140  -19.8185   20.0960 C   0  0  0  0  0  0
  -28.8866  -21.1970   20.6861 C   0  0  0  0  0  0
  -28.6682  -22.5738   19.9806 C   0  0  0  0  0  0
  -28.9528  -22.4315   18.5920 C   0  0  0  0  0  0
  -29.3264  -21.1767   17.9995 C   0  0  0  0  0  0
  -28.6442  -21.1948   22.1823 C   0  0  0  0  0  0
  -28.8148  -23.6586   17.6948 C   0  0  0  0  0  0
  -29.7763  -18.2480   20.7728 C   0  0  0  0  0  0
  -27.9610  -24.1228   20.5074 C   0  0  0  0  0  0
  -29.6301  -16.6077   20.3872 N   0  0  0  0  0  0
  -29.6071  -21.0729   16.2943 Cl  0  0  0  0  0  0
  -31.4470  -13.0916   19.1652 H   0  0  0  0  0  0
  -30.5368  -11.9706   20.1337 H   0  0  0  0  0  0
  -29.9222  -11.7452   17.7034 H   0  0  0  0  0  0
  -29.5462  -13.4488   17.6206 H   0  0  0  0  0  0
  -28.0533  -11.2759   19.1063 H   0  0  0  0  0  0
  -27.4118  -12.3182   17.8623 H   0  0  0  0  0  0
  -27.5099  -14.2371   19.3078 H   0  0  0  0  0  0
  -28.8378  -12.5457   21.4768 H   0  0  0  0  0  0
  -28.2735  -14.1890   21.6795 H   0  0  0  0  0  0
  -25.2771   -9.5677   22.4769 H   0  0  0  0  0  0
  -23.9998   -7.4634   22.7484 H   0  0  0  0  0  0
  -21.0853   -8.8782   19.8952 H   0  0  0  0  0  0
  -22.3716  -10.9673   19.6168 H   0  0  0  0  0  0
  -21.2020   -7.6150   23.9707 H   0  0  0  0  0  0
  -21.1472   -6.0522   25.9068 H   0  0  0  0  0  0
  -22.0602   -2.7609   23.2838 H   0  0  0  0  0  0
  -22.4039  -11.9820   22.4846 H   0  0  0  0  0  0
  -21.1026  -13.1174   22.2699 H   0  0  0  0  0  0
  -24.6243  -15.8447   20.5241 H   0  0  0  0  0  0
  -26.2379  -15.6414   20.0710 H   0  0  0  0  0  0
  -26.7405  -32.5065   23.0848 H   0  0  0  0  0  0
  -25.0104  -33.9448   25.0160 H   0  0  0  0  0  0
  -22.8046  -31.2634   21.3393 H   0  0  0  0  0  0
  -23.3765  -35.9481   23.3294 H   0  0  0  0  0  0
  -24.3540  -36.8852   22.2077 H   0  0  0  0  0  0
  -23.7210  -37.6340   23.6743 H   0  0  0  0  0  0
  -26.2475  -31.3413   20.6206 H   0  0  0  0  0  0
  -26.9161  -30.6618   22.0636 H   0  0  0  0  0  0
  -28.1642  -28.5537   21.2663 H   0  0  0  0  0  0
  -25.8611  -25.6993   19.0186 H   0  0  0  0  0  0
  -24.0000  -27.2502   18.9616 H   0  0  0  0  0  0
  -23.8924  -30.5055   19.3861 H   0  0  0  0  0  0
  -22.8370  -29.1991   19.8235 H   0  0  0  0  0  0
  -25.1319  -36.1714   25.0784 H   0  0  0  0  0  0
  -21.0057  -28.3385   24.1295 H   0  0  0  0  0  0
  -20.5704  -26.2391   23.3652 H   0  0  0  0  0  0
  -21.6655  -26.7425   22.1202 H   0  0  0  0  0  0
  -19.6929  -25.6278   21.1294 H   0  0  0  0  0  0
  -19.6711  -27.3171   20.6745 H   0  0  0  0  0  0
  -17.4224  -26.6748   21.4018 H   0  0  0  0  0  0
  -18.0320  -26.0109   22.9027 H   0  0  0  0  0  0
  -19.7997  -30.7346   24.2178 H   0  0  0  0  0  0
  -17.5068  -31.6295   24.5175 H   0  0  0  0  0  0
  -15.5397  -30.2996   23.7720 H   0  0  0  0  0  0
  -15.8714  -28.0829   22.7120 H   0  0  0  0  0  0
  -24.5871  -30.7143   25.7661 H   0  0  0  0  0  0
  -24.8827  -32.3024   26.4640 H   0  0  0  0  0  0
  -25.7872  -30.9083   27.0230 H   0  0  0  0  0  0
  -26.3153  -29.6571   24.1478 H   0  0  0  0  0  0
  -27.3947  -29.7296   25.5186 H   0  0  0  0  0  0
  -27.9113  -30.4076   23.9957 H   0  0  0  0  0  0
  -27.2613  -33.3785   26.1858 H   0  0  0  0  0  0
  -28.3954  -32.6801   25.0392 H   0  0  0  0  0  0
  -28.0588  -31.8665   26.5598 H   0  0  0  0  0  0
  -28.2550  -38.0052   24.7516 H   0  0  0  0  0  0
  -28.1044  -36.2574   24.6291 H   0  0  0  0  0  0
  -27.2267  -37.1377   25.8879 H   0  0  0  0  0  0
  -20.9630  -29.8717   21.6611 H   0  0  0  0  0  0
  -26.0080  -38.2737   24.1477 H   0  0  0  0  0  0
  -29.8046  -19.0814   18.1539 H   0  0  0  0  0  0
  -29.3016  -20.4864   22.6880 H   0  0  0  0  0  0
  -27.6118  -20.9185   22.3961 H   0  0  0  0  0  0
  -28.8347  -22.1760   22.6160 H   0  0  0  0  0  0
  -27.7751  -23.7978   17.4006 H   0  0  0  0  0  0
  -29.4178  -23.5968   16.7910 H   0  0  0  0  0  0
  -29.1576  -24.5588   18.2003 H   0  0  0  0  0  0
  -29.3621  -18.2872   21.7799 H   0  0  0  0  0  0
  -30.8487  -18.3622   20.9371 H   0  0  0  0  0  0
  -27.9804  -24.0721   21.5944 H   0  0  0  0  0  0
  -26.9077  -23.9782   20.2670 H   0  0  0  0  0  0
  -28.6526  -16.3782   20.2875 H   0  0  0  0  0  0
  1 25  1  0  0  0
  1 30  2  0  0  0
  1 81  1  0  0  0
  2  3  1  0  0  0
  2 25  1  0  0  0
  2 83  1  0  0  0
  2 84  1  0  0  0
  3  4  1  0  0  0
  3 85  1  0  0  0
  3 86  1  0  0  0
  4  5  1  0  0  0
  4 87  1  0  0  0
  4 88  1  0  0  0
  5  6  1  0  0  0
  5 26  1  0  0  0
  5 89  1  0  0  0
  6 25  1  0  0  0
  6 90  1  0  0  0
  6 91  1  0  0  0
  7  8  2  0  0  0
  7 26  1  0  0  0
  7 29  1  0  0  0
  8  9  1  0  0  0
  8 22  1  0  0  0
  9 10  1  0  0  0
  9 27  2  0  0  0
 10 11  2  0  0  0
 10 15  1  0  0  0
 11 12  1  0  0  0
 11 92  1  0  0  0
 12 13  2  0  0  0
 12 93  1  0  0  0
 13 14  1  0  0  0
 13 31  1  0  0  0
 14 15  2  0  0  0
 14 94  1  0  0  0
 15 95  1  0  0  0
 16 17  2  0  0  0
 16 21  1  0  0  0
 16 31  1  0  0  0
 17 18  1  0  0  0
 17 96  1  0  0  0
 18 19  2  0  0  0
 18 97  1  0  0  0
 19 20  1  0  0  0
 19 24  1  0  0  0
 20 21  2  0  0  0
 20 98  1  0  0  0
 21 23  1  0  0  0
 22 28  1  0  0  0
 22 32  2  0  0  0
 26 27  1  0  0  0
 28 99  1  0  0  0
 28100  1  0  0  0
 29101  1  0  0  0
 29102  1  0  0  0
 33 34  1  0  0  0
 33 66  1  0  0  0
 33 70  2  0  0  0
 34 36  1  0  0  0
 34 59  1  0  0  0
 34103  1  0  0  0
 35 44  2  0  0  0
 35 45  1  0  0  0
 35 68  1  0  0  0
 36 56  1  0  0  0
 36104  1  0  0  0
 37 39  1  0  0  0
 37 47  1  0  0  0
 37 66  1  0  0  0
 37105  1  0  0  0
 38 43  2  0  0  0
 38 46  1  0  0  0
 38 47  1  0  0  0
 39 64  1  0  0  0
 39 67  2  0  0  0
 40 52  1  0  0  0
 40 53  2  0  0  0
 40 58  1  0  0  0
 41106  1  0  0  0
 41107  1  0  0  0
 41108  1  0  0  0
 41 48  1  0  0  0
 42 43  1  0  0  0
 42 66  1  0  0  0
 42109  1  0  0  0
 42110  1  0  0  0
 43 44  1  0  0  0
 44111  1  0  0  0
 45 46  2  0  0  0
 45112  1  0  0  0
 46113  1  0  0  0
 47114  1  0  0  0
 47115  1  0  0  0
 48 56  1  0  0  0
 48 65  1  0  0  0
 48116  1  0  0  0
 49 50  1  0  0  0
 49 53  1  0  0  0
 49 64  1  0  0  0
 49117  1  0  0  0
 50 51  1  0  0  0
 50118  1  0  0  0
 50119  1  0  0  0
 51 52  1  0  0  0
 51120  1  0  0  0
 51121  1  0  0  0
 52122  1  0  0  0
 52123  1  0  0  0
 53 54  1  0  0  0
 54 55  2  0  0  0
 54124  1  0  0  0
 55 57  1  0  0  0
 55125  1  0  0  0
 56 69  2  0  0  0
 57 58  2  0  0  0
 57126  1  0  0  0
 58127  1  0  0  0
 59 60  1  0  0  0
 59 61  1  0  0  0
 59 62  1  0  0  0
 60128  1  0  0  0
 60129  1  0  0  0
 60130  1  0  0  0
 61131  1  0  0  0
 61132  1  0  0  0
 61133  1  0  0  0
 62134  1  0  0  0
 62135  1  0  0  0
 62136  1  0  0  0
 63 65  1  0  0  0
 63137  1  0  0  0
 63138  1  0  0  0
 63139  1  0  0  0
 64140  1  0  0  0
 65141  1  0  0  0
 68 80  1  0  0  0
 71 72  2  0  0  0
 71 76  1  0  0  0
 71142  1  0  0  0
 72 73  1  0  0  0
 72 79  1  0  0  0
 73 74  2  0  0  0
 73 77  1  0  0  0
 74 75  1  0  0  0
 74 80  1  0  0  0
 75 76  2  0  0  0
 75 78  1  0  0  0
 76 82  1  0  0  0
 77143  1  0  0  0
 77144  1  0  0  0
 77145  1  0  0  0
 78146  1  0  0  0
 78147  1  0  0  0
 78148  1  0  0  0
 79 81  1  0  0  0
 79149  1  0  0  0
 79150  1  0  0  0
 80151  1  0  0  0
 80152  1  0  0  0
 81153  1  0  0  0
M  ISO  4   1 100  68 101  80 101  81 100
M  END
> <chiral flag>
0

> <version>
0

> <s_m_source_file>
/data/baiqing/PycharmProjects/Reinvent-master-3.2/result/LINK_invent/BTK/process_docking_weight1_custom_sum_contain_oxygen_bond_distance_aromatic_linkinvent_7_9_3/rearranged_h_0030.sdf

> <i_m_source_file_index>
15

> <r_mmod_Potential_Energy-OPLS-2005>
1401.82568359375

> <r_mmod_Stretch_Energy-OPLS-2005>
653.824157714844

> <r_mmod_Bend_Energy-OPLS-2005>
452.196197509766

> <r_mmod_Torsional_Energy-OPLS-2005>
237.840133666992

> <r_mmod_Improper_Torsional_Energy-OPLS-2005>
6.29078149795532

> <r_mmod_Van_der_Waal_Energy-OPLS-2005>
127.347465515137

> <r_mmod_Electrostatic_Energy-OPLS-2005>
-396.099700927734

> <r_mmod_Solvation_Energy-OPLS-2005>
-212.266265869141

> <b_mmod_Minimization_Converged-OPLS-2005>
0

> <r_mmod_RMS_Derivative-OPLS-2005>
1.73445820808411

$$$$
15
                    3D
 Structure written by MMmdl.
156164  0  0  1  0            999 V2000
  -30.4163  -15.3211   20.3625 C   0  0  0  0  0  0
  -30.4353  -12.8500   19.5261 C   0  0  0  0  0  0
  -29.5365  -12.5896   18.2906 C   0  0  0  0  0  0
  -28.0886  -12.3000   18.7215 C   0  0  0  0  0  0
  -27.6077  -13.2798   19.8201 C   0  0  2  0  0  0
  -28.6390  -13.4799   20.9510 C   0  0  0  0  0  0
  -25.2373  -13.8251   20.5753 C   0  0  0  0  0  0
  -24.1732  -13.0434   20.9262 C   0  0  0  0  0  0
  -24.6397  -11.6933   20.8763 C   0  0  0  0  0  0
  -23.9094  -10.4291   21.0404 C   0  0  0  0  0  0
  -24.3637   -9.4205   21.9184 C   0  0  0  0  0  0
  -23.6306   -8.2242   22.0753 C   0  0  0  0  0  0
  -22.4287   -8.0285   21.3544 C   0  0  0  0  0  0
  -21.9926   -9.0257   20.4644 C   0  0  0  0  0  0
  -22.7261  -10.2133   20.3055 C   0  0  0  0  0  0
  -21.6856   -6.0740   22.5279 C   0  0  0  0  0  0
  -21.4017   -6.5642   23.8213 C   0  0  0  0  0  0
  -21.3660   -5.6792   24.9174 C   0  0  0  0  0  0
  -21.6046   -4.3056   24.7223 C   0  0  0  0  0  0
  -21.8818   -3.8149   23.4344 C   0  0  0  0  0  0
  -21.9194   -4.6968   22.3401 C   0  0  0  0  0  0
  -22.7750  -13.5186   21.1908 C   0  0  0  0  0  0
  -22.1661   -4.2154   21.0977 F   0  0  0  0  0  0
  -21.5627   -3.4539   25.7735 F   0  0  0  0  0  0
  -29.8604  -14.0046   20.3172 N   0  0  0  0  0  0
  -26.2800  -12.9532   20.3215 N   0  0  0  0  0  0
  -25.9333  -11.6633   20.5715 N   0  0  0  0  0  0
  -22.0408  -12.8169   22.0463 N   0  0  0  0  0  0
  -25.3995  -15.1986   20.4187 N   0  0  0  0  0  0
  -31.6412  -15.3103   20.1679 O   0  0  0  0  0  0
  -21.6646   -6.8884   21.4243 O   0  0  0  0  0  0
  -22.3428  -14.5487   20.6745 O   0  0  0  0  0  0
  -24.6662  -31.8190   23.1661 C   0  0  0  0  0  0
  -25.9325  -32.4562   23.8144 C   0  0  1  0  0  0
  -27.2199  -26.8897   20.1949 C   0  0  0  0  0  0
  -25.5981  -33.8380   24.2049 N   0  0  0  0  0  0
  -23.4826  -30.4278   21.5163 C   0  0  2  0  0  0
  -24.9355  -28.8029   20.1150 C   0  0  0  0  0  0
  -22.7677  -29.4418   22.4774 C   0  0  0  0  0  0
  -18.0324  -28.1409   22.8464 C   0  0  0  0  0  0
  -24.1495  -36.7195   23.2648 C   0  0  0  0  0  0
  -26.0528  -30.6142   21.3999 C   0  0  0  0  0  0
  -26.1203  -29.1989   20.7474 C   0  0  0  0  0  0
  -27.2564  -28.2657   20.7563 C   0  0  0  0  0  0
  -26.0038  -26.6497   19.5172 C   0  0  0  0  0  0
  -24.9045  -27.5502   19.4786 C   0  0  0  0  0  0
  -23.7240  -29.7368   20.1451 C   0  0  0  0  0  0
  -25.4138  -36.2952   24.0295 C   0  0  1  0  0  0
  -20.5949  -28.3757   23.1182 C   0  0  2  0  0  0
  -20.6800  -26.9437   22.5402 C   0  0  0  0  0  0
  -19.5775  -26.6376   21.5213 C   0  0  0  0  0  0
  -18.1957  -26.7943   22.1620 C   0  0  0  0  0  0
  -19.1585  -28.8906   23.2809 C   0  0  0  0  0  0
  -18.9495  -30.1495   23.8845 C   0  0  0  0  0  0
  -17.6487  -30.6599   24.0553 C   0  0  0  0  0  0
  -25.9105  -34.9335   23.4996 C   0  0  0  0  0  0
  -16.5378  -29.9083   23.6344 C   0  0  0  0  0  0
  -16.7306  -28.6504   23.0362 C   0  0  0  0  0  0
  -26.4567  -31.6526   25.0691 C   0  0  0  0  0  0
  -25.3685  -31.3785   26.1340 C   0  0  0  0  0  0
  -27.0474  -30.2891   24.6448 C   0  0  0  0  0  0
  -27.6053  -32.4344   25.7494 C   0  0  0  0  0  0
  -27.5569  -37.1755   24.8467 C   0  0  0  0  0  0
  -21.4345  -29.3039   22.3522 N   0  0  0  0  0  0
  -26.4280  -37.3692   23.9407 N   0  0  0  0  0  0
  -24.7556  -30.9819   22.0811 N   0  0  0  0  0  0
  -23.4207  -28.8003   23.3040 O   0  0  0  0  0  0
  -28.2363  -25.7864   20.2601 O   0  0  0  0  0  0
  -26.5720  -34.8879   22.4596 O   0  0  0  0  0  0
  -23.5724  -32.1174   23.6734 O   0  0  0  0  0  0
  -28.9313  -22.9471   21.1720 C   0  0  0  0  0  0
  -29.6425  -21.3883   20.8055 C   0  0  0  0  0  0
  -27.9615  -23.2237   18.9573 C   0  0  0  0  0  0
  -28.2850  -20.3463   19.1082 C   0  0  0  0  0  0
  -27.3739  -21.7050   19.1280 C   0  0  2  0  0  0
  -28.0689  -24.1196   20.2662 C   0  0  2  0  0  0
  -29.0226  -19.8345   20.4223 C   0  0  1  0  0  0
  -26.2751  -21.5252   18.0625 C   0  0  0  0  0  0
  -29.9785  -18.2677   20.3731 C   0  0  0  0  0  0
  -29.6570  -16.6100   20.4274 N   0  0  0  0  0  0
  -28.0883  -19.6006   21.3432 F   0  0  0  0  0  0
  -31.4511  -13.0633   19.1906 H   0  0  0  0  0  0
  -30.5156  -11.9539   20.1437 H   0  0  0  0  0  0
  -29.9278  -11.7599   17.7003 H   0  0  0  0  0  0
  -29.5550  -13.4657   17.6406 H   0  0  0  0  0  0
  -28.0562  -11.2787   19.1029 H   0  0  0  0  0  0
  -27.4195  -12.3278   17.8607 H   0  0  0  0  0  0
  -27.5136  -14.2400   19.3113 H   0  0  0  0  0  0
  -28.8225  -12.5534   21.4972 H   0  0  0  0  0  0
  -28.2680  -14.2031   21.6790 H   0  0  0  0  0  0
  -25.2778   -9.5683   22.4764 H   0  0  0  0  0  0
  -24.0013   -7.4635   22.7473 H   0  0  0  0  0  0
  -21.0857   -8.8781   19.8950 H   0  0  0  0  0  0
  -22.3719  -10.9675   19.6168 H   0  0  0  0  0  0
  -21.2011   -7.6150   23.9719 H   0  0  0  0  0  0
  -21.1483   -6.0521   25.9077 H   0  0  0  0  0  0
  -22.0596   -2.7611   23.2842 H   0  0  0  0  0  0
  -22.4042  -11.9845   22.4863 H   0  0  0  0  0  0
  -21.1017  -13.1174   22.2660 H   0  0  0  0  0  0
  -24.6277  -15.8469   20.5326 H   0  0  0  0  0  0
  -26.2383  -15.6418   20.0685 H   0  0  0  0  0  0
  -26.7397  -32.5088   23.0857 H   0  0  0  0  0  0
  -25.0082  -33.9454   25.0168 H   0  0  0  0  0  0
  -22.7980  -31.2602   21.3408 H   0  0  0  0  0  0
  -23.3766  -35.9516   23.3282 H   0  0  0  0  0  0
  -24.3569  -36.8870   22.2068 H   0  0  0  0  0  0
  -23.7244  -37.6372   23.6725 H   0  0  0  0  0  0
  -26.2348  -31.3515   20.6171 H   0  0  0  0  0  0
  -26.9119  -30.6747   22.0561 H   0  0  0  0  0  0
  -28.1556  -28.5704   21.2729 H   0  0  0  0  0  0
  -25.8748  -25.6919   19.0335 H   0  0  0  0  0  0
  -24.0045  -27.2405   18.9656 H   0  0  0  0  0  0
  -23.8827  -30.5017   19.3840 H   0  0  0  0  0  0
  -22.8325  -29.1927   19.8288 H   0  0  0  0  0  0
  -25.1339  -36.1742   25.0787 H   0  0  0  0  0  0
  -21.0038  -28.3368   24.1305 H   0  0  0  0  0  0
  -20.5677  -26.2379   23.3646 H   0  0  0  0  0  0
  -21.6664  -26.7408   22.1209 H   0  0  0  0  0  0
  -19.6936  -25.6271   21.1280 H   0  0  0  0  0  0
  -19.6716  -27.3154   20.6718 H   0  0  0  0  0  0
  -17.4227  -26.6682   21.4024 H   0  0  0  0  0  0
  -18.0354  -26.0097   22.9029 H   0  0  0  0  0  0
  -19.7970  -30.7327   24.2191 H   0  0  0  0  0  0
  -17.5037  -31.6273   24.5163 H   0  0  0  0  0  0
  -15.5376  -30.2967   23.7697 H   0  0  0  0  0  0
  -15.8707  -28.0803   22.7108 H   0  0  0  0  0  0
  -24.5888  -30.7112   25.7647 H   0  0  0  0  0  0
  -24.8851  -32.2987   26.4632 H   0  0  0  0  0  0
  -25.7908  -30.9041   27.0207 H   0  0  0  0  0  0
  -26.3152  -29.6553   24.1433 H   0  0  0  0  0  0
  -27.3973  -29.7272   25.5118 H   0  0  0  0  0  0
  -27.9102  -30.4067   23.9889 H   0  0  0  0  0  0
  -27.2621  -33.3691   26.1939 H   0  0  0  0  0  0
  -28.3932  -32.6829   25.0372 H   0  0  0  0  0  0
  -28.0649  -31.8560   26.5518 H   0  0  0  0  0  0
  -28.2566  -38.0068   24.7510 H   0  0  0  0  0  0
  -28.1083  -36.2593   24.6300 H   0  0  0  0  0  0
  -27.2283  -37.1401   25.8869 H   0  0  0  0  0  0
  -20.9610  -29.8713   21.6629 H   0  0  0  0  0  0
  -26.0121  -38.2748   24.1413 H   0  0  0  0  0  0
  -29.7717  -23.5183   21.5665 H   0  0  0  0  0  0
  -28.3210  -22.7723   22.0586 H   0  0  0  0  0  0
  -30.2508  -21.1869   21.6875 H   0  0  0  0  0  0
  -30.3889  -21.5964   20.0380 H   0  0  0  0  0  0
  -27.3324  -23.7784   18.2605 H   0  0  0  0  0  0
  -28.9336  -23.1782   18.4657 H   0  0  0  0  0  0
  -29.0232  -20.4456   18.3116 H   0  0  0  0  0  0
  -27.6582  -19.5122   18.7915 H   0  0  0  0  0  0
  -26.8282  -21.6836   20.0727 H   0  0  0  0  0  0
  -27.0642  -24.0616   20.6874 H   0  0  0  0  0  0
  -26.6962  -21.5190   17.0565 H   0  0  0  0  0  0
  -25.5366  -22.3267   18.1091 H   0  0  0  0  0  0
  -25.7290  -20.5910   18.1993 H   0  0  0  0  0  0
  -30.6608  -18.3750   21.2167 H   0  0  0  0  0  0
  -30.6333  -18.3719   19.5077 H   0  0  0  0  0  0
  -28.6688  -16.4346   20.5365 H   0  0  0  0  0  0
  1 25  1  0  0  0
  1 30  2  0  0  0
  1 80  1  0  0  0
  2  3  1  0  0  0
  2 25  1  0  0  0
  2 82  1  0  0  0
  2 83  1  0  0  0
  3  4  1  0  0  0
  3 84  1  0  0  0
  3 85  1  0  0  0
  4  5  1  0  0  0
  4 86  1  0  0  0
  4 87  1  0  0  0
  5  6  1  0  0  0
  5 26  1  0  0  0
  5 88  1  0  0  0
  6 25  1  0  0  0
  6 89  1  0  0  0
  6 90  1  0  0  0
  7  8  2  0  0  0
  7 26  1  0  0  0
  7 29  1  0  0  0
  8  9  1  0  0  0
  8 22  1  0  0  0
  9 10  1  0  0  0
  9 27  2  0  0  0
 10 11  2  0  0  0
 10 15  1  0  0  0
 11 12  1  0  0  0
 11 91  1  0  0  0
 12 13  2  0  0  0
 12 92  1  0  0  0
 13 14  1  0  0  0
 13 31  1  0  0  0
 14 15  2  0  0  0
 14 93  1  0  0  0
 15 94  1  0  0  0
 16 17  2  0  0  0
 16 21  1  0  0  0
 16 31  1  0  0  0
 17 18  1  0  0  0
 17 95  1  0  0  0
 18 19  2  0  0  0
 18 96  1  0  0  0
 19 20  1  0  0  0
 19 24  1  0  0  0
 20 21  2  0  0  0
 20 97  1  0  0  0
 21 23  1  0  0  0
 22 28  1  0  0  0
 22 32  2  0  0  0
 26 27  1  0  0  0
 28 98  1  0  0  0
 28 99  1  0  0  0
 29100  1  0  0  0
 29101  1  0  0  0
 33 34  1  0  0  0
 33 66  1  0  0  0
 33 70  2  0  0  0
 34 36  1  0  0  0
 34 59  1  0  0  0
 34102  1  0  0  0
 35 44  2  0  0  0
 35 45  1  0  0  0
 35 68  1  0  0  0
 36 56  1  0  0  0
 36103  1  0  0  0
 37 39  1  0  0  0
 37 47  1  0  0  0
 37 66  1  0  0  0
 37104  1  0  0  0
 38 43  2  0  0  0
 38 46  1  0  0  0
 38 47  1  0  0  0
 39 64  1  0  0  0
 39 67  2  0  0  0
 40 52  1  0  0  0
 40 53  2  0  0  0
 40 58  1  0  0  0
 41105  1  0  0  0
 41106  1  0  0  0
 41107  1  0  0  0
 41 48  1  0  0  0
 42 43  1  0  0  0
 42 66  1  0  0  0
 42108  1  0  0  0
 42109  1  0  0  0
 43 44  1  0  0  0
 44110  1  0  0  0
 45 46  2  0  0  0
 45111  1  0  0  0
 46112  1  0  0  0
 47113  1  0  0  0
 47114  1  0  0  0
 48 56  1  0  0  0
 48 65  1  0  0  0
 48115  1  0  0  0
 49 50  1  0  0  0
 49 53  1  0  0  0
 49 64  1  0  0  0
 49116  1  0  0  0
 50 51  1  0  0  0
 50117  1  0  0  0
 50118  1  0  0  0
 51 52  1  0  0  0
 51119  1  0  0  0
 51120  1  0  0  0
 52121  1  0  0  0
 52122  1  0  0  0
 53 54  1  0  0  0
 54 55  2  0  0  0
 54123  1  0  0  0
 55 57  1  0  0  0
 55124  1  0  0  0
 56 69  2  0  0  0
 57 58  2  0  0  0
 57125  1  0  0  0
 58126  1  0  0  0
 59 60  1  0  0  0
 59 61  1  0  0  0
 59 62  1  0  0  0
 60127  1  0  0  0
 60128  1  0  0  0
 60129  1  0  0  0
 61130  1  0  0  0
 61131  1  0  0  0
 61132  1  0  0  0
 62133  1  0  0  0
 62134  1  0  0  0
 62135  1  0  0  0
 63 65  1  0  0  0
 63136  1  0  0  0
 63137  1  0  0  0
 63138  1  0  0  0
 64139  1  0  0  0
 65140  1  0  0  0
 68 76  1  0  0  0
 71 72  1  0  0  0
 71 76  1  0  0  0
 71141  1  0  0  0
 71142  1  0  0  0
 72 77  1  0  0  0
 72143  1  0  0  0
 72144  1  0  0  0
 73 75  1  0  0  0
 73 76  1  0  0  0
 73145  1  0  0  0
 73146  1  0  0  0
 74 75  1  0  0  0
 74 77  1  0  0  0
 74147  1  0  0  0
 74148  1  0  0  0
 75 78  1  0  0  0
 75149  1  0  0  0
 76150  1  0  0  0
 77 79  1  0  0  0
 77 81  1  0  0  0
 78151  1  0  0  0
 78152  1  0  0  0
 78153  1  0  0  0
 79 80  1  0  0  0
 79154  1  0  0  0
 79155  1  0  0  0
 80156  1  0  0  0
M  ISO  4   1 100  68 101  76 101  80 100
M  END
> <chiral flag>
0

> <version>
0

> <s_m_source_file>
/data/baiqing/PycharmProjects/Reinvent-master-3.2/result/LINK_invent/BTK/process_docking_weight1_custom_sum_contain_oxygen_bond_distance_aromatic_linkinvent_7_9_3/rearranged_h_0030.sdf

> <i_m_source_file_index>
16

> <r_mmod_Potential_Energy-OPLS-2005>
1454.84582519531

> <r_mmod_Stretch_Energy-OPLS-2005>
625.720642089844

> <r_mmod_Bend_Energy-OPLS-2005>
537.389404296875

> <r_mmod_Torsional_Energy-OPLS-2005>
269.748718261719

> <r_mmod_Improper_Torsional_Energy-OPLS-2005>
3.77732062339783

> <r_mmod_Van_der_Waal_Energy-OPLS-2005>
115.77742767334

> <r_mmod_Electrostatic_Energy-OPLS-2005>
-407.085205078125

> <r_mmod_Solvation_Energy-OPLS-2005>
-204.520980834961

> <b_mmod_Minimization_Converged-OPLS-2005>
0

> <r_mmod_RMS_Derivative-OPLS-2005>
0.447610169649124

$$$$
16
                    3D
 Structure written by MMmdl.
159167  0  0  1  0            999 V2000
  -30.7035  -14.4447   20.6178 C   0  0  0  0  0  0
  -30.4296  -12.3072   19.4108 C   0  0  0  0  0  0
  -29.4938  -12.5084   18.2015 C   0  0  0  0  0  0
  -28.0160  -12.3650   18.6172 C   0  0  0  0  0  0
  -27.6660  -13.1996   19.8776 C   0  0  2  0  0  0
  -28.7051  -12.9535   20.9937 C   0  0  0  0  0  0
  -25.2617  -13.8155   20.5675 C   0  0  0  0  0  0
  -24.1853  -13.0446   20.9165 C   0  0  0  0  0  0
  -24.6388  -11.6910   20.8723 C   0  0  0  0  0  0
  -23.9054  -10.4298   21.0399 C   0  0  0  0  0  0
  -24.3610   -9.4216   21.9177 C   0  0  0  0  0  0
  -23.6288   -8.2250   22.0749 C   0  0  0  0  0  0
  -22.4270   -8.0286   21.3542 C   0  0  0  0  0  0
  -21.9900   -9.0261   20.4647 C   0  0  0  0  0  0
  -22.7224  -10.2140   20.3050 C   0  0  0  0  0  0
  -21.6856   -6.0735   22.5280 C   0  0  0  0  0  0
  -21.4018   -6.5638   23.8212 C   0  0  0  0  0  0
  -21.3653   -5.6791   24.9173 C   0  0  0  0  0  0
  -21.6041   -4.3053   24.7226 C   0  0  0  0  0  0
  -21.8821   -3.8144   23.4347 C   0  0  0  0  0  0
  -21.9194   -4.6962   22.3401 C   0  0  0  0  0  0
  -22.7875  -13.5253   21.1828 C   0  0  0  0  0  0
  -22.1662   -4.2150   21.0979 F   0  0  0  0  0  0
  -21.5626   -3.4535   25.7736 F   0  0  0  0  0  0
  -30.0391  -13.2704   20.4513 N   0  0  0  0  0  0
  -26.3045  -12.9306   20.3364 N   0  0  0  0  0  0
  -25.9311  -11.6474   20.5750 N   0  0  0  0  0  0
  -22.0505  -12.8258   22.0389 N   0  0  0  0  0  0
  -25.4380  -15.1868   20.4088 N   0  0  0  0  0  0
  -31.7956  -14.6841   20.0938 O   0  0  0  0  0  0
  -21.6638   -6.8880   21.4239 O   0  0  0  0  0  0
  -22.3562  -14.5556   20.6672 O   0  0  0  0  0  0
  -24.6131  -31.8685   23.2105 C   0  0  0  0  0  0
  -25.9030  -32.4825   23.8399 C   0  0  1  0  0  0
  -27.2404  -27.4470   20.1014 C   0  0  0  0  0  0
  -25.5894  -33.8625   24.2335 N   0  0  0  0  0  0
  -23.4017  -30.4894   21.5501 C   0  0  2  0  0  0
  -24.8516  -28.9508   20.1206 C   0  0  0  0  0  0
  -22.7406  -29.4656   22.4999 C   0  0  0  0  0  0
  -18.0272  -28.1372   22.8493 C   0  0  0  0  0  0
  -24.1488  -36.7319   23.2639 C   0  0  0  0  0  0
  -25.9277  -30.8361   21.3628 C   0  0  0  0  0  0
  -26.0079  -29.4671   20.7202 C   0  0  0  0  0  0
  -27.2065  -28.7193   20.7148 C   0  0  0  0  0  0
  -26.0736  -26.9388   19.4982 C   0  0  0  0  0  0
  -24.8772  -27.6833   19.5099 C   0  0  0  0  0  0
  -23.6119  -29.8163   20.1664 C   0  0  0  0  0  0
  -25.4107  -36.3117   24.0341 C   0  0  1  0  0  0
  -20.5861  -28.3658   23.1326 C   0  0  2  0  0  0
  -20.6764  -26.9396   22.5423 C   0  0  0  0  0  0
  -19.5745  -26.6383   21.5215 C   0  0  0  0  0  0
  -18.1921  -26.7921   22.1623 C   0  0  0  0  0  0
  -19.1521  -28.8832   23.2907 C   0  0  0  0  0  0
  -18.9449  -30.1439   23.8916 C   0  0  0  0  0  0
  -17.6452  -30.6583   24.0565 C   0  0  0  0  0  0
  -25.9030  -34.9478   23.5133 C   0  0  0  0  0  0
  -16.5342  -29.9084   23.6324 C   0  0  0  0  0  0
  -16.7262  -28.6500   23.0346 C   0  0  0  0  0  0
  -26.4474  -31.6594   25.0714 C   0  0  0  0  0  0
  -25.3754  -31.3689   26.1471 C   0  0  0  0  0  0
  -27.0300  -30.3043   24.6060 C   0  0  0  0  0  0
  -27.6057  -32.4310   25.7468 C   0  0  0  0  0  0
  -27.5581  -37.1815   24.8469 C   0  0  0  0  0  0
  -21.4135  -29.3026   22.3737 N   0  0  0  0  0  0
  -26.4299  -37.3796   23.9405 N   0  0  0  0  0  0
  -24.6654  -31.0791   22.1002 N   0  0  0  0  0  0
  -23.4181  -28.8208   23.3049 O   0  0  0  0  0  0
  -28.3983  -26.7103   20.0396 O   0  0  0  0  0  0
  -26.5588  -34.8928   22.4693 O   0  0  0  0  0  0
  -23.5326  -32.1432   23.7505 O   0  0  0  0  0  0
  -29.5255  -23.8936   20.0167 C   0  0  0  0  0  0
  -29.5645  -22.5058   19.7822 C   0  0  0  0  0  0
  -28.6718  -24.4426   20.9959 C   0  0  0  0  0  0
  -28.7479  -21.6286   20.5244 C   0  0  0  0  0  0
  -27.8549  -23.5676   21.7657 C   0  0  0  0  0  0
  -27.8997  -22.1627   21.5283 C   0  0  0  0  0  0
  -26.9341  -24.1461   22.8366 C   0  0  0  0  0  0
  -28.7442  -20.1350   20.1743 C   0  0  0  0  0  0
  -28.7109  -25.9622   21.2174 C   0  0  0  0  0  0
  -29.6609  -19.2392   21.0409 C   0  0  0  0  0  0
  -29.4709  -17.7333   20.7317 C   0  0  0  0  0  0
  -30.3998  -16.7845   21.5256 C   0  0  0  0  0  0
  -30.0361  -15.3763   21.3201 N   0  0  0  0  0  0
  -26.9147  -21.0784   22.4558 Cl  0  0  0  0  0  0
  -31.4713  -12.4234   19.1066 H   0  0  0  0  0  0
  -30.3460  -11.2898   19.7959 H   0  0  0  0  0  0
  -29.7325  -11.7863   17.4190 H   0  0  0  0  0  0
  -29.6582  -13.4956   17.7670 H   0  0  0  0  0  0
  -27.8284  -11.3083   18.8114 H   0  0  0  0  0  0
  -27.3629  -12.6408   17.7887 H   0  0  0  0  0  0
  -27.7198  -14.2505   19.5911 H   0  0  0  0  0  0
  -28.6830  -11.9082   21.3059 H   0  0  0  0  0  0
  -28.4558  -13.5217   21.8901 H   0  0  0  0  0  0
  -25.2756   -9.5695   22.4751 H   0  0  0  0  0  0
  -23.9999   -7.4642   22.7468 H   0  0  0  0  0  0
  -21.0829   -8.8782   19.8957 H   0  0  0  0  0  0
  -22.3683  -10.9680   19.6163 H   0  0  0  0  0  0
  -21.2014   -7.6148   23.9717 H   0  0  0  0  0  0
  -21.1470   -6.0519   25.9077 H   0  0  0  0  0  0
  -22.0604   -2.7608   23.2845 H   0  0  0  0  0  0
  -22.4112  -11.9927   22.4797 H   0  0  0  0  0  0
  -21.1124  -13.1301   22.2581 H   0  0  0  0  0  0
  -24.6782  -15.8492   20.5212 H   0  0  0  0  0  0
  -26.2981  -15.6201   20.0966 H   0  0  0  0  0  0
  -26.7100  -32.5553   23.1168 H   0  0  0  0  0  0
  -25.0067  -33.9791   25.0495 H   0  0  0  0  0  0
  -22.6896  -31.3051   21.4088 H   0  0  0  0  0  0
  -23.3740  -35.9664   23.3327 H   0  0  0  0  0  0
  -24.3579  -36.8906   22.2049 H   0  0  0  0  0  0
  -23.7254  -37.6541   23.6632 H   0  0  0  0  0  0
  -26.0326  -31.5967   20.5878 H   0  0  0  0  0  0
  -26.8184  -30.8980   21.9760 H   0  0  0  0  0  0
  -28.1031  -29.1172   21.1695 H   0  0  0  0  0  0
  -26.0945  -25.9690   19.0207 H   0  0  0  0  0  0
  -23.9885  -27.2798   19.0445 H   0  0  0  0  0  0
  -23.7193  -30.5881   19.4033 H   0  0  0  0  0  0
  -22.7372  -29.2332   19.8725 H   0  0  0  0  0  0
  -25.1284  -36.1990   25.0836 H   0  0  0  0  0  0
  -20.9951  -28.3220   24.1448 H   0  0  0  0  0  0
  -20.5671  -26.2263   23.3607 H   0  0  0  0  0  0
  -21.6636  -26.7447   22.1214 H   0  0  0  0  0  0
  -19.6908  -25.6299   21.1231 H   0  0  0  0  0  0
  -19.6686  -27.3207   20.6755 H   0  0  0  0  0  0
  -17.4196  -26.6677   21.4018 H   0  0  0  0  0  0
  -18.0317  -26.0055   22.9013 H   0  0  0  0  0  0
  -19.7925  -30.7248   24.2296 H   0  0  0  0  0  0
  -17.5008  -31.6263   24.5163 H   0  0  0  0  0  0
  -15.5344  -30.2992   23.7636 H   0  0  0  0  0  0
  -15.8662  -28.0826   22.7049 H   0  0  0  0  0  0
  -24.5916  -30.7048   25.7810 H   0  0  0  0  0  0
  -24.8960  -32.2840   26.4954 H   0  0  0  0  0  0
  -25.8121  -30.8832   27.0207 H   0  0  0  0  0  0
  -26.2825  -29.6799   24.1148 H   0  0  0  0  0  0
  -27.4125  -29.7278   25.4493 H   0  0  0  0  0  0
  -27.8637  -30.4376   23.9162 H   0  0  0  0  0  0
  -27.2678  -33.3589   26.2093 H   0  0  0  0  0  0
  -28.3835  -32.6904   25.0274 H   0  0  0  0  0  0
  -28.0760  -31.8407   26.5342 H   0  0  0  0  0  0
  -28.2621  -38.0091   24.7491 H   0  0  0  0  0  0
  -28.1053  -36.2622   24.6322 H   0  0  0  0  0  0
  -27.2295  -37.1506   25.8872 H   0  0  0  0  0  0
  -20.9298  -29.8739   21.6952 H   0  0  0  0  0  0
  -26.0193  -38.2881   24.1389 H   0  0  0  0  0  0
  -30.1579  -24.5490   19.4328 H   0  0  0  0  0  0
  -30.2182  -22.1178   19.0132 H   0  0  0  0  0  0
  -26.2699  -24.8917   22.3985 H   0  0  0  0  0  0
  -27.5223  -24.6238   23.6204 H   0  0  0  0  0  0
  -26.2971  -23.4111   23.3230 H   0  0  0  0  0  0
  -29.0306  -20.0244   19.1277 H   0  0  0  0  0  0
  -27.7188  -19.7675   20.2215 H   0  0  0  0  0  0
  -29.7326  -26.2195   21.4981 H   0  0  0  0  0  0
  -28.1009  -26.2797   22.0625 H   0  0  0  0  0  0
  -29.4465  -19.4124   22.0962 H   0  0  0  0  0  0
  -30.7015  -19.5269   20.8875 H   0  0  0  0  0  0
  -29.6211  -17.5633   19.6645 H   0  0  0  0  0  0
  -28.4316  -17.4687   20.9354 H   0  0  0  0  0  0
  -30.3170  -16.9960   22.5927 H   0  0  0  0  0  0
  -31.4424  -16.9668   21.2589 H   0  0  0  0  0  0
  -29.1564  -15.0748   21.7128 H   0  0  0  0  0  0
  1 25  1  0  0  0
  1 30  2  0  0  0
  1 83  1  0  0  0
  2  3  1  0  0  0
  2 25  1  0  0  0
  2 85  1  0  0  0
  2 86  1  0  0  0
  3  4  1  0  0  0
  3 87  1  0  0  0
  3 88  1  0  0  0
  4  5  1  0  0  0
  4 89  1  0  0  0
  4 90  1  0  0  0
  5  6  1  0  0  0
  5 26  1  0  0  0
  5 91  1  0  0  0
  6 25  1  0  0  0
  6 92  1  0  0  0
  6 93  1  0  0  0
  7  8  2  0  0  0
  7 26  1  0  0  0
  7 29  1  0  0  0
  8  9  1  0  0  0
  8 22  1  0  0  0
  9 10  1  0  0  0
  9 27  2  0  0  0
 10 11  2  0  0  0
 10 15  1  0  0  0
 11 12  1  0  0  0
 11 94  1  0  0  0
 12 13  2  0  0  0
 12 95  1  0  0  0
 13 14  1  0  0  0
 13 31  1  0  0  0
 14 15  2  0  0  0
 14 96  1  0  0  0
 15 97  1  0  0  0
 16 17  2  0  0  0
 16 21  1  0  0  0
 16 31  1  0  0  0
 17 18  1  0  0  0
 17 98  1  0  0  0
 18 19  2  0  0  0
 18 99  1  0  0  0
 19 20  1  0  0  0
 19 24  1  0  0  0
 20 21  2  0  0  0
 20100  1  0  0  0
 21 23  1  0  0  0
 22 28  1  0  0  0
 22 32  2  0  0  0
 26 27  1  0  0  0
 28101  1  0  0  0
 28102  1  0  0  0
 29103  1  0  0  0
 29104  1  0  0  0
 33 34  1  0  0  0
 33 66  1  0  0  0
 33 70  2  0  0  0
 34 36  1  0  0  0
 34 59  1  0  0  0
 34105  1  0  0  0
 35 44  2  0  0  0
 35 45  1  0  0  0
 35 68  1  0  0  0
 36 56  1  0  0  0
 36106  1  0  0  0
 37 39  1  0  0  0
 37 47  1  0  0  0
 37 66  1  0  0  0
 37107  1  0  0  0
 38 43  2  0  0  0
 38 46  1  0  0  0
 38 47  1  0  0  0
 39 64  1  0  0  0
 39 67  2  0  0  0
 40 52  1  0  0  0
 40 53  2  0  0  0
 40 58  1  0  0  0
 41108  1  0  0  0
 41109  1  0  0  0
 41110  1  0  0  0
 41 48  1  0  0  0
 42 43  1  0  0  0
 42 66  1  0  0  0
 42111  1  0  0  0
 42112  1  0  0  0
 43 44  1  0  0  0
 44113  1  0  0  0
 45 46  2  0  0  0
 45114  1  0  0  0
 46115  1  0  0  0
 47116  1  0  0  0
 47117  1  0  0  0
 48 56  1  0  0  0
 48 65  1  0  0  0
 48118  1  0  0  0
 49 50  1  0  0  0
 49 53  1  0  0  0
 49 64  1  0  0  0
 49119  1  0  0  0
 50 51  1  0  0  0
 50120  1  0  0  0
 50121  1  0  0  0
 51 52  1  0  0  0
 51122  1  0  0  0
 51123  1  0  0  0
 52124  1  0  0  0
 52125  1  0  0  0
 53 54  1  0  0  0
 54 55  2  0  0  0
 54126  1  0  0  0
 55 57  1  0  0  0
 55127  1  0  0  0
 56 69  2  0  0  0
 57 58  2  0  0  0
 57128  1  0  0  0
 58129  1  0  0  0
 59 60  1  0  0  0
 59 61  1  0  0  0
 59 62  1  0  0  0
 60130  1  0  0  0
 60131  1  0  0  0
 60132  1  0  0  0
 61133  1  0  0  0
 61134  1  0  0  0
 61135  1  0  0  0
 62136  1  0  0  0
 62137  1  0  0  0
 62138  1  0  0  0
 63 65  1  0  0  0
 63139  1  0  0  0
 63140  1  0  0  0
 63141  1  0  0  0
 64142  1  0  0  0
 65143  1  0  0  0
 68 79  1  0  0  0
 71 72  2  0  0  0
 71 73  1  0  0  0
 71144  1  0  0  0
 72 74  1  0  0  0
 72145  1  0  0  0
 73 75  2  0  0  0
 73 79  1  0  0  0
 74 76  2  0  0  0
 74 78  1  0  0  0
 75 76  1  0  0  0
 75 77  1  0  0  0
 76 84  1  0  0  0
 77146  1  0  0  0
 77147  1  0  0  0
 77148  1  0  0  0
 78 80  1  0  0  0
 78149  1  0  0  0
 78150  1  0  0  0
 79151  1  0  0  0
 79152  1  0  0  0
 80 81  1  0  0  0
 80153  1  0  0  0
 80154  1  0  0  0
 81 82  1  0  0  0
 81155  1  0  0  0
 81156  1  0  0  0
 82 83  1  0  0  0
 82157  1  0  0  0
 82158  1  0  0  0
 83159  1  0  0  0
M  ISO  4   1 100  68 101  79 101  83 100
M  END
> <chiral flag>
0

> <version>
0

> <s_m_source_file>
/data/baiqing/PycharmProjects/Reinvent-master-3.2/result/LINK_invent/BTK/process_docking_weight1_custom_sum_contain_oxygen_bond_distance_aromatic_linkinvent_7_9_3/rearranged_h_0030.sdf

> <i_m_source_file_index>
17

> <r_mmod_Potential_Energy-OPLS-2005>
-49.8543167114258

> <r_mmod_Stretch_Energy-OPLS-2005>
37.132194519043

> <r_mmod_Bend_Energy-OPLS-2005>
89.4718322753906

> <r_mmod_Torsional_Energy-OPLS-2005>
228.581649780273

> <r_mmod_Improper_Torsional_Energy-OPLS-2005>
2.65480923652649

> <r_mmod_Van_der_Waal_Energy-OPLS-2005>
149.508453369141

> <r_mmod_Electrostatic_Energy-OPLS-2005>
-367.424865722656

> <r_mmod_Solvation_Energy-OPLS-2005>
-198.707824707031

> <b_mmod_Minimization_Converged-OPLS-2005>
0

> <r_mmod_RMS_Derivative-OPLS-2005>
0.807083129882812

$$$$
17
                    3D
 Structure written by MMmdl.
151159  0  0  1  0            999 V2000
  -30.3885  -15.3628   20.3210 C   0  0  0  0  0  0
  -30.4392  -12.8706   19.5328 C   0  0  0  0  0  0
  -29.5444  -12.6064   18.2939 C   0  0  0  0  0  0
  -28.0958  -12.3082   18.7195 C   0  0  0  0  0  0
  -27.6090  -13.2873   19.8175 C   0  0  2  0  0  0
  -28.6395  -13.4914   20.9491 C   0  0  0  0  0  0
  -25.2375  -13.8259   20.5772 C   0  0  0  0  0  0
  -24.1733  -13.0433   20.9273 C   0  0  0  0  0  0
  -24.6406  -11.6934   20.8738 C   0  0  0  0  0  0
  -23.9098  -10.4286   21.0378 C   0  0  0  0  0  0
  -24.3640   -9.4198   21.9162 C   0  0  0  0  0  0
  -23.6304   -8.2235   22.0747 C   0  0  0  0  0  0
  -22.4273   -8.0275   21.3545 C   0  0  0  0  0  0
  -21.9917   -9.0250   20.4644 C   0  0  0  0  0  0
  -22.7255  -10.2127   20.3035 C   0  0  0  0  0  0
  -21.6845   -6.0735   22.5275 C   0  0  0  0  0  0
  -21.4016   -6.5636   23.8214 C   0  0  0  0  0  0
  -21.3672   -5.6787   24.9177 C   0  0  0  0  0  0
  -21.6052   -4.3050   24.7227 C   0  0  0  0  0  0
  -21.8817   -3.8143   23.4342 C   0  0  0  0  0  0
  -21.9185   -4.6967   22.3396 C   0  0  0  0  0  0
  -22.7737  -13.5185   21.1912 C   0  0  0  0  0  0
  -22.1653   -4.2157   21.0969 F   0  0  0  0  0  0
  -21.5626   -3.4522   25.7732 F   0  0  0  0  0  0
  -29.8620  -14.0273   20.3228 N   0  0  0  0  0  0
  -26.2811  -12.9565   20.3193 N   0  0  0  0  0  0
  -25.9347  -11.6658   20.5672 N   0  0  0  0  0  0
  -22.0373  -12.8185   22.0466 N   0  0  0  0  0  0
  -25.4009  -15.2006   20.4277 N   0  0  0  0  0  0
  -31.6055  -15.3665   20.0755 O   0  0  0  0  0  0
  -21.6639   -6.8869   21.4223 O   0  0  0  0  0  0
  -22.3408  -14.5469   20.6725 O   0  0  0  0  0  0
  -24.6692  -31.8167   23.1650 C   0  0  0  0  0  0
  -25.9350  -32.4549   23.8140 C   0  0  1  0  0  0
  -27.2242  -26.8737   20.1735 C   0  0  0  0  0  0
  -25.5991  -33.8363   24.2039 N   0  0  0  0  0  0
  -23.4859  -30.4247   21.5170 C   0  0  2  0  0  0
  -24.9409  -28.8016   20.1081 C   0  0  0  0  0  0
  -22.7695  -29.4400   22.4783 C   0  0  0  0  0  0
  -18.0314  -28.1408   22.8459 C   0  0  0  0  0  0
  -24.1493  -36.7193   23.2646 C   0  0  0  0  0  0
  -26.0578  -30.6024   21.4048 C   0  0  0  0  0  0
  -26.1245  -29.1879   20.7475 C   0  0  0  0  0  0
  -27.2553  -28.2448   20.7568 C   0  0  0  0  0  0
  -26.0141  -26.6571   19.4767 C   0  0  0  0  0  0
  -24.9142  -27.5583   19.4519 C   0  0  0  0  0  0
  -23.7287  -29.7361   20.1443 C   0  0  0  0  0  0
  -25.4139  -36.2951   24.0298 C   0  0  1  0  0  0
  -20.5944  -28.3756   23.1180 C   0  0  2  0  0  0
  -20.6795  -26.9431   22.5418 C   0  0  0  0  0  0
  -19.5781  -26.6366   21.5221 C   0  0  0  0  0  0
  -18.1955  -26.7935   22.1614 C   0  0  0  0  0  0
  -19.1577  -28.8908   23.2805 C   0  0  0  0  0  0
  -18.9489  -30.1500   23.8835 C   0  0  0  0  0  0
  -17.6482  -30.6603   24.0550 C   0  0  0  0  0  0
  -25.9107  -34.9330   23.5001 C   0  0  0  0  0  0
  -16.5372  -29.9086   23.6349 C   0  0  0  0  0  0
  -16.7294  -28.6512   23.0355 C   0  0  0  0  0  0
  -26.4577  -31.6512   25.0696 C   0  0  0  0  0  0
  -25.3682  -31.3787   26.1341 C   0  0  0  0  0  0
  -27.0476  -30.2861   24.6482 C   0  0  0  0  0  0
  -27.6061  -32.4335   25.7509 C   0  0  0  0  0  0
  -27.5579  -37.1760   24.8467 C   0  0  0  0  0  0
  -21.4360  -29.3023   22.3527 N   0  0  0  0  0  0
  -26.4284  -37.3700   23.9413 N   0  0  0  0  0  0
  -24.7604  -30.9765   22.0825 N   0  0  0  0  0  0
  -23.4212  -28.7976   23.3057 O   0  0  0  0  0  0
  -28.2202  -25.7450   20.2751 O   0  0  0  0  0  0
  -26.5733  -34.8876   22.4602 O   0  0  0  0  0  0
  -23.5758  -32.1159   23.6714 O   0  0  0  0  0  0
  -28.9210  -19.4903   20.7921 C   0  0  0  0  0  0
  -29.6057  -18.2558   20.1801 C   0  0  0  0  0  0
  -29.1099  -20.8197   20.1904 C   0  0  0  0  0  0
  -30.2012  -18.9203   19.1220 C   0  0  0  0  0  0
  -31.0443  -18.3038   18.0427 C   0  0  0  0  0  0
  -30.3998  -21.2472   18.0770 C   0  0  0  0  0  0
  -28.8524  -22.5527   20.5815 C   0  0  0  0  0  0
  -28.1210  -24.1028   19.9093 C   0  0  0  0  0  0
  -29.9077  -20.3459   19.1143 N   0  0  0  0  0  0
  -29.5919  -16.6311   20.4778 N   0  0  0  0  0  0
  -31.4578  -13.0807   19.2047 H   0  0  0  0  0  0
  -30.5195  -11.9777   20.1546 H   0  0  0  0  0  0
  -29.9469  -11.7851   17.6992 H   0  0  0  0  0  0
  -29.5580  -13.4833   17.6458 H   0  0  0  0  0  0
  -28.0655  -11.2865   19.0999 H   0  0  0  0  0  0
  -27.4314  -12.3329   17.8541 H   0  0  0  0  0  0
  -27.5112  -14.2468   19.3043 H   0  0  0  0  0  0
  -28.8280  -12.5637   21.4922 H   0  0  0  0  0  0
  -28.2643  -14.2077   21.6820 H   0  0  0  0  0  0
  -25.2772   -9.5707   22.4744 H   0  0  0  0  0  0
  -24.0020   -7.4637   22.7472 H   0  0  0  0  0  0
  -21.0836   -8.8774   19.8952 H   0  0  0  0  0  0
  -22.3690  -10.9674   19.6149 H   0  0  0  0  0  0
  -21.2024   -7.6152   23.9730 H   0  0  0  0  0  0
  -21.1487   -6.0507   25.9083 H   0  0  0  0  0  0
  -22.0593   -2.7605   23.2822 H   0  0  0  0  0  0
  -22.3993  -11.9879   22.4928 H   0  0  0  0  0  0
  -21.0984  -13.1222   22.2624 H   0  0  0  0  0  0
  -24.6360  -15.8523   20.5651 H   0  0  0  0  0  0
  -26.2446  -15.6470   20.0923 H   0  0  0  0  0  0
  -26.7431  -32.5060   23.0860 H   0  0  0  0  0  0
  -25.0078  -33.9432   25.0150 H   0  0  0  0  0  0
  -22.8034  -31.2603   21.3429 H   0  0  0  0  0  0
  -23.3775  -35.9507   23.3283 H   0  0  0  0  0  0
  -24.3546  -36.8874   22.2065 H   0  0  0  0  0  0
  -23.7235  -37.6366   23.6719 H   0  0  0  0  0  0
  -26.2475  -31.3437   20.6270 H   0  0  0  0  0  0
  -26.9135  -30.6544   22.0662 H   0  0  0  0  0  0
  -28.1483  -28.5376   21.2914 H   0  0  0  0  0  0
  -25.8817  -25.7110   18.9723 H   0  0  0  0  0  0
  -24.0172  -27.2571   18.9285 H   0  0  0  0  0  0
  -23.8893  -30.5035   19.3863 H   0  0  0  0  0  0
  -22.8359  -29.1968   19.8242 H   0  0  0  0  0  0
  -25.1337  -36.1749   25.0795 H   0  0  0  0  0  0
  -21.0021  -28.3368   24.1308 H   0  0  0  0  0  0
  -20.5676  -26.2373   23.3662 H   0  0  0  0  0  0
  -21.6659  -26.7416   22.1234 H   0  0  0  0  0  0
  -19.6948  -25.6261   21.1298 H   0  0  0  0  0  0
  -19.6729  -27.3135   20.6722 H   0  0  0  0  0  0
  -17.4236  -26.6681   21.4008 H   0  0  0  0  0  0
  -18.0347  -26.0091   22.9025 H   0  0  0  0  0  0
  -19.7966  -30.7329   24.2186 H   0  0  0  0  0  0
  -17.5029  -31.6275   24.5165 H   0  0  0  0  0  0
  -15.5367  -30.2962   23.7709 H   0  0  0  0  0  0
  -15.8692  -28.0804   22.7101 H   0  0  0  0  0  0
  -24.5876  -30.7126   25.7649 H   0  0  0  0  0  0
  -24.8851  -32.2992   26.4628 H   0  0  0  0  0  0
  -25.7886  -30.9042   27.0217 H   0  0  0  0  0  0
  -26.3145  -29.6518   24.1484 H   0  0  0  0  0  0
  -27.3967  -29.7251   25.5164 H   0  0  0  0  0  0
  -27.9111  -30.4015   23.9927 H   0  0  0  0  0  0
  -27.2624  -33.3691   26.1938 H   0  0  0  0  0  0
  -28.3949  -32.6812   25.0391 H   0  0  0  0  0  0
  -28.0641  -31.8555   26.5551 H   0  0  0  0  0  0
  -28.2589  -38.0065   24.7516 H   0  0  0  0  0  0
  -28.1088  -36.2594   24.6294 H   0  0  0  0  0  0
  -27.2293  -37.1409   25.8869 H   0  0  0  0  0  0
  -20.9640  -29.8686   21.6614 H   0  0  0  0  0  0
  -26.0133  -38.2770   24.1387 H   0  0  0  0  0  0
  -28.3274  -19.4073   21.6907 H   0  0  0  0  0  0
  -31.5633  -17.4205   18.4126 H   0  0  0  0  0  0
  -31.8165  -18.9773   17.6788 H   0  0  0  0  0  0
  -30.4369  -17.9935   17.1923 H   0  0  0  0  0  0
  -31.4825  -21.1760   17.9859 H   0  0  0  0  0  0
  -30.1520  -22.2826   18.3019 H   0  0  0  0  0  0
  -29.9440  -20.9944   17.1188 H   0  0  0  0  0  0
  -29.8699  -22.8862   20.7861 H   0  0  0  0  0  0
  -28.4094  -22.5198   21.5759 H   0  0  0  0  0  0
  -27.0504  -23.9028   19.8646 H   0  0  0  0  0  0
  -28.4317  -24.0958   18.8636 H   0  0  0  0  0  0
  -28.6984  -16.3614   20.8589 H   0  0  0  0  0  0
  1 25  1  0  0  0
  1 30  2  0  0  0
  1 80  1  0  0  0
  2  3  1  0  0  0
  2 25  1  0  0  0
  2 81  1  0  0  0
  2 82  1  0  0  0
  3  4  1  0  0  0
  3 83  1  0  0  0
  3 84  1  0  0  0
  4  5  1  0  0  0
  4 85  1  0  0  0
  4 86  1  0  0  0
  5  6  1  0  0  0
  5 26  1  0  0  0
  5 87  1  0  0  0
  6 25  1  0  0  0
  6 88  1  0  0  0
  6 89  1  0  0  0
  7  8  2  0  0  0
  7 26  1  0  0  0
  7 29  1  0  0  0
  8  9  1  0  0  0
  8 22  1  0  0  0
  9 10  1  0  0  0
  9 27  2  0  0  0
 10 11  2  0  0  0
 10 15  1  0  0  0
 11 12  1  0  0  0
 11 90  1  0  0  0
 12 13  2  0  0  0
 12 91  1  0  0  0
 13 14  1  0  0  0
 13 31  1  0  0  0
 14 15  2  0  0  0
 14 92  1  0  0  0
 15 93  1  0  0  0
 16 17  2  0  0  0
 16 21  1  0  0  0
 16 31  1  0  0  0
 17 18  1  0  0  0
 17 94  1  0  0  0
 18 19  2  0  0  0
 18 95  1  0  0  0
 19 20  1  0  0  0
 19 24  1  0  0  0
 20 21  2  0  0  0
 20 96  1  0  0  0
 21 23  1  0  0  0
 22 28  1  0  0  0
 22 32  2  0  0  0
 26 27  1  0  0  0
 28 97  1  0  0  0
 28 98  1  0  0  0
 29 99  1  0  0  0
 29100  1  0  0  0
 33 34  1  0  0  0
 33 66  1  0  0  0
 33 70  2  0  0  0
 34 36  1  0  0  0
 34 59  1  0  0  0
 34101  1  0  0  0
 35 44  2  0  0  0
 35 45  1  0  0  0
 35 68  1  0  0  0
 36 56  1  0  0  0
 36102  1  0  0  0
 37 39  1  0  0  0
 37 47  1  0  0  0
 37 66  1  0  0  0
 37103  1  0  0  0
 38 43  2  0  0  0
 38 46  1  0  0  0
 38 47  1  0  0  0
 39 64  1  0  0  0
 39 67  2  0  0  0
 40 52  1  0  0  0
 40 53  2  0  0  0
 40 58  1  0  0  0
 41104  1  0  0  0
 41105  1  0  0  0
 41106  1  0  0  0
 41 48  1  0  0  0
 42 43  1  0  0  0
 42 66  1  0  0  0
 42107  1  0  0  0
 42108  1  0  0  0
 43 44  1  0  0  0
 44109  1  0  0  0
 45 46  2  0  0  0
 45110  1  0  0  0
 46111  1  0  0  0
 47112  1  0  0  0
 47113  1  0  0  0
 48 56  1  0  0  0
 48 65  1  0  0  0
 48114  1  0  0  0
 49 50  1  0  0  0
 49 53  1  0  0  0
 49 64  1  0  0  0
 49115  1  0  0  0
 50 51  1  0  0  0
 50116  1  0  0  0
 50117  1  0  0  0
 51 52  1  0  0  0
 51118  1  0  0  0
 51119  1  0  0  0
 52120  1  0  0  0
 52121  1  0  0  0
 53 54  1  0  0  0
 54 55  2  0  0  0
 54122  1  0  0  0
 55 57  1  0  0  0
 55123  1  0  0  0
 56 69  2  0  0  0
 57 58  2  0  0  0
 57124  1  0  0  0
 58125  1  0  0  0
 59 60  1  0  0  0
 59 61  1  0  0  0
 59 62  1  0  0  0
 60126  1  0  0  0
 60127  1  0  0  0
 60128  1  0  0  0
 61129  1  0  0  0
 61130  1  0  0  0
 61131  1  0  0  0
 62132  1  0  0  0
 62133  1  0  0  0
 62134  1  0  0  0
 63 65  1  0  0  0
 63135  1  0  0  0
 63136  1  0  0  0
 63137  1  0  0  0
 64138  1  0  0  0
 65139  1  0  0  0
 68 78  1  0  0  0
 71 72  1  0  0  0
 71 73  2  0  0  0
 71140  1  0  0  0
 72 74  2  0  0  0
 72 80  1  0  0  0
 73 77  1  0  0  0
 73 79  1  0  0  0
 74 75  1  0  0  0
 74 79  1  0  0  0
 75141  1  0  0  0
 75142  1  0  0  0
 75143  1  0  0  0
 76 79  1  0  0  0
 76144  1  0  0  0
 76145  1  0  0  0
 76146  1  0  0  0
 77 78  1  0  0  0
 77147  1  0  0  0
 77148  1  0  0  0
 78149  1  0  0  0
 78150  1  0  0  0
 80151  1  0  0  0
M  ISO  4   1 100  68 101  78 101  80 100
M  END
> <chiral flag>
0

> <version>
0

> <s_m_source_file>
/data/baiqing/PycharmProjects/Reinvent-master-3.2/result/LINK_invent/BTK/process_docking_weight1_custom_sum_contain_oxygen_bond_distance_aromatic_linkinvent_7_9_3/rearranged_h_0030.sdf

> <i_m_source_file_index>
18

> <r_mmod_Potential_Energy-OPLS-2005>
1470.91333007812

> <r_mmod_Stretch_Energy-OPLS-2005>
675.171325683594

> <r_mmod_Bend_Energy-OPLS-2005>
490.710571289062

> <r_mmod_Torsional_Energy-OPLS-2005>
231.317840576172

> <r_mmod_Improper_Torsional_Energy-OPLS-2005>
3.7384340763092

> <r_mmod_Van_der_Waal_Energy-OPLS-2005>
107.603515625

> <r_mmod_Electrostatic_Energy-OPLS-2005>
-377.457489013672

> <r_mmod_Solvation_Energy-OPLS-2005>
-217.860488891602

> <b_mmod_Minimization_Converged-OPLS-2005>
0

> <r_mmod_RMS_Derivative-OPLS-2005>
3.2236590385437

$$$$
18
                    3D
 Structure written by MMmdl.
155164  0  0  1  0            999 V2000
  -30.6232  -14.7725   20.4680 C   0  0  0  0  0  0
  -30.4421  -12.4753   19.4917 C   0  0  0  0  0  0
  -29.5233  -12.5032   18.2499 C   0  0  0  0  0  0
  -28.0487  -12.3278   18.6573 C   0  0  0  0  0  0
  -27.6483  -13.2361   19.8512 C   0  0  2  0  0  0
  -28.6896  -13.1840   20.9918 C   0  0  0  0  0  0
  -25.2564  -13.8234   20.5695 C   0  0  0  0  0  0
  -24.1851  -13.0474   20.9211 C   0  0  0  0  0  0
  -24.6429  -11.6957   20.8729 C   0  0  0  0  0  0
  -23.9091  -10.4329   21.0387 C   0  0  0  0  0  0
  -24.3637   -9.4245   21.9171 C   0  0  0  0  0  0
  -23.6316   -8.2276   22.0750 C   0  0  0  0  0  0
  -22.4302   -8.0304   21.3534 C   0  0  0  0  0  0
  -21.9948   -9.0282   20.4645 C   0  0  0  0  0  0
  -22.7260  -10.2167   20.3047 C   0  0  0  0  0  0
  -21.6866   -6.0750   22.5272 C   0  0  0  0  0  0
  -21.4011   -6.5637   23.8202 C   0  0  0  0  0  0
  -21.3672   -5.6787   24.9163 C   0  0  0  0  0  0
  -21.6061   -4.3043   24.7218 C   0  0  0  0  0  0
  -21.8816   -3.8150   23.4329 C   0  0  0  0  0  0
  -21.9205   -4.6983   22.3396 C   0  0  0  0  0  0
  -22.7870  -13.5255   21.1877 C   0  0  0  0  0  0
  -22.1685   -4.2174   21.0980 F   0  0  0  0  0  0
  -21.5642   -3.4528   25.7728 F   0  0  0  0  0  0
  -29.9937  -13.5436   20.4203 N   0  0  0  0  0  0
  -26.2985  -12.9432   20.3269 N   0  0  0  0  0  0
  -25.9360  -11.6567   20.5704 N   0  0  0  0  0  0
  -22.0488  -12.8232   22.0409 N   0  0  0  0  0  0
  -25.4277  -15.1962   20.4141 N   0  0  0  0  0  0
  -31.7958  -14.8607   20.0946 O   0  0  0  0  0  0
  -21.6653   -6.8904   21.4240 O   0  0  0  0  0  0
  -22.3542  -14.5559   20.6730 O   0  0  0  0  0  0
  -24.6310  -31.8550   23.1971 C   0  0  0  0  0  0
  -25.9119  -32.4762   23.8335 C   0  0  1  0  0  0
  -27.2354  -27.2554   20.1424 C   0  0  0  0  0  0
  -25.5918  -33.8565   24.2264 N   0  0  0  0  0  0
  -23.4308  -30.4731   21.5391 C   0  0  2  0  0  0
  -24.8839  -28.9190   20.1148 C   0  0  0  0  0  0
  -22.7486  -29.4590   22.4897 C   0  0  0  0  0  0
  -18.0287  -28.1374   22.8495 C   0  0  0  0  0  0
  -24.1494  -36.7286   23.2638 C   0  0  0  0  0  0
  -25.9763  -30.7674   21.3791 C   0  0  0  0  0  0
  -26.0513  -29.3845   20.7315 C   0  0  0  0  0  0
  -27.2266  -28.5630   20.7395 C   0  0  0  0  0  0
  -26.0468  -26.8695   19.4776 C   0  0  0  0  0  0
  -24.8846  -27.6680   19.4793 C   0  0  0  0  0  0
  -23.6513  -29.8008   20.1582 C   0  0  0  0  0  0
  -25.4128  -36.3088   24.0327 C   0  0  1  0  0  0
  -20.5893  -28.3709   23.1261 C   0  0  2  0  0  0
  -20.6768  -26.9420   22.5405 C   0  0  0  0  0  0
  -19.5740  -26.6374   21.5209 C   0  0  0  0  0  0
  -18.1926  -26.7917   22.1629 C   0  0  0  0  0  0
  -19.1546  -28.8853   23.2884 C   0  0  0  0  0  0
  -18.9460  -30.1450   23.8921 C   0  0  0  0  0  0
  -17.6462  -30.6588   24.0554 C   0  0  0  0  0  0
  -25.9068  -34.9448   23.5111 C   0  0  0  0  0  0
  -16.5347  -29.9088   23.6329 C   0  0  0  0  0  0
  -16.7276  -28.6488   23.0377 C   0  0  0  0  0  0
  -26.4487  -31.6584   25.0725 C   0  0  0  0  0  0
  -25.3691  -31.3724   26.1437 C   0  0  0  0  0  0
  -27.0308  -30.2990   24.6205 C   0  0  0  0  0  0
  -27.6058  -32.4299   25.7495 C   0  0  0  0  0  0
  -27.5593  -37.1794   24.8474 C   0  0  0  0  0  0
  -21.4190  -29.3046   22.3634 N   0  0  0  0  0  0
  -26.4308  -37.3779   23.9408 N   0  0  0  0  0  0
  -24.6982  -31.0500   22.0954 N   0  0  0  0  0  0
  -23.4173  -28.8148   23.3014 O   0  0  0  0  0  0
  -28.3364  -26.3598   20.2118 O   0  0  0  0  0  0
  -26.5632  -34.8905   22.4675 O   0  0  0  0  0  0
  -23.5459  -32.1374   23.7259 O   0  0  0  0  0  0
  -29.7385  -21.2913   22.1144 C   0  0  0  0  0  0
  -30.2467  -18.8721   22.2335 C   0  0  0  0  0  0
  -30.1874  -20.1535   22.8396 C   0  0  0  0  0  0
  -29.3413  -21.1091   20.7753 C   0  0  0  0  0  0
  -29.8636  -18.7204   20.8851 C   0  0  0  0  0  0
  -29.7313  -22.6926   22.7563 C   0  0  0  0  0  0
  -28.7737  -22.3587   19.9783 C   0  0  0  0  0  0
  -28.7891  -23.7452   22.1146 C   0  0  0  0  0  0
  -28.9283  -23.8527   20.5840 C   0  0  2  0  0  0
  -30.1220  -17.3317   20.1251 C   0  0  0  0  0  0
  -29.4116  -19.8426   20.1874 N   0  0  0  0  0  0
  -29.8726  -15.9205   20.6892 N   0  0  0  0  0  0
  -27.9646  -24.8820   20.0109 N   0  0  0  0  0  0
  -30.7221  -17.8104   22.9299 F   0  0  0  0  0  0
  -30.7101  -20.3176   24.4829 Cl  0  0  0  0  0  0
  -31.4794  -12.6062   19.1830 H   0  0  0  0  0  0
  -30.4064  -11.5028   19.9837 H   0  0  0  0  0  0
  -29.8161  -11.7163   17.5534 H   0  0  0  0  0  0
  -29.6555  -13.4470   17.7168 H   0  0  0  0  0  0
  -27.9028  -11.2824   18.9242 H   0  0  0  0  0  0
  -27.3952  -12.5182   17.8059 H   0  0  0  0  0  0
  -27.6405  -14.2522   19.4595 H   0  0  0  0  0  0
  -28.7243  -12.1875   21.4380 H   0  0  0  0  0  0
  -28.4203  -13.8724   21.7916 H   0  0  0  0  0  0
  -25.2771   -9.5743   22.4731 H   0  0  0  0  0  0
  -24.0059   -7.4661   22.7441 H   0  0  0  0  0  0
  -21.0909   -8.8776   19.8918 H   0  0  0  0  0  0
  -22.3714  -10.9699   19.6147 H   0  0  0  0  0  0
  -21.1972   -7.6135   23.9712 H   0  0  0  0  0  0
  -21.1501   -6.0506   25.9067 H   0  0  0  0  0  0
  -22.0590   -2.7624   23.2808 H   0  0  0  0  0  0
  -22.4138  -11.9940   22.4825 H   0  0  0  0  0  0
  -21.1072  -13.1199   22.2552 H   0  0  0  0  0  0
  -24.6680  -15.8560   20.5449 H   0  0  0  0  0  0
  -26.2707  -15.6328   20.0637 H   0  0  0  0  0  0
  -26.7182  -32.5422   23.1074 H   0  0  0  0  0  0
  -25.0017  -33.9720   25.0379 H   0  0  0  0  0  0
  -22.7312  -31.2975   21.3870 H   0  0  0  0  0  0
  -23.3763  -35.9611   23.3314 H   0  0  0  0  0  0
  -24.3589  -36.8901   22.2055 H   0  0  0  0  0  0
  -23.7232  -37.6479   23.6653 H   0  0  0  0  0  0
  -26.1076  -31.5241   20.6046 H   0  0  0  0  0  0
  -26.8561  -30.8251   22.0081 H   0  0  0  0  0  0
  -28.1201  -28.9149   21.2343 H   0  0  0  0  0  0
  -25.9836  -25.9216   18.9617 H   0  0  0  0  0  0
  -23.9921  -27.3050   18.9905 H   0  0  0  0  0  0
  -23.7686  -30.5730   19.3969 H   0  0  0  0  0  0
  -22.7730  -29.2238   19.8605 H   0  0  0  0  0  0
  -25.1304  -36.1944   25.0816 H   0  0  0  0  0  0
  -21.0009  -28.3270   24.1372 H   0  0  0  0  0  0
  -20.5661  -26.2304   23.3608 H   0  0  0  0  0  0
  -21.6626  -26.7409   22.1199 H   0  0  0  0  0  0
  -19.6901  -25.6277   21.1258 H   0  0  0  0  0  0
  -19.6678  -27.3168   20.6731 H   0  0  0  0  0  0
  -17.4184  -26.6683   21.4037 H   0  0  0  0  0  0
  -18.0326  -26.0052   22.9025 H   0  0  0  0  0  0
  -19.7934  -30.7263   24.2296 H   0  0  0  0  0  0
  -17.5013  -31.6279   24.5121 H   0  0  0  0  0  0
  -15.5350  -30.2997   23.7637 H   0  0  0  0  0  0
  -15.8675  -28.0804   22.7113 H   0  0  0  0  0  0
  -24.5884  -30.7074   25.7728 H   0  0  0  0  0  0
  -24.8867  -32.2891   26.4839 H   0  0  0  0  0  0
  -25.8001  -30.8892   27.0224 H   0  0  0  0  0  0
  -26.2879  -29.6749   24.1228 H   0  0  0  0  0  0
  -27.3968  -29.7246   25.4733 H   0  0  0  0  0  0
  -27.8782  -30.4253   23.9458 H   0  0  0  0  0  0
  -27.2692  -33.3602   26.2082 H   0  0  0  0  0  0
  -28.3867  -32.6845   25.0312 H   0  0  0  0  0  0
  -28.0725  -31.8401   26.5404 H   0  0  0  0  0  0
  -28.2603  -38.0095   24.7509 H   0  0  0  0  0  0
  -28.1077  -36.2615   24.6308 H   0  0  0  0  0  0
  -27.2295  -37.1467   25.8870 H   0  0  0  0  0  0
  -20.9369  -29.8749   21.6829 H   0  0  0  0  0  0
  -26.0193  -38.2851   24.1392 H   0  0  0  0  0  0
  -30.7545  -23.0695   22.7231 H   0  0  0  0  0  0
  -29.4712  -22.6211   23.8127 H   0  0  0  0  0  0
  -27.7092  -22.1632   19.8452 H   0  0  0  0  0  0
  -29.1965  -22.3405   18.9750 H   0  0  0  0  0  0
  -28.9747  -24.7169   22.5752 H   0  0  0  0  0  0
  -27.7609  -23.4814   22.3632 H   0  0  0  0  0  0
  -29.9453  -24.1847   20.3674 H   0  0  0  0  0  0
  -31.1685  -17.3714   19.8201 H   0  0  0  0  0  0
  -29.5653  -17.3828   19.1884 H   0  0  0  0  0  0
  -28.9407  -15.7669   21.0401 H   0  0  0  0  0  0
  -27.0525  -24.7752   20.4447 H   0  0  0  0  0  0
  1 25  1  0  0  0
  1 30  2  0  0  0
  1 82  1  0  0  0
  2  3  1  0  0  0
  2 25  1  0  0  0
  2 86  1  0  0  0
  2 87  1  0  0  0
  3  4  1  0  0  0
  3 88  1  0  0  0
  3 89  1  0  0  0
  4  5  1  0  0  0
  4 90  1  0  0  0
  4 91  1  0  0  0
  5  6  1  0  0  0
  5 26  1  0  0  0
  5 92  1  0  0  0
  6 25  1  0  0  0
  6 93  1  0  0  0
  6 94  1  0  0  0
  7  8  2  0  0  0
  7 26  1  0  0  0
  7 29  1  0  0  0
  8  9  1  0  0  0
  8 22  1  0  0  0
  9 10  1  0  0  0
  9 27  2  0  0  0
 10 11  2  0  0  0
 10 15  1  0  0  0
 11 12  1  0  0  0
 11 95  1  0  0  0
 12 13  2  0  0  0
 12 96  1  0  0  0
 13 14  1  0  0  0
 13 31  1  0  0  0
 14 15  2  0  0  0
 14 97  1  0  0  0
 15 98  1  0  0  0
 16 17  2  0  0  0
 16 21  1  0  0  0
 16 31  1  0  0  0
 17 18  1  0  0  0
 17 99  1  0  0  0
 18 19  2  0  0  0
 18100  1  0  0  0
 19 20  1  0  0  0
 19 24  1  0  0  0
 20 21  2  0  0  0
 20101  1  0  0  0
 21 23  1  0  0  0
 22 28  1  0  0  0
 22 32  2  0  0  0
 26 27  1  0  0  0
 28102  1  0  0  0
 28103  1  0  0  0
 29104  1  0  0  0
 29105  1  0  0  0
 33 34  1  0  0  0
 33 66  1  0  0  0
 33 70  2  0  0  0
 34 36  1  0  0  0
 34 59  1  0  0  0
 34106  1  0  0  0
 35 44  2  0  0  0
 35 45  1  0  0  0
 35 68  1  0  0  0
 36 56  1  0  0  0
 36107  1  0  0  0
 37 39  1  0  0  0
 37 47  1  0  0  0
 37 66  1  0  0  0
 37108  1  0  0  0
 38 43  2  0  0  0
 38 46  1  0  0  0
 38 47  1  0  0  0
 39 64  1  0  0  0
 39 67  2  0  0  0
 40 52  1  0  0  0
 40 53  2  0  0  0
 40 58  1  0  0  0
 41109  1  0  0  0
 41110  1  0  0  0
 41111  1  0  0  0
 41 48  1  0  0  0
 42 43  1  0  0  0
 42 66  1  0  0  0
 42112  1  0  0  0
 42113  1  0  0  0
 43 44  1  0  0  0
 44114  1  0  0  0
 45 46  2  0  0  0
 45115  1  0  0  0
 46116  1  0  0  0
 47117  1  0  0  0
 47118  1  0  0  0
 48 56  1  0  0  0
 48 65  1  0  0  0
 48119  1  0  0  0
 49 50  1  0  0  0
 49 53  1  0  0  0
 49 64  1  0  0  0
 49120  1  0  0  0
 50 51  1  0  0  0
 50121  1  0  0  0
 50122  1  0  0  0
 51 52  1  0  0  0
 51123  1  0  0  0
 51124  1  0  0  0
 52125  1  0  0  0
 52126  1  0  0  0
 53 54  1  0  0  0
 54 55  2  0  0  0
 54127  1  0  0  0
 55 57  1  0  0  0
 55128  1  0  0  0
 56 69  2  0  0  0
 57 58  2  0  0  0
 57129  1  0  0  0
 58130  1  0  0  0
 59 60  1  0  0  0
 59 61  1  0  0  0
 59 62  1  0  0  0
 60131  1  0  0  0
 60132  1  0  0  0
 60133  1  0  0  0
 61134  1  0  0  0
 61135  1  0  0  0
 61136  1  0  0  0
 62137  1  0  0  0
 62138  1  0  0  0
 62139  1  0  0  0
 63 65  1  0  0  0
 63140  1  0  0  0
 63141  1  0  0  0
 63142  1  0  0  0
 64143  1  0  0  0
 65144  1  0  0  0
 68 83  1  0  0  0
 71 73  1  0  0  0
 71 74  2  0  0  0
 71 76  1  0  0  0
 72 73  2  0  0  0
 72 75  1  0  0  0
 72 84  1  0  0  0
 73 85  1  0  0  0
 74 77  1  0  0  0
 74 81  1  0  0  0
 75 80  1  0  0  0
 75 81  2  0  0  0
 76 78  1  0  0  0
 76145  1  0  0  0
 76146  1  0  0  0
 77 79  1  0  0  0
 77147  1  0  0  0
 77148  1  0  0  0
 78 79  1  0  0  0
 78149  1  0  0  0
 78150  1  0  0  0
 79 83  1  0  0  0
 79151  1  0  0  0
 80 82  1  0  0  0
 80152  1  0  0  0
 80153  1  0  0  0
 82154  1  0  0  0
 83155  1  0  0  0
M  ISO  4   1 100  68 101  82 100  83 101
M  END
> <chiral flag>
0

> <version>
0

> <s_m_source_file>
/data/baiqing/PycharmProjects/Reinvent-master-3.2/result/LINK_invent/BTK/process_docking_weight1_custom_sum_contain_oxygen_bond_distance_aromatic_linkinvent_7_9_3/rearranged_h_0030.sdf

> <i_m_source_file_index>
19

> <r_mmod_Potential_Energy-OPLS-2005>
10.7286148071289

> <r_mmod_Stretch_Energy-OPLS-2005>
132.548446655273

> <r_mmod_Bend_Energy-OPLS-2005>
171.438201904297

> <r_mmod_Torsional_Energy-OPLS-2005>
216.230316162109

> <r_mmod_Improper_Torsional_Energy-OPLS-2005>
7.25591468811035

> <r_mmod_Van_der_Waal_Energy-OPLS-2005>
143.205337524414

> <r_mmod_Electrostatic_Energy-OPLS-2005>
-524.245544433594

> <r_mmod_Solvation_Energy-OPLS-2005>
-228.629150390625

> <b_mmod_Minimization_Converged-OPLS-2005>
0

> <r_mmod_RMS_Derivative-OPLS-2005>
3.45242142677307

$$$$
19
                    3D
 Structure written by MMmdl.
159167  0  0  1  0            999 V2000
  -30.5792  -14.8041   20.4731 C   0  0  0  0  0  0
  -30.4441  -12.5036   19.4626 C   0  0  0  0  0  0
  -29.5072  -12.5125   18.2324 C   0  0  0  0  0  0
  -28.0368  -12.3215   18.6547 C   0  0  0  0  0  0
  -27.6375  -13.2314   19.8456 C   0  0  2  0  0  0
  -28.6870  -13.1850   20.9758 C   0  0  0  0  0  0
  -25.2503  -13.8186   20.5704 C   0  0  0  0  0  0
  -24.1796  -13.0429   20.9214 C   0  0  0  0  0  0
  -24.6397  -11.6913   20.8763 C   0  0  0  0  0  0
  -23.9080  -10.4284   21.0418 C   0  0  0  0  0  0
  -24.3631   -9.4191   21.9188 C   0  0  0  0  0  0
  -23.6296   -8.2230   22.0752 C   0  0  0  0  0  0
  -22.4275   -8.0278   21.3541 C   0  0  0  0  0  0
  -21.9923   -9.0253   20.4639 C   0  0  0  0  0  0
  -22.7260  -10.2132   20.3054 C   0  0  0  0  0  0
  -21.6856   -6.0732   22.5274 C   0  0  0  0  0  0
  -21.4016   -6.5638   23.8206 C   0  0  0  0  0  0
  -21.3659   -5.6789   24.9166 C   0  0  0  0  0  0
  -21.6041   -4.3050   24.7217 C   0  0  0  0  0  0
  -21.8821   -3.8147   23.4337 C   0  0  0  0  0  0
  -21.9192   -4.6960   22.3394 C   0  0  0  0  0  0
  -22.7815  -13.5200   21.1870 C   0  0  0  0  0  0
  -22.1660   -4.2151   21.0970 F   0  0  0  0  0  0
  -21.5630   -3.4539   25.7730 F   0  0  0  0  0  0
  -29.9745  -13.5671   20.3801 N   0  0  0  0  0  0
  -26.2925  -12.9398   20.3280 N   0  0  0  0  0  0
  -25.9327  -11.6542   20.5763 N   0  0  0  0  0  0
  -22.0487  -12.8176   22.0437 N   0  0  0  0  0  0
  -25.4193  -15.1912   20.4109 N   0  0  0  0  0  0
  -31.7872  -14.9132   20.2474 O   0  0  0  0  0  0
  -21.6640   -6.8879   21.4235 O   0  0  0  0  0  0
  -22.3490  -14.5503   20.6717 O   0  0  0  0  0  0
  -24.6340  -31.8557   23.1951 C   0  0  0  0  0  0
  -25.9156  -32.4754   23.8309 C   0  0  1  0  0  0
  -27.2206  -27.2337   20.1569 C   0  0  0  0  0  0
  -25.5943  -33.8548   24.2238 N   0  0  0  0  0  0
  -23.4309  -30.4746   21.5412 C   0  0  2  0  0  0
  -24.8783  -28.9031   20.1287 C   0  0  0  0  0  0
  -22.7528  -29.4591   22.4931 C   0  0  0  0  0  0
  -18.0309  -28.1394   22.8479 C   0  0  0  0  0  0
  -24.1492  -36.7265   23.2640 C   0  0  0  0  0  0
  -25.9785  -30.7566   21.3804 C   0  0  0  0  0  0
  -26.0506  -29.3688   20.7405 C   0  0  0  0  0  0
  -27.2265  -28.5465   20.7452 C   0  0  0  0  0  0
  -26.0278  -26.8355   19.5235 C   0  0  0  0  0  0
  -24.8723  -27.6417   19.5134 C   0  0  0  0  0  0
  -23.6523  -29.7967   20.1625 C   0  0  0  0  0  0
  -25.4112  -36.3055   24.0332 C   0  0  1  0  0  0
  -20.5908  -28.3686   23.1287 C   0  0  2  0  0  0
  -20.6796  -26.9413   22.5412 C   0  0  0  0  0  0
  -19.5771  -26.6381   21.5229 C   0  0  0  0  0  0
  -18.1948  -26.7937   22.1630 C   0  0  0  0  0  0
  -19.1559  -28.8858   23.2875 C   0  0  0  0  0  0
  -18.9484  -30.1466   23.8876 C   0  0  0  0  0  0
  -17.6482  -30.6583   24.0554 C   0  0  0  0  0  0
  -25.9060  -34.9434   23.5084 C   0  0  0  0  0  0
  -16.5370  -29.9072   23.6343 C   0  0  0  0  0  0
  -16.7297  -28.6501   23.0343 C   0  0  0  0  0  0
  -26.4504  -31.6587   25.0710 C   0  0  0  0  0  0
  -25.3713  -31.3734   26.1416 C   0  0  0  0  0  0
  -27.0357  -30.3014   24.6186 C   0  0  0  0  0  0
  -27.6054  -32.4332   25.7483 C   0  0  0  0  0  0
  -27.5571  -37.1774   24.8468 C   0  0  0  0  0  0
  -21.4235  -29.3027   22.3667 N   0  0  0  0  0  0
  -26.4278  -37.3757   23.9417 N   0  0  0  0  0  0
  -24.7003  -31.0475   22.0948 N   0  0  0  0  0  0
  -23.4212  -28.8130   23.3047 O   0  0  0  0  0  0
  -28.3291  -26.3764   19.9908 O   0  0  0  0  0  0
  -26.5629  -34.8911   22.4652 O   0  0  0  0  0  0
  -23.5478  -32.1407   23.7207 O   0  0  0  0  0  0
  -27.7135  -21.0102   21.6647 C   0  0  0  0  0  0
  -28.6888  -21.2093   20.6755 C   0  0  0  0  0  0
  -28.9929  -22.6118   20.3508 C   0  0  0  0  0  0
  -28.3190  -23.7598   20.9864 C   0  0  0  0  0  0
  -27.3008  -23.4292   21.9309 C   0  0  0  0  0  0
  -27.0234  -22.0763   22.2645 C   0  0  0  0  0  0
  -30.0507  -22.8679   19.2898 C   0  0  0  0  0  0
  -26.5340  -24.5380   22.6496 C   0  0  0  0  0  0
  -29.1338  -19.8729   19.8993 C   0  0  0  0  0  0
  -28.7824  -25.3131   20.9419 C   0  0  0  0  0  0
  -30.2125  -18.7393   20.3752 C   0  0  0  0  0  0
  -29.9581  -17.3430   21.1953 C   0  0  0  0  0  0
  -29.7584  -15.9235   20.6211 N   0  0  0  0  0  0
  -25.8210  -21.6582   23.4364 Cl  0  0  0  0  0  0
  -31.4763  -12.6680   19.1477 H   0  0  0  0  0  0
  -30.4285  -11.5326   19.9615 H   0  0  0  0  0  0
  -29.7984  -11.7311   17.5293 H   0  0  0  0  0  0
  -29.6126  -13.4587   17.6988 H   0  0  0  0  0  0
  -27.9069  -11.2750   18.9331 H   0  0  0  0  0  0
  -27.3723  -12.4953   17.8072 H   0  0  0  0  0  0
  -27.6201  -14.2478   19.4516 H   0  0  0  0  0  0
  -28.7441  -12.1883   21.4154 H   0  0  0  0  0  0
  -28.4120  -13.8626   21.7870 H   0  0  0  0  0  0
  -25.2778   -9.5660   22.4759 H   0  0  0  0  0  0
  -24.0003   -7.4617   22.7475 H   0  0  0  0  0  0
  -21.0854   -8.8769   19.8943 H   0  0  0  0  0  0
  -22.3719  -10.9668   19.6158 H   0  0  0  0  0  0
  -21.2010   -7.6147   23.9707 H   0  0  0  0  0  0
  -21.1480   -6.0521   25.9069 H   0  0  0  0  0  0
  -22.0602   -2.7608   23.2833 H   0  0  0  0  0  0
  -22.4128  -11.9826   22.4794 H   0  0  0  0  0  0
  -21.1098  -13.1172   22.2663 H   0  0  0  0  0  0
  -24.6534  -15.8457   20.5247 H   0  0  0  0  0  0
  -26.2606  -15.6312   20.0633 H   0  0  0  0  0  0
  -26.7227  -32.5390   23.1047 H   0  0  0  0  0  0
  -25.0131  -33.9688   25.0408 H   0  0  0  0  0  0
  -22.7283  -31.2971   21.3864 H   0  0  0  0  0  0
  -23.3769  -35.9585   23.3311 H   0  0  0  0  0  0
  -24.3588  -36.8885   22.2054 H   0  0  0  0  0  0
  -23.7252  -37.6465   23.6670 H   0  0  0  0  0  0
  -26.1180  -31.5064   20.6009 H   0  0  0  0  0  0
  -26.8582  -30.8154   22.0091 H   0  0  0  0  0  0
  -28.1377  -28.9106   21.1952 H   0  0  0  0  0  0
  -25.9917  -25.8749   19.0279 H   0  0  0  0  0  0
  -23.9753  -27.2813   19.0282 H   0  0  0  0  0  0
  -23.7768  -30.5651   19.3992 H   0  0  0  0  0  0
  -22.7702  -29.2289   19.8614 H   0  0  0  0  0  0
  -25.1315  -36.1883   25.0830 H   0  0  0  0  0  0
  -20.9995  -28.3230   24.1411 H   0  0  0  0  0  0
  -20.5733  -26.2292   23.3604 H   0  0  0  0  0  0
  -21.6657  -26.7447   22.1177 H   0  0  0  0  0  0
  -19.6938  -25.6301   21.1250 H   0  0  0  0  0  0
  -19.6699  -27.3195   20.6765 H   0  0  0  0  0  0
  -17.4228  -26.6724   21.4022 H   0  0  0  0  0  0
  -18.0300  -26.0086   22.9020 H   0  0  0  0  0  0
  -19.7953  -30.7309   24.2208 H   0  0  0  0  0  0
  -17.5023  -31.6257   24.5164 H   0  0  0  0  0  0
  -15.5363  -30.2948   23.7694 H   0  0  0  0  0  0
  -15.8707  -28.0811   22.7044 H   0  0  0  0  0  0
  -24.5914  -30.7052   25.7736 H   0  0  0  0  0  0
  -24.8863  -32.2897   26.4794 H   0  0  0  0  0  0
  -25.8021  -30.8945   27.0217 H   0  0  0  0  0  0
  -26.2931  -29.6762   24.1211 H   0  0  0  0  0  0
  -27.4078  -29.7275   25.4683 H   0  0  0  0  0  0
  -27.8792  -30.4342   23.9408 H   0  0  0  0  0  0
  -27.2687  -33.3671   26.1991 H   0  0  0  0  0  0
  -28.3893  -32.6835   25.0324 H   0  0  0  0  0  0
  -28.0692  -31.8509   26.5452 H   0  0  0  0  0  0
  -28.2570  -38.0083   24.7519 H   0  0  0  0  0  0
  -28.1088  -36.2615   24.6289 H   0  0  0  0  0  0
  -27.2290  -37.1405   25.8869 H   0  0  0  0  0  0
  -20.9437  -29.8706   21.6826 H   0  0  0  0  0  0
  -26.0160  -38.2833   24.1409 H   0  0  0  0  0  0
  -27.4374  -20.0013   21.9365 H   0  0  0  0  0  0
  -29.6317  -22.6863   18.3001 H   0  0  0  0  0  0
  -30.9019  -22.2010   19.4299 H   0  0  0  0  0  0
  -30.4328  -23.8859   19.2984 H   0  0  0  0  0  0
  -27.1486  -24.9700   23.4402 H   0  0  0  0  0  0
  -25.6041  -24.2029   23.1063 H   0  0  0  0  0  0
  -26.2523  -25.3292   21.9573 H   0  0  0  0  0  0
  -29.4859  -20.2253   18.9303 H   0  0  0  0  0  0
  -28.2146  -19.3454   19.6431 H   0  0  0  0  0  0
  -29.8636  -25.2933   20.8243 H   0  0  0  0  0  0
  -28.6860  -25.7373   21.9402 H   0  0  0  0  0  0
  -30.9792  -19.2950   20.9179 H   0  0  0  0  0  0
  -30.7331  -18.4316   19.4681 H   0  0  0  0  0  0
  -29.1353  -17.5228   21.8882 H   0  0  0  0  0  0
  -30.8257  -17.2304   21.8477 H   0  0  0  0  0  0
  -28.7858  -15.6580   20.5942 H   0  0  0  0  0  0
  1 25  1  0  0  0
  1 30  2  0  0  0
  1 83  1  0  0  0
  2  3  1  0  0  0
  2 25  1  0  0  0
  2 85  1  0  0  0
  2 86  1  0  0  0
  3  4  1  0  0  0
  3 87  1  0  0  0
  3 88  1  0  0  0
  4  5  1  0  0  0
  4 89  1  0  0  0
  4 90  1  0  0  0
  5  6  1  0  0  0
  5 26  1  0  0  0
  5 91  1  0  0  0
  6 25  1  0  0  0
  6 92  1  0  0  0
  6 93  1  0  0  0
  7  8  2  0  0  0
  7 26  1  0  0  0
  7 29  1  0  0  0
  8  9  1  0  0  0
  8 22  1  0  0  0
  9 10  1  0  0  0
  9 27  2  0  0  0
 10 11  2  0  0  0
 10 15  1  0  0  0
 11 12  1  0  0  0
 11 94  1  0  0  0
 12 13  2  0  0  0
 12 95  1  0  0  0
 13 14  1  0  0  0
 13 31  1  0  0  0
 14 15  2  0  0  0
 14 96  1  0  0  0
 15 97  1  0  0  0
 16 17  2  0  0  0
 16 21  1  0  0  0
 16 31  1  0  0  0
 17 18  1  0  0  0
 17 98  1  0  0  0
 18 19  2  0  0  0
 18 99  1  0  0  0
 19 20  1  0  0  0
 19 24  1  0  0  0
 20 21  2  0  0  0
 20100  1  0  0  0
 21 23  1  0  0  0
 22 28  1  0  0  0
 22 32  2  0  0  0
 26 27  1  0  0  0
 28101  1  0  0  0
 28102  1  0  0  0
 29103  1  0  0  0
 29104  1  0  0  0
 33 34  1  0  0  0
 33 66  1  0  0  0
 33 70  2  0  0  0
 34 36  1  0  0  0
 34 59  1  0  0  0
 34105  1  0  0  0
 35 44  2  0  0  0
 35 45  1  0  0  0
 35 68  1  0  0  0
 36 56  1  0  0  0
 36106  1  0  0  0
 37 39  1  0  0  0
 37 47  1  0  0  0
 37 66  1  0  0  0
 37107  1  0  0  0
 38 43  2  0  0  0
 38 46  1  0  0  0
 38 47  1  0  0  0
 39 64  1  0  0  0
 39 67  2  0  0  0
 40 52  1  0  0  0
 40 53  2  0  0  0
 40 58  1  0  0  0
 41108  1  0  0  0
 41109  1  0  0  0
 41110  1  0  0  0
 41 48  1  0  0  0
 42 43  1  0  0  0
 42 66  1  0  0  0
 42111  1  0  0  0
 42112  1  0  0  0
 43 44  1  0  0  0
 44113  1  0  0  0
 45 46  2  0  0  0
 45114  1  0  0  0
 46115  1  0  0  0
 47116  1  0  0  0
 47117  1  0  0  0
 48 56  1  0  0  0
 48 65  1  0  0  0
 48118  1  0  0  0
 49 50  1  0  0  0
 49 53  1  0  0  0
 49 64  1  0  0  0
 49119  1  0  0  0
 50 51  1  0  0  0
 50120  1  0  0  0
 50121  1  0  0  0
 51 52  1  0  0  0
 51122  1  0  0  0
 51123  1  0  0  0
 52124  1  0  0  0
 52125  1  0  0  0
 53 54  1  0  0  0
 54 55  2  0  0  0
 54126  1  0  0  0
 55 57  1  0  0  0
 55127  1  0  0  0
 56 69  2  0  0  0
 57 58  2  0  0  0
 57128  1  0  0  0
 58129  1  0  0  0
 59 60  1  0  0  0
 59 61  1  0  0  0
 59 62  1  0  0  0
 60130  1  0  0  0
 60131  1  0  0  0
 60132  1  0  0  0
 61133  1  0  0  0
 61134  1  0  0  0
 61135  1  0  0  0
 62136  1  0  0  0
 62137  1  0  0  0
 62138  1  0  0  0
 63 65  1  0  0  0
 63139  1  0  0  0
 63140  1  0  0  0
 63141  1  0  0  0
 64142  1  0  0  0
 65143  1  0  0  0
 68 80  1  0  0  0
 71 72  2  0  0  0
 71 76  1  0  0  0
 71144  1  0  0  0
 72 73  1  0  0  0
 72 79  1  0  0  0
 73 74  2  0  0  0
 73 77  1  0  0  0
 74 75  1  0  0  0
 74 80  1  0  0  0
 75 76  2  0  0  0
 75 78  1  0  0  0
 76 84  1  0  0  0
 77145  1  0  0  0
 77146  1  0  0  0
 77147  1  0  0  0
 78148  1  0  0  0
 78149  1  0  0  0
 78150  1  0  0  0
 79 81  1  0  0  0
 79151  1  0  0  0
 79152  1  0  0  0
 80153  1  0  0  0
 80154  1  0  0  0
 81 82  1  0  0  0
 81155  1  0  0  0
 81156  1  0  0  0
 82 83  1  0  0  0
 82157  1  0  0  0
 82158  1  0  0  0
 83159  1  0  0  0
M  ISO  4   1 100  68 101  80 101  83 100
M  END
> <chiral flag>
0

> <version>
0

> <s_m_source_file>
/data/baiqing/PycharmProjects/Reinvent-master-3.2/result/LINK_invent/BTK/process_docking_weight1_custom_sum_contain_oxygen_bond_distance_aromatic_linkinvent_7_9_3/rearranged_h_0030.sdf

> <i_m_source_file_index>
20

> <r_mmod_Potential_Energy-OPLS-2005>
372.552337646484

> <r_mmod_Stretch_Energy-OPLS-2005>
153.43132019043

> <r_mmod_Bend_Energy-OPLS-2005>
269.572875976562

> <r_mmod_Torsional_Energy-OPLS-2005>
277.615112304688

> <r_mmod_Improper_Torsional_Energy-OPLS-2005>
8.83590602874756

> <r_mmod_Van_der_Waal_Energy-OPLS-2005>
132.561737060547

> <r_mmod_Electrostatic_Energy-OPLS-2005>
-370.132537841797

> <r_mmod_Solvation_Energy-OPLS-2005>
-203.924880981445

> <b_mmod_Minimization_Converged-OPLS-2005>
0

> <r_mmod_RMS_Derivative-OPLS-2005>
2.40227437019348

$$$$
20
                    3D
 Structure written by MMmdl.
153161  0  0  1  0            999 V2000
  -30.4152  -15.3434   20.3530 C   0  0  0  0  0  0
  -30.4414  -12.8702   19.5037 C   0  0  0  0  0  0
  -29.5319  -12.5692   18.2848 C   0  0  0  0  0  0
  -28.0916  -12.2739   18.7368 C   0  0  0  0  0  0
  -27.6077  -13.2738   19.8144 C   0  0  2  0  0  0
  -28.6471  -13.4962   20.9332 C   0  0  0  0  0  0
  -25.2391  -13.8244   20.5768 C   0  0  0  0  0  0
  -24.1737  -13.0435   20.9278 C   0  0  0  0  0  0
  -24.6393  -11.6935   20.8793 C   0  0  0  0  0  0
  -23.9091  -10.4296   21.0428 C   0  0  0  0  0  0
  -24.3641   -9.4208   21.9198 C   0  0  0  0  0  0
  -23.6302   -8.2250   22.0765 C   0  0  0  0  0  0
  -22.4280   -8.0296   21.3557 C   0  0  0  0  0  0
  -21.9924   -9.0274   20.4660 C   0  0  0  0  0  0
  -22.7267  -10.2142   20.3071 C   0  0  0  0  0  0
  -21.6855   -6.0744   22.5280 C   0  0  0  0  0  0
  -21.4019   -6.5651   23.8211 C   0  0  0  0  0  0
  -21.3652   -5.6803   24.9171 C   0  0  0  0  0  0
  -21.6036   -4.3062   24.7223 C   0  0  0  0  0  0
  -21.8816   -3.8154   23.4342 C   0  0  0  0  0  0
  -21.9188   -4.6972   22.3400 C   0  0  0  0  0  0
  -22.7753  -13.5196   21.1916 C   0  0  0  0  0  0
  -22.1654   -4.2154   21.0981 F   0  0  0  0  0  0
  -21.5622   -3.4542   25.7741 F   0  0  0  0  0  0
  -29.8551  -14.0286   20.2762 N   0  0  0  0  0  0
  -26.2819  -12.9514   20.3252 N   0  0  0  0  0  0
  -25.9333  -11.6626   20.5765 N   0  0  0  0  0  0
  -22.0398  -12.8185   22.0468 N   0  0  0  0  0  0
  -25.4035  -15.1984   20.4204 N   0  0  0  0  0  0
  -31.6516  -15.3228   20.2530 O   0  0  0  0  0  0
  -21.6645   -6.8887   21.4243 O   0  0  0  0  0  0
  -22.3440  -14.5506   20.6764 O   0  0  0  0  0  0
  -24.6673  -31.8178   23.1653 C   0  0  0  0  0  0
  -25.9338  -32.4555   23.8123 C   0  0  1  0  0  0
  -27.2138  -26.8802   20.1828 C   0  0  0  0  0  0
  -25.5993  -33.8381   24.2015 N   0  0  0  0  0  0
  -23.4842  -30.4291   21.5160 C   0  0  2  0  0  0
  -24.9333  -28.8055   20.1166 C   0  0  0  0  0  0
  -22.7697  -29.4405   22.4767 C   0  0  0  0  0  0
  -18.0340  -28.1432   22.8458 C   0  0  0  0  0  0
  -24.1494  -36.7197   23.2649 C   0  0  0  0  0  0
  -26.0570  -30.6088   21.4026 C   0  0  0  0  0  0
  -26.1211  -29.1931   20.7497 C   0  0  0  0  0  0
  -27.2579  -28.2558   20.7510 C   0  0  0  0  0  0
  -25.9906  -26.6540   19.5121 C   0  0  0  0  0  0
  -24.8955  -27.5575   19.4771 C   0  0  0  0  0  0
  -23.7258  -29.7440   20.1441 C   0  0  0  0  0  0
  -25.4135  -36.2947   24.0290 C   0  0  1  0  0  0
  -20.5959  -28.3773   23.1188 C   0  0  2  0  0  0
  -20.6811  -26.9449   22.5423 C   0  0  0  0  0  0
  -19.5800  -26.6376   21.5229 C   0  0  0  0  0  0
  -18.1964  -26.7970   22.1592 C   0  0  0  0  0  0
  -19.1599  -28.8928   23.2812 C   0  0  0  0  0  0
  -18.9511  -30.1511   23.8861 C   0  0  0  0  0  0
  -17.6501  -30.6615   24.0577 C   0  0  0  0  0  0
  -25.9115  -34.9341   23.4980 C   0  0  0  0  0  0
  -16.5394  -29.9099   23.6364 C   0  0  0  0  0  0
  -16.7319  -28.6527   23.0367 C   0  0  0  0  0  0
  -26.4571  -31.6537   25.0689 C   0  0  0  0  0  0
  -25.3658  -31.3825   26.1327 C   0  0  0  0  0  0
  -27.0477  -30.2890   24.6472 C   0  0  0  0  0  0
  -27.6074  -32.4366   25.7468 C   0  0  0  0  0  0
  -27.5570  -37.1742   24.8454 C   0  0  0  0  0  0
  -21.4357  -29.3041   22.3523 N   0  0  0  0  0  0
  -26.4259  -37.3697   23.9419 N   0  0  0  0  0  0
  -24.7584  -30.9804   22.0810 N   0  0  0  0  0  0
  -23.4224  -28.7993   23.3034 O   0  0  0  0  0  0
  -28.2184  -25.7594   20.1742 O   0  0  0  0  0  0
  -26.5747  -34.8896   22.4584 O   0  0  0  0  0  0
  -23.5724  -32.1166   23.6720 O   0  0  0  0  0  0
  -29.5673  -20.0204   18.6427 C   0  0  0  0  0  0
  -29.4279  -21.2598   17.9460 C   0  0  0  0  0  0
  -29.3336  -19.8513   20.0216 C   0  0  0  0  0  0
  -29.0041  -22.4952   18.5506 C   0  0  0  0  0  0
  -28.6769  -22.5997   19.9319 C   0  0  0  0  0  0
  -28.8732  -21.2145   20.6178 C   0  0  0  0  0  0
  -29.7636  -21.2218   16.4599 C   0  0  0  0  0  0
  -28.8593  -23.7595   17.7019 C   0  0  0  0  0  0
  -29.8017  -18.2792   20.6999 C   0  0  0  0  0  0
  -27.9605  -24.1341   20.4731 C   0  0  0  0  0  0
  -29.6434  -16.6298   20.3381 N   0  0  0  0  0  0
  -28.5212  -21.1807   22.3078 Cl  0  0  0  0  0  0
  -31.4482  -13.1000   19.1529 H   0  0  0  0  0  0
  -30.5458  -11.9885   20.1376 H   0  0  0  0  0  0
  -29.9256  -11.7239   17.7191 H   0  0  0  0  0  0
  -29.5337  -13.4237   17.6068 H   0  0  0  0  0  0
  -28.0847  -11.2655   19.1531 H   0  0  0  0  0  0
  -27.4103  -12.2567   17.8858 H   0  0  0  0  0  0
  -27.5058  -14.2239   19.2881 H   0  0  0  0  0  0
  -28.8482  -12.5770   21.4859 H   0  0  0  0  0  0
  -28.2752  -14.2219   21.6582 H   0  0  0  0  0  0
  -25.2773   -9.5677   22.4793 H   0  0  0  0  0  0
  -23.9996   -7.4635   22.7490 H   0  0  0  0  0  0
  -21.0857   -8.8809   19.8971 H   0  0  0  0  0  0
  -22.3732  -10.9696   19.6200 H   0  0  0  0  0  0
  -21.2024   -7.6157   23.9722 H   0  0  0  0  0  0
  -21.1467   -6.0530   25.9076 H   0  0  0  0  0  0
  -22.0596   -2.7616   23.2847 H   0  0  0  0  0  0
  -22.4007  -11.9839   22.4850 H   0  0  0  0  0  0
  -21.1028  -13.1245   22.2709 H   0  0  0  0  0  0
  -24.6357  -15.8506   20.5366 H   0  0  0  0  0  0
  -26.2495  -15.6413   20.0873 H   0  0  0  0  0  0
  -26.7401  -32.5070   23.0830 H   0  0  0  0  0  0
  -25.0125  -33.9452   25.0156 H   0  0  0  0  0  0
  -22.7997  -31.2627   21.3413 H   0  0  0  0  0  0
  -23.3775  -35.9512   23.3268 H   0  0  0  0  0  0
  -24.3558  -36.8898   22.2068 H   0  0  0  0  0  0
  -23.7230  -37.6357   23.6752 H   0  0  0  0  0  0
  -26.2444  -31.3449   20.6199 H   0  0  0  0  0  0
  -26.9138  -30.6649   22.0607 H   0  0  0  0  0  0
  -28.1643  -28.5609   21.2543 H   0  0  0  0  0  0
  -25.8572  -25.7071   19.0103 H   0  0  0  0  0  0
  -23.9949  -27.2574   18.9566 H   0  0  0  0  0  0
  -23.8847  -30.5107   19.3845 H   0  0  0  0  0  0
  -22.8332  -29.2032   19.8258 H   0  0  0  0  0  0
  -25.1318  -36.1722   25.0773 H   0  0  0  0  0  0
  -21.0052  -28.3404   24.1307 H   0  0  0  0  0  0
  -20.5710  -26.2394   23.3672 H   0  0  0  0  0  0
  -21.6671  -26.7445   22.1227 H   0  0  0  0  0  0
  -19.6980  -25.6273   21.1299 H   0  0  0  0  0  0
  -19.6755  -27.3168   20.6750 H   0  0  0  0  0  0
  -17.4246  -26.6771   21.3961 H   0  0  0  0  0  0
  -18.0319  -26.0101   22.8969 H   0  0  0  0  0  0
  -19.7992  -30.7339   24.2191 H   0  0  0  0  0  0
  -17.5056  -31.6286   24.5192 H   0  0  0  0  0  0
  -15.5398  -30.2995   23.7706 H   0  0  0  0  0  0
  -15.8718  -28.0835   22.7102 H   0  0  0  0  0  0
  -24.5942  -30.7054   25.7633 H   0  0  0  0  0  0
  -24.8716  -32.3015   26.4491 H   0  0  0  0  0  0
  -25.7851  -30.9195   27.0272 H   0  0  0  0  0  0
  -26.3153  -29.6550   24.1469 H   0  0  0  0  0  0
  -27.3980  -29.7270   25.5145 H   0  0  0  0  0  0
  -27.9101  -30.4048   23.9912 H   0  0  0  0  0  0
  -27.2682  -33.3768   26.1829 H   0  0  0  0  0  0
  -28.3978  -32.6770   25.0342 H   0  0  0  0  0  0
  -28.0640  -31.8623   26.5533 H   0  0  0  0  0  0
  -28.2557  -38.0076   24.7525 H   0  0  0  0  0  0
  -28.1099  -36.2603   24.6229 H   0  0  0  0  0  0
  -27.2305  -37.1315   25.8864 H   0  0  0  0  0  0
  -20.9640  -29.8712   21.6622 H   0  0  0  0  0  0
  -26.0111  -38.2741   24.1476 H   0  0  0  0  0  0
  -29.9162  -19.1554   18.0954 H   0  0  0  0  0  0
  -30.1349  -20.2458   16.1493 H   0  0  0  0  0  0
  -30.5381  -21.9476   16.2105 H   0  0  0  0  0  0
  -28.8765  -21.4377   15.8627 H   0  0  0  0  0  0
  -29.0140  -23.6185   16.6350 H   0  0  0  0  0  0
  -29.5738  -24.5138   18.0328 H   0  0  0  0  0  0
  -27.8557  -24.1710   17.8089 H   0  0  0  0  0  0
  -29.4392  -18.3380   21.7262 H   0  0  0  0  0  0
  -30.8816  -18.3931   20.8076 H   0  0  0  0  0  0
  -27.9705  -24.0647   21.5601 H   0  0  0  0  0  0
  -26.9123  -23.9934   20.2137 H   0  0  0  0  0  0
  -28.6664  -16.4065   20.2221 H   0  0  0  0  0  0
  1 25  1  0  0  0
  1 30  2  0  0  0
  1 81  1  0  0  0
  2  3  1  0  0  0
  2 25  1  0  0  0
  2 83  1  0  0  0
  2 84  1  0  0  0
  3  4  1  0  0  0
  3 85  1  0  0  0
  3 86  1  0  0  0
  4  5  1  0  0  0
  4 87  1  0  0  0
  4 88  1  0  0  0
  5  6  1  0  0  0
  5 26  1  0  0  0
  5 89  1  0  0  0
  6 25  1  0  0  0
  6 90  1  0  0  0
  6 91  1  0  0  0
  7  8  2  0  0  0
  7 26  1  0  0  0
  7 29  1  0  0  0
  8  9  1  0  0  0
  8 22  1  0  0  0
  9 10  1  0  0  0
  9 27  2  0  0  0
 10 11  2  0  0  0
 10 15  1  0  0  0
 11 12  1  0  0  0
 11 92  1  0  0  0
 12 13  2  0  0  0
 12 93  1  0  0  0
 13 14  1  0  0  0
 13 31  1  0  0  0
 14 15  2  0  0  0
 14 94  1  0  0  0
 15 95  1  0  0  0
 16 17  2  0  0  0
 16 21  1  0  0  0
 16 31  1  0  0  0
 17 18  1  0  0  0
 17 96  1  0  0  0
 18 19  2  0  0  0
 18 97  1  0  0  0
 19 20  1  0  0  0
 19 24  1  0  0  0
 20 21  2  0  0  0
 20 98  1  0  0  0
 21 23  1  0  0  0
 22 28  1  0  0  0
 22 32  2  0  0  0
 26 27  1  0  0  0
 28 99  1  0  0  0
 28100  1  0  0  0
 29101  1  0  0  0
 29102  1  0  0  0
 33 34  1  0  0  0
 33 66  1  0  0  0
 33 70  2  0  0  0
 34 36  1  0  0  0
 34 59  1  0  0  0
 34103  1  0  0  0
 35 44  2  0  0  0
 35 45  1  0  0  0
 35 68  1  0  0  0
 36 56  1  0  0  0
 36104  1  0  0  0
 37 39  1  0  0  0
 37 47  1  0  0  0
 37 66  1  0  0  0
 37105  1  0  0  0
 38 43  2  0  0  0
 38 46  1  0  0  0
 38 47  1  0  0  0
 39 64  1  0  0  0
 39 67  2  0  0  0
 40 52  1  0  0  0
 40 53  2  0  0  0
 40 58  1  0  0  0
 41106  1  0  0  0
 41107  1  0  0  0
 41108  1  0  0  0
 41 48  1  0  0  0
 42 43  1  0  0  0
 42 66  1  0  0  0
 42109  1  0  0  0
 42110  1  0  0  0
 43 44  1  0  0  0
 44111  1  0  0  0
 45 46  2  0  0  0
 45112  1  0  0  0
 46113  1  0  0  0
 47114  1  0  0  0
 47115  1  0  0  0
 48 56  1  0  0  0
 48 65  1  0  0  0
 48116  1  0  0  0
 49 50  1  0  0  0
 49 53  1  0  0  0
 49 64  1  0  0  0
 49117  1  0  0  0
 50 51  1  0  0  0
 50118  1  0  0  0
 50119  1  0  0  0
 51 52  1  0  0  0
 51120  1  0  0  0
 51121  1  0  0  0
 52122  1  0  0  0
 52123  1  0  0  0
 53 54  1  0  0  0
 54 55  2  0  0  0
 54124  1  0  0  0
 55 57  1  0  0  0
 55125  1  0  0  0
 56 69  2  0  0  0
 57 58  2  0  0  0
 57126  1  0  0  0
 58127  1  0  0  0
 59 60  1  0  0  0
 59 61  1  0  0  0
 59 62  1  0  0  0
 60128  1  0  0  0
 60129  1  0  0  0
 60130  1  0  0  0
 61131  1  0  0  0
 61132  1  0  0  0
 61133  1  0  0  0
 62134  1  0  0  0
 62135  1  0  0  0
 62136  1  0  0  0
 63 65  1  0  0  0
 63137  1  0  0  0
 63138  1  0  0  0
 63139  1  0  0  0
 64140  1  0  0  0
 65141  1  0  0  0
 68 80  1  0  0  0
 71 72  2  0  0  0
 71 73  1  0  0  0
 71142  1  0  0  0
 72 74  1  0  0  0
 72 77  1  0  0  0
 73 76  2  0  0  0
 73 79  1  0  0  0
 74 75  2  0  0  0
 74 78  1  0  0  0
 75 76  1  0  0  0
 75 80  1  0  0  0
 76 82  1  0  0  0
 77143  1  0  0  0
 77144  1  0  0  0
 77145  1  0  0  0
 78146  1  0  0  0
 78147  1  0  0  0
 78148  1  0  0  0
 79 81  1  0  0  0
 79149  1  0  0  0
 79150  1  0  0  0
 80151  1  0  0  0
 80152  1  0  0  0
 81153  1  0  0  0
M  ISO  4   1 100  68 101  80 101  81 100
M  END
> <chiral flag>
0

> <version>
0

> <s_m_source_file>
/data/baiqing/PycharmProjects/Reinvent-master-3.2/result/LINK_invent/BTK/process_docking_weight1_custom_sum_contain_oxygen_bond_distance_aromatic_linkinvent_7_9_3/rearranged_h_0030.sdf

> <i_m_source_file_index>
21

> <r_mmod_Potential_Energy-OPLS-2005>
1429.54284667969

> <r_mmod_Stretch_Energy-OPLS-2005>
652.95556640625

> <r_mmod_Bend_Energy-OPLS-2005>
449.914764404297

> <r_mmod_Torsional_Energy-OPLS-2005>
237.865295410156

> <r_mmod_Improper_Torsional_Energy-OPLS-2005>
6.38065576553345

> <r_mmod_Van_der_Waal_Energy-OPLS-2005>
126.844085693359

> <r_mmod_Electrostatic_Energy-OPLS-2005>
-371.914764404297

> <r_mmod_Solvation_Energy-OPLS-2005>
-210.588684082031

> <b_mmod_Minimization_Converged-OPLS-2005>
0

> <r_mmod_RMS_Derivative-OPLS-2005>
2.83663535118103

$$$$
21
                    3D
 Structure written by MMmdl.
158167  0  0  1  0            999 V2000
  -30.5172  -14.9669   20.3966 C   0  0  0  0  0  0
  -30.4400  -12.5976   19.4888 C   0  0  0  0  0  0
  -29.5220  -12.5282   18.2471 C   0  0  0  0  0  0
  -28.0578  -12.3032   18.6731 C   0  0  0  0  0  0
  -27.6245  -13.2431   19.8280 C   0  0  2  0  0  0
  -28.6661  -13.2786   20.9638 C   0  0  0  0  0  0
  -25.2433  -13.8196   20.5667 C   0  0  0  0  0  0
  -24.1746  -13.0444   20.9215 C   0  0  0  0  0  0
  -24.6349  -11.6926   20.8734 C   0  0  0  0  0  0
  -23.9034  -10.4301   21.0396 C   0  0  0  0  0  0
  -24.3586   -9.4213   21.9182 C   0  0  0  0  0  0
  -23.6255   -8.2248   22.0759 C   0  0  0  0  0  0
  -22.4237   -8.0281   21.3556 C   0  0  0  0  0  0
  -21.9865   -9.0253   20.4654 C   0  0  0  0  0  0
  -22.7205  -10.2126   20.3048 C   0  0  0  0  0  0
  -21.6858   -6.0707   22.5275 C   0  0  0  0  0  0
  -21.4023   -6.5606   23.8211 C   0  0  0  0  0  0
  -21.3669   -5.6762   24.9176 C   0  0  0  0  0  0
  -21.6045   -4.3027   24.7234 C   0  0  0  0  0  0
  -21.8820   -3.8113   23.4357 C   0  0  0  0  0  0
  -21.9195   -4.6932   22.3409 C   0  0  0  0  0  0
  -22.7779  -13.5241   21.1893 C   0  0  0  0  0  0
  -22.1661   -4.2113   21.0993 F   0  0  0  0  0  0
  -21.5641   -3.4520   25.7753 F   0  0  0  0  0  0
  -29.9351  -13.6998   20.3548 N   0  0  0  0  0  0
  -26.2838  -12.9416   20.3159 N   0  0  0  0  0  0
  -25.9274  -11.6553   20.5665 N   0  0  0  0  0  0
  -22.0393  -12.8254   22.0435 N   0  0  0  0  0  0
  -25.4090  -15.1921   20.4114 N   0  0  0  0  0  0
  -31.7333  -15.0299   20.1878 O   0  0  0  0  0  0
  -21.6630   -6.8857   21.4235 O   0  0  0  0  0  0
  -22.3492  -14.5565   20.6767 O   0  0  0  0  0  0
  -24.6464  -31.8394   23.1885 C   0  0  0  0  0  0
  -25.9222  -32.4667   23.8282 C   0  0  1  0  0  0
  -27.2122  -27.1066   20.1507 C   0  0  0  0  0  0
  -25.5950  -33.8481   24.2187 N   0  0  0  0  0  0
  -23.4522  -30.4607   21.5330 C   0  0  2  0  0  0
  -24.9000  -28.8823   20.1137 C   0  0  0  0  0  0
  -22.7590  -29.4520   22.4842 C   0  0  0  0  0  0
  -18.0311  -28.1392   22.8475 C   0  0  0  0  0  0
  -24.1495  -36.7244   23.2634 C   0  0  0  0  0  0
  -26.0111  -30.7035   21.3927 C   0  0  0  0  0  0
  -26.0799  -29.3129   20.7325 C   0  0  0  0  0  0
  -27.2388  -28.4432   20.7297 C   0  0  0  0  0  0
  -26.0026  -26.7838   19.4981 C   0  0  0  0  0  0
  -24.8756  -27.6319   19.4808 C   0  0  0  0  0  0
  -23.6817  -29.7907   20.1528 C   0  0  0  0  0  0
  -25.4119  -36.3015   24.0315 C   0  0  1  0  0  0
  -20.5929  -28.3717   23.1223 C   0  0  2  0  0  0
  -20.6802  -26.9417   22.5392 C   0  0  0  0  0  0
  -19.5770  -26.6374   21.5205 C   0  0  0  0  0  0
  -18.1954  -26.7924   22.1621 C   0  0  0  0  0  0
  -19.1571  -28.8872   23.2848 C   0  0  0  0  0  0
  -18.9484  -30.1470   23.8877 C   0  0  0  0  0  0
  -17.6481  -30.6583   24.0552 C   0  0  0  0  0  0
  -25.9076  -34.9385   23.5061 C   0  0  0  0  0  0
  -16.5368  -29.9073   23.6333 C   0  0  0  0  0  0
  -16.7299  -28.6488   23.0358 C   0  0  0  0  0  0
  -26.4538  -31.6550   25.0735 C   0  0  0  0  0  0
  -25.3727  -31.3726   26.1431 C   0  0  0  0  0  0
  -27.0397  -30.2945   24.6328 C   0  0  0  0  0  0
  -27.6059  -32.4334   25.7520 C   0  0  0  0  0  0
  -27.5589  -37.1755   24.8448 C   0  0  0  0  0  0
  -21.4276  -29.3045   22.3591 N   0  0  0  0  0  0
  -26.4273  -37.3740   23.9431 N   0  0  0  0  0  0
  -24.7234  -31.0230   22.0922 N   0  0  0  0  0  0
  -23.4220  -28.8056   23.2991 O   0  0  0  0  0  0
  -28.2649  -26.1130   20.2004 O   0  0  0  0  0  0
  -26.5663  -34.8889   22.4645 O   0  0  0  0  0  0
  -23.5576  -32.1268   23.7091 O   0  0  0  0  0  0
  -28.3373  -20.0901   17.9438 C   0  0  0  0  0  0
  -28.4775  -21.4128   18.4276 C   0  0  0  0  0  0
  -28.9129  -21.6896   19.7455 C   0  0  0  0  0  0
  -29.3369  -19.0494   19.9498 C   0  0  0  0  0  0
  -29.3723  -20.4590   20.4687 C   0  0  0  0  0  0
  -28.7482  -18.9456   18.6648 C   0  0  0  0  0  0
  -28.2899  -22.5659   17.4492 C   0  0  0  0  0  0
  -29.4029  -23.6440   17.5534 C   0  0  0  0  0  0
  -30.0825  -23.7608   18.9413 C   0  0  0  0  0  0
  -29.1472  -23.3137   20.0754 C   0  0  1  0  0  0
  -30.0506  -17.6992   20.6266 C   0  0  0  0  0  0
  -27.9945  -24.5639   20.1449 C   0  0  0  0  0  0
  -29.7178  -16.1464   20.4756 N   0  0  0  0  0  0
  -29.9384  -20.6428   21.6962 O   0  0  0  0  0  0
  -28.5931  -17.4202   17.8626 Cl  0  0  0  0  0  0
  -31.4745  -12.7619   19.1828 H   0  0  0  0  0  0
  -30.4368  -11.6480   20.0263 H   0  0  0  0  0  0
  -29.8454  -11.7296   17.5761 H   0  0  0  0  0  0
  -29.6029  -13.4564   17.6783 H   0  0  0  0  0  0
  -27.9693  -11.2659   19.0011 H   0  0  0  0  0  0
  -27.3926  -12.4124   17.8157 H   0  0  0  0  0  0
  -27.5863  -14.2409   19.3899 H   0  0  0  0  0  0
  -28.7579  -12.3006   21.4397 H   0  0  0  0  0  0
  -28.3642  -13.9765   21.7470 H   0  0  0  0  0  0
  -25.2733   -9.5697   22.4762 H   0  0  0  0  0  0
  -23.9975   -7.4635   22.7470 H   0  0  0  0  0  0
  -21.0808   -8.8777   19.8949 H   0  0  0  0  0  0
  -22.3673  -10.9669   19.6154 H   0  0  0  0  0  0
  -21.2010   -7.6114   23.9709 H   0  0  0  0  0  0
  -21.1491   -6.0493   25.9083 H   0  0  0  0  0  0
  -22.0582   -2.7573   23.2870 H   0  0  0  0  0  0
  -22.3969  -11.9945   22.4901 H   0  0  0  0  0  0
  -21.1012  -13.1326   22.2607 H   0  0  0  0  0  0
  -24.6292  -15.8347   20.5107 H   0  0  0  0  0  0
  -26.2397  -15.6352   20.0430 H   0  0  0  0  0  0
  -26.7270  -32.5263   23.0996 H   0  0  0  0  0  0
  -25.0082  -33.9585   25.0321 H   0  0  0  0  0  0
  -22.7569  -31.2883   21.3772 H   0  0  0  0  0  0
  -23.3774  -35.9560   23.3242 H   0  0  0  0  0  0
  -24.3603  -36.8935   22.2066 H   0  0  0  0  0  0
  -23.7232  -37.6413   23.6710 H   0  0  0  0  0  0
  -26.1738  -31.4562   20.6205 H   0  0  0  0  0  0
  -26.8791  -30.7514   22.0385 H   0  0  0  0  0  0
  -28.1406  -28.7683   21.2287 H   0  0  0  0  0  0
  -25.8841  -25.8340   19.0015 H   0  0  0  0  0  0
  -23.9758  -27.2982   18.9824 H   0  0  0  0  0  0
  -23.8297  -30.5645   19.3988 H   0  0  0  0  0  0
  -22.7948  -29.2388   19.8361 H   0  0  0  0  0  0
  -25.1299  -36.1825   25.0800 H   0  0  0  0  0  0
  -21.0028  -28.3312   24.1343 H   0  0  0  0  0  0
  -20.5692  -26.2329   23.3613 H   0  0  0  0  0  0
  -21.6662  -26.7420   22.1194 H   0  0  0  0  0  0
  -19.6932  -25.6276   21.1257 H   0  0  0  0  0  0
  -19.6708  -27.3164   20.6716 H   0  0  0  0  0  0
  -17.4220  -26.6666   21.4034 H   0  0  0  0  0  0
  -18.0368  -26.0074   22.9023 H   0  0  0  0  0  0
  -19.7950  -30.7288   24.2246 H   0  0  0  0  0  0
  -17.5021  -31.6267   24.5152 H   0  0  0  0  0  0
  -15.5366  -30.2965   23.7657 H   0  0  0  0  0  0
  -15.8705  -28.0790   22.7098 H   0  0  0  0  0  0
  -24.5922  -30.7050   25.7759 H   0  0  0  0  0  0
  -24.8894  -32.2889   26.4830 H   0  0  0  0  0  0
  -25.8026  -30.8925   27.0233 H   0  0  0  0  0  0
  -26.2997  -29.6671   24.1340 H   0  0  0  0  0  0
  -27.3997  -29.7251   25.4910 H   0  0  0  0  0  0
  -27.8930  -30.4178   23.9654 H   0  0  0  0  0  0
  -27.2640  -33.3653   26.2042 H   0  0  0  0  0  0
  -28.3898  -32.6868   25.0365 H   0  0  0  0  0  0
  -28.0698  -31.8500   26.5483 H   0  0  0  0  0  0
  -28.2513  -38.0143   24.7608 H   0  0  0  0  0  0
  -28.1179  -36.2677   24.6120 H   0  0  0  0  0  0
  -27.2328  -37.1213   25.8849 H   0  0  0  0  0  0
  -20.9485  -29.8762   21.6767 H   0  0  0  0  0  0
  -26.0126  -38.2785   24.1517 H   0  0  0  0  0  0
  -27.9759  -19.9439   16.9345 H   0  0  0  0  0  0
  -27.3070  -23.0040   17.6202 H   0  0  0  0  0  0
  -28.2590  -22.1963   16.4239 H   0  0  0  0  0  0
  -28.9907  -24.6071   17.2508 H   0  0  0  0  0  0
  -30.1834  -23.4220   16.8243 H   0  0  0  0  0  0
  -30.4276  -24.7821   19.1094 H   0  0  0  0  0  0
  -30.9807  -23.1422   18.9543 H   0  0  0  0  0  0
  -29.7100  -23.3560   21.0083 H   0  0  0  0  0  0
  -30.0490  -17.8806   21.7018 H   0  0  0  0  0  0
  -31.0976  -17.7860   20.3382 H   0  0  0  0  0  0
  -27.3512  -24.3429   20.9975 H   0  0  0  0  0  0
  -27.3578  -24.4128   19.2814 H   0  0  0  0  0  0
  -28.7305  -15.9448   20.5330 H   0  0  0  0  0  0
  -29.8481  -21.5343   22.0165 H   0  0  0  0  0  0
  1 25  1  0  0  0
  1 30  2  0  0  0
  1 83  1  0  0  0
  2  3  1  0  0  0
  2 25  1  0  0  0
  2 86  1  0  0  0
  2 87  1  0  0  0
  3  4  1  0  0  0
  3 88  1  0  0  0
  3 89  1  0  0  0
  4  5  1  0  0  0
  4 90  1  0  0  0
  4 91  1  0  0  0
  5  6  1  0  0  0
  5 26  1  0  0  0
  5 92  1  0  0  0
  6 25  1  0  0  0
  6 93  1  0  0  0
  6 94  1  0  0  0
  7  8  2  0  0  0
  7 26  1  0  0  0
  7 29  1  0  0  0
  8  9  1  0  0  0
  8 22  1  0  0  0
  9 10  1  0  0  0
  9 27  2  0  0  0
 10 11  2  0  0  0
 10 15  1  0  0  0
 11 12  1  0  0  0
 11 95  1  0  0  0
 12 13  2  0  0  0
 12 96  1  0  0  0
 13 14  1  0  0  0
 13 31  1  0  0  0
 14 15  2  0  0  0
 14 97  1  0  0  0
 15 98  1  0  0  0
 16 17  2  0  0  0
 16 21  1  0  0  0
 16 31  1  0  0  0
 17 18  1  0  0  0
 17 99  1  0  0  0
 18 19  2  0  0  0
 18100  1  0  0  0
 19 20  1  0  0  0
 19 24  1  0  0  0
 20 21  2  0  0  0
 20101  1  0  0  0
 21 23  1  0  0  0
 22 28  1  0  0  0
 22 32  2  0  0  0
 26 27  1  0  0  0
 28102  1  0  0  0
 28103  1  0  0  0
 29104  1  0  0  0
 29105  1  0  0  0
 33 34  1  0  0  0
 33 66  1  0  0  0
 33 70  2  0  0  0
 34 36  1  0  0  0
 34 59  1  0  0  0
 34106  1  0  0  0
 35 44  2  0  0  0
 35 45  1  0  0  0
 35 68  1  0  0  0
 36 56  1  0  0  0
 36107  1  0  0  0
 37 39  1  0  0  0
 37 47  1  0  0  0
 37 66  1  0  0  0
 37108  1  0  0  0
 38 43  2  0  0  0
 38 46  1  0  0  0
 38 47  1  0  0  0
 39 64  1  0  0  0
 39 67  2  0  0  0
 40 52  1  0  0  0
 40 53  2  0  0  0
 40 58  1  0  0  0
 41109  1  0  0  0
 41110  1  0  0  0
 41111  1  0  0  0
 41 48  1  0  0  0
 42 43  1  0  0  0
 42 66  1  0  0  0
 42112  1  0  0  0
 42113  1  0  0  0
 43 44  1  0  0  0
 44114  1  0  0  0
 45 46  2  0  0  0
 45115  1  0  0  0
 46116  1  0  0  0
 47117  1  0  0  0
 47118  1  0  0  0
 48 56  1  0  0  0
 48 65  1  0  0  0
 48119  1  0  0  0
 49 50  1  0  0  0
 49 53  1  0  0  0
 49 64  1  0  0  0
 49120  1  0  0  0
 50 51  1  0  0  0
 50121  1  0  0  0
 50122  1  0  0  0
 51 52  1  0  0  0
 51123  1  0  0  0
 51124  1  0  0  0
 52125  1  0  0  0
 52126  1  0  0  0
 53 54  1  0  0  0
 54 55  2  0  0  0
 54127  1  0  0  0
 55 57  1  0  0  0
 55128  1  0  0  0
 56 69  2  0  0  0
 57 58  2  0  0  0
 57129  1  0  0  0
 58130  1  0  0  0
 59 60  1  0  0  0
 59 61  1  0  0  0
 59 62  1  0  0  0
 60131  1  0  0  0
 60132  1  0  0  0
 60133  1  0  0  0
 61134  1  0  0  0
 61135  1  0  0  0
 61136  1  0  0  0
 62137  1  0  0  0
 62138  1  0  0  0
 62139  1  0  0  0
 63 65  1  0  0  0
 63140  1  0  0  0
 63141  1  0  0  0
 63142  1  0  0  0
 64143  1  0  0  0
 65144  1  0  0  0
 68 82  1  0  0  0
 71 72  2  0  0  0
 71 76  1  0  0  0
 71145  1  0  0  0
 72 73  1  0  0  0
 72 77  1  0  0  0
 73 75  2  0  0  0
 73 80  1  0  0  0
 74 75  1  0  0  0
 74 76  2  0  0  0
 74 81  1  0  0  0
 75 84  1  0  0  0
 76 85  1  0  0  0
 77 78  1  0  0  0
 77146  1  0  0  0
 77147  1  0  0  0
 78 79  1  0  0  0
 78148  1  0  0  0
 78149  1  0  0  0
 79 80  1  0  0  0
 79150  1  0  0  0
 79151  1  0  0  0
 80 82  1  0  0  0
 80152  1  0  0  0
 81 83  1  0  0  0
 81153  1  0  0  0
 81154  1  0  0  0
 82155  1  0  0  0
 82156  1  0  0  0
 83157  1  0  0  0
 84158  1  0  0  0
M  ISO  4   1 100  68 101  82 101  83 100
M  END
> <chiral flag>
0

> <version>
0

> <s_m_source_file>
/data/baiqing/PycharmProjects/Reinvent-master-3.2/result/LINK_invent/BTK/process_docking_weight1_custom_sum_contain_oxygen_bond_distance_aromatic_linkinvent_7_9_3/rearranged_h_0030.sdf

> <i_m_source_file_index>
22

> <r_mmod_Potential_Energy-OPLS-2005>
583.258178710938

> <r_mmod_Stretch_Energy-OPLS-2005>
295.297637939453

> <r_mmod_Bend_Energy-OPLS-2005>
277.146514892578

> <r_mmod_Torsional_Energy-OPLS-2005>
241.912322998047

> <r_mmod_Improper_Torsional_Energy-OPLS-2005>
8.20568466186523

> <r_mmod_Van_der_Waal_Energy-OPLS-2005>
136.212478637695

> <r_mmod_Electrostatic_Energy-OPLS-2005>
-365.814544677734

> <r_mmod_Solvation_Energy-OPLS-2005>
-222.811950683594

> <b_mmod_Minimization_Converged-OPLS-2005>
0

> <r_mmod_RMS_Derivative-OPLS-2005>
2.90221309661865

$$$$
22
                    3D
 Structure written by MMmdl.
167176  0  0  1  0            999 V2000
  -29.6953  -15.2244   20.6613 C   0  0  0  0  0  0
  -30.3676  -12.8832   19.6159 C   0  0  0  0  0  0
  -29.5221  -12.6129   18.3338 C   0  0  0  0  0  0
  -28.0612  -12.2557   18.6880 C   0  0  0  0  0  0
  -27.5405  -13.1668   19.8224 C   0  0  2  0  0  0
  -28.4714  -13.1228   21.0304 C   0  0  0  0  0  0
  -25.2076  -13.7965   20.5484 C   0  0  0  0  0  0
  -24.1446  -13.0308   20.9234 C   0  0  0  0  0  0
  -24.5978  -11.6762   20.8761 C   0  0  0  0  0  0
  -23.8763  -10.4201   21.0490 C   0  0  0  0  0  0
  -24.3441   -9.4165   21.9241 C   0  0  0  0  0  0
  -23.6198   -8.2167   22.0774 C   0  0  0  0  0  0
  -22.4193   -8.0190   21.3546 C   0  0  0  0  0  0
  -21.9749   -9.0134   20.4661 C   0  0  0  0  0  0
  -22.6988  -10.2045   20.3098 C   0  0  0  0  0  0
  -21.6819   -6.0687   22.5290 C   0  0  0  0  0  0
  -21.3985   -6.5613   23.8214 C   0  0  0  0  0  0
  -21.3647   -5.6779   24.9184 C   0  0  0  0  0  0
  -21.6043   -4.3041   24.7244 C   0  0  0  0  0  0
  -21.8823   -3.8120   23.4370 C   0  0  0  0  0  0
  -21.9184   -4.6925   22.3420 C   0  0  0  0  0  0
  -22.7570  -13.5219   21.1963 C   0  0  0  0  0  0
  -22.1661   -4.2113   21.0997 F   0  0  0  0  0  0
  -21.5632   -3.4534   25.7763 F   0  0  0  0  0  0
  -29.6151  -13.8235   20.5404 N   0  0  0  0  0  0
  -26.2123  -12.8924   20.2672 N   0  0  0  0  0  0
  -25.8745  -11.6182   20.5447 N   0  0  0  0  0  0
  -22.0216  -12.8257   22.0539 N   0  0  0  0  0  0
  -25.3970  -15.1683   20.3942 N   0  0  0  0  0  0
  -30.8661  -15.5853   20.3621 O   0  0  0  0  0  0
  -21.6590   -6.8787   21.4236 O   0  0  0  0  0  0
  -22.3348  -14.5559   20.6804 O   0  0  0  0  0  0
  -24.6491  -31.9458   23.2303 C   0  0  0  0  0  0
  -25.9440  -32.5090   23.8666 C   0  0  1  0  0  0
  -26.7651  -27.3447   20.0310 C   0  0  0  0  0  0
  -25.6367  -33.8857   24.2619 N   0  0  0  0  0  0
  -23.4297  -30.6204   21.5741 C   0  0  2  0  0  0
  -24.8691  -29.2709   19.8973 C   0  0  0  0  0  0
  -22.9125  -29.5912   22.6061 C   0  0  0  0  0  0
  -18.2398  -27.5993   22.4498 C   0  0  0  0  0  0
  -24.1520  -36.7363   23.2598 C   0  0  0  0  0  0
  -25.9796  -30.8200   21.4646 C   0  0  0  0  0  0
  -25.9585  -29.5045   20.7307 C   0  0  0  0  0  0
  -26.9539  -28.5063   20.8290 C   0  0  0  0  0  0
  -26.1506  -27.5035   18.8191 C   0  0  0  0  0  0
  -25.0378  -28.3548   18.8440 C   0  0  0  0  0  0
  -23.6167  -30.0935   20.1200 C   0  0  0  0  0  0
  -25.4135  -36.3214   24.0336 C   0  0  1  0  0  0
  -20.9995  -28.2565   23.5036 C   0  0  2  0  0  0
  -22.0993  -26.8599   23.2004 C   0  0  0  0  0  0
  -21.8484  -25.5520   22.0278 C   0  0  0  0  0  0
  -18.6437  -26.0854   21.2945 C   0  0  0  0  0  0
  -19.2941  -28.4241   23.2936 C   0  0  0  0  0  0
  -18.9309  -29.6890   23.8886 C   0  0  0  0  0  0
  -17.6378  -30.2209   23.9018 C   0  0  0  0  0  0
  -25.9138  -34.9616   23.5170 C   0  0  0  0  0  0
  -16.6327  -29.4422   23.3158 C   0  0  0  0  0  0
  -16.9252  -28.2087   22.6293 C   0  0  0  0  0  0
  -26.4560  -31.6689   25.0996 C   0  0  0  0  0  0
  -25.3681  -31.3836   26.1595 C   0  0  0  0  0  0
  -27.0355  -30.3059   24.6560 C   0  0  0  0  0  0
  -27.6120  -32.4298   25.7865 C   0  0  0  0  0  0
  -27.5613  -37.1873   24.8454 C   0  0  0  0  0  0
  -21.6084  -29.3832   22.7625 N   0  0  0  0  0  0
  -26.4306  -37.3898   23.9430 N   0  0  0  0  0  0
  -24.6998  -31.1865   22.1064 N   0  0  0  0  0  0
  -23.7187  -29.0638   23.3662 O   0  0  0  0  0  0
  -26.0219  -26.2838   20.5096 O   0  0  0  0  0  0
  -26.5483  -34.8983   22.4603 O   0  0  0  0  0  0
  -23.5691  -32.2334   23.7691 O   0  0  0  0  0  0
  -20.6163  -25.0567   19.8368 C   0  0  0  0  0  0
  -25.0475  -18.5793   22.3725 C   0  0  0  0  0  0
  -25.9315  -19.9080   20.8148 C   0  0  0  0  0  0
  -19.9394  -25.7869   22.9875 C   0  0  0  0  0  0
  -20.1348  -24.0332   20.8579 C   0  0  0  0  0  0
  -21.0955  -26.4756   20.0274 C   0  0  0  0  0  0
  -26.2148  -18.6053   21.4422 C   0  0  0  0  0  0
  -23.6642  -20.9080   21.9408 C   0  0  0  0  0  0
  -20.0461  -24.1344   22.3859 C   0  0  0  0  0  0
  -23.9134  -19.5920   22.6002 C   0  0  0  0  0  0
  -24.8288  -20.9171   21.0240 C   0  0  0  0  0  0
  -20.5363  -27.1534   21.3355 C   0  0  0  0  0  0
  -19.8111  -22.6804   20.2461 C   0  0  0  0  0  0
  -22.7766  -26.6220   19.6376 C   0  0  0  0  0  0
  -27.7674  -17.6432   21.1947 C   0  0  0  0  0  0
  -22.4902  -22.3283   22.0665 C   0  0  0  0  0  0
  -24.3430  -26.2117   20.4978 C   0  0  0  0  0  0
  -28.4358  -16.0565   20.9952 N   0  0  0  0  0  0
  -21.0239  -22.9252   22.7751 O   0  0  0  0  0  0
  -22.7794  -19.1602   23.8268 Cl  0  0  0  0  0  0
  -24.9929  -22.3366   20.0511 Cl  0  0  0  0  0  0
  -20.0576  -28.7219   20.6033 Cl  0  0  0  0  0  0
  -31.3346  -13.3066   19.3393 H   0  0  0  0  0  0
  -30.5919  -11.9468   20.1291 H   0  0  0  0  0  0
  -29.9761  -11.8237   17.7317 H   0  0  0  0  0  0
  -29.5249  -13.5103   17.7132 H   0  0  0  0  0  0
  -28.0345  -11.2149   19.0154 H   0  0  0  0  0  0
  -27.4209  -12.3142   17.8077 H   0  0  0  0  0  0
  -27.5038  -14.1620   19.3806 H   0  0  0  0  0  0
  -28.6957  -12.0994   21.3356 H   0  0  0  0  0  0
  -28.0413  -13.6144   21.9054 H   0  0  0  0  0  0
  -25.2591   -9.5706   22.4790 H   0  0  0  0  0  0
  -23.9948   -7.4562   22.7470 H   0  0  0  0  0  0
  -21.0687   -8.8604   19.8971 H   0  0  0  0  0  0
  -22.3428  -10.9585   19.6214 H   0  0  0  0  0  0
  -21.1966   -7.6121   23.9698 H   0  0  0  0  0  0
  -21.1465   -6.0521   25.9082 H   0  0  0  0  0  0
  -22.0616   -2.7582   23.2882 H   0  0  0  0  0  0
  -22.3787  -11.9894   22.4915 H   0  0  0  0  0  0
  -21.0870  -13.1361   22.2781 H   0  0  0  0  0  0
  -24.6057  -15.7951   20.4903 H   0  0  0  0  0  0
  -26.1328  -15.5632   19.8234 H   0  0  0  0  0  0
  -26.7567  -32.5643   23.1454 H   0  0  0  0  0  0
  -25.0738  -34.0063   25.0910 H   0  0  0  0  0  0
  -22.6878  -31.4203   21.5183 H   0  0  0  0  0  0
  -23.3812  -35.9663   23.3233 H   0  0  0  0  0  0
  -24.3651  -36.8989   22.2021 H   0  0  0  0  0  0
  -23.7222  -37.6552   23.6598 H   0  0  0  0  0  0
  -26.2417  -31.6045   20.7521 H   0  0  0  0  0  0
  -26.8182  -30.7465   22.1430 H   0  0  0  0  0  0
  -27.6817  -28.5313   21.6274 H   0  0  0  0  0  0
  -26.1368  -26.7053   18.0875 H   0  0  0  0  0  0
  -24.3111  -28.2922   18.0464 H   0  0  0  0  0  0
  -23.7171  -30.9600   19.4656 H   0  0  0  0  0  0
  -22.7022  -29.6194   19.7850 H   0  0  0  0  0  0
  -25.1277  -36.2108   25.0825 H   0  0  0  0  0  0
  -21.1608  -28.4918   24.5586 H   0  0  0  0  0  0
  -22.0433  -26.3724   24.1787 H   0  0  0  0  0  0
  -23.1699  -26.9746   23.2014 H   0  0  0  0  0  0
  -22.1672  -24.8681   22.8206 H   0  0  0  0  0  0
  -22.5658  -25.0565   21.3874 H   0  0  0  0  0  0
  -18.4206  -26.3715   20.2594 H   0  0  0  0  0  0
  -17.9392  -25.2745   21.5137 H   0  0  0  0  0  0
  -19.6956  -30.2697   24.3852 H   0  0  0  0  0  0
  -17.4197  -31.1674   24.3783 H   0  0  0  0  0  0
  -15.6129  -29.8025   23.3362 H   0  0  0  0  0  0
  -16.0923  -27.7182   22.1458 H   0  0  0  0  0  0
  -24.5833  -30.7285   25.7782 H   0  0  0  0  0  0
  -24.8939  -32.3024   26.5064 H   0  0  0  0  0  0
  -25.7901  -30.8900   27.0363 H   0  0  0  0  0  0
  -26.2984  -29.6880   24.1428 H   0  0  0  0  0  0
  -27.3742  -29.7282   25.5167 H   0  0  0  0  0  0
  -27.9040  -30.4239   24.0075 H   0  0  0  0  0  0
  -27.2750  -33.3555   26.2548 H   0  0  0  0  0  0
  -28.3968  -32.6906   25.0747 H   0  0  0  0  0  0
  -28.0725  -31.8321   26.5746 H   0  0  0  0  0  0
  -28.2564  -38.0233   24.7602 H   0  0  0  0  0  0
  -28.1178  -36.2778   24.6148 H   0  0  0  0  0  0
  -27.2349  -37.1354   25.8852 H   0  0  0  0  0  0
  -20.9753  -29.8927   22.1585 H   0  0  0  0  0  0
  -26.0196  -38.2967   24.1467 H   0  0  0  0  0  0
  -20.8534  -24.6305   18.8718 H   0  0  0  0  0  0
  -25.0158  -17.7146   23.0211 H   0  0  0  0  0  0
  -26.6751  -20.2135   20.0925 H   0  0  0  0  0  0
  -19.6112  -26.0221   23.9928 H   0  0  0  0  0  0
  -19.0677  -22.8063   19.4574 H   0  0  0  0  0  0
  -19.3891  -21.9989   20.9844 H   0  0  0  0  0  0
  -20.6889  -22.2153   19.7982 H   0  0  0  0  0  0
  -22.7706  -27.6599   19.3795 H   0  0  0  0  0  0
  -22.8168  -26.1400   18.6585 H   0  0  0  0  0  0
  -28.3735  -18.0111   22.0236 H   0  0  0  0  0  0
  -28.1960  -18.1513   20.3310 H   0  0  0  0  0  0
  -22.4589  -22.6931   21.0426 H   0  0  0  0  0  0
  -23.1925  -23.0060   22.5483 H   0  0  0  0  0  0
  -24.3223  -27.1740   20.9926 H   0  0  0  0  0  0
  -24.5842  -25.8698   19.4987 H   0  0  0  0  0  0
  -27.6950  -15.3972   21.1910 H   0  0  0  0  0  0
  1 25  1  0  0  0
  1 30  2  0  0  0
  1 88  1  0  0  0
  2  3  1  0  0  0
  2 25  1  0  0  0
  2 93  1  0  0  0
  2 94  1  0  0  0
  3  4  1  0  0  0
  3 95  1  0  0  0
  3 96  1  0  0  0
  4  5  1  0  0  0
  4 97  1  0  0  0
  4 98  1  0  0  0
  5  6  1  0  0  0
  5 26  1  0  0  0
  5 99  1  0  0  0
  6 25  1  0  0  0
  6100  1  0  0  0
  6101  1  0  0  0
  7  8  2  0  0  0
  7 26  1  0  0  0
  7 29  1  0  0  0
  8  9  1  0  0  0
  8 22  1  0  0  0
  9 10  1  0  0  0
  9 27  2  0  0  0
 10 11  2  0  0  0
 10 15  1  0  0  0
 11 12  1  0  0  0
 11102  1  0  0  0
 12 13  2  0  0  0
 12103  1  0  0  0
 13 14  1  0  0  0
 13 31  1  0  0  0
 14 15  2  0  0  0
 14104  1  0  0  0
 15105  1  0  0  0
 16 17  2  0  0  0
 16 21  1  0  0  0
 16 31  1  0  0  0
 17 18  1  0  0  0
 17106  1  0  0  0
 18 19  2  0  0  0
 18107  1  0  0  0
 19 20  1  0  0  0
 19 24  1  0  0  0
 20 21  2  0  0  0
 20108  1  0  0  0
 21 23  1  0  0  0
 22 28  1  0  0  0
 22 32  2  0  0  0
 26 27  1  0  0  0
 28109  1  0  0  0
 28110  1  0  0  0
 29111  1  0  0  0
 29112  1  0  0  0
 33 34  1  0  0  0
 33 66  1  0  0  0
 33 70  2  0  0  0
 34 36  1  0  0  0
 34 59  1  0  0  0
 34113  1  0  0  0
 35 44  2  0  0  0
 35 45  1  0  0  0
 35 68  1  0  0  0
 36 56  1  0  0  0
 36114  1  0  0  0
 37 39  1  0  0  0
 37 47  1  0  0  0
 37 66  1  0  0  0
 37115  1  0  0  0
 38 43  2  0  0  0
 38 46  1  0  0  0
 38 47  1  0  0  0
 39 64  1  0  0  0
 39 67  2  0  0  0
 40 52  1  0  0  0
 40 53  2  0  0  0
 40 58  1  0  0  0
 41116  1  0  0  0
 41117  1  0  0  0
 41118  1  0  0  0
 41 48  1  0  0  0
 42 43  1  0  0  0
 42 66  1  0  0  0
 42119  1  0  0  0
 42120  1  0  0  0
 43 44  1  0  0  0
 44121  1  0  0  0
 45 46  2  0  0  0
 45122  1  0  0  0
 46123  1  0  0  0
 47124  1  0  0  0
 47125  1  0  0  0
 48 56  1  0  0  0
 48 65  1  0  0  0
 48126  1  0  0  0
 49 50  1  0  0  0
 49 53  1  0  0  0
 49 64  1  0  0  0
 49127  1  0  0  0
 50 51  1  0  0  0
 50128  1  0  0  0
 50129  1  0  0  0
 51 52  1  0  0  0
 51130  1  0  0  0
 51131  1  0  0  0
 52132  1  0  0  0
 52133  1  0  0  0
 53 54  1  0  0  0
 54 55  2  0  0  0
 54134  1  0  0  0
 55 57  1  0  0  0
 55135  1  0  0  0
 56 69  2  0  0  0
 57 58  2  0  0  0
 57136  1  0  0  0
 58137  1  0  0  0
 59 60  1  0  0  0
 59 61  1  0  0  0
 59 62  1  0  0  0
 60138  1  0  0  0
 60139  1  0  0  0
 60140  1  0  0  0
 61141  1  0  0  0
 61142  1  0  0  0
 61143  1  0  0  0
 62144  1  0  0  0
 62145  1  0  0  0
 62146  1  0  0  0
 63 65  1  0  0  0
 63147  1  0  0  0
 63148  1  0  0  0
 63149  1  0  0  0
 64150  1  0  0  0
 65151  1  0  0  0
 68 87  1  0  0  0
 71 75  2  0  0  0
 71 76  1  0  0  0
 71152  1  0  0  0
 72 77  2  0  0  0
 72 80  1  0  0  0
 72153  1  0  0  0
 73 77  1  0  0  0
 73 81  2  0  0  0
 73154  1  0  0  0
 74 79  2  0  0  0
 74 82  1  0  0  0
 74155  1  0  0  0
 75 79  1  0  0  0
 75 83  1  0  0  0
 76 82  2  0  0  0
 76 84  1  0  0  0
 77 85  1  0  0  0
 78 80  2  0  0  0
 78 81  1  0  0  0
 78 86  1  0  0  0
 79 89  1  0  0  0
 80 90  1  0  0  0
 81 91  1  0  0  0
 82 92  1  0  0  0
 83156  1  0  0  0
 83157  1  0  0  0
 83158  1  0  0  0
 84 87  1  0  0  0
 84159  1  0  0  0
 84160  1  0  0  0
 85 88  1  0  0  0
 85161  1  0  0  0
 85162  1  0  0  0
 86 89  1  0  0  0
 86163  1  0  0  0
 86164  1  0  0  0
 87165  1  0  0  0
 87166  1  0  0  0
 88167  1  0  0  0
M  ISO  4   1 100  68 101  87 101  88 100
M  END
> <chiral flag>
0

> <version>
0

> <s_m_source_file>
/data/baiqing/PycharmProjects/Reinvent-master-3.2/result/LINK_invent/BTK/process_docking_weight1_custom_sum_contain_oxygen_bond_distance_aromatic_linkinvent_7_9_3/rearranged_h_0030.sdf

> <i_m_source_file_index>
23

> <r_mmod_Potential_Energy-OPLS-2005>
14281.1904296875

> <r_mmod_Stretch_Energy-OPLS-2005>
7118.720703125

> <r_mmod_Bend_Energy-OPLS-2005>
1493.38598632812

> <r_mmod_Torsional_Energy-OPLS-2005>
726.670104980469

> <r_mmod_Improper_Torsional_Energy-OPLS-2005>
77.021110534668

> <r_mmod_Van_der_Waal_Energy-OPLS-2005>
2836.2470703125

> <r_mmod_Electrostatic_Energy-OPLS-2005>
-439.216064453125

> <r_mmod_Solvation_Energy-OPLS-2005>
-203.913955688477

> <b_mmod_Minimization_Converged-OPLS-2005>
0

> <r_mmod_RMS_Derivative-OPLS-2005>
4.60348558425903

$$$$
23
                    3D
 Structure written by MMmdl.
164172  0  0  1  0            999 V2000
  -30.7574  -14.3777   20.6366 C   0  0  0  0  0  0
  -30.4124  -12.2750   19.4041 C   0  0  0  0  0  0
  -29.4859  -12.5152   18.1971 C   0  0  0  0  0  0
  -28.0082  -12.3804   18.6117 C   0  0  0  0  0  0
  -27.6661  -13.2047   19.8813 C   0  0  2  0  0  0
  -28.7046  -12.9528   20.9980 C   0  0  0  0  0  0
  -25.2601  -13.8165   20.5685 C   0  0  0  0  0  0
  -24.1846  -13.0447   20.9170 C   0  0  0  0  0  0
  -24.6391  -11.6910   20.8728 C   0  0  0  0  0  0
  -23.9058  -10.4297   21.0400 C   0  0  0  0  0  0
  -24.3612   -9.4213   21.9181 C   0  0  0  0  0  0
  -23.6290   -8.2246   22.0753 C   0  0  0  0  0  0
  -22.4273   -8.0281   21.3542 C   0  0  0  0  0  0
  -21.9906   -9.0254   20.4646 C   0  0  0  0  0  0
  -22.7229  -10.2136   20.3053 C   0  0  0  0  0  0
  -21.6853   -6.0736   22.5278 C   0  0  0  0  0  0
  -21.4015   -6.5640   23.8211 C   0  0  0  0  0  0
  -21.3659   -5.6793   24.9173 C   0  0  0  0  0  0
  -21.6043   -4.3055   24.7224 C   0  0  0  0  0  0
  -21.8820   -3.8147   23.4345 C   0  0  0  0  0  0
  -21.9193   -4.6965   22.3400 C   0  0  0  0  0  0
  -22.7869  -13.5245   21.1838 C   0  0  0  0  0  0
  -22.1662   -4.2150   21.0979 F   0  0  0  0  0  0
  -21.5628   -3.4539   25.7737 F   0  0  0  0  0  0
  -30.0460  -13.2361   20.4549 N   0  0  0  0  0  0
  -26.3045  -12.9335   20.3389 N   0  0  0  0  0  0
  -25.9318  -11.6493   20.5765 N   0  0  0  0  0  0
  -22.0506  -12.8238   22.0392 N   0  0  0  0  0  0
  -25.4333  -15.1881   20.4093 N   0  0  0  0  0  0
  -31.8278  -14.6064   20.0666 O   0  0  0  0  0  0
  -21.6638   -6.8878   21.4239 O   0  0  0  0  0  0
  -22.3557  -14.5556   20.6692 O   0  0  0  0  0  0
  -24.6107  -31.8709   23.2121 C   0  0  0  0  0  0
  -25.9024  -32.4838   23.8404 C   0  0  1  0  0  0
  -27.2384  -27.4709   20.0946 C   0  0  0  0  0  0
  -25.5891  -33.8634   24.2343 N   0  0  0  0  0  0
  -23.3978  -30.4923   21.5516 C   0  0  2  0  0  0
  -24.8469  -28.9609   20.1160 C   0  0  0  0  0  0
  -22.7394  -29.4657   22.5005 C   0  0  0  0  0  0
  -18.0268  -28.1359   22.8493 C   0  0  0  0  0  0
  -24.1490  -36.7318   23.2637 C   0  0  0  0  0  0
  -25.9224  -30.8454   21.3626 C   0  0  0  0  0  0
  -26.0019  -29.4803   20.7158 C   0  0  0  0  0  0
  -27.2018  -28.7384   20.7110 C   0  0  0  0  0  0
  -26.0769  -26.9611   19.4818 C   0  0  0  0  0  0
  -24.8754  -27.6962   19.4997 C   0  0  0  0  0  0
  -23.6053  -29.8226   20.1661 C   0  0  0  0  0  0
  -25.4108  -36.3122   24.0339 C   0  0  1  0  0  0
  -20.5855  -28.3649   23.1325 C   0  0  2  0  0  0
  -20.6763  -26.9393   22.5414 C   0  0  0  0  0  0
  -19.5748  -26.6380   21.5205 C   0  0  0  0  0  0
  -18.1920  -26.7910   22.1614 C   0  0  0  0  0  0
  -19.1514  -28.8820   23.2905 C   0  0  0  0  0  0
  -18.9449  -30.1430   23.8912 C   0  0  0  0  0  0
  -17.6453  -30.6578   24.0560 C   0  0  0  0  0  0
  -25.9027  -34.9486   23.5137 C   0  0  0  0  0  0
  -16.5343  -29.9078   23.6321 C   0  0  0  0  0  0
  -16.7258  -28.6490   23.0350 C   0  0  0  0  0  0
  -26.4466  -31.6604   25.0714 C   0  0  0  0  0  0
  -25.3743  -31.3687   26.1467 C   0  0  0  0  0  0
  -27.0290  -30.3056   24.6049 C   0  0  0  0  0  0
  -27.6056  -32.4309   25.7466 C   0  0  0  0  0  0
  -27.5584  -37.1817   24.8467 C   0  0  0  0  0  0
  -21.4128  -29.3012   22.3738 N   0  0  0  0  0  0
  -26.4305  -37.3796   23.9403 N   0  0  0  0  0  0
  -24.6613  -31.0831   22.1009 N   0  0  0  0  0  0
  -23.4182  -28.8211   23.3042 O   0  0  0  0  0  0
  -28.3935  -26.7323   20.0616 O   0  0  0  0  0  0
  -26.5592  -34.8941   22.4697 O   0  0  0  0  0  0
  -23.5309  -32.1447   23.7535 O   0  0  0  0  0  0
  -28.0616  -19.0068   22.1540 C   0  0  0  0  0  0
  -27.6124  -20.1565   22.8299 C   0  0  0  0  0  0
  -28.5376  -19.1240   20.8376 C   0  0  0  0  0  0
  -27.6494  -21.3973   22.1513 C   0  0  0  0  0  0
  -28.5259  -20.4015   20.2372 C   0  0  0  0  0  0
  -27.0915  -20.0180   24.2514 C   0  0  0  0  0  0
  -29.0459  -17.8879   20.1065 C   0  0  0  0  0  0
  -27.1440  -22.6988   22.7764 C   0  0  0  0  0  0
  -30.5159  -17.5677   20.4401 C   0  0  0  0  0  0
  -28.0987  -23.9059   22.6255 C   0  0  0  0  0  0
  -27.8148  -24.7534   21.3697 C   0  0  0  0  0  0
  -30.7164  -16.6416   21.6608 C   0  0  0  0  0  0
  -28.6750  -26.0268   21.2692 C   0  0  0  0  0  0
  -28.0739  -21.4970   20.8762 N   0  0  0  0  0  0
  -30.1929  -15.2925   21.4347 N   0  0  0  0  0  0
  -29.1169  -20.6368   18.6312 Cl  0  0  0  0  0  0
  -31.4575  -12.3603   19.1012 H   0  0  0  0  0  0
  -30.2967  -11.2566   19.7776 H   0  0  0  0  0  0
  -29.7156  -11.8089   17.3981 H   0  0  0  0  0  0
  -29.6640  -13.5102   17.7863 H   0  0  0  0  0  0
  -27.8087  -11.3232   18.7916 H   0  0  0  0  0  0
  -27.3585  -12.6755   17.7869 H   0  0  0  0  0  0
  -27.7227  -14.2582   19.6059 H   0  0  0  0  0  0
  -28.6621  -11.9126   21.3233 H   0  0  0  0  0  0
  -28.4633  -13.5389   21.8850 H   0  0  0  0  0  0
  -25.2758   -9.5691   22.4753 H   0  0  0  0  0  0
  -24.0000   -7.4639   22.7473 H   0  0  0  0  0  0
  -21.0838   -8.8772   19.8952 H   0  0  0  0  0  0
  -22.3688  -10.9674   19.6162 H   0  0  0  0  0  0
  -21.2010   -7.6149   23.9715 H   0  0  0  0  0  0
  -21.1481   -6.0523   25.9076 H   0  0  0  0  0  0
  -22.0599   -2.7611   23.2844 H   0  0  0  0  0  0
  -22.4117  -11.9895   22.4778 H   0  0  0  0  0  0
  -21.1126  -13.1269   22.2597 H   0  0  0  0  0  0
  -24.6686  -15.8455   20.5164 H   0  0  0  0  0  0
  -26.2891  -15.6239   20.0913 H   0  0  0  0  0  0
  -26.7105  -32.5573   23.1183 H   0  0  0  0  0  0
  -25.0068  -33.9789   25.0507 H   0  0  0  0  0  0
  -22.6847  -31.3075   21.4119 H   0  0  0  0  0  0
  -23.3752  -35.9655   23.3316 H   0  0  0  0  0  0
  -24.3586  -36.8909   22.2048 H   0  0  0  0  0  0
  -23.7252  -37.6533   23.6637 H   0  0  0  0  0  0
  -26.0286  -31.6112   20.5934 H   0  0  0  0  0  0
  -26.8116  -30.9010   21.9785 H   0  0  0  0  0  0
  -28.0960  -29.1346   21.1722 H   0  0  0  0  0  0
  -26.1046  -25.9932   19.0010 H   0  0  0  0  0  0
  -23.9884  -27.2904   19.0326 H   0  0  0  0  0  0
  -23.7079  -30.5956   19.4031 H   0  0  0  0  0  0
  -22.7317  -29.2365   19.8758 H   0  0  0  0  0  0
  -25.1286  -36.1989   25.0834 H   0  0  0  0  0  0
  -20.9946  -28.3218   24.1447 H   0  0  0  0  0  0
  -20.5674  -26.2256   23.3596 H   0  0  0  0  0  0
  -21.6636  -26.7449   22.1205 H   0  0  0  0  0  0
  -19.6926  -25.6298   21.1223 H   0  0  0  0  0  0
  -19.6688  -27.3200   20.6744 H   0  0  0  0  0  0
  -17.4191  -26.6655   21.4013 H   0  0  0  0  0  0
  -18.0322  -26.0039   22.8995 H   0  0  0  0  0  0
  -19.7930  -30.7231   24.2294 H   0  0  0  0  0  0
  -17.5011  -31.6264   24.5157 H   0  0  0  0  0  0
  -15.5345  -30.2989   23.7638 H   0  0  0  0  0  0
  -15.8651  -28.0821   22.7061 H   0  0  0  0  0  0
  -24.5908  -30.7041   25.7807 H   0  0  0  0  0  0
  -24.8938  -32.2829   26.4955 H   0  0  0  0  0  0
  -25.8104  -30.8833   27.0205 H   0  0  0  0  0  0
  -26.2818  -29.6810   24.1140 H   0  0  0  0  0  0
  -27.4121  -29.7287   25.4475 H   0  0  0  0  0  0
  -27.8623  -30.4379   23.9148 H   0  0  0  0  0  0
  -27.2679  -33.3599   26.2076 H   0  0  0  0  0  0
  -28.3845  -32.6879   25.0271 H   0  0  0  0  0  0
  -28.0740  -31.8400   26.5350 H   0  0  0  0  0  0
  -28.2618  -38.0100   24.7511 H   0  0  0  0  0  0
  -28.1066  -36.2635   24.6301 H   0  0  0  0  0  0
  -27.2299  -37.1476   25.8870 H   0  0  0  0  0  0
  -20.9287  -29.8712   21.6945 H   0  0  0  0  0  0
  -26.0204  -38.2883   24.1392 H   0  0  0  0  0  0
  -28.0450  -18.0413   22.6402 H   0  0  0  0  0  0
  -27.0445  -18.9726   24.5595 H   0  0  0  0  0  0
  -26.0854  -20.4295   24.3386 H   0  0  0  0  0  0
  -27.7432  -20.5405   24.9523 H   0  0  0  0  0  0
  -28.9419  -18.0256   19.0305 H   0  0  0  0  0  0
  -28.4016  -17.0392   20.3384 H   0  0  0  0  0  0
  -26.9895  -22.5501   23.8433 H   0  0  0  0  0  0
  -26.1573  -22.9292   22.3730 H   0  0  0  0  0  0
  -31.0778  -18.4934   20.5738 H   0  0  0  0  0  0
  -30.9694  -17.0934   19.5689 H   0  0  0  0  0  0
  -29.1387  -23.5788   22.6605 H   0  0  0  0  0  0
  -27.9603  -24.5535   23.4922 H   0  0  0  0  0  0
  -26.7608  -25.0304   21.3739 H   0  0  0  0  0  0
  -27.9693  -24.1527   20.4729 H   0  0  0  0  0  0
  -30.2393  -17.0667   22.5434 H   0  0  0  0  0  0
  -31.7802  -16.5762   21.8982 H   0  0  0  0  0  0
  -29.7312  -25.7564   21.2606 H   0  0  0  0  0  0
  -28.5263  -26.6668   22.1413 H   0  0  0  0  0  0
  -29.3265  -15.0370   21.8860 H   0  0  0  0  0  0
  1 25  1  0  0  0
  1 30  2  0  0  0
  1 85  1  0  0  0
  2  3  1  0  0  0
  2 25  1  0  0  0
  2 87  1  0  0  0
  2 88  1  0  0  0
  3  4  1  0  0  0
  3 89  1  0  0  0
  3 90  1  0  0  0
  4  5  1  0  0  0
  4 91  1  0  0  0
  4 92  1  0  0  0
  5  6  1  0  0  0
  5 26  1  0  0  0
  5 93  1  0  0  0
  6 25  1  0  0  0
  6 94  1  0  0  0
  6 95  1  0  0  0
  7  8  2  0  0  0
  7 26  1  0  0  0
  7 29  1  0  0  0
  8  9  1  0  0  0
  8 22  1  0  0  0
  9 10  1  0  0  0
  9 27  2  0  0  0
 10 11  2  0  0  0
 10 15  1  0  0  0
 11 12  1  0  0  0
 11 96  1  0  0  0
 12 13  2  0  0  0
 12 97  1  0  0  0
 13 14  1  0  0  0
 13 31  1  0  0  0
 14 15  2  0  0  0
 14 98  1  0  0  0
 15 99  1  0  0  0
 16 17  2  0  0  0
 16 21  1  0  0  0
 16 31  1  0  0  0
 17 18  1  0  0  0
 17100  1  0  0  0
 18 19  2  0  0  0
 18101  1  0  0  0
 19 20  1  0  0  0
 19 24  1  0  0  0
 20 21  2  0  0  0
 20102  1  0  0  0
 21 23  1  0  0  0
 22 28  1  0  0  0
 22 32  2  0  0  0
 26 27  1  0  0  0
 28103  1  0  0  0
 28104  1  0  0  0
 29105  1  0  0  0
 29106  1  0  0  0
 33 34  1  0  0  0
 33 66  1  0  0  0
 33 70  2  0  0  0
 34 36  1  0  0  0
 34 59  1  0  0  0
 34107  1  0  0  0
 35 44  2  0  0  0
 35 45  1  0  0  0
 35 68  1  0  0  0
 36 56  1  0  0  0
 36108  1  0  0  0
 37 39  1  0  0  0
 37 47  1  0  0  0
 37 66  1  0  0  0
 37109  1  0  0  0
 38 43  2  0  0  0
 38 46  1  0  0  0
 38 47  1  0  0  0
 39 64  1  0  0  0
 39 67  2  0  0  0
 40 52  1  0  0  0
 40 53  2  0  0  0
 40 58  1  0  0  0
 41110  1  0  0  0
 41111  1  0  0  0
 41112  1  0  0  0
 41 48  1  0  0  0
 42 43  1  0  0  0
 42 66  1  0  0  0
 42113  1  0  0  0
 42114  1  0  0  0
 43 44  1  0  0  0
 44115  1  0  0  0
 45 46  2  0  0  0
 45116  1  0  0  0
 46117  1  0  0  0
 47118  1  0  0  0
 47119  1  0  0  0
 48 56  1  0  0  0
 48 65  1  0  0  0
 48120  1  0  0  0
 49 50  1  0  0  0
 49 53  1  0  0  0
 49 64  1  0  0  0
 49121  1  0  0  0
 50 51  1  0  0  0
 50122  1  0  0  0
 50123  1  0  0  0
 51 52  1  0  0  0
 51124  1  0  0  0
 51125  1  0  0  0
 52126  1  0  0  0
 52127  1  0  0  0
 53 54  1  0  0  0
 54 55  2  0  0  0
 54128  1  0  0  0
 55 57  1  0  0  0
 55129  1  0  0  0
 56 69  2  0  0  0
 57 58  2  0  0  0
 57130  1  0  0  0
 58131  1  0  0  0
 59 60  1  0  0  0
 59 61  1  0  0  0
 59 62  1  0  0  0
 60132  1  0  0  0
 60133  1  0  0  0
 60134  1  0  0  0
 61135  1  0  0  0
 61136  1  0  0  0
 61137  1  0  0  0
 62138  1  0  0  0
 62139  1  0  0  0
 62140  1  0  0  0
 63 65  1  0  0  0
 63141  1  0  0  0
 63142  1  0  0  0
 63143  1  0  0  0
 64144  1  0  0  0
 65145  1  0  0  0
 68 83  1  0  0  0
 71 72  2  0  0  0
 71 73  1  0  0  0
 71146  1  0  0  0
 72 74  1  0  0  0
 72 76  1  0  0  0
 73 75  2  0  0  0
 73 77  1  0  0  0
 74 78  1  0  0  0
 74 84  2  0  0  0
 75 84  1  0  0  0
 75 86  1  0  0  0
 76147  1  0  0  0
 76148  1  0  0  0
 76149  1  0  0  0
 77 79  1  0  0  0
 77150  1  0  0  0
 77151  1  0  0  0
 78 80  1  0  0  0
 78152  1  0  0  0
 78153  1  0  0  0
 79 82  1  0  0  0
 79154  1  0  0  0
 79155  1  0  0  0
 80 81  1  0  0  0
 80156  1  0  0  0
 80157  1  0  0  0
 81 83  1  0  0  0
 81158  1  0  0  0
 81159  1  0  0  0
 82 85  1  0  0  0
 82160  1  0  0  0
 82161  1  0  0  0
 83162  1  0  0  0
 83163  1  0  0  0
 85164  1  0  0  0
M  ISO  4   1 100  68 101  83 101  85 100
M  END
> <chiral flag>
0

> <version>
0

> <s_m_source_file>
/data/baiqing/PycharmProjects/Reinvent-master-3.2/result/LINK_invent/BTK/process_docking_weight1_custom_sum_contain_oxygen_bond_distance_aromatic_linkinvent_7_9_3/rearranged_h_0030.sdf

> <i_m_source_file_index>
24

> <r_mmod_Potential_Energy-OPLS-2005>
-221.48046875

> <r_mmod_Stretch_Energy-OPLS-2005>
32.0818748474121

> <r_mmod_Bend_Energy-OPLS-2005>
89.4074401855469

> <r_mmod_Torsional_Energy-OPLS-2005>
226.129501342773

> <r_mmod_Improper_Torsional_Energy-OPLS-2005>
2.15695548057556

> <r_mmod_Van_der_Waal_Energy-OPLS-2005>
152.228698730469

> <r_mmod_Electrostatic_Energy-OPLS-2005>
-516.88916015625

> <r_mmod_Solvation_Energy-OPLS-2005>
-213.459289550781

> <b_mmod_Minimization_Converged-OPLS-2005>
0

> <r_mmod_RMS_Derivative-OPLS-2005>
0.965186357498169

$$$$
24
                    3D
 Structure written by MMmdl.
153161  0  0  1  0            999 V2000
  -30.5571  -14.9515   20.3932 C   0  0  0  0  0  0
  -30.4307  -12.5828   19.5026 C   0  0  0  0  0  0
  -29.5211  -12.5293   18.2556 C   0  0  0  0  0  0
  -28.0520  -12.3226   18.6680 C   0  0  0  0  0  0
  -27.6269  -13.2545   19.8339 C   0  0  2  0  0  0
  -28.6688  -13.2967   20.9710 C   0  0  0  0  0  0
  -25.2445  -13.8226   20.5694 C   0  0  0  0  0  0
  -24.1779  -13.0434   20.9228 C   0  0  0  0  0  0
  -24.6410  -11.6927   20.8745 C   0  0  0  0  0  0
  -23.9101  -10.4291   21.0396 C   0  0  0  0  0  0
  -24.3645   -9.4203   21.9177 C   0  0  0  0  0  0
  -23.6310   -8.2243   22.0754 C   0  0  0  0  0  0
  -22.4288   -8.0284   21.3548 C   0  0  0  0  0  0
  -21.9923   -9.0263   20.4651 C   0  0  0  0  0  0
  -22.7262  -10.2137   20.3050 C   0  0  0  0  0  0
  -21.6861   -6.0734   22.5277 C   0  0  0  0  0  0
  -21.4025   -6.5641   23.8210 C   0  0  0  0  0  0
  -21.3664   -5.6795   24.9177 C   0  0  0  0  0  0
  -21.6044   -4.3054   24.7225 C   0  0  0  0  0  0
  -21.8823   -3.8144   23.4344 C   0  0  0  0  0  0
  -21.9194   -4.6962   22.3401 C   0  0  0  0  0  0
  -22.7792  -13.5193   21.1873 C   0  0  0  0  0  0
  -22.1654   -4.2149   21.0976 F   0  0  0  0  0  0
  -21.5632   -3.4538   25.7735 F   0  0  0  0  0  0
  -29.9443  -13.6981   20.3670 N   0  0  0  0  0  0
  -26.2878  -12.9475   20.3224 N   0  0  0  0  0  0
  -25.9344  -11.6598   20.5724 N   0  0  0  0  0  0
  -22.0441  -12.8204   22.0442 N   0  0  0  0  0  0
  -25.4078  -15.1960   20.4099 N   0  0  0  0  0  0
  -31.7671  -14.9602   20.1488 O   0  0  0  0  0  0
  -21.6651   -6.8876   21.4237 O   0  0  0  0  0  0
  -22.3468  -14.5489   20.6706 O   0  0  0  0  0  0
  -24.6451  -31.8437   23.1869 C   0  0  0  0  0  0
  -25.9220  -32.4690   23.8265 C   0  0  1  0  0  0
  -27.2140  -27.1301   20.1499 C   0  0  0  0  0  0
  -25.5966  -33.8500   24.2195 N   0  0  0  0  0  0
  -23.4480  -30.4648   21.5328 C   0  0  2  0  0  0
  -24.8968  -28.8913   20.1084 C   0  0  0  0  0  0
  -22.7572  -29.4555   22.4849 C   0  0  0  0  0  0
  -18.0302  -28.1381   22.8469 C   0  0  0  0  0  0
  -24.1494  -36.7260   23.2639 C   0  0  0  0  0  0
  -26.0045  -30.7181   21.3835 C   0  0  0  0  0  0
  -26.0753  -29.3284   20.7256 C   0  0  0  0  0  0
  -27.2361  -28.4643   20.7277 C   0  0  0  0  0  0
  -26.0090  -26.7998   19.4905 C   0  0  0  0  0  0
  -24.8779  -27.6415   19.4729 C   0  0  0  0  0  0
  -23.6743  -29.7951   20.1514 C   0  0  0  0  0  0
  -25.4119  -36.3036   24.0321 C   0  0  1  0  0  0
  -20.5916  -28.3722   23.1218 C   0  0  2  0  0  0
  -20.6787  -26.9424   22.5392 C   0  0  0  0  0  0
  -19.5768  -26.6368   21.5195 C   0  0  0  0  0  0
  -18.1951  -26.7917   22.1610 C   0  0  0  0  0  0
  -19.1559  -28.8866   23.2835 C   0  0  0  0  0  0
  -18.9478  -30.1457   23.8869 C   0  0  0  0  0  0
  -17.6477  -30.6583   24.0554 C   0  0  0  0  0  0
  -25.9077  -34.9409   23.5067 C   0  0  0  0  0  0
  -16.5366  -29.9086   23.6316 C   0  0  0  0  0  0
  -16.7286  -28.6495   23.0353 C   0  0  0  0  0  0
  -26.4541  -31.6546   25.0697 C   0  0  0  0  0  0
  -25.3739  -31.3724   26.1399 C   0  0  0  0  0  0
  -27.0389  -30.2937   24.6259 C   0  0  0  0  0  0
  -27.6077  -32.4296   25.7492 C   0  0  0  0  0  0
  -27.5578  -37.1784   24.8464 C   0  0  0  0  0  0
  -21.4264  -29.3064   22.3607 N   0  0  0  0  0  0
  -26.4276  -37.3752   23.9421 N   0  0  0  0  0  0
  -24.7195  -31.0298   22.0898 N   0  0  0  0  0  0
  -23.4217  -28.8085   23.2983 O   0  0  0  0  0  0
  -28.2619  -26.1367   20.2185 O   0  0  0  0  0  0
  -26.5671  -34.8904   22.4649 O   0  0  0  0  0  0
  -23.5566  -32.1321   23.7076 O   0  0  0  0  0  0
  -29.2672  -18.8749   20.3940 C   0  0  0  0  0  0
  -31.4618  -17.9940   19.9163 C   0  0  0  0  0  0
  -29.6562  -20.3023   20.1438 C   0  0  0  0  0  0
  -31.0230  -20.4364   19.7555 C   0  0  0  0  0  0
  -30.1415  -17.6639   20.2858 C   0  0  0  0  0  0
  -31.8832  -19.3125   19.6624 C   0  0  0  0  0  0
  -31.6256  -21.7819   19.3845 C   0  0  0  0  0  0
  -28.6496  -21.6382   20.1776 C   0  0  0  0  0  0
  -29.0253  -23.3013   20.3024 C   0  0  0  0  0  0
  -27.9599  -24.6044   20.1432 C   0  0  0  0  0  0
  -29.8011  -16.1669   20.4906 N   0  0  0  0  0  0
  -33.1764  -19.4872   19.2947 F   0  0  0  0  0  0
  -31.4675  -12.7216   19.1947 H   0  0  0  0  0  0
  -30.4052  -11.6339   20.0416 H   0  0  0  0  0  0
  -29.8405  -11.7315   17.5836 H   0  0  0  0  0  0
  -29.6171  -13.4585   17.6917 H   0  0  0  0  0  0
  -27.9404  -11.2806   18.9688 H   0  0  0  0  0  0
  -27.3944  -12.4634   17.8093 H   0  0  0  0  0  0
  -27.5847  -14.2555   19.4038 H   0  0  0  0  0  0
  -28.7539  -12.3281   21.4664 H   0  0  0  0  0  0
  -28.3715  -14.0145   21.7373 H   0  0  0  0  0  0
  -25.2782   -9.5692   22.4761 H   0  0  0  0  0  0
  -24.0019   -7.4641   22.7480 H   0  0  0  0  0  0
  -21.0843   -8.8793   19.8965 H   0  0  0  0  0  0
  -22.3702  -10.9691   19.6175 H   0  0  0  0  0  0
  -21.2016   -7.6146   23.9721 H   0  0  0  0  0  0
  -21.1485   -6.0518   25.9086 H   0  0  0  0  0  0
  -22.0593   -2.7602   23.2847 H   0  0  0  0  0  0
  -22.4061  -11.9879   22.4857 H   0  0  0  0  0  0
  -21.1063  -13.1243   22.2629 H   0  0  0  0  0  0
  -24.6341  -15.8420   20.5201 H   0  0  0  0  0  0
  -26.2466  -15.6423   20.0622 H   0  0  0  0  0  0
  -26.7290  -32.5297   23.1001 H   0  0  0  0  0  0
  -25.0105  -33.9622   25.0335 H   0  0  0  0  0  0
  -22.7506  -31.2913   21.3781 H   0  0  0  0  0  0
  -23.3762  -35.9584   23.3264 H   0  0  0  0  0  0
  -24.3587  -36.8926   22.2060 H   0  0  0  0  0  0
  -23.7227  -37.6437   23.6693 H   0  0  0  0  0  0
  -26.1565  -31.4701   20.6085 H   0  0  0  0  0  0
  -26.8761  -30.7716   22.0237 H   0  0  0  0  0  0
  -28.1341  -28.7933   21.2314 H   0  0  0  0  0  0
  -25.9005  -25.8493   18.9926 H   0  0  0  0  0  0
  -23.9809  -27.3045   18.9723 H   0  0  0  0  0  0
  -23.8136  -30.5698   19.3965 H   0  0  0  0  0  0
  -22.7875  -29.2424   19.8366 H   0  0  0  0  0  0
  -25.1297  -36.1868   25.0811 H   0  0  0  0  0  0
  -21.0004  -28.3304   24.1338 H   0  0  0  0  0  0
  -20.5645  -26.2347   23.3621 H   0  0  0  0  0  0
  -21.6659  -26.7424   22.1207 H   0  0  0  0  0  0
  -19.6943  -25.6269   21.1248 H   0  0  0  0  0  0
  -19.6685  -27.3155   20.6706 H   0  0  0  0  0  0
  -17.4211  -26.6638   21.4026 H   0  0  0  0  0  0
  -18.0372  -26.0058   22.9006 H   0  0  0  0  0  0
  -19.7958  -30.7272   24.2230 H   0  0  0  0  0  0
  -17.5036  -31.6254   24.5175 H   0  0  0  0  0  0
  -15.5370  -30.2995   23.7637 H   0  0  0  0  0  0
  -15.8680  -28.0804   22.7103 H   0  0  0  0  0  0
  -24.5937  -30.7053   25.7719 H   0  0  0  0  0  0
  -24.8914  -32.2899   26.4777 H   0  0  0  0  0  0
  -25.8040  -30.8931   27.0205 H   0  0  0  0  0  0
  -26.2989  -29.6658   24.1282 H   0  0  0  0  0  0
  -27.4023  -29.7230   25.4817 H   0  0  0  0  0  0
  -27.8894  -30.4156   23.9547 H   0  0  0  0  0  0
  -27.2683  -33.3616   26.2025 H   0  0  0  0  0  0
  -28.3925  -32.6819   25.0349 H   0  0  0  0  0  0
  -28.0709  -31.8444   26.5451 H   0  0  0  0  0  0
  -28.2568  -38.0108   24.7535 H   0  0  0  0  0  0
  -28.1099  -36.2638   24.6247 H   0  0  0  0  0  0
  -27.2310  -37.1379   25.8869 H   0  0  0  0  0  0
  -20.9480  -29.8808   21.6808 H   0  0  0  0  0  0
  -26.0145  -38.2816   24.1427 H   0  0  0  0  0  0
  -28.2346  -18.7055   20.6657 H   0  0  0  0  0  0
  -32.2138  -17.2338   19.7933 H   0  0  0  0  0  0
  -31.0967  -22.2093   18.5332 H   0  0  0  0  0  0
  -32.6679  -21.7089   19.0773 H   0  0  0  0  0  0
  -31.6037  -22.4629   20.2345 H   0  0  0  0  0  0
  -27.9241  -21.4297   20.9652 H   0  0  0  0  0  0
  -28.0683  -21.5474   19.2593 H   0  0  0  0  0  0
  -29.7639  -23.5342   19.5444 H   0  0  0  0  0  0
  -29.5410  -23.4298   21.2548 H   0  0  0  0  0  0
  -27.1648  -24.4352   20.8702 H   0  0  0  0  0  0
  -27.4968  -24.4459   19.1709 H   0  0  0  0  0  0
  -28.8256  -15.9911   20.6754 H   0  0  0  0  0  0
  1 25  1  0  0  0
  1 30  2  0  0  0
  1 81  1  0  0  0
  2  3  1  0  0  0
  2 25  1  0  0  0
  2 83  1  0  0  0
  2 84  1  0  0  0
  3  4  1  0  0  0
  3 85  1  0  0  0
  3 86  1  0  0  0
  4  5  1  0  0  0
  4 87  1  0  0  0
  4 88  1  0  0  0
  5  6  1  0  0  0
  5 26  1  0  0  0
  5 89  1  0  0  0
  6 25  1  0  0  0
  6 90  1  0  0  0
  6 91  1  0  0  0
  7  8  2  0  0  0
  7 26  1  0  0  0
  7 29  1  0  0  0
  8  9  1  0  0  0
  8 22  1  0  0  0
  9 10  1  0  0  0
  9 27  2  0  0  0
 10 11  2  0  0  0
 10 15  1  0  0  0
 11 12  1  0  0  0
 11 92  1  0  0  0
 12 13  2  0  0  0
 12 93  1  0  0  0
 13 14  1  0  0  0
 13 31  1  0  0  0
 14 15  2  0  0  0
 14 94  1  0  0  0
 15 95  1  0  0  0
 16 17  2  0  0  0
 16 21  1  0  0  0
 16 31  1  0  0  0
 17 18  1  0  0  0
 17 96  1  0  0  0
 18 19  2  0  0  0
 18 97  1  0  0  0
 19 20  1  0  0  0
 19 24  1  0  0  0
 20 21  2  0  0  0
 20 98  1  0  0  0
 21 23  1  0  0  0
 22 28  1  0  0  0
 22 32  2  0  0  0
 26 27  1  0  0  0
 28 99  1  0  0  0
 28100  1  0  0  0
 29101  1  0  0  0
 29102  1  0  0  0
 33 34  1  0  0  0
 33 66  1  0  0  0
 33 70  2  0  0  0
 34 36  1  0  0  0
 34 59  1  0  0  0
 34103  1  0  0  0
 35 44  2  0  0  0
 35 45  1  0  0  0
 35 68  1  0  0  0
 36 56  1  0  0  0
 36104  1  0  0  0
 37 39  1  0  0  0
 37 47  1  0  0  0
 37 66  1  0  0  0
 37105  1  0  0  0
 38 43  2  0  0  0
 38 46  1  0  0  0
 38 47  1  0  0  0
 39 64  1  0  0  0
 39 67  2  0  0  0
 40 52  1  0  0  0
 40 53  2  0  0  0
 40 58  1  0  0  0
 41106  1  0  0  0
 41107  1  0  0  0
 41108  1  0  0  0
 41 48  1  0  0  0
 42 43  1  0  0  0
 42 66  1  0  0  0
 42109  1  0  0  0
 42110  1  0  0  0
 43 44  1  0  0  0
 44111  1  0  0  0
 45 46  2  0  0  0
 45112  1  0  0  0
 46113  1  0  0  0
 47114  1  0  0  0
 47115  1  0  0  0
 48 56  1  0  0  0
 48 65  1  0  0  0
 48116  1  0  0  0
 49 50  1  0  0  0
 49 53  1  0  0  0
 49 64  1  0  0  0
 49117  1  0  0  0
 50 51  1  0  0  0
 50118  1  0  0  0
 50119  1  0  0  0
 51 52  1  0  0  0
 51120  1  0  0  0
 51121  1  0  0  0
 52122  1  0  0  0
 52123  1  0  0  0
 53 54  1  0  0  0
 54 55  2  0  0  0
 54124  1  0  0  0
 55 57  1  0  0  0
 55125  1  0  0  0
 56 69  2  0  0  0
 57 58  2  0  0  0
 57126  1  0  0  0
 58127  1  0  0  0
 59 60  1  0  0  0
 59 61  1  0  0  0
 59 62  1  0  0  0
 60128  1  0  0  0
 60129  1  0  0  0
 60130  1  0  0  0
 61131  1  0  0  0
 61132  1  0  0  0
 61133  1  0  0  0
 62134  1  0  0  0
 62135  1  0  0  0
 62136  1  0  0  0
 63 65  1  0  0  0
 63137  1  0  0  0
 63138  1  0  0  0
 63139  1  0  0  0
 64140  1  0  0  0
 65141  1  0  0  0
 68 80  1  0  0  0
 71 73  2  0  0  0
 71 75  1  0  0  0
 71142  1  0  0  0
 72 75  2  0  0  0
 72 76  1  0  0  0
 72143  1  0  0  0
 73 74  1  0  0  0
 73 78  1  0  0  0
 74 76  2  0  0  0
 74 77  1  0  0  0
 75 81  1  0  0  0
 76 82  1  0  0  0
 77144  1  0  0  0
 77145  1  0  0  0
 77146  1  0  0  0
 78 79  1  0  0  0
 78147  1  0  0  0
 78148  1  0  0  0
 79 80  1  0  0  0
 79149  1  0  0  0
 79150  1  0  0  0
 80151  1  0  0  0
 80152  1  0  0  0
 81153  1  0  0  0
M  ISO  4   1 100  68 101  80 101  81 100
M  END
> <chiral flag>
0

> <version>
0

> <s_m_source_file>
/data/baiqing/PycharmProjects/Reinvent-master-3.2/result/LINK_invent/BTK/process_docking_weight1_custom_sum_contain_oxygen_bond_distance_aromatic_linkinvent_7_9_3/rearranged_h_0030.sdf

> <i_m_source_file_index>
25

> <r_mmod_Potential_Energy-OPLS-2005>
545.914733886719

> <r_mmod_Stretch_Energy-OPLS-2005>
289.081787109375

> <r_mmod_Bend_Energy-OPLS-2005>
258.738037109375

> <r_mmod_Torsional_Energy-OPLS-2005>
211.810333251953

> <r_mmod_Improper_Torsional_Energy-OPLS-2005>
4.56912899017334

> <r_mmod_Van_der_Waal_Energy-OPLS-2005>
147.437606811523

> <r_mmod_Electrostatic_Energy-OPLS-2005>
-357.105407714844

> <r_mmod_Solvation_Energy-OPLS-2005>
-203.937683105469

> <b_mmod_Minimization_Converged-OPLS-2005>
0

> <r_mmod_RMS_Derivative-OPLS-2005>
1.74100863933563

$$$$
25
                    3D
 Structure written by MMmdl.
169178  0  0  1  0            999 V2000
  -30.6896  -14.4270   20.6232 C   0  0  0  0  0  0
  -30.4274  -12.2947   19.4162 C   0  0  0  0  0  0
  -29.4967  -12.5213   18.2067 C   0  0  0  0  0  0
  -28.0147  -12.3825   18.6118 C   0  0  0  0  0  0
  -27.6645  -13.2028   19.8810 C   0  0  2  0  0  0
  -28.6983  -12.9407   20.9999 C   0  0  0  0  0  0
  -25.2590  -13.8162   20.5666 C   0  0  0  0  0  0
  -24.1836  -13.0433   20.9132 C   0  0  0  0  0  0
  -24.6396  -11.6894   20.8701 C   0  0  0  0  0  0
  -23.9065  -10.4275   21.0381 C   0  0  0  0  0  0
  -24.3603   -9.4189   21.9173 C   0  0  0  0  0  0
  -23.6273   -8.2233   22.0758 C   0  0  0  0  0  0
  -22.4254   -8.0271   21.3551 C   0  0  0  0  0  0
  -21.9889   -9.0248   20.4651 C   0  0  0  0  0  0
  -22.7215  -10.2128   20.3050 C   0  0  0  0  0  0
  -21.6826   -6.0733   22.5293 C   0  0  0  0  0  0
  -21.4009   -6.5647   23.8229 C   0  0  0  0  0  0
  -21.3663   -5.6804   24.9189 C   0  0  0  0  0  0
  -21.6051   -4.3065   24.7247 C   0  0  0  0  0  0
  -21.8814   -3.8156   23.4359 C   0  0  0  0  0  0
  -21.9176   -4.6966   22.3410 C   0  0  0  0  0  0
  -22.7870  -13.5223   21.1835 C   0  0  0  0  0  0
  -22.1634   -4.2146   21.0986 F   0  0  0  0  0  0
  -21.5621   -3.4544   25.7749 F   0  0  0  0  0  0
  -30.0369  -13.2480   20.4643 N   0  0  0  0  0  0
  -26.3020  -12.9325   20.3343 N   0  0  0  0  0  0
  -25.9312  -11.6481   20.5716 N   0  0  0  0  0  0
  -22.0526  -12.8226   22.0409 N   0  0  0  0  0  0
  -25.4346  -15.1886   20.4140 N   0  0  0  0  0  0
  -31.7952  -14.6657   20.1272 O   0  0  0  0  0  0
  -21.6609   -6.8876   21.4251 O   0  0  0  0  0  0
  -22.3551  -14.5535   20.6685 O   0  0  0  0  0  0
  -24.6103  -31.8717   23.2154 C   0  0  0  0  0  0
  -25.9040  -32.4814   23.8418 C   0  0  1  0  0  0
  -27.2317  -27.4642   20.0663 C   0  0  0  0  0  0
  -25.5931  -33.8618   24.2337 N   0  0  0  0  0  0
  -23.3915  -30.5005   21.5554 C   0  0  2  0  0  0
  -24.8340  -28.9714   20.1186 C   0  0  0  0  0  0
  -22.7354  -29.4686   22.4995 C   0  0  0  0  0  0
  -18.0266  -28.1355   22.8508 C   0  0  0  0  0  0
  -24.1501  -36.7312   23.2631 C   0  0  0  0  0  0
  -25.9198  -30.8393   21.3690 C   0  0  0  0  0  0
  -25.9934  -29.4759   20.7177 C   0  0  0  0  0  0
  -27.1884  -28.7245   20.7015 C   0  0  0  0  0  0
  -26.0465  -26.9748   19.4653 C   0  0  0  0  0  0
  -24.8519  -27.7126   19.5003 C   0  0  0  0  0  0
  -23.5978  -29.8386   20.1682 C   0  0  0  0  0  0
  -25.4124  -36.3102   24.0321 C   0  0  1  0  0  0
  -20.5861  -28.3636   23.1327 C   0  0  2  0  0  0
  -20.6776  -26.9374   22.5433 C   0  0  0  0  0  0
  -19.5757  -26.6394   21.5220 C   0  0  0  0  0  0
  -18.1920  -26.7916   22.1616 C   0  0  0  0  0  0
  -19.1515  -28.8811   23.2918 C   0  0  0  0  0  0
  -18.9453  -30.1427   23.8908 C   0  0  0  0  0  0
  -17.6460  -30.6574   24.0573 C   0  0  0  0  0  0
  -25.9040  -34.9462   23.5107 C   0  0  0  0  0  0
  -16.5349  -29.9079   23.6339 C   0  0  0  0  0  0
  -16.7256  -28.6499   23.0350 C   0  0  0  0  0  0
  -26.4498  -31.6567   25.0713 C   0  0  0  0  0  0
  -25.3806  -31.3657   26.1491 C   0  0  0  0  0  0
  -27.0326  -30.3013   24.6049 C   0  0  0  0  0  0
  -27.6066  -32.4277   25.7476 C   0  0  0  0  0  0
  -27.5576  -37.1818   24.8457 C   0  0  0  0  0  0
  -21.4093  -29.3017   22.3725 N   0  0  0  0  0  0
  -26.4298  -37.3791   23.9394 N   0  0  0  0  0  0
  -24.6574  -31.0855   22.1034 N   0  0  0  0  0  0
  -23.4163  -28.8219   23.2996 O   0  0  0  0  0  0
  -28.4342  -26.7857   20.0441 O   0  0  0  0  0  0
  -26.5589  -34.8909   22.4658 O   0  0  0  0  0  0
  -23.5306  -32.1458   23.7579 O   0  0  0  0  0  0
  -28.0632  -18.2208   21.2367 C   0  0  0  0  0  0
  -27.8113  -18.1165   18.4551 C   0  0  0  0  0  0
  -26.9565  -18.8552   20.6219 C   0  0  0  0  0  0
  -26.8197  -18.7722   19.2128 C   0  0  0  0  0  0
  -29.0405  -17.5333   20.4822 C   0  0  0  0  0  0
  -28.9173  -17.5068   19.0731 C   0  0  0  0  0  0
  -25.9460  -19.5447   21.5453 C   0  0  0  0  0  0
  -25.6073  -19.3199   18.4812 C   0  0  0  0  0  0
  -25.0012  -20.6382   20.9885 C   0  0  0  0  0  0
  -25.5250  -20.8541   18.4665 C   0  0  0  0  0  0
  -25.5175  -21.5433   19.8511 C   0  0  2  0  0  0
  -30.1807  -16.8147   21.2022 C   0  0  0  0  0  0
  -28.1599  -24.3293   20.1122 C   0  0  0  0  0  0
  -27.0828  -23.4529   19.4403 C   0  0  0  0  0  0
  -28.5589  -25.5754   19.2912 C   0  0  0  0  0  0
  -29.9698  -15.3688   21.2502 N   0  0  0  0  0  0
  -26.7937  -22.2172   20.2049 N   0  3  0  0  0  0
  -30.0854  -16.7249   18.0699 Cl  0  0  0  0  0  0
  -31.4720  -12.4086   19.1168 H   0  0  0  0  0  0
  -30.3322  -11.2747   19.7919 H   0  0  0  0  0  0
  -29.7360  -11.8167   17.4096 H   0  0  0  0  0  0
  -29.6687  -13.5178   17.7962 H   0  0  0  0  0  0
  -27.8113  -11.3248   18.7863 H   0  0  0  0  0  0
  -27.3697  -12.6833   17.7847 H   0  0  0  0  0  0
  -27.7229  -14.2555   19.6082 H   0  0  0  0  0  0
  -28.6626  -11.8953   21.3071 H   0  0  0  0  0  0
  -28.4498  -13.5066   21.8989 H   0  0  0  0  0  0
  -25.2768   -9.5653   22.4708 H   0  0  0  0  0  0
  -23.9982   -7.4624   22.7478 H   0  0  0  0  0  0
  -21.0825   -8.8769   19.8961 H   0  0  0  0  0  0
  -22.3695  -10.9656   19.6132 H   0  0  0  0  0  0
  -21.2009   -7.6164   23.9727 H   0  0  0  0  0  0
  -21.1486   -6.0541   25.9092 H   0  0  0  0  0  0
  -22.0595   -2.7617   23.2875 H   0  0  0  0  0  0
  -22.4115  -11.9871   22.4799 H   0  0  0  0  0  0
  -21.1148  -13.1262   22.2626 H   0  0  0  0  0  0
  -24.6705  -15.8439   20.5322 H   0  0  0  0  0  0
  -26.2984  -15.6377   20.1381 H   0  0  0  0  0  0
  -26.7075  -32.5536   23.1150 H   0  0  0  0  0  0
  -25.0162  -33.9789   25.0537 H   0  0  0  0  0  0
  -22.6776  -31.3172   21.4233 H   0  0  0  0  0  0
  -23.3740  -35.9671   23.3311 H   0  0  0  0  0  0
  -24.3597  -36.8911   22.2043 H   0  0  0  0  0  0
  -23.7284  -37.6524   23.6646 H   0  0  0  0  0  0
  -26.0396  -31.6069   20.6038 H   0  0  0  0  0  0
  -26.8048  -30.8836   21.9913 H   0  0  0  0  0  0
  -28.0839  -29.1182   21.1612 H   0  0  0  0  0  0
  -26.0113  -26.0406   18.9384 H   0  0  0  0  0  0
  -23.9598  -27.3163   19.0356 H   0  0  0  0  0  0
  -23.7072  -30.6167   19.4126 H   0  0  0  0  0  0
  -22.7196  -29.2633   19.8682 H   0  0  0  0  0  0
  -25.1308  -36.1950   25.0812 H   0  0  0  0  0  0
  -20.9971  -28.3223   24.1443 H   0  0  0  0  0  0
  -20.5712  -26.2226   23.3612 H   0  0  0  0  0  0
  -21.6650  -26.7465   22.1208 H   0  0  0  0  0  0
  -19.6923  -25.6333   21.1190 H   0  0  0  0  0  0
  -19.6699  -27.3254   20.6791 H   0  0  0  0  0  0
  -17.4216  -26.6709   21.3975 H   0  0  0  0  0  0
  -18.0274  -26.0012   22.8955 H   0  0  0  0  0  0
  -19.7926  -30.7244   24.2264 H   0  0  0  0  0  0
  -17.5027  -31.6263   24.5174 H   0  0  0  0  0  0
  -15.5355  -30.2991   23.7656 H   0  0  0  0  0  0
  -15.8662  -28.0834   22.7025 H   0  0  0  0  0  0
  -24.6006  -30.6943   25.7874 H   0  0  0  0  0  0
  -24.8992  -32.2811   26.4924 H   0  0  0  0  0  0
  -25.8238  -30.8876   27.0240 H   0  0  0  0  0  0
  -26.2845  -29.6742   24.1180 H   0  0  0  0  0  0
  -27.4192  -29.7250   25.4460 H   0  0  0  0  0  0
  -27.8637  -30.4304   23.9120 H   0  0  0  0  0  0
  -27.2669  -33.3563   26.2066 H   0  0  0  0  0  0
  -28.3896  -32.6839   25.0333 H   0  0  0  0  0  0
  -28.0714  -31.8398   26.5396 H   0  0  0  0  0  0
  -28.2601  -38.0102   24.7503 H   0  0  0  0  0  0
  -28.1063  -36.2640   24.6301 H   0  0  0  0  0  0
  -27.2294  -37.1485   25.8856 H   0  0  0  0  0  0
  -20.9201  -29.8735   21.6977 H   0  0  0  0  0  0
  -26.0164  -38.2850   24.1420 H   0  0  0  0  0  0
  -28.1520  -18.2438   22.3151 H   0  0  0  0  0  0
  -27.7233  -18.0547   17.3786 H   0  0  0  0  0  0
  -26.5192  -19.9945   22.3572 H   0  0  0  0  0  0
  -25.3378  -18.7742   22.0188 H   0  0  0  0  0  0
  -24.7096  -18.8769   18.9136 H   0  0  0  0  0  0
  -25.6198  -18.9667   17.4493 H   0  0  0  0  0  0
  -24.6824  -21.2633   21.8242 H   0  0  0  0  0  0
  -24.0775  -20.1695   20.6460 H   0  0  0  0  0  0
  -24.5961  -21.1159   17.9564 H   0  0  0  0  0  0
  -26.3141  -21.2486   17.8285 H   0  0  0  0  0  0
  -24.7723  -22.3383   19.7739 H   0  0  0  0  0  0
  -30.2575  -17.1711   22.2302 H   0  0  0  0  0  0
  -31.1293  -17.0719   20.7279 H   0  0  0  0  0  0
  -29.0564  -23.7324   20.2862 H   0  0  0  0  0  0
  -27.8152  -24.6401   21.0991 H   0  0  0  0  0  0
  -27.3829  -23.1993   18.4238 H   0  0  0  0  0  0
  -26.1604  -24.0224   19.3609 H   0  0  0  0  0  0
  -28.0469  -25.6324   18.3306 H   0  0  0  0  0  0
  -29.6111  -25.4821   19.0221 H   0  0  0  0  0  0
  -29.0964  -15.0624   21.6507 H   0  0  0  0  0  0
  -27.5616  -21.5697   20.1127 H   0  0  0  0  0  0
  -26.7258  -22.4831   21.1755 H   0  0  0  0  0  0
  1 25  1  0  0  0
  1 30  2  0  0  0
  1 86  1  0  0  0
  2  3  1  0  0  0
  2 25  1  0  0  0
  2 89  1  0  0  0
  2 90  1  0  0  0
  3  4  1  0  0  0
  3 91  1  0  0  0
  3 92  1  0  0  0
  4  5  1  0  0  0
  4 93  1  0  0  0
  4 94  1  0  0  0
  5  6  1  0  0  0
  5 26  1  0  0  0
  5 95  1  0  0  0
  6 25  1  0  0  0
  6 96  1  0  0  0
  6 97  1  0  0  0
  7  8  2  0  0  0
  7 26  1  0  0  0
  7 29  1  0  0  0
  8  9  1  0  0  0
  8 22  1  0  0  0
  9 10  1  0  0  0
  9 27  2  0  0  0
 10 11  2  0  0  0
 10 15  1  0  0  0
 11 12  1  0  0  0
 11 98  1  0  0  0
 12 13  2  0  0  0
 12 99  1  0  0  0
 13 14  1  0  0  0
 13 31  1  0  0  0
 14 15  2  0  0  0
 14100  1  0  0  0
 15101  1  0  0  0
 16 17  2  0  0  0
 16 21  1  0  0  0
 16 31  1  0  0  0
 17 18  1  0  0  0
 17102  1  0  0  0
 18 19  2  0  0  0
 18103  1  0  0  0
 19 20  1  0  0  0
 19 24  1  0  0  0
 20 21  2  0  0  0
 20104  1  0  0  0
 21 23  1  0  0  0
 22 28  1  0  0  0
 22 32  2  0  0  0
 26 27  1  0  0  0
 28105  1  0  0  0
 28106  1  0  0  0
 29107  1  0  0  0
 29108  1  0  0  0
 33 34  1  0  0  0
 33 66  1  0  0  0
 33 70  2  0  0  0
 34 36  1  0  0  0
 34 59  1  0  0  0
 34109  1  0  0  0
 35 44  2  0  0  0
 35 45  1  0  0  0
 35 68  1  0  0  0
 36 56  1  0  0  0
 36110  1  0  0  0
 37 39  1  0  0  0
 37 47  1  0  0  0
 37 66  1  0  0  0
 37111  1  0  0  0
 38 43  2  0  0  0
 38 46  1  0  0  0
 38 47  1  0  0  0
 39 64  1  0  0  0
 39 67  2  0  0  0
 40 52  1  0  0  0
 40 53  2  0  0  0
 40 58  1  0  0  0
 41112  1  0  0  0
 41113  1  0  0  0
 41114  1  0  0  0
 41 48  1  0  0  0
 42 43  1  0  0  0
 42 66  1  0  0  0
 42115  1  0  0  0
 42116  1  0  0  0
 43 44  1  0  0  0
 44117  1  0  0  0
 45 46  2  0  0  0
 45118  1  0  0  0
 46119  1  0  0  0
 47120  1  0  0  0
 47121  1  0  0  0
 48 56  1  0  0  0
 48 65  1  0  0  0
 48122  1  0  0  0
 49 50  1  0  0  0
 49 53  1  0  0  0
 49 64  1  0  0  0
 49123  1  0  0  0
 50 51  1  0  0  0
 50124  1  0  0  0
 50125  1  0  0  0
 51 52  1  0  0  0
 51126  1  0  0  0
 51127  1  0  0  0
 52128  1  0  0  0
 52129  1  0  0  0
 53 54  1  0  0  0
 54 55  2  0  0  0
 54130  1  0  0  0
 55 57  1  0  0  0
 55131  1  0  0  0
 56 69  2  0  0  0
 57 58  2  0  0  0
 57132  1  0  0  0
 58133  1  0  0  0
 59 60  1  0  0  0
 59 61  1  0  0  0
 59 62  1  0  0  0
 60134  1  0  0  0
 60135  1  0  0  0
 60136  1  0  0  0
 61137  1  0  0  0
 61138  1  0  0  0
 61139  1  0  0  0
 62140  1  0  0  0
 62141  1  0  0  0
 62142  1  0  0  0
 63 65  1  0  0  0
 63143  1  0  0  0
 63144  1  0  0  0
 63145  1  0  0  0
 64146  1  0  0  0
 65147  1  0  0  0
 68 85  1  0  0  0
 71 73  2  0  0  0
 71 75  1  0  0  0
 71148  1  0  0  0
 72 74  2  0  0  0
 72 76  1  0  0  0
 72149  1  0  0  0
 73 74  1  0  0  0
 73 77  1  0  0  0
 74 78  1  0  0  0
 75 76  2  0  0  0
 75 82  1  0  0  0
 76 88  1  0  0  0
 77 79  1  0  0  0
 77150  1  0  0  0
 77151  1  0  0  0
 78 80  1  0  0  0
 78152  1  0  0  0
 78153  1  0  0  0
 79 81  1  0  0  0
 79154  1  0  0  0
 79155  1  0  0  0
 80 81  1  0  0  0
 80156  1  0  0  0
 80157  1  0  0  0
 81 87  1  0  0  0
 81158  1  0  0  0
 82 86  1  0  0  0
 82159  1  0  0  0
 82160  1  0  0  0
 83 84  1  0  0  0
 83 85  1  0  0  0
 83161  1  0  0  0
 83162  1  0  0  0
 84 87  1  0  0  0
 84163  1  0  0  0
 84164  1  0  0  0
 85165  1  0  0  0
 85166  1  0  0  0
 86167  1  0  0  0
 87168  1  0  0  0
 87169  1  0  0  0
M  CHG  1  87   1
M  ISO  4   1 100  68 101  85 101  86 100
M  END
> <chiral flag>
0

> <version>
0

> <s_m_source_file>
/data/baiqing/PycharmProjects/Reinvent-master-3.2/result/LINK_invent/BTK/process_docking_weight1_custom_sum_contain_oxygen_bond_distance_aromatic_linkinvent_7_9_3/rearranged_h_0030.sdf

> <i_m_source_file_index>
26

> <r_mmod_Potential_Energy-OPLS-2005>
-210.488403320312

> <r_mmod_Stretch_Energy-OPLS-2005>
35.1037826538086

> <r_mmod_Bend_Energy-OPLS-2005>
117.32445526123

> <r_mmod_Torsional_Energy-OPLS-2005>
244.703506469727

> <r_mmod_Improper_Torsional_Energy-OPLS-2005>
3.56757020950317

> <r_mmod_Van_der_Waal_Energy-OPLS-2005>
151.290878295898

> <r_mmod_Electrostatic_Energy-OPLS-2005>
-310.651977539062

> <r_mmod_Solvation_Energy-OPLS-2005>
-461.447540283203

> <b_mmod_Minimization_Converged-OPLS-2005>
0

> <r_mmod_RMS_Derivative-OPLS-2005>
3.07427263259888

$$$$
26
                    3D
 Structure written by MMmdl.
159167  0  0  1  0            999 V2000
  -30.7353  -14.4944   20.6294 C   0  0  0  0  0  0
  -30.4176  -12.3509   19.4351 C   0  0  0  0  0  0
  -29.4914  -12.5225   18.2148 C   0  0  0  0  0  0
  -28.0232  -12.3506   18.6351 C   0  0  0  0  0  0
  -27.6584  -13.2046   19.8739 C   0  0  2  0  0  0
  -28.6979  -13.0080   21.0020 C   0  0  0  0  0  0
  -25.2547  -13.8096   20.5545 C   0  0  0  0  0  0
  -24.1832  -13.0412   20.9095 C   0  0  0  0  0  0
  -24.6394  -11.6858   20.8699 C   0  0  0  0  0  0
  -23.9090  -10.4237   21.0377 C   0  0  0  0  0  0
  -24.3625   -9.4164   21.9172 C   0  0  0  0  0  0
  -23.6257   -8.2224   22.0769 C   0  0  0  0  0  0
  -22.4238   -8.0291   21.3580 C   0  0  0  0  0  0
  -21.9894   -9.0276   20.4680 C   0  0  0  0  0  0
  -22.7246  -10.2113   20.3074 C   0  0  0  0  0  0
  -21.6842   -6.0738   22.5292 C   0  0  0  0  0  0
  -21.4004   -6.5638   23.8221 C   0  0  0  0  0  0
  -21.3674   -5.6771   24.9180 C   0  0  0  0  0  0
  -21.6043   -4.3033   24.7203 C   0  0  0  0  0  0
  -21.8809   -3.8147   23.4315 C   0  0  0  0  0  0
  -21.9160   -4.6961   22.3379 C   0  0  0  0  0  0
  -22.7867  -13.5270   21.1726 C   0  0  0  0  0  0
  -22.1644   -4.2167   21.0956 F   0  0  0  0  0  0
  -21.5616   -3.4504   25.7701 F   0  0  0  0  0  0
  -30.0260  -13.3386   20.4622 N   0  0  0  0  0  0
  -26.3008  -12.9295   20.3305 N   0  0  0  0  0  0
  -25.9336  -11.6449   20.5740 N   0  0  0  0  0  0
  -22.0454  -12.8396   22.0329 N   0  0  0  0  0  0
  -25.4202  -15.1791   20.3779 N   0  0  0  0  0  0
  -31.8149  -14.6744   20.0613 O   0  0  0  0  0  0
  -21.6613   -6.8882   21.4265 O   0  0  0  0  0  0
  -22.3640  -14.5603   20.6526 O   0  0  0  0  0  0
  -24.6179  -31.8667   23.2067 C   0  0  0  0  0  0
  -25.9083  -32.4802   23.8358 C   0  0  1  0  0  0
  -27.2200  -27.4374   20.1024 C   0  0  0  0  0  0
  -25.5954  -33.8593   24.2303 N   0  0  0  0  0  0
  -23.3986  -30.4933   21.5506 C   0  0  2  0  0  0
  -24.8360  -28.9536   20.1170 C   0  0  0  0  0  0
  -22.7404  -29.4691   22.5030 C   0  0  0  0  0  0
  -18.0285  -28.1360   22.8471 C   0  0  0  0  0  0
  -24.1489  -36.7310   23.2632 C   0  0  0  0  0  0
  -25.9222  -30.8346   21.3536 C   0  0  0  0  0  0
  -25.9946  -29.4657   20.7109 C   0  0  0  0  0  0
  -27.1924  -28.7162   20.7010 C   0  0  0  0  0  0
  -26.0451  -26.9310   19.5081 C   0  0  0  0  0  0
  -24.8557  -27.6842   19.5136 C   0  0  0  0  0  0
  -23.6008  -29.8263   20.1636 C   0  0  0  0  0  0
  -25.4108  -36.3104   24.0340 C   0  0  1  0  0  0
  -20.5857  -28.3688   23.1358 C   0  0  2  0  0  0
  -20.6785  -26.9399   22.5488 C   0  0  0  0  0  0
  -19.5813  -26.6361   21.5236 C   0  0  0  0  0  0
  -18.1967  -26.7910   22.1578 C   0  0  0  0  0  0
  -19.1509  -28.8839   23.2894 C   0  0  0  0  0  0
  -18.9394  -30.1450   23.8875 C   0  0  0  0  0  0
  -17.6411  -30.6582   24.0550 C   0  0  0  0  0  0
  -25.9056  -34.9462   23.5118 C   0  0  0  0  0  0
  -16.5321  -29.9070   23.6284 C   0  0  0  0  0  0
  -16.7289  -28.6487   23.0299 C   0  0  0  0  0  0
  -26.4486  -31.6572   25.0660 C   0  0  0  0  0  0
  -25.3821  -31.3691   26.1466 C   0  0  0  0  0  0
  -27.0322  -30.3040   24.5991 C   0  0  0  0  0  0
  -27.6053  -32.4299   25.7439 C   0  0  0  0  0  0
  -27.5587  -37.1797   24.8466 C   0  0  0  0  0  0
  -21.4125  -29.3085   22.3792 N   0  0  0  0  0  0
  -26.4276  -37.3805   23.9436 N   0  0  0  0  0  0
  -24.6645  -31.0796   22.0954 N   0  0  0  0  0  0
  -23.4198  -28.8246   23.3078 O   0  0  0  0  0  0
  -28.3751  -26.6951   20.0989 O   0  0  0  0  0  0
  -26.5582  -34.8909   22.4663 O   0  0  0  0  0  0
  -23.5396  -32.1403   23.7504 O   0  0  0  0  0  0
  -30.3026  -18.2834   20.7679 C   0  0  0  0  0  0
  -28.0510  -19.8906   21.2309 C   0  0  0  0  0  0
  -30.3090  -19.6438   20.3701 C   0  0  0  0  0  0
  -29.1755  -17.6968   21.3859 C   0  0  0  0  0  0
  -29.1422  -20.4424   20.5187 C   0  0  0  0  0  0
  -28.0762  -18.5490   21.6852 C   0  0  0  0  0  0
  -31.5667  -20.1940   19.7222 C   0  0  0  0  0  0
  -29.1017  -16.1782   21.6735 C   0  0  0  0  0  0
  -28.9917  -21.8029   19.8018 C   0  0  0  0  0  0
  -28.3762  -24.2221   19.9097 C   0  0  0  0  0  0
  -28.2948  -25.4632   20.8288 C   0  0  0  0  0  0
  -30.3574  -15.4167   21.5413 N   0  0  0  0  0  0
  -28.7150  -22.9760   20.6613 N   0  3  0  0  0  0
  -26.7182  -17.9554   22.5764 Cl  0  0  0  0  0  0
  -31.4586  -12.4490   19.1219 H   0  0  0  0  0  0
  -30.3307  -11.3436   19.8439 H   0  0  0  0  0  0
  -29.7478  -11.8050   17.4332 H   0  0  0  0  0  0
  -29.6320  -13.5136   17.7807 H   0  0  0  0  0  0
  -27.8692  -11.2961   18.8641 H   0  0  0  0  0  0
  -27.3580  -12.5848   17.8026 H   0  0  0  0  0  0
  -27.6912  -14.2426   19.5493 H   0  0  0  0  0  0
  -28.6924  -11.9680   21.3379 H   0  0  0  0  0  0
  -28.4516  -13.6049   21.8778 H   0  0  0  0  0  0
  -25.2756   -9.5561   22.4779 H   0  0  0  0  0  0
  -23.9908   -7.4611   22.7528 H   0  0  0  0  0  0
  -21.0809   -8.8861   19.8993 H   0  0  0  0  0  0
  -22.3762  -10.9697   19.6209 H   0  0  0  0  0  0
  -21.2051   -7.6155   23.9741 H   0  0  0  0  0  0
  -21.1511   -6.0492   25.9071 H   0  0  0  0  0  0
  -22.0571   -2.7605   23.2803 H   0  0  0  0  0  0
  -22.3996  -12.0105   22.4844 H   0  0  0  0  0  0
  -21.1140  -13.1580   22.2559 H   0  0  0  0  0  0
  -24.6152  -15.7957   20.4030 H   0  0  0  0  0  0
  -26.2181  -15.5799   19.9050 H   0  0  0  0  0  0
  -26.7163  -32.5529   23.1126 H   0  0  0  0  0  0
  -25.0213  -33.9747   25.0534 H   0  0  0  0  0  0
  -22.6863  -31.3100   21.4162 H   0  0  0  0  0  0
  -23.3737  -35.9661   23.3283 H   0  0  0  0  0  0
  -24.3588  -36.8915   22.2043 H   0  0  0  0  0  0
  -23.7209  -37.6510   23.6634 H   0  0  0  0  0  0
  -26.0295  -31.5896   20.5749 H   0  0  0  0  0  0
  -26.8130  -30.8879   21.9681 H   0  0  0  0  0  0
  -28.0853  -29.1043   21.1662 H   0  0  0  0  0  0
  -26.0404  -25.9535   19.0478 H   0  0  0  0  0  0
  -23.9613  -27.2750   19.0598 H   0  0  0  0  0  0
  -23.7221  -30.5969   19.3992 H   0  0  0  0  0  0
  -22.7214  -29.2515   19.8709 H   0  0  0  0  0  0
  -25.1267  -36.1966   25.0828 H   0  0  0  0  0  0
  -20.9860  -28.3292   24.1510 H   0  0  0  0  0  0
  -20.5621  -26.2329   23.3715 H   0  0  0  0  0  0
  -21.6649  -26.7411   22.1298 H   0  0  0  0  0  0
  -19.6998  -25.6302   21.1202 H   0  0  0  0  0  0
  -19.6806  -27.3214   20.6775 H   0  0  0  0  0  0
  -17.4313  -26.6634   21.3939 H   0  0  0  0  0  0
  -18.0351  -26.0019   22.8954 H   0  0  0  0  0  0
  -19.7860  -30.7266   24.2269 H   0  0  0  0  0  0
  -17.4944  -31.6256   24.5155 H   0  0  0  0  0  0
  -15.5303  -30.2945   23.7588 H   0  0  0  0  0  0
  -15.8718  -28.0821   22.6944 H   0  0  0  0  0  0
  -24.5952  -30.7036   25.7865 H   0  0  0  0  0  0
  -24.9072  -32.2871   26.4962 H   0  0  0  0  0  0
  -25.8252  -30.8856   27.0196 H   0  0  0  0  0  0
  -26.2837  -29.6748   24.1130 H   0  0  0  0  0  0
  -27.4241  -29.7280   25.4391 H   0  0  0  0  0  0
  -27.8613  -30.4373   23.9023 H   0  0  0  0  0  0
  -27.2624  -33.3568   26.2059 H   0  0  0  0  0  0
  -28.3840  -32.6904   25.0256 H   0  0  0  0  0  0
  -28.0734  -31.8401   26.5324 H   0  0  0  0  0  0
  -28.2597  -38.0107   24.7532 H   0  0  0  0  0  0
  -28.1074  -36.2624   24.6261 H   0  0  0  0  0  0
  -27.2311  -37.1430   25.8871 H   0  0  0  0  0  0
  -20.9276  -29.8884   21.7091 H   0  0  0  0  0  0
  -26.0155  -38.2884   24.1468 H   0  0  0  0  0  0
  -31.1717  -17.6804   20.5534 H   0  0  0  0  0  0
  -27.1533  -20.4741   21.3867 H   0  0  0  0  0  0
  -32.3956  -19.4844   19.7636 H   0  0  0  0  0  0
  -31.8934  -21.1042   20.2253 H   0  0  0  0  0  0
  -31.3868  -20.4260   18.6747 H   0  0  0  0  0  0
  -28.3171  -15.7686   21.0383 H   0  0  0  0  0  0
  -28.7654  -16.0319   22.6983 H   0  0  0  0  0  0
  -28.1992  -21.6973   19.0599 H   0  0  0  0  0  0
  -29.8845  -22.0372   19.2288 H   0  0  0  0  0  0
  -29.1306  -24.4022   19.1406 H   0  0  0  0  0  0
  -27.4277  -24.0869   19.3922 H   0  0  0  0  0  0
  -29.1410  -25.4602   21.5139 H   0  0  0  0  0  0
  -27.3946  -25.4193   21.4463 H   0  0  0  0  0  0
  -31.1448  -15.9989   21.7816 H   0  0  0  0  0  0
  -29.5413  -23.1452   21.2132 H   0  0  0  0  0  0
  -27.9583  -22.7602   21.2877 H   0  0  0  0  0  0
  1 25  1  0  0  0
  1 30  2  0  0  0
  1 82  1  0  0  0
  2  3  1  0  0  0
  2 25  1  0  0  0
  2 85  1  0  0  0
  2 86  1  0  0  0
  3  4  1  0  0  0
  3 87  1  0  0  0
  3 88  1  0  0  0
  4  5  1  0  0  0
  4 89  1  0  0  0
  4 90  1  0  0  0
  5  6  1  0  0  0
  5 26  1  0  0  0
  5 91  1  0  0  0
  6 25  1  0  0  0
  6 92  1  0  0  0
  6 93  1  0  0  0
  7  8  2  0  0  0
  7 26  1  0  0  0
  7 29  1  0  0  0
  8  9  1  0  0  0
  8 22  1  0  0  0
  9 10  1  0  0  0
  9 27  2  0  0  0
 10 11  2  0  0  0
 10 15  1  0  0  0
 11 12  1  0  0  0
 11 94  1  0  0  0
 12 13  2  0  0  0
 12 95  1  0  0  0
 13 14  1  0  0  0
 13 31  1  0  0  0
 14 15  2  0  0  0
 14 96  1  0  0  0
 15 97  1  0  0  0
 16 17  2  0  0  0
 16 21  1  0  0  0
 16 31  1  0  0  0
 17 18  1  0  0  0
 17 98  1  0  0  0
 18 19  2  0  0  0
 18 99  1  0  0  0
 19 20  1  0  0  0
 19 24  1  0  0  0
 20 21  2  0  0  0
 20100  1  0  0  0
 21 23  1  0  0  0
 22 28  1  0  0  0
 22 32  2  0  0  0
 26 27  1  0  0  0
 28101  1  0  0  0
 28102  1  0  0  0
 29103  1  0  0  0
 29104  1  0  0  0
 33 34  1  0  0  0
 33 66  1  0  0  0
 33 70  2  0  0  0
 34 36  1  0  0  0
 34 59  1  0  0  0
 34105  1  0  0  0
 35 44  2  0  0  0
 35 45  1  0  0  0
 35 68  1  0  0  0
 36 56  1  0  0  0
 36106  1  0  0  0
 37 39  1  0  0  0
 37 47  1  0  0  0
 37 66  1  0  0  0
 37107  1  0  0  0
 38 43  2  0  0  0
 38 46  1  0  0  0
 38 47  1  0  0  0
 39 64  1  0  0  0
 39 67  2  0  0  0
 40 52  1  0  0  0
 40 53  2  0  0  0
 40 58  1  0  0  0
 41108  1  0  0  0
 41109  1  0  0  0
 41110  1  0  0  0
 41 48  1  0  0  0
 42 43  1  0  0  0
 42 66  1  0  0  0
 42111  1  0  0  0
 42112  1  0  0  0
 43 44  1  0  0  0
 44113  1  0  0  0
 45 46  2  0  0  0
 45114  1  0  0  0
 46115  1  0  0  0
 47116  1  0  0  0
 47117  1  0  0  0
 48 56  1  0  0  0
 48 65  1  0  0  0
 48118  1  0  0  0
 49 50  1  0  0  0
 49 53  1  0  0  0
 49 64  1  0  0  0
 49119  1  0  0  0
 50 51  1  0  0  0
 50120  1  0  0  0
 50121  1  0  0  0
 51 52  1  0  0  0
 51122  1  0  0  0
 51123  1  0  0  0
 52124  1  0  0  0
 52125  1  0  0  0
 53 54  1  0  0  0
 54 55  2  0  0  0
 54126  1  0  0  0
 55 57  1  0  0  0
 55127  1  0  0  0
 56 69  2  0  0  0
 57 58  2  0  0  0
 57128  1  0  0  0
 58129  1  0  0  0
 59 60  1  0  0  0
 59 61  1  0  0  0
 59 62  1  0  0  0
 60130  1  0  0  0
 60131  1  0  0  0
 60132  1  0  0  0
 61133  1  0  0  0
 61134  1  0  0  0
 61135  1  0  0  0
 62136  1  0  0  0
 62137  1  0  0  0
 62138  1  0  0  0
 63 65  1  0  0  0
 63139  1  0  0  0
 63140  1  0  0  0
 63141  1  0  0  0
 64142  1  0  0  0
 65143  1  0  0  0
 68 81  1  0  0  0
 71 73  2  0  0  0
 71 74  1  0  0  0
 71144  1  0  0  0
 72 75  2  0  0  0
 72 76  1  0  0  0
 72145  1  0  0  0
 73 75  1  0  0  0
 73 77  1  0  0  0
 74 76  2  0  0  0
 74 78  1  0  0  0
 75 79  1  0  0  0
 76 84  1  0  0  0
 77146  1  0  0  0
 77147  1  0  0  0
 77148  1  0  0  0
 78 82  1  0  0  0
 78149  1  0  0  0
 78150  1  0  0  0
 79 83  1  0  0  0
 79151  1  0  0  0
 79152  1  0  0  0
 80 81  1  0  0  0
 80 83  1  0  0  0
 80153  1  0  0  0
 80154  1  0  0  0
 81155  1  0  0  0
 81156  1  0  0  0
 82157  1  0  0  0
 83158  1  0  0  0
 83159  1  0  0  0
M  CHG  1  83   1
M  ISO  4   1 100  68 101  81 101  82 100
M  END
> <chiral flag>
0

> <version>
0

> <s_m_source_file>
/data/baiqing/PycharmProjects/Reinvent-master-3.2/result/LINK_invent/BTK/process_docking_weight1_custom_sum_contain_oxygen_bond_distance_aromatic_linkinvent_7_9_3/rearranged_h_0030.sdf

> <i_m_source_file_index>
27

> <r_mmod_Potential_Energy-OPLS-2005>
-189.02262878418

> <r_mmod_Stretch_Energy-OPLS-2005>
39.9812049865723

> <r_mmod_Bend_Energy-OPLS-2005>
115.594970703125

> <r_mmod_Torsional_Energy-OPLS-2005>
262.362884521484

> <r_mmod_Improper_Torsional_Energy-OPLS-2005>
8.22678661346436

> <r_mmod_Van_der_Waal_Energy-OPLS-2005>
144.96989440918

> <r_mmod_Electrostatic_Energy-OPLS-2005>
-319.760772705078

> <r_mmod_Solvation_Energy-OPLS-2005>
-454.536010742188

> <b_mmod_Minimization_Converged-OPLS-2005>
0

> <r_mmod_RMS_Derivative-OPLS-2005>
6.38258695602417

$$$$
27
                    3D
 Structure written by MMmdl.
157166  0  0  1  0            999 V2000
  -30.5024  -15.0139   20.3942 C   0  0  0  0  0  0
  -30.4414  -12.6216   19.5285 C   0  0  0  0  0  0
  -29.5324  -12.5432   18.2779 C   0  0  0  0  0  0
  -28.0648  -12.3209   18.6855 C   0  0  0  0  0  0
  -27.6309  -13.2548   19.8451 C   0  0  2  0  0  0
  -28.6667  -13.2994   20.9910 C   0  0  0  0  0  0
  -25.2456  -13.8228   20.5717 C   0  0  0  0  0  0
  -24.1779  -13.0443   20.9225 C   0  0  0  0  0  0
  -24.6402  -11.6929   20.8747 C   0  0  0  0  0  0
  -23.9085  -10.4297   21.0398 C   0  0  0  0  0  0
  -24.3630   -9.4216   21.9181 C   0  0  0  0  0  0
  -23.6305   -8.2250   22.0747 C   0  0  0  0  0  0
  -22.4285   -8.0284   21.3541 C   0  0  0  0  0  0
  -21.9922   -9.0259   20.4643 C   0  0  0  0  0  0
  -22.7253  -10.2138   20.3052 C   0  0  0  0  0  0
  -21.6858   -6.0739   22.5280 C   0  0  0  0  0  0
  -21.4017   -6.5641   23.8213 C   0  0  0  0  0  0
  -21.3663   -5.6792   24.9175 C   0  0  0  0  0  0
  -21.6046   -4.3056   24.7224 C   0  0  0  0  0  0
  -21.8824   -3.8149   23.4345 C   0  0  0  0  0  0
  -21.9193   -4.6966   22.3402 C   0  0  0  0  0  0
  -22.7800  -13.5208   21.1879 C   0  0  0  0  0  0
  -22.1660   -4.2153   21.0980 F   0  0  0  0  0  0
  -21.5629   -3.4536   25.7735 F   0  0  0  0  0  0
  -29.9443  -13.7283   20.4062 N   0  0  0  0  0  0
  -26.2888  -12.9472   20.3258 N   0  0  0  0  0  0
  -25.9339  -11.6595   20.5737 N   0  0  0  0  0  0
  -22.0453  -12.8197   22.0438 N   0  0  0  0  0  0
  -25.4116  -15.1957   20.4147 N   0  0  0  0  0  0
  -31.6757  -15.0911   20.0136 O   0  0  0  0  0  0
  -21.6645   -6.8885   21.4243 O   0  0  0  0  0  0
  -22.3483  -14.5509   20.6720 O   0  0  0  0  0  0
  -24.6459  -31.8377   23.1814 C   0  0  0  0  0  0
  -25.9212  -32.4660   23.8227 C   0  0  1  0  0  0
  -27.2261  -27.0943   20.1569 C   0  0  0  0  0  0
  -25.5943  -33.8471   24.2146 N   0  0  0  0  0  0
  -23.4526  -30.4515   21.5264 C   0  0  2  0  0  0
  -24.9047  -28.8640   20.1029 C   0  0  0  0  0  0
  -22.7583  -29.4502   22.4834 C   0  0  0  0  0  0
  -18.0305  -28.1390   22.8477 C   0  0  0  0  0  0
  -24.1492  -36.7245   23.2645 C   0  0  0  0  0  0
  -26.0076  -30.6965   21.3853 C   0  0  0  0  0  0
  -26.0772  -29.3026   20.7285 C   0  0  0  0  0  0
  -27.2312  -28.4307   20.7408 C   0  0  0  0  0  0
  -26.0321  -26.7602   19.4848 C   0  0  0  0  0  0
  -24.8970  -27.6094   19.4653 C   0  0  0  0  0  0
  -23.6813  -29.7708   20.1476 C   0  0  0  0  0  0
  -25.4126  -36.3017   24.0312 C   0  0  1  0  0  0
  -20.5920  -28.3718   23.1231 C   0  0  2  0  0  0
  -20.6784  -26.9416   22.5409 C   0  0  0  0  0  0
  -19.5761  -26.6373   21.5213 C   0  0  0  0  0  0
  -18.1943  -26.7928   22.1622 C   0  0  0  0  0  0
  -19.1563  -28.8873   23.2845 C   0  0  0  0  0  0
  -18.9481  -30.1470   23.8871 C   0  0  0  0  0  0
  -17.6477  -30.6588   24.0557 C   0  0  0  0  0  0
  -25.9080  -34.9393   23.5047 C   0  0  0  0  0  0
  -16.5367  -29.9081   23.6334 C   0  0  0  0  0  0
  -16.7290  -28.6498   23.0357 C   0  0  0  0  0  0
  -26.4523  -31.6553   25.0694 C   0  0  0  0  0  0
  -25.3695  -31.3762   26.1383 C   0  0  0  0  0  0
  -27.0397  -30.2947   24.6305 C   0  0  0  0  0  0
  -27.6048  -32.4327   25.7483 C   0  0  0  0  0  0
  -27.5576  -37.1780   24.8466 C   0  0  0  0  0  0
  -21.4270  -29.3034   22.3595 N   0  0  0  0  0  0
  -26.4286  -37.3736   23.9409 N   0  0  0  0  0  0
  -24.7218  -31.0189   22.0861 N   0  0  0  0  0  0
  -23.4209  -28.8071   23.3014 O   0  0  0  0  0  0
  -28.2918  -26.1241   20.3061 O   0  0  0  0  0  0
  -26.5683  -34.8903   22.4638 O   0  0  0  0  0  0
  -23.5570  -32.1271   23.7013 O   0  0  0  0  0  0
  -28.7063  -20.3396   20.1925 C   0  0  0  0  0  0
  -29.0038  -21.8029   20.3147 C   0  0  0  0  0  0
  -30.3600  -22.1112   20.5336 C   0  0  0  0  0  0
  -29.6839  -19.2143   20.3240 C   0  0  0  0  0  0
  -31.3189  -21.0650   20.7221 C   0  0  0  0  0  0
  -30.9863  -19.6774   20.6242 C   0  0  0  0  0  0
  -28.0046  -23.1261   20.3008 C   0  0  0  0  0  0
  -30.7432  -23.6063   20.5758 C   0  0  0  0  0  0
  -29.9984  -24.4965   19.5337 C   0  0  0  0  0  0
  -28.4714  -24.6573   19.7514 C   0  0  2  0  0  0
  -32.7684  -21.4267   21.0162 C   0  0  0  0  0  0
  -29.5215  -17.6016   19.8869 C   0  0  0  0  0  0
  -29.7132  -16.1905   20.6264 N   0  0  0  0  0  0
  -31.9725  -18.7570   20.7533 F   0  0  0  0  0  0
  -31.4763  -12.7785   19.2202 H   0  0  0  0  0  0
  -30.4389  -11.6735   20.0680 H   0  0  0  0  0  0
  -29.8635  -11.7402   17.6178 H   0  0  0  0  0  0
  -29.6190  -13.4681   17.7051 H   0  0  0  0  0  0
  -27.9648  -11.2801   18.9960 H   0  0  0  0  0  0
  -27.4063  -12.4465   17.8251 H   0  0  0  0  0  0
  -27.5908  -14.2550   19.4125 H   0  0  0  0  0  0
  -28.7611  -12.3261   21.4755 H   0  0  0  0  0  0
  -28.3505  -14.0002   21.7651 H   0  0  0  0  0  0
  -25.2772   -9.5691   22.4758 H   0  0  0  0  0  0
  -24.0015   -7.4643   22.7467 H   0  0  0  0  0  0
  -21.0852   -8.8780   19.8949 H   0  0  0  0  0  0
  -22.3706  -10.9679   19.6163 H   0  0  0  0  0  0
  -21.2006   -7.6147   23.9719 H   0  0  0  0  0  0
  -21.1483   -6.0518   25.9079 H   0  0  0  0  0  0
  -22.0594   -2.7609   23.2841 H   0  0  0  0  0  0
  -22.4067  -11.9866   22.4843 H   0  0  0  0  0  0
  -21.1063  -13.1212   22.2627 H   0  0  0  0  0  0
  -24.6416  -15.8463   20.5266 H   0  0  0  0  0  0
  -26.2533  -15.6363   20.0670 H   0  0  0  0  0  0
  -26.7276  -32.5249   23.0950 H   0  0  0  0  0  0
  -25.0044  -33.9572   25.0264 H   0  0  0  0  0  0
  -22.7573  -31.2780   21.3656 H   0  0  0  0  0  0
  -23.3761  -35.9569   23.3289 H   0  0  0  0  0  0
  -24.3572  -36.8899   22.2064 H   0  0  0  0  0  0
  -23.7239  -37.6431   23.6698 H   0  0  0  0  0  0
  -26.1675  -31.4472   20.6104 H   0  0  0  0  0  0
  -26.8764  -30.7497   22.0300 H   0  0  0  0  0  0
  -28.1208  -28.7555   21.2620 H   0  0  0  0  0  0
  -25.9463  -25.7918   19.0131 H   0  0  0  0  0  0
  -23.9996  -27.2693   18.9670 H   0  0  0  0  0  0
  -23.8190  -30.5412   19.3878 H   0  0  0  0  0  0
  -22.7953  -29.2127   19.8393 H   0  0  0  0  0  0
  -25.1320  -36.1836   25.0804 H   0  0  0  0  0  0
  -21.0013  -28.3308   24.1352 H   0  0  0  0  0  0
  -20.5660  -26.2337   23.3634 H   0  0  0  0  0  0
  -21.6652  -26.7406   22.1219 H   0  0  0  0  0  0
  -19.6922  -25.6276   21.1262 H   0  0  0  0  0  0
  -19.6698  -27.3167   20.6730 H   0  0  0  0  0  0
  -17.4214  -26.6674   21.4025 H   0  0  0  0  0  0
  -18.0339  -26.0071   22.9019 H   0  0  0  0  0  0
  -19.7958  -30.7291   24.2228 H   0  0  0  0  0  0
  -17.5031  -31.6266   24.5163 H   0  0  0  0  0  0
  -15.5366  -30.2977   23.7667 H   0  0  0  0  0  0
  -15.8691  -28.0808   22.7089 H   0  0  0  0  0  0
  -24.5871  -30.7115   25.7698 H   0  0  0  0  0  0
  -24.8886  -32.2951   26.4747 H   0  0  0  0  0  0
  -25.7958  -30.8966   27.0204 H   0  0  0  0  0  0
  -26.3024  -29.6652   24.1308 H   0  0  0  0  0  0
  -27.3996  -29.7265   25.4894 H   0  0  0  0  0  0
  -27.8935  -30.4178   23.9637 H   0  0  0  0  0  0
  -27.2637  -33.3646   26.2005 H   0  0  0  0  0  0
  -28.3888  -32.6855   25.0333 H   0  0  0  0  0  0
  -28.0683  -31.8488   26.5445 H   0  0  0  0  0  0
  -28.2587  -38.0082   24.7511 H   0  0  0  0  0  0
  -28.1077  -36.2612   24.6293 H   0  0  0  0  0  0
  -27.2294  -37.1427   25.8869 H   0  0  0  0  0  0
  -20.9490  -29.8738   21.6760 H   0  0  0  0  0  0
  -26.0149  -38.2804   24.1404 H   0  0  0  0  0  0
  -27.6866  -20.0682   19.9573 H   0  0  0  0  0  0
  -27.6885  -23.2529   21.3363 H   0  0  0  0  0  0
  -27.0945  -22.8415   19.7723 H   0  0  0  0  0  0
  -31.8100  -23.7309   20.3969 H   0  0  0  0  0  0
  -30.5608  -23.9853   21.5827 H   0  0  0  0  0  0
  -30.1710  -24.0673   18.5457 H   0  0  0  0  0  0
  -30.4650  -25.4816   19.5006 H   0  0  0  0  0  0
  -28.0517  -24.7302   18.7475 H   0  0  0  0  0  0
  -32.8278  -22.1388   21.8392 H   0  0  0  0  0  0
  -33.2352  -21.8723   20.1371 H   0  0  0  0  0  0
  -33.3655  -20.5613   21.3019 H   0  0  0  0  0  0
  -30.1538  -17.5167   19.0016 H   0  0  0  0  0  0
  -28.5105  -17.5436   19.4836 H   0  0  0  0  0  0
  -28.8721  -15.9435   21.1272 H   0  0  0  0  0  0
  1 25  1  0  0  0
  1 30  2  0  0  0
  1 83  1  0  0  0
  2  3  1  0  0  0
  2 25  1  0  0  0
  2 85  1  0  0  0
  2 86  1  0  0  0
  3  4  1  0  0  0
  3 87  1  0  0  0
  3 88  1  0  0  0
  4  5  1  0  0  0
  4 89  1  0  0  0
  4 90  1  0  0  0
  5  6  1  0  0  0
  5 26  1  0  0  0
  5 91  1  0  0  0
  6 25  1  0  0  0
  6 92  1  0  0  0
  6 93  1  0  0  0
  7  8  2  0  0  0
  7 26  1  0  0  0
  7 29  1  0  0  0
  8  9  1  0  0  0
  8 22  1  0  0  0
  9 10  1  0  0  0
  9 27  2  0  0  0
 10 11  2  0  0  0
 10 15  1  0  0  0
 11 12  1  0  0  0
 11 94  1  0  0  0
 12 13  2  0  0  0
 12 95  1  0  0  0
 13 14  1  0  0  0
 13 31  1  0  0  0
 14 15  2  0  0  0
 14 96  1  0  0  0
 15 97  1  0  0  0
 16 17  2  0  0  0
 16 21  1  0  0  0
 16 31  1  0  0  0
 17 18  1  0  0  0
 17 98  1  0  0  0
 18 19  2  0  0  0
 18 99  1  0  0  0
 19 20  1  0  0  0
 19 24  1  0  0  0
 20 21  2  0  0  0
 20100  1  0  0  0
 21 23  1  0  0  0
 22 28  1  0  0  0
 22 32  2  0  0  0
 26 27  1  0  0  0
 28101  1  0  0  0
 28102  1  0  0  0
 29103  1  0  0  0
 29104  1  0  0  0
 33 34  1  0  0  0
 33 66  1  0  0  0
 33 70  2  0  0  0
 34 36  1  0  0  0
 34 59  1  0  0  0
 34105  1  0  0  0
 35 44  2  0  0  0
 35 45  1  0  0  0
 35 68  1  0  0  0
 36 56  1  0  0  0
 36106  1  0  0  0
 37 39  1  0  0  0
 37 47  1  0  0  0
 37 66  1  0  0  0
 37107  1  0  0  0
 38 43  2  0  0  0
 38 46  1  0  0  0
 38 47  1  0  0  0
 39 64  1  0  0  0
 39 67  2  0  0  0
 40 52  1  0  0  0
 40 53  2  0  0  0
 40 58  1  0  0  0
 41108  1  0  0  0
 41109  1  0  0  0
 41110  1  0  0  0
 41 48  1  0  0  0
 42 43  1  0  0  0
 42 66  1  0  0  0
 42111  1  0  0  0
 42112  1  0  0  0
 43 44  1  0  0  0
 44113  1  0  0  0
 45 46  2  0  0  0
 45114  1  0  0  0
 46115  1  0  0  0
 47116  1  0  0  0
 47117  1  0  0  0
 48 56  1  0  0  0
 48 65  1  0  0  0
 48118  1  0  0  0
 49 50  1  0  0  0
 49 53  1  0  0  0
 49 64  1  0  0  0
 49119  1  0  0  0
 50 51  1  0  0  0
 50120  1  0  0  0
 50121  1  0  0  0
 51 52  1  0  0  0
 51122  1  0  0  0
 51123  1  0  0  0
 52124  1  0  0  0
 52125  1  0  0  0
 53 54  1  0  0  0
 54 55  2  0  0  0
 54126  1  0  0  0
 55 57  1  0  0  0
 55127  1  0  0  0
 56 69  2  0  0  0
 57 58  2  0  0  0
 57128  1  0  0  0
 58129  1  0  0  0
 59 60  1  0  0  0
 59 61  1  0  0  0
 59 62  1  0  0  0
 60130  1  0  0  0
 60131  1  0  0  0
 60132  1  0  0  0
 61133  1  0  0  0
 61134  1  0  0  0
 61135  1  0  0  0
 62136  1  0  0  0
 62137  1  0  0  0
 62138  1  0  0  0
 63 65  1  0  0  0
 63139  1  0  0  0
 63140  1  0  0  0
 63141  1  0  0  0
 64142  1  0  0  0
 65143  1  0  0  0
 68 80  1  0  0  0
 71 72  2  0  0  0
 71 74  1  0  0  0
 71144  1  0  0  0
 72 73  1  0  0  0
 72 77  1  0  0  0
 73 75  2  0  0  0
 73 78  1  0  0  0
 74 76  2  0  0  0
 74 82  1  0  0  0
 75 76  1  0  0  0
 75 81  1  0  0  0
 76 84  1  0  0  0
 77 80  1  0  0  0
 77145  1  0  0  0
 77146  1  0  0  0
 78 79  1  0  0  0
 78147  1  0  0  0
 78148  1  0  0  0
 79 80  1  0  0  0
 79149  1  0  0  0
 79150  1  0  0  0
 80151  1  0  0  0
 81152  1  0  0  0
 81153  1  0  0  0
 81154  1  0  0  0
 82 83  1  0  0  0
 82155  1  0  0  0
 82156  1  0  0  0
 83157  1  0  0  0
M  ISO  4   1 100  68 101  80 101  83 100
M  END
> <chiral flag>
0

> <version>
0

> <s_m_source_file>
/data/baiqing/PycharmProjects/Reinvent-master-3.2/result/LINK_invent/BTK/process_docking_weight1_custom_sum_contain_oxygen_bond_distance_aromatic_linkinvent_7_9_3/rearranged_h_0030.sdf

> <i_m_source_file_index>
28

> <r_mmod_Potential_Energy-OPLS-2005>
663.916687011719

> <r_mmod_Stretch_Energy-OPLS-2005>
303.458221435547

> <r_mmod_Bend_Energy-OPLS-2005>
338.47802734375

> <r_mmod_Torsional_Energy-OPLS-2005>
244.96272277832

> <r_mmod_Improper_Torsional_Energy-OPLS-2005>
8.12469482421875

> <r_mmod_Van_der_Waal_Energy-OPLS-2005>
134.497100830078

> <r_mmod_Electrostatic_Energy-OPLS-2005>
-385.287689208984

> <r_mmod_Solvation_Energy-OPLS-2005>
-217.480224609375

> <b_mmod_Minimization_Converged-OPLS-2005>
0

> <r_mmod_RMS_Derivative-OPLS-2005>
0.863842368125916

$$$$
28
                    3D
 Structure written by MMmdl.
171180  0  0  1  0            999 V2000
  -30.5498  -15.0030   20.6166 C   0  0  0  0  0  0
  -30.4646  -12.6435   19.5952 C   0  0  0  0  0  0
  -29.5587  -12.5812   18.3410 C   0  0  0  0  0  0
  -28.0996  -12.3057   18.7461 C   0  0  0  0  0  0
  -27.6497  -13.2168   19.9111 C   0  0  2  0  0  0
  -28.6719  -13.2882   21.0693 C   0  0  0  0  0  0
  -25.2495  -13.8114   20.5944 C   0  0  0  0  0  0
  -24.1807  -13.0373   20.9308 C   0  0  0  0  0  0
  -24.6430  -11.6835   20.8827 C   0  0  0  0  0  0
  -23.9077  -10.4253   21.0359 C   0  0  0  0  0  0
  -24.3567   -9.4221   21.9252 C   0  0  0  0  0  0
  -23.6214   -8.2289   22.0823 C   0  0  0  0  0  0
  -22.4264   -8.0322   21.3515 C   0  0  0  0  0  0
  -21.9982   -9.0200   20.4490 C   0  0  0  0  0  0
  -22.7297  -10.2072   20.2947 C   0  0  0  0  0  0
  -21.6803   -6.0776   22.5265 C   0  0  0  0  0  0
  -21.3935   -6.5661   23.8196 C   0  0  0  0  0  0
  -21.3693   -5.6819   24.9153 C   0  0  0  0  0  0
  -21.6063   -4.3088   24.7227 C   0  0  0  0  0  0
  -21.8809   -3.8194   23.4347 C   0  0  0  0  0  0
  -21.9142   -4.7005   22.3375 C   0  0  0  0  0  0
  -22.7799  -13.5162   21.1905 C   0  0  0  0  0  0
  -22.1631   -4.2220   21.0954 F   0  0  0  0  0  0
  -21.5659   -3.4545   25.7713 F   0  0  0  0  0  0
  -29.9595  -13.7245   20.5065 N   0  0  0  0  0  0
  -26.2941  -12.9293   20.3585 N   0  0  0  0  0  0
  -25.9393  -11.6435   20.5955 N   0  0  0  0  0  0
  -22.0488  -12.8316   22.0637 N   0  0  0  0  0  0
  -25.4156  -15.1914   20.4523 N   0  0  0  0  0  0
  -31.7072  -15.0587   20.1847 O   0  0  0  0  0  0
  -21.6586   -6.8954   21.4246 O   0  0  0  0  0  0
  -22.3452  -14.5406   20.6561 O   0  0  0  0  0  0
  -24.6416  -31.8466   23.1877 C   0  0  0  0  0  0
  -25.9197  -32.4700   23.8272 C   0  0  1  0  0  0
  -27.2243  -27.1336   20.1755 C   0  0  0  0  0  0
  -25.5935  -33.8503   24.2175 N   0  0  0  0  0  0
  -23.4430  -30.4646   21.5339 C   0  0  2  0  0  0
  -24.8977  -28.8916   20.1125 C   0  0  0  0  0  0
  -22.7567  -29.4529   22.4843 C   0  0  0  0  0  0
  -18.0293  -28.1368   22.8492 C   0  0  0  0  0  0
  -24.1494  -36.7262   23.2653 C   0  0  0  0  0  0
  -25.9988  -30.7272   21.3811 C   0  0  0  0  0  0
  -26.0768  -29.3343   20.7284 C   0  0  0  0  0  0
  -27.2393  -28.4761   20.7347 C   0  0  0  0  0  0
  -26.0179  -26.7949   19.5180 C   0  0  0  0  0  0
  -24.8841  -27.6349   19.4885 C   0  0  0  0  0  0
  -23.6726  -29.7944   20.1540 C   0  0  0  0  0  0
  -25.4135  -36.3031   24.0320 C   0  0  1  0  0  0
  -20.5918  -28.3702   23.1229 C   0  0  2  0  0  0
  -20.6764  -26.9395   22.5392 C   0  0  0  0  0  0
  -19.5743  -26.6362   21.5198 C   0  0  0  0  0  0
  -18.1940  -26.7909   22.1618 C   0  0  0  0  0  0
  -19.1556  -28.8849   23.2862 C   0  0  0  0  0  0
  -18.9476  -30.1445   23.8893 C   0  0  0  0  0  0
  -17.6472  -30.6579   24.0548 C   0  0  0  0  0  0
  -25.9071  -34.9407   23.5066 C   0  0  0  0  0  0
  -16.5361  -29.9072   23.6320 C   0  0  0  0  0  0
  -16.7281  -28.6474   23.0380 C   0  0  0  0  0  0
  -26.4513  -31.6561   25.0707 C   0  0  0  0  0  0
  -25.3694  -31.3752   26.1392 C   0  0  0  0  0  0
  -27.0387  -30.2966   24.6253 C   0  0  0  0  0  0
  -27.6019  -32.4343   25.7506 C   0  0  0  0  0  0
  -27.5563  -37.1803   24.8480 C   0  0  0  0  0  0
  -21.4244  -29.3045   22.3613 N   0  0  0  0  0  0
  -26.4296  -37.3743   23.9397 N   0  0  0  0  0  0
  -24.7143  -31.0332   22.0897 N   0  0  0  0  0  0
  -23.4224  -28.8105   23.3005 O   0  0  0  0  0  0
  -28.2862  -26.1500   20.2491 O   0  0  0  0  0  0
  -26.5665  -34.8905   22.4648 O   0  0  0  0  0  0
  -23.5543  -32.1310   23.7104 O   0  0  0  0  0  0
  -28.8486  -18.1817   19.4533 C   0  0  0  0  0  0
  -28.3450  -19.5016   19.5079 C   0  0  0  0  0  0
  -29.5780  -17.9278   20.6475 C   0  0  0  0  0  0
  -26.4174  -19.2159   17.7932 C   0  0  0  0  0  0
  -25.9121  -19.6447   16.6213 C   0  0  0  0  0  0
  -26.2788  -17.7647   18.1521 C   0  0  0  0  0  0
  -28.6219  -16.9876   18.5498 C   0  0  1  0  0  0
  -27.4632  -17.0110   17.5703 C   0  0  1  0  0  0
  -27.1134  -20.1238   18.8168 C   0  0  0  0  0  0
  -27.0248  -15.6006   17.1417 C   0  0  0  0  0  0
  -26.0208  -20.3649   19.9010 C   0  0  0  0  0  0
  -27.4450  -21.4542   18.0941 C   0  0  0  0  0  0
  -29.8970  -16.4125   21.2931 C   0  0  0  0  0  0
  -29.0901  -23.2980   20.4528 C   0  0  0  0  0  0
  -28.7545  -21.7364   21.0986 C   0  0  0  0  0  0
  -28.0031  -24.6120   20.3384 C   0  0  0  0  0  0
  -29.6678  -19.1867   21.2635 N   0  0  0  0  0  0
  -29.0143  -20.2354   20.5305 N   0  0  0  0  0  0
  -29.7499  -16.7019   17.9074 F   0  0  0  0  0  0
  -31.4911  -12.8125   19.2713 H   0  0  0  0  0  0
  -30.4988  -11.6928   20.1263 H   0  0  0  0  0  0
  -29.9377  -11.8305   17.6492 H   0  0  0  0  0  0
  -29.6178  -13.5371   17.8216 H   0  0  0  0  0  0
  -28.0592  -11.2691   19.0853 H   0  0  0  0  0  0
  -27.4299  -12.3896   17.8891 H   0  0  0  0  0  0
  -27.6243  -14.2126   19.5196 H   0  0  0  0  0  0
  -28.7656  -12.3497   21.6119 H   0  0  0  0  0  0
  -28.3265  -14.0067   21.8117 H   0  0  0  0  0  0
  -25.2529   -9.5729   22.5046 H   0  0  0  0  0  0
  -23.9827   -7.4680   22.7622 H   0  0  0  0  0  0
  -21.0992   -8.8696   19.8655 H   0  0  0  0  0  0
  -22.3763  -10.9665   19.6103 H   0  0  0  0  0  0
  -21.1919   -7.6145   23.9729 H   0  0  0  0  0  0
  -21.1580   -6.0585   25.9047 H   0  0  0  0  0  0
  -22.0588   -2.7675   23.2794 H   0  0  0  0  0  0
  -22.4217  -12.0210   22.5417 H   0  0  0  0  0  0
  -21.1186  -13.1553   22.2925 H   0  0  0  0  0  0
  -24.6390  -15.8299   20.5943 H   0  0  0  0  0  0
  -26.2278  -15.6397   20.0622 H   0  0  0  0  0  0
  -26.7265  -32.5336   23.1006 H   0  0  0  0  0  0
  -25.0057  -33.9615   25.0301 H   0  0  0  0  0  0
  -22.7440  -31.2906   21.3801 H   0  0  0  0  0  0
  -23.3724  -35.9624   23.3360 H   0  0  0  0  0  0
  -24.3551  -36.8848   22.2051 H   0  0  0  0  0  0
  -23.7290  -37.6496   23.6658 H   0  0  0  0  0  0
  -26.1494  -31.4850   20.6089 H   0  0  0  0  0  0
  -26.8717  -30.7827   22.0233 H   0  0  0  0  0  0
  -28.1350  -28.8229   21.2315 H   0  0  0  0  0  0
  -25.9218  -25.8385   19.0320 H   0  0  0  0  0  0
  -23.9856  -27.2892   18.9956 H   0  0  0  0  0  0
  -23.8039  -30.5692   19.3956 H   0  0  0  0  0  0
  -22.7867  -29.2355   19.8451 H   0  0  0  0  0  0
  -25.1316  -36.1863   25.0813 H   0  0  0  0  0  0
  -21.0009  -28.3293   24.1357 H   0  0  0  0  0  0
  -20.5611  -26.2341   23.3643 H   0  0  0  0  0  0
  -21.6647  -26.7378   22.1232 H   0  0  0  0  0  0
  -19.6894  -25.6274   21.1260 H   0  0  0  0  0  0
  -19.6658  -27.3153   20.6732 H   0  0  0  0  0  0
  -17.4193  -26.6669   21.4024 H   0  0  0  0  0  0
  -18.0312  -26.0037   22.9008 H   0  0  0  0  0  0
  -19.7967  -30.7244   24.2282 H   0  0  0  0  0  0
  -17.5042  -31.6266   24.5142 H   0  0  0  0  0  0
  -15.5372  -30.2981   23.7628 H   0  0  0  0  0  0
  -15.8691  -28.0770   22.7138 H   0  0  0  0  0  0
  -24.5894  -30.7063   25.7719 H   0  0  0  0  0  0
  -24.8857  -32.2944   26.4712 H   0  0  0  0  0  0
  -25.7979  -30.9008   27.0233 H   0  0  0  0  0  0
  -26.2999  -29.6678   24.1258 H   0  0  0  0  0  0
  -27.4030  -29.7246   25.4800 H   0  0  0  0  0  0
  -27.8887  -30.4210   23.9538 H   0  0  0  0  0  0
  -27.2565  -33.3662   26.1995 H   0  0  0  0  0  0
  -28.3872  -32.6884   25.0372 H   0  0  0  0  0  0
  -28.0628  -31.8538   26.5502 H   0  0  0  0  0  0
  -28.2621  -38.0050   24.7435 H   0  0  0  0  0  0
  -28.1004  -36.2576   24.6414 H   0  0  0  0  0  0
  -27.2263  -37.1591   25.8879 H   0  0  0  0  0  0
  -20.9441  -29.8830   21.6863 H   0  0  0  0  0  0
  -26.0152  -38.2822   24.1338 H   0  0  0  0  0  0
  -25.4170  -18.9486   15.9628 H   0  0  0  0  0  0
  -25.9744  -20.6756   16.2966 H   0  0  0  0  0  0
  -26.1943  -17.6340   19.2351 H   0  0  0  0  0  0
  -25.3478  -17.3733   17.7356 H   0  0  0  0  0  0
  -28.4269  -16.1195   19.1700 H   0  0  0  0  0  0
  -27.8126  -17.5356   16.6764 H   0  0  0  0  0  0
  -27.8731  -15.0047   16.8006 H   0  0  0  0  0  0
  -26.2922  -15.6615   16.3397 H   0  0  0  0  0  0
  -26.5287  -15.0652   17.9437 H   0  0  0  0  0  0
  -26.3530  -20.1130   20.9055 H   0  0  0  0  0  0
  -25.1369  -19.7447   19.7568 H   0  0  0  0  0  0
  -25.6763  -21.3981   19.9294 H   0  0  0  0  0  0
  -27.9737  -21.3103   17.1490 H   0  0  0  0  0  0
  -28.0829  -22.0751   18.6758 H   0  0  0  0  0  0
  -26.5481  -22.0497   17.8954 H   0  0  0  0  0  0
  -28.9180  -16.0945   21.6626 H   0  0  0  0  0  0
  -30.4928  -16.5909   22.1918 H   0  0  0  0  0  0
  -29.5846  -23.1966   19.4844 H   0  0  0  0  0  0
  -29.9139  -23.6825   21.0543 H   0  0  0  0  0  0
  -27.6942  -21.7899   21.3388 H   0  0  0  0  0  0
  -29.2103  -21.7636   22.0946 H   0  0  0  0  0  0
  -27.3125  -24.5140   21.1756 H   0  0  0  0  0  0
  -27.3935  -24.3794   19.4623 H   0  0  0  0  0  0
  1 25  1  0  0  0
  1 30  2  0  0  0
  1 83  1  0  0  0
  2  3  1  0  0  0
  2 25  1  0  0  0
  2 90  1  0  0  0
  2 91  1  0  0  0
  3  4  1  0  0  0
  3 92  1  0  0  0
  3 93  1  0  0  0
  4  5  1  0  0  0
  4 94  1  0  0  0
  4 95  1  0  0  0
  5  6  1  0  0  0
  5 26  1  0  0  0
  5 96  1  0  0  0
  6 25  1  0  0  0
  6 97  1  0  0  0
  6 98  1  0  0  0
  7  8  2  0  0  0
  7 26  1  0  0  0
  7 29  1  0  0  0
  8  9  1  0  0  0
  8 22  1  0  0  0
  9 10  1  0  0  0
  9 27  2  0  0  0
 10 11  2  0  0  0
 10 15  1  0  0  0
 11 12  1  0  0  0
 11 99  1  0  0  0
 12 13  2  0  0  0
 12100  1  0  0  0
 13 14  1  0  0  0
 13 31  1  0  0  0
 14 15  2  0  0  0
 14101  1  0  0  0
 15102  1  0  0  0
 16 17  2  0  0  0
 16 21  1  0  0  0
 16 31  1  0  0  0
 17 18  1  0  0  0
 17103  1  0  0  0
 18 19  2  0  0  0
 18104  1  0  0  0
 19 20  1  0  0  0
 19 24  1  0  0  0
 20 21  2  0  0  0
 20105  1  0  0  0
 21 23  1  0  0  0
 22 28  1  0  0  0
 22 32  2  0  0  0
 26 27  1  0  0  0
 28106  1  0  0  0
 28107  1  0  0  0
 29108  1  0  0  0
 29109  1  0  0  0
 33 34  1  0  0  0
 33 66  1  0  0  0
 33 70  2  0  0  0
 34 36  1  0  0  0
 34 59  1  0  0  0
 34110  1  0  0  0
 35 44  2  0  0  0
 35 45  1  0  0  0
 35 68  1  0  0  0
 36 56  1  0  0  0
 36111  1  0  0  0
 37 39  1  0  0  0
 37 47  1  0  0  0
 37 66  1  0  0  0
 37112  1  0  0  0
 38 43  2  0  0  0
 38 46  1  0  0  0
 38 47  1  0  0  0
 39 64  1  0  0  0
 39 67  2  0  0  0
 40 52  1  0  0  0
 40 53  2  0  0  0
 40 58  1  0  0  0
 41113  1  0  0  0
 41114  1  0  0  0
 41115  1  0  0  0
 41 48  1  0  0  0
 42 43  1  0  0  0
 42 66  1  0  0  0
 42116  1  0  0  0
 42117  1  0  0  0
 43 44  1  0  0  0
 44118  1  0  0  0
 45 46  2  0  0  0
 45119  1  0  0  0
 46120  1  0  0  0
 47121  1  0  0  0
 47122  1  0  0  0
 48 56  1  0  0  0
 48 65  1  0  0  0
 48123  1  0  0  0
 49 50  1  0  0  0
 49 53  1  0  0  0
 49 64  1  0  0  0
 49124  1  0  0  0
 50 51  1  0  0  0
 50125  1  0  0  0
 50126  1  0  0  0
 51 52  1  0  0  0
 51127  1  0  0  0
 51128  1  0  0  0
 52129  1  0  0  0
 52130  1  0  0  0
 53 54  1  0  0  0
 54 55  2  0  0  0
 54131  1  0  0  0
 55 57  1  0  0  0
 55132  1  0  0  0
 56 69  2  0  0  0
 57 58  2  0  0  0
 57133  1  0  0  0
 58134  1  0  0  0
 59 60  1  0  0  0
 59 61  1  0  0  0
 59 62  1  0  0  0
 60135  1  0  0  0
 60136  1  0  0  0
 60137  1  0  0  0
 61138  1  0  0  0
 61139  1  0  0  0
 61140  1  0  0  0
 62141  1  0  0  0
 62142  1  0  0  0
 62143  1  0  0  0
 63 65  1  0  0  0
 63144  1  0  0  0
 63145  1  0  0  0
 63146  1  0  0  0
 64147  1  0  0  0
 65148  1  0  0  0
 68 86  1  0  0  0
 71 72  2  0  0  0
 71 73  1  0  0  0
 71 77  1  0  0  0
 72 79  1  0  0  0
 72 88  1  0  0  0
 73 83  1  0  0  0
 73 87  2  0  0  0
 74 75  2  0  0  0
 74 76  1  0  0  0
 74 79  1  0  0  0
 75149  1  0  0  0
 75150  1  0  0  0
 76 78  1  0  0  0
 76151  1  0  0  0
 76152  1  0  0  0
 77 78  1  0  0  0
 77 89  1  0  0  0
 77153  1  0  0  0
 78 80  1  0  0  0
 78154  1  0  0  0
 79 81  1  0  0  0
 79 82  1  0  0  0
 80155  1  0  0  0
 80156  1  0  0  0
 80157  1  0  0  0
 81158  1  0  0  0
 81159  1  0  0  0
 81160  1  0  0  0
 82161  1  0  0  0
 82162  1  0  0  0
 82163  1  0  0  0
 83164  1  0  0  0
 83165  1  0  0  0
 84 85  1  0  0  0
 84 86  1  0  0  0
 84166  1  0  0  0
 84167  1  0  0  0
 85 88  1  0  0  0
 85168  1  0  0  0
 85169  1  0  0  0
 86170  1  0  0  0
 86171  1  0  0  0
 87 88  1  0  0  0
M  ISO  4   1 100  68 101  83 100  86 101
M  END
> <chiral flag>
0

> <version>
0

> <s_m_source_file>
/data/baiqing/PycharmProjects/Reinvent-master-3.2/result/LINK_invent/BTK/process_docking_weight1_custom_sum_contain_oxygen_bond_distance_aromatic_linkinvent_7_9_3/rearranged_h_0030.sdf

> <i_m_source_file_index>
29

> <r_mmod_Potential_Energy-OPLS-2005>
833.823608398438

> <r_mmod_Stretch_Energy-OPLS-2005>
348.107299804688

> <r_mmod_Bend_Energy-OPLS-2005>
366.533477783203

> <r_mmod_Torsional_Energy-OPLS-2005>
274.486297607422

> <r_mmod_Improper_Torsional_Energy-OPLS-2005>
8.90796089172363

> <r_mmod_Van_der_Waal_Energy-OPLS-2005>
145.635360717773

> <r_mmod_Electrostatic_Energy-OPLS-2005>
-314.111877441406

> <r_mmod_Solvation_Energy-OPLS-2005>
-210.073837280273

> <b_mmod_Minimization_Converged-OPLS-2005>
0

> <r_mmod_RMS_Derivative-OPLS-2005>
11.6718626022339

$$$$
29
                    3D
 Structure written by MMmdl.
159167  0  0  1  0            999 V2000
  -30.7065  -14.4753   20.7142 C   0  0  0  0  0  0
  -30.4263  -12.3682   19.4349 C   0  0  0  0  0  0
  -29.4939  -12.5283   18.2146 C   0  0  0  0  0  0
  -28.0193  -12.3563   18.6273 C   0  0  0  0  0  0
  -27.6516  -13.2005   19.8721 C   0  0  2  0  0  0
  -28.6833  -12.9834   21.0027 C   0  0  0  0  0  0
  -25.2517  -13.8134   20.5664 C   0  0  0  0  0  0
  -24.1803  -13.0405   20.9210 C   0  0  0  0  0  0
  -24.6356  -11.6872   20.8737 C   0  0  0  0  0  0
  -23.9054  -10.4270   21.0381 C   0  0  0  0  0  0
  -24.3631   -9.4191   21.9163 C   0  0  0  0  0  0
  -23.6303   -8.2245   22.0773 C   0  0  0  0  0  0
  -22.4266   -8.0277   21.3566 C   0  0  0  0  0  0
  -21.9883   -9.0224   20.4667 C   0  0  0  0  0  0
  -22.7230  -10.2093   20.3050 C   0  0  0  0  0  0
  -21.6835   -6.0756   22.5245 C   0  0  0  0  0  0
  -21.4030   -6.5674   23.8180 C   0  0  0  0  0  0
  -21.3678   -5.6828   24.9126 C   0  0  0  0  0  0
  -21.6023   -4.3086   24.7159 C   0  0  0  0  0  0
  -21.8849   -3.8188   23.4284 C   0  0  0  0  0  0
  -21.9206   -4.7004   22.3346 C   0  0  0  0  0  0
  -22.7836  -13.5181   21.1897 C   0  0  0  0  0  0
  -22.1694   -4.2207   21.0918 F   0  0  0  0  0  0
  -21.5591   -3.4563   25.7676 F   0  0  0  0  0  0
  -30.0113  -13.3265   20.4767 N   0  0  0  0  0  0
  -26.2938  -12.9308   20.3283 N   0  0  0  0  0  0
  -25.9253  -11.6471   20.5707 N   0  0  0  0  0  0
  -22.0495  -12.8159   22.0442 N   0  0  0  0  0  0
  -25.4193  -15.1855   20.4060 N   0  0  0  0  0  0
  -31.7933  -14.7003   20.1795 O   0  0  0  0  0  0
  -21.6636   -6.8878   21.4221 O   0  0  0  0  0  0
  -22.3515  -14.5485   20.6728 O   0  0  0  0  0  0
  -24.6165  -31.8680   23.2165 C   0  0  0  0  0  0
  -25.9051  -32.4802   23.8465 C   0  0  1  0  0  0
  -27.2231  -27.4141   20.0950 C   0  0  0  0  0  0
  -25.5923  -33.8623   24.2359 N   0  0  0  0  0  0
  -23.4064  -30.4901   21.5578 C   0  0  2  0  0  0
  -24.8490  -28.9680   20.1079 C   0  0  0  0  0  0
  -22.7477  -29.4585   22.5004 C   0  0  0  0  0  0
  -18.0270  -28.1444   22.8509 C   0  0  0  0  0  0
  -24.1480  -36.7319   23.2630 C   0  0  0  0  0  0
  -25.9352  -30.8229   21.3751 C   0  0  0  0  0  0
  -26.0078  -29.4574   20.7196 C   0  0  0  0  0  0
  -27.1970  -28.6886   20.7140 C   0  0  0  0  0  0
  -26.0475  -26.9621   19.4442 C   0  0  0  0  0  0
  -24.8644  -27.7213   19.4632 C   0  0  0  0  0  0
  -23.6129  -29.8368   20.1656 C   0  0  0  0  0  0
  -25.4100  -36.3084   24.0329 C   0  0  1  0  0  0
  -20.5874  -28.3651   23.1263 C   0  0  2  0  0  0
  -20.6820  -26.9346   22.5476 C   0  0  0  0  0  0
  -19.5689  -26.5994   21.5485 C   0  0  0  0  0  0
  -18.1802  -26.7919   22.1777 C   0  0  0  0  0  0
  -19.1564  -28.8871   23.2868 C   0  0  0  0  0  0
  -18.9582  -30.1500   23.8842 C   0  0  0  0  0  0
  -17.6625  -30.6672   24.0622 C   0  0  0  0  0  0
  -25.9035  -34.9453   23.5111 C   0  0  0  0  0  0
  -16.5456  -29.9223   23.6492 C   0  0  0  0  0  0
  -16.7278  -28.6619   23.0475 C   0  0  0  0  0  0
  -26.4482  -31.6583   25.0799 C   0  0  0  0  0  0
  -25.3765  -31.3725   26.1577 C   0  0  0  0  0  0
  -27.0306  -30.3022   24.6181 C   0  0  0  0  0  0
  -27.6058  -32.4308   25.7577 C   0  0  0  0  0  0
  -27.5570  -37.1828   24.8466 C   0  0  0  0  0  0
  -21.4194  -29.3036   22.3738 N   0  0  0  0  0  0
  -26.4288  -37.3769   23.9396 N   0  0  0  0  0  0
  -24.6709  -31.0772   22.1070 N   0  0  0  0  0  0
  -23.4235  -28.8087   23.3024 O   0  0  0  0  0  0
  -28.3831  -26.6539   20.1396 O   0  0  0  0  0  0
  -26.5565  -34.8897   22.4652 O   0  0  0  0  0  0
  -23.5369  -32.1454   23.7561 O   0  0  0  0  0  0
  -28.2664  -19.8583   22.3801 C   0  0  0  0  0  0
  -30.2859  -18.3083   21.2226 C   0  0  0  0  0  0
  -28.1336  -18.4506   22.3252 C   0  0  0  0  0  0
  -29.3945  -20.5150   21.8476 C   0  0  0  0  0  0
  -29.1582  -17.6449   21.7548 C   0  0  0  0  0  0
  -30.4063  -19.7199   21.2546 C   0  0  0  0  0  0
  -26.8472  -17.8455   22.8543 C   0  0  0  0  0  0
  -29.5080  -22.0443   21.9750 C   0  0  0  0  0  0
  -29.0066  -16.1126   21.6089 C   0  0  0  0  0  0
  -28.9178  -22.8635   20.8000 C   0  0  0  0  0  0
  -29.1749  -24.3992   20.8902 C   0  0  0  0  0  0
  -28.2446  -25.2242   19.9739 C   0  0  0  0  0  0
  -30.2432  -15.3084   21.6776 N   0  0  0  0  0  0
  -31.8057  -20.4461   20.5534 Cl  0  0  0  0  0  0
  -31.4645  -12.5162   19.1321 H   0  0  0  0  0  0
  -30.3729  -11.3557   19.8347 H   0  0  0  0  0  0
  -29.7502  -11.7963   17.4482 H   0  0  0  0  0  0
  -29.6411  -13.5116   17.7610 H   0  0  0  0  0  0
  -27.8525  -11.2991   18.8380 H   0  0  0  0  0  0
  -27.3631  -12.6137   17.7953 H   0  0  0  0  0  0
  -27.6859  -14.2396   19.5525 H   0  0  0  0  0  0
  -28.6761  -11.9443   21.3349 H   0  0  0  0  0  0
  -28.4137  -13.5549   21.8874 H   0  0  0  0  0  0
  -25.2785   -9.5673   22.4709 H   0  0  0  0  0  0
  -24.0035   -7.4652   22.7493 H   0  0  0  0  0  0
  -21.0807   -8.8679   19.8992 H   0  0  0  0  0  0
  -22.3651  -10.9602   19.6155 H   0  0  0  0  0  0
  -21.2063   -7.6188   23.9677 H   0  0  0  0  0  0
  -21.1456   -6.0556   25.9018 H   0  0  0  0  0  0
  -22.0616   -2.7658   23.2719 H   0  0  0  0  0  0
  -22.4121  -11.9827   22.4884 H   0  0  0  0  0  0
  -21.1106  -13.1175   22.2650 H   0  0  0  0  0  0
  -24.6588  -15.8391   20.5624 H   0  0  0  0  0  0
  -26.2312  -15.6162   19.9879 H   0  0  0  0  0  0
  -26.7120  -32.5487   23.1226 H   0  0  0  0  0  0
  -25.0159  -33.9831   25.0558 H   0  0  0  0  0  0
  -22.6869  -31.3011   21.4308 H   0  0  0  0  0  0
  -23.3703  -35.9680   23.3296 H   0  0  0  0  0  0
  -24.3567  -36.8946   22.2040 H   0  0  0  0  0  0
  -23.7266  -37.6546   23.6647 H   0  0  0  0  0  0
  -26.0543  -31.5861   20.6032 H   0  0  0  0  0  0
  -26.8194  -30.8744   21.9976 H   0  0  0  0  0  0
  -28.0859  -29.0583   21.2047 H   0  0  0  0  0  0
  -26.0205  -26.0259   18.9021 H   0  0  0  0  0  0
  -23.9806  -27.3505   18.9597 H   0  0  0  0  0  0
  -23.7212  -30.6167   19.4157 H   0  0  0  0  0  0
  -22.7307  -29.2673   19.8677 H   0  0  0  0  0  0
  -25.1258  -36.1963   25.0827 H   0  0  0  0  0  0
  -20.9938  -28.3207   24.1403 H   0  0  0  0  0  0
  -21.6599  -26.7488   22.1024 H   0  0  0  0  0  0
  -20.6002  -26.2295   23.3779 H   0  0  0  0  0  0
  -19.6825  -27.2368   20.6720 H   0  0  0  0  0  0
  -19.6755  -25.5669   21.2128 H   0  0  0  0  0  0
  -17.4070  -26.6634   21.4199 H   0  0  0  0  0  0
  -17.9976  -26.0248   22.9318 H   0  0  0  0  0  0
  -19.8099  -30.7349   24.2051 H   0  0  0  0  0  0
  -17.5361  -31.6381   24.5242 H   0  0  0  0  0  0
  -15.5531  -30.3251   23.7899 H   0  0  0  0  0  0
  -15.8659  -28.0975   22.7194 H   0  0  0  0  0  0
  -24.5962  -30.7006   25.7996 H   0  0  0  0  0  0
  -24.8911  -32.2884   26.4973 H   0  0  0  0  0  0
  -25.8194  -30.9008   27.0372 H   0  0  0  0  0  0
  -26.2880  -29.6826   24.1171 H   0  0  0  0  0  0
  -27.3981  -29.7241   25.4673 H   0  0  0  0  0  0
  -27.8738  -30.4307   23.9404 H   0  0  0  0  0  0
  -27.2665  -33.3617   26.2139 H   0  0  0  0  0  0
  -28.3900  -32.6866   25.0436 H   0  0  0  0  0  0
  -28.0653  -31.8425   26.5528 H   0  0  0  0  0  0
  -28.2598  -38.0119   24.7459 H   0  0  0  0  0  0
  -28.1068  -36.2652   24.6335 H   0  0  0  0  0  0
  -27.2295  -37.1514   25.8878 H   0  0  0  0  0  0
  -20.9372  -29.9023   21.7169 H   0  0  0  0  0  0
  -26.0174  -38.2855   24.1378 H   0  0  0  0  0  0
  -27.4833  -20.4633   22.8157 H   0  0  0  0  0  0
  -31.0662  -17.7291   20.7507 H   0  0  0  0  0  0
  -27.0365  -17.0825   23.6086 H   0  0  0  0  0  0
  -26.2047  -18.6021   23.3081 H   0  0  0  0  0  0
  -26.2902  -17.4006   22.0306 H   0  0  0  0  0  0
  -30.5472  -22.3215   22.1388 H   0  0  0  0  0  0
  -28.9894  -22.3431   22.8895 H   0  0  0  0  0  0
  -28.5194  -15.9537   20.6519 H   0  0  0  0  0  0
  -28.3183  -15.7247   22.3605 H   0  0  0  0  0  0
  -27.8447  -22.6810   20.7832 H   0  0  0  0  0  0
  -29.3032  -22.4903   19.8481 H   0  0  0  0  0  0
  -28.9995  -24.7341   21.9146 H   0  0  0  0  0  0
  -30.2209  -24.6210   20.6651 H   0  0  0  0  0  0
  -27.2380  -24.9006   20.2292 H   0  0  0  0  0  0
  -28.4068  -24.9588   18.9293 H   0  0  0  0  0  0
  -30.9775  -15.7950   22.1683 H   0  0  0  0  0  0
  1 25  1  0  0  0
  1 30  2  0  0  0
  1 83  1  0  0  0
  2  3  1  0  0  0
  2 25  1  0  0  0
  2 85  1  0  0  0
  2 86  1  0  0  0
  3  4  1  0  0  0
  3 87  1  0  0  0
  3 88  1  0  0  0
  4  5  1  0  0  0
  4 89  1  0  0  0
  4 90  1  0  0  0
  5  6  1  0  0  0
  5 26  1  0  0  0
  5 91  1  0  0  0
  6 25  1  0  0  0
  6 92  1  0  0  0
  6 93  1  0  0  0
  7  8  2  0  0  0
  7 26  1  0  0  0
  7 29  1  0  0  0
  8  9  1  0  0  0
  8 22  1  0  0  0
  9 10  1  0  0  0
  9 27  2  0  0  0
 10 11  2  0  0  0
 10 15  1  0  0  0
 11 12  1  0  0  0
 11 94  1  0  0  0
 12 13  2  0  0  0
 12 95  1  0  0  0
 13 14  1  0  0  0
 13 31  1  0  0  0
 14 15  2  0  0  0
 14 96  1  0  0  0
 15 97  1  0  0  0
 16 17  2  0  0  0
 16 21  1  0  0  0
 16 31  1  0  0  0
 17 18  1  0  0  0
 17 98  1  0  0  0
 18 19  2  0  0  0
 18 99  1  0  0  0
 19 20  1  0  0  0
 19 24  1  0  0  0
 20 21  2  0  0  0
 20100  1  0  0  0
 21 23  1  0  0  0
 22 28  1  0  0  0
 22 32  2  0  0  0
 26 27  1  0  0  0
 28101  1  0  0  0
 28102  1  0  0  0
 29103  1  0  0  0
 29104  1  0  0  0
 33 34  1  0  0  0
 33 66  1  0  0  0
 33 70  2  0  0  0
 34 36  1  0  0  0
 34 59  1  0  0  0
 34105  1  0  0  0
 35 44  2  0  0  0
 35 45  1  0  0  0
 35 68  1  0  0  0
 36 56  1  0  0  0
 36106  1  0  0  0
 37 39  1  0  0  0
 37 47  1  0  0  0
 37 66  1  0  0  0
 37107  1  0  0  0
 38 43  2  0  0  0
 38 46  1  0  0  0
 38 47  1  0  0  0
 39 64  1  0  0  0
 39 67  2  0  0  0
 40 52  1  0  0  0
 40 53  2  0  0  0
 40 58  1  0  0  0
 41108  1  0  0  0
 41109  1  0  0  0
 41110  1  0  0  0
 41 48  1  0  0  0
 42 43  1  0  0  0
 42 66  1  0  0  0
 42111  1  0  0  0
 42112  1  0  0  0
 43 44  1  0  0  0
 44113  1  0  0  0
 45 46  2  0  0  0
 45114  1  0  0  0
 46115  1  0  0  0
 47116  1  0  0  0
 47117  1  0  0  0
 48 56  1  0  0  0
 48 65  1  0  0  0
 48118  1  0  0  0
 49 50  1  0  0  0
 49 53  1  0  0  0
 49 64  1  0  0  0
 49119  1  0  0  0
 50 51  1  0  0  0
 50120  1  0  0  0
 50121  1  0  0  0
 51 52  1  0  0  0
 51122  1  0  0  0
 51123  1  0  0  0
 52124  1  0  0  0
 52125  1  0  0  0
 53 54  1  0  0  0
 54 55  2  0  0  0
 54126  1  0  0  0
 55 57  1  0  0  0
 55127  1  0  0  0
 56 69  2  0  0  0
 57 58  2  0  0  0
 57128  1  0  0  0
 58129  1  0  0  0
 59 60  1  0  0  0
 59 61  1  0  0  0
 59 62  1  0  0  0
 60130  1  0  0  0
 60131  1  0  0  0
 60132  1  0  0  0
 61133  1  0  0  0
 61134  1  0  0  0
 61135  1  0  0  0
 62136  1  0  0  0
 62137  1  0  0  0
 62138  1  0  0  0
 63 65  1  0  0  0
 63139  1  0  0  0
 63140  1  0  0  0
 63141  1  0  0  0
 64142  1  0  0  0
 65143  1  0  0  0
 68 82  1  0  0  0
 71 73  2  0  0  0
 71 74  1  0  0  0
 71144  1  0  0  0
 72 75  2  0  0  0
 72 76  1  0  0  0
 72145  1  0  0  0
 73 75  1  0  0  0
 73 77  1  0  0  0
 74 76  2  0  0  0
 74 78  1  0  0  0
 75 79  1  0  0  0
 76 84  1  0  0  0
 77146  1  0  0  0
 77147  1  0  0  0
 77148  1  0  0  0
 78 80  1  0  0  0
 78149  1  0  0  0
 78150  1  0  0  0
 79 83  1  0  0  0
 79151  1  0  0  0
 79152  1  0  0  0
 80 81  1  0  0  0
 80153  1  0  0  0
 80154  1  0  0  0
 81 82  1  0  0  0
 81155  1  0  0  0
 81156  1  0  0  0
 82157  1  0  0  0
 82158  1  0  0  0
 83159  1  0  0  0
M  ISO  4   1 100  68 101  82 101  83 100
M  END
> <chiral flag>
0

> <version>
0

> <s_m_source_file>
/data/baiqing/PycharmProjects/Reinvent-master-3.2/result/LINK_invent/BTK/process_docking_weight1_custom_sum_contain_oxygen_bond_distance_aromatic_linkinvent_7_9_3/rearranged_h_0030.sdf

> <i_m_source_file_index>
30

> <r_mmod_Potential_Energy-OPLS-2005>
-39.4398651123047

> <r_mmod_Stretch_Energy-OPLS-2005>
42.008918762207

> <r_mmod_Bend_Energy-OPLS-2005>
104.740707397461

> <r_mmod_Torsional_Energy-OPLS-2005>
250.494812011719

> <r_mmod_Improper_Torsional_Energy-OPLS-2005>
6.30583333969116

> <r_mmod_Van_der_Waal_Energy-OPLS-2005>
152.013305664062

> <r_mmod_Electrostatic_Energy-OPLS-2005>
-415.145568847656

> <r_mmod_Solvation_Energy-OPLS-2005>
-198.834243774414

> <b_mmod_Minimization_Converged-OPLS-2005>
0

> <r_mmod_RMS_Derivative-OPLS-2005>
6.73293161392212

$$$$
30
                    3D
 Structure written by MMmdl.
159167  0  0  1  0            999 V2000
  -30.6349  -14.6899   20.4630 C   0  0  0  0  0  0
  -30.4309  -12.4217   19.4625 C   0  0  0  0  0  0
  -29.5042  -12.5003   18.2294 C   0  0  0  0  0  0
  -28.0299  -12.3364   18.6444 C   0  0  0  0  0  0
  -27.6461  -13.2267   19.8564 C   0  0  2  0  0  0
  -28.6929  -13.1395   20.9893 C   0  0  0  0  0  0
  -25.2530  -13.8197   20.5696 C   0  0  0  0  0  0
  -24.1808  -13.0447   20.9211 C   0  0  0  0  0  0
  -24.6391  -11.6922   20.8753 C   0  0  0  0  0  0
  -23.9069  -10.4302   21.0409 C   0  0  0  0  0  0
  -24.3626   -9.4216   21.9181 C   0  0  0  0  0  0
  -23.6305   -8.2248   22.0749 C   0  0  0  0  0  0
  -22.4285   -8.0288   21.3543 C   0  0  0  0  0  0
  -21.9922   -9.0259   20.4643 C   0  0  0  0  0  0
  -22.7244  -10.2140   20.3054 C   0  0  0  0  0  0
  -21.6854   -6.0741   22.5278 C   0  0  0  0  0  0
  -21.4011   -6.5643   23.8210 C   0  0  0  0  0  0
  -21.3657   -5.6798   24.9172 C   0  0  0  0  0  0
  -21.6043   -4.3061   24.7225 C   0  0  0  0  0  0
  -21.8820   -3.8151   23.4347 C   0  0  0  0  0  0
  -21.9198   -4.6969   22.3403 C   0  0  0  0  0  0
  -22.7832  -13.5232   21.1877 C   0  0  0  0  0  0
  -22.1665   -4.2152   21.0979 F   0  0  0  0  0  0
  -21.5633   -3.4543   25.7739 F   0  0  0  0  0  0
  -29.9996  -13.4736   20.4083 N   0  0  0  0  0  0
  -26.2958  -12.9388   20.3316 N   0  0  0  0  0  0
  -25.9321  -11.6536   20.5772 N   0  0  0  0  0  0
  -22.0486  -12.8208   22.0432 N   0  0  0  0  0  0
  -25.4243  -15.1914   20.4093 N   0  0  0  0  0  0
  -31.8176  -14.7944   20.1289 O   0  0  0  0  0  0
  -21.6644   -6.8884   21.4239 O   0  0  0  0  0  0
  -22.3509  -14.5535   20.6732 O   0  0  0  0  0  0
  -24.6262  -31.8564   23.1997 C   0  0  0  0  0  0
  -25.9100  -32.4755   23.8318 C   0  0  1  0  0  0
  -27.2259  -27.2937   20.1127 C   0  0  0  0  0  0
  -25.5898  -33.8556   24.2240 N   0  0  0  0  0  0
  -23.4215  -30.4804   21.5417 C   0  0  2  0  0  0
  -24.8693  -28.9324   20.1071 C   0  0  0  0  0  0
  -22.7471  -29.4605   22.4904 C   0  0  0  0  0  0
  -18.0284  -28.1388   22.8500 C   0  0  0  0  0  0
  -24.1483  -36.7290   23.2643 C   0  0  0  0  0  0
  -25.9644  -30.7800   21.3747 C   0  0  0  0  0  0
  -26.0370  -29.4055   20.7161 C   0  0  0  0  0  0
  -27.2130  -28.5951   20.7124 C   0  0  0  0  0  0
  -26.0277  -26.8730   19.4902 C   0  0  0  0  0  0
  -24.8684  -27.6737   19.4869 C   0  0  0  0  0  0
  -23.6378  -29.8147   20.1572 C   0  0  0  0  0  0
  -25.4110  -36.3063   24.0322 C   0  0  1  0  0  0
  -20.5888  -28.3693   23.1288 C   0  0  2  0  0  0
  -20.6775  -26.9408   22.5422 C   0  0  0  0  0  0
  -19.5743  -26.6380   21.5232 C   0  0  0  0  0  0
  -18.1922  -26.7929   22.1639 C   0  0  0  0  0  0
  -19.1539  -28.8855   23.2892 C   0  0  0  0  0  0
  -18.9459  -30.1458   23.8905 C   0  0  0  0  0  0
  -17.6460  -30.6594   24.0566 C   0  0  0  0  0  0
  -25.9046  -34.9437   23.5086 C   0  0  0  0  0  0
  -16.5351  -29.9093   23.6337 C   0  0  0  0  0  0
  -16.7271  -28.6513   23.0354 C   0  0  0  0  0  0
  -26.4481  -31.6570   25.0688 C   0  0  0  0  0  0
  -25.3708  -31.3726   26.1411 C   0  0  0  0  0  0
  -27.0330  -30.2979   24.6166 C   0  0  0  0  0  0
  -27.6024  -32.4325   25.7467 C   0  0  0  0  0  0
  -27.5571  -37.1792   24.8462 C   0  0  0  0  0  0
  -21.4179  -29.3039   22.3662 N   0  0  0  0  0  0
  -26.4281  -37.3760   23.9408 N   0  0  0  0  0  0
  -24.6895  -31.0559   22.0957 N   0  0  0  0  0  0
  -23.4188  -28.8146   23.2987 O   0  0  0  0  0  0
  -28.3593  -26.4605   20.2000 O   0  0  0  0  0  0
  -26.5632  -34.8909   22.4663 O   0  0  0  0  0  0
  -23.5420  -32.1372   23.7316 O   0  0  0  0  0  0
  -30.1056  -21.0858   17.6955 C   0  0  0  0  0  0
  -29.0782  -21.1066   20.2606 C   0  0  0  0  0  0
  -29.8805  -19.8547   18.3345 C   0  0  0  0  0  0
  -29.8266  -22.3296   18.2970 C   0  0  0  0  0  0
  -29.4125  -19.8165   19.6728 C   0  0  0  0  0  0
  -29.2415  -22.3935   19.5957 C   0  0  0  0  0  0
  -30.1333  -18.6072   17.5006 C   0  0  0  0  0  0
  -30.2210  -23.5475   17.4811 C   0  0  0  0  0  0
  -29.1451  -18.4081   20.3691 C   0  0  0  0  0  0
  -28.8600  -23.7801   20.3105 C   0  0  0  0  0  0
  -30.2861  -17.2686   20.4645 C   0  0  0  0  0  0
  -28.5015  -25.1462   19.5118 C   0  0  0  0  0  0
  -29.8721  -15.8188   20.6752 N   0  0  0  0  0  0
  -31.4707  -12.5431   19.1531 H   0  0  0  0  0  0
  -30.3706  -11.4388   19.9326 H   0  0  0  0  0  0
  -29.7744  -11.7301   17.5060 H   0  0  0  0  0  0
  -29.6394  -13.4568   17.7217 H   0  0  0  0  0  0
  -27.8752  -11.2865   18.8953 H   0  0  0  0  0  0
  -27.3729  -12.5469   17.7997 H   0  0  0  0  0  0
  -27.6493  -14.2520   19.4878 H   0  0  0  0  0  0
  -28.7141  -12.1390   21.4238 H   0  0  0  0  0  0
  -28.4380  -13.8206   21.8032 H   0  0  0  0  0  0
  -25.2771   -9.5693   22.4756 H   0  0  0  0  0  0
  -24.0020   -7.4634   22.7459 H   0  0  0  0  0  0
  -21.0861   -8.8775   19.8941 H   0  0  0  0  0  0
  -22.3704  -10.9683   19.6167 H   0  0  0  0  0  0
  -21.1991   -7.6148   23.9713 H   0  0  0  0  0  0
  -21.1477   -6.0526   25.9075 H   0  0  0  0  0  0
  -22.0602   -2.7613   23.2845 H   0  0  0  0  0  0
  -22.4126  -11.9876   22.4814 H   0  0  0  0  0  0
  -21.1095  -13.1199   22.2637 H   0  0  0  0  0  0
  -24.6587  -15.8487   20.5143 H   0  0  0  0  0  0
  -26.2706  -15.6259   20.0645 H   0  0  0  0  0  0
  -26.7163  -32.5415   23.1054 H   0  0  0  0  0  0
  -24.9990  -33.9699   25.0345 H   0  0  0  0  0  0
  -22.7164  -31.3025   21.3977 H   0  0  0  0  0  0
  -23.3731  -35.9635   23.3300 H   0  0  0  0  0  0
  -24.3577  -36.8919   22.2058 H   0  0  0  0  0  0
  -23.7263  -37.6494   23.6687 H   0  0  0  0  0  0
  -26.0963  -31.5432   20.6062 H   0  0  0  0  0  0
  -26.8451  -30.8293   22.0038 H   0  0  0  0  0  0
  -28.1073  -28.9514   21.2042 H   0  0  0  0  0  0
  -25.9343  -25.9049   19.0264 H   0  0  0  0  0  0
  -23.9691  -27.3041   19.0131 H   0  0  0  0  0  0
  -23.7538  -30.5910   19.3992 H   0  0  0  0  0  0
  -22.7587  -29.2415   19.8581 H   0  0  0  0  0  0
  -25.1292  -36.1893   25.0814 H   0  0  0  0  0  0
  -20.9998  -28.3278   24.1407 H   0  0  0  0  0  0
  -20.5689  -26.2298   23.3623 H   0  0  0  0  0  0
  -21.6640  -26.7436   22.1207 H   0  0  0  0  0  0
  -19.6899  -25.6292   21.1264 H   0  0  0  0  0  0
  -19.6685  -27.3193   20.6764 H   0  0  0  0  0  0
  -17.4195  -26.6685   21.4036 H   0  0  0  0  0  0
  -18.0308  -26.0068   22.9031 H   0  0  0  0  0  0
  -19.7933  -30.7272   24.2279 H   0  0  0  0  0  0
  -17.5016  -31.6286   24.5143 H   0  0  0  0  0  0
  -15.5352  -30.2991   23.7675 H   0  0  0  0  0  0
  -15.8669  -28.0847   22.7055 H   0  0  0  0  0  0
  -24.5880  -30.7071   25.7745 H   0  0  0  0  0  0
  -24.8889  -32.2896   26.4808 H   0  0  0  0  0  0
  -25.8008  -30.8919   27.0202 H   0  0  0  0  0  0
  -26.2897  -29.6707   24.1218 H   0  0  0  0  0  0
  -27.4038  -29.7259   25.4681 H   0  0  0  0  0  0
  -27.8763  -30.4237   23.9374 H   0  0  0  0  0  0
  -27.2609  -33.3632   26.2018 H   0  0  0  0  0  0
  -28.3844  -32.6881   25.0304 H   0  0  0  0  0  0
  -28.0672  -31.8465   26.5401 H   0  0  0  0  0  0
  -28.2580  -38.0092   24.7505 H   0  0  0  0  0  0
  -28.1074  -36.2622   24.6292 H   0  0  0  0  0  0
  -27.2296  -37.1451   25.8866 H   0  0  0  0  0  0
  -20.9344  -29.8749   21.6871 H   0  0  0  0  0  0
  -26.0146  -38.2825   24.1409 H   0  0  0  0  0  0
  -30.5048  -21.0707   16.6900 H   0  0  0  0  0  0
  -28.6681  -21.1118   21.2614 H   0  0  0  0  0  0
  -29.9074  -18.8034   16.4521 H   0  0  0  0  0  0
  -29.5042  -17.7689   17.7942 H   0  0  0  0  0  0
  -31.1806  -18.3076   17.5590 H   0  0  0  0  0  0
  -30.7651  -23.2708   16.5781 H   0  0  0  0  0  0
  -30.8959  -24.1856   18.0522 H   0  0  0  0  0  0
  -29.3460  -24.1059   17.1519 H   0  0  0  0  0  0
  -28.2930  -17.9786   19.8419 H   0  0  0  0  0  0
  -28.7796  -18.6045   21.3773 H   0  0  0  0  0  0
  -29.6890  -24.0039   20.9821 H   0  0  0  0  0  0
  -28.0153  -23.5678   20.9654 H   0  0  0  0  0  0
  -30.9751  -17.5423   21.2647 H   0  0  0  0  0  0
  -30.9009  -17.2782   19.5685 H   0  0  0  0  0  0
  -27.7094  -24.9389   18.7984 H   0  0  0  0  0  0
  -29.3567  -25.4028   18.9004 H   0  0  0  0  0  0
  -28.9100  -15.6548   20.9318 H   0  0  0  0  0  0
  1 25  1  0  0  0
  1 30  2  0  0  0
  1 83  1  0  0  0
  2  3  1  0  0  0
  2 25  1  0  0  0
  2 84  1  0  0  0
  2 85  1  0  0  0
  3  4  1  0  0  0
  3 86  1  0  0  0
  3 87  1  0  0  0
  4  5  1  0  0  0
  4 88  1  0  0  0
  4 89  1  0  0  0
  5  6  1  0  0  0
  5 26  1  0  0  0
  5 90  1  0  0  0
  6 25  1  0  0  0
  6 91  1  0  0  0
  6 92  1  0  0  0
  7  8  2  0  0  0
  7 26  1  0  0  0
  7 29  1  0  0  0
  8  9  1  0  0  0
  8 22  1  0  0  0
  9 10  1  0  0  0
  9 27  2  0  0  0
 10 11  2  0  0  0
 10 15  1  0  0  0
 11 12  1  0  0  0
 11 93  1  0  0  0
 12 13  2  0  0  0
 12 94  1  0  0  0
 13 14  1  0  0  0
 13 31  1  0  0  0
 14 15  2  0  0  0
 14 95  1  0  0  0
 15 96  1  0  0  0
 16 17  2  0  0  0
 16 21  1  0  0  0
 16 31  1  0  0  0
 17 18  1  0  0  0
 17 97  1  0  0  0
 18 19  2  0  0  0
 18 98  1  0  0  0
 19 20  1  0  0  0
 19 24  1  0  0  0
 20 21  2  0  0  0
 20 99  1  0  0  0
 21 23  1  0  0  0
 22 28  1  0  0  0
 22 32  2  0  0  0
 26 27  1  0  0  0
 28100  1  0  0  0
 28101  1  0  0  0
 29102  1  0  0  0
 29103  1  0  0  0
 33 34  1  0  0  0
 33 66  1  0  0  0
 33 70  2  0  0  0
 34 36  1  0  0  0
 34 59  1  0  0  0
 34104  1  0  0  0
 35 44  2  0  0  0
 35 45  1  0  0  0
 35 68  1  0  0  0
 36 56  1  0  0  0
 36105  1  0  0  0
 37 39  1  0  0  0
 37 47  1  0  0  0
 37 66  1  0  0  0
 37106  1  0  0  0
 38 43  2  0  0  0
 38 46  1  0  0  0
 38 47  1  0  0  0
 39 64  1  0  0  0
 39 67  2  0  0  0
 40 52  1  0  0  0
 40 53  2  0  0  0
 40 58  1  0  0  0
 41107  1  0  0  0
 41108  1  0  0  0
 41109  1  0  0  0
 41 48  1  0  0  0
 42 43  1  0  0  0
 42 66  1  0  0  0
 42110  1  0  0  0
 42111  1  0  0  0
 43 44  1  0  0  0
 44112  1  0  0  0
 45 46  2  0  0  0
 45113  1  0  0  0
 46114  1  0  0  0
 47115  1  0  0  0
 47116  1  0  0  0
 48 56  1  0  0  0
 48 65  1  0  0  0
 48117  1  0  0  0
 49 50  1  0  0  0
 49 53  1  0  0  0
 49 64  1  0  0  0
 49118  1  0  0  0
 50 51  1  0  0  0
 50119  1  0  0  0
 50120  1  0  0  0
 51 52  1  0  0  0
 51121  1  0  0  0
 51122  1  0  0  0
 52123  1  0  0  0
 52124  1  0  0  0
 53 54  1  0  0  0
 54 55  2  0  0  0
 54125  1  0  0  0
 55 57  1  0  0  0
 55126  1  0  0  0
 56 69  2  0  0  0
 57 58  2  0  0  0
 57127  1  0  0  0
 58128  1  0  0  0
 59 60  1  0  0  0
 59 61  1  0  0  0
 59 62  1  0  0  0
 60129  1  0  0  0
 60130  1  0  0  0
 60131  1  0  0  0
 61132  1  0  0  0
 61133  1  0  0  0
 61134  1  0  0  0
 62135  1  0  0  0
 62136  1  0  0  0
 62137  1  0  0  0
 63 65  1  0  0  0
 63138  1  0  0  0
 63139  1  0  0  0
 63140  1  0  0  0
 64141  1  0  0  0
 65142  1  0  0  0
 68 82  1  0  0  0
 71 73  2  0  0  0
 71 74  1  0  0  0
 71143  1  0  0  0
 72 75  2  0  0  0
 72 76  1  0  0  0
 72144  1  0  0  0
 73 75  1  0  0  0
 73 77  1  0  0  0
 74 76  2  0  0  0
 74 78  1  0  0  0
 75 79  1  0  0  0
 76 80  1  0  0  0
 77145  1  0  0  0
 77146  1  0  0  0
 77147  1  0  0  0
 78148  1  0  0  0
 78149  1  0  0  0
 78150  1  0  0  0
 79 81  1  0  0  0
 79151  1  0  0  0
 79152  1  0  0  0
 80 82  1  0  0  0
 80153  1  0  0  0
 80154  1  0  0  0
 81 83  1  0  0  0
 81155  1  0  0  0
 81156  1  0  0  0
 82157  1  0  0  0
 82158  1  0  0  0
 83159  1  0  0  0
M  ISO  4   1 100  68 101  82 101  83 100
M  END
> <chiral flag>
0

> <version>
0

> <s_m_source_file>
/data/baiqing/PycharmProjects/Reinvent-master-3.2/result/LINK_invent/BTK/process_docking_weight1_custom_sum_contain_oxygen_bond_distance_aromatic_linkinvent_7_9_3/rearranged_h_0030.sdf

> <i_m_source_file_index>
31

> <r_mmod_Potential_Energy-OPLS-2005>
117.79517364502

> <r_mmod_Stretch_Energy-OPLS-2005>
114.687477111816

> <r_mmod_Bend_Energy-OPLS-2005>
176.13020324707

> <r_mmod_Torsional_Energy-OPLS-2005>
203.086486816406

> <r_mmod_Improper_Torsional_Energy-OPLS-2005>
5.77257061004639

> <r_mmod_Van_der_Waal_Energy-OPLS-2005>
153.447448730469

> <r_mmod_Electrostatic_Energy-OPLS-2005>
-388.6650390625

> <r_mmod_Solvation_Energy-OPLS-2005>
-210.422424316406

> <b_mmod_Minimization_Converged-OPLS-2005>
0

> <r_mmod_RMS_Derivative-OPLS-2005>
1.57225847244263

$$$$
31
                    3D
 Structure written by MMmdl.
183192  0  0  1  0            999 V2000
  -31.2818  -14.0040   21.1084 C   0  0  0  0  0  0
  -30.9307  -12.4892   18.9923 C   0  0  0  0  0  0
  -29.5718  -11.7129   17.7856 C   0  0  0  0  0  0
  -27.6908  -12.0883   18.1692 C   0  0  0  0  0  0
  -27.2931  -13.2453   19.6980 C   0  0  2  0  0  0
  -28.7019  -13.8880   20.8044 C   0  0  0  0  0  0
  -25.1276  -13.8307   20.6790 C   0  0  0  0  0  0
  -24.0802  -13.0348   21.0008 C   0  0  0  0  0  0
  -24.5500  -11.6867   20.9305 C   0  0  0  0  0  0
  -23.8535  -10.4177   21.0649 C   0  0  0  0  0  0
  -24.3312   -9.4099   21.9285 C   0  0  0  0  0  0
  -23.6132   -8.2066   22.0718 C   0  0  0  0  0  0
  -22.4140   -8.0102   21.3474 C   0  0  0  0  0  0
  -21.9687   -9.0046   20.4584 C   0  0  0  0  0  0
  -22.6866  -10.1995   20.3114 C   0  0  0  0  0  0
  -21.6805   -6.0631   22.5265 C   0  0  0  0  0  0
  -21.3994   -6.5577   23.8195 C   0  0  0  0  0  0
  -21.3635   -5.6750   24.9165 C   0  0  0  0  0  0
  -21.6024   -4.3006   24.7230 C   0  0  0  0  0  0
  -21.8826   -3.8068   23.4365 C   0  0  0  0  0  0
  -21.9188   -4.6866   22.3407 C   0  0  0  0  0  0
  -22.6900  -13.5071   21.2317 C   0  0  0  0  0  0
  -22.1657   -4.2036   21.0990 F   0  0  0  0  0  0
  -21.5619   -3.4521   25.7759 F   0  0  0  0  0  0
  -30.3905  -13.5196   20.3612 N   0  0  0  0  0  0
  -26.1212  -12.9367   20.3767 N   0  0  0  0  0  0
  -25.8198  -11.6515   20.6065 N   0  0  0  0  0  0
  -21.9533  -12.8036   22.0773 N   0  0  0  0  0  0
  -25.3034  -15.2136   20.5434 N   0  0  0  0  0  0
  -32.1185  -14.7908   20.6811 O   0  0  0  0  0  0
  -21.6538   -6.8707   21.4205 O   0  0  0  0  0  0
  -22.2727  -14.5348   20.6992 O   0  0  0  0  0  0
  -24.6116  -31.8711   23.2157 C   0  0  0  0  0  0
  -25.9022  -32.4844   23.8440 C   0  0  1  0  0  0
  -27.2473  -27.4877   20.0649 C   0  0  0  0  0  0
  -25.5888  -33.8639   24.2381 N   0  0  0  0  0  0
  -23.3994  -30.4957   21.5538 C   0  0  2  0  0  0
  -24.8474  -28.9677   20.1149 C   0  0  0  0  0  0
  -22.7410  -29.4660   22.4991 C   0  0  0  0  0  0
  -18.0271  -28.1379   22.8490 C   0  0  0  0  0  0
  -24.1489  -36.7321   23.2644 C   0  0  0  0  0  0
  -25.9245  -30.8477   21.3659 C   0  0  0  0  0  0
  -26.0034  -29.4865   20.7117 C   0  0  0  0  0  0
  -27.2048  -28.7485   20.6949 C   0  0  0  0  0  0
  -26.0702  -26.9574   19.4944 C   0  0  0  0  0  0
  -24.8732  -27.6990   19.5079 C   0  0  0  0  0  0
  -23.6082  -29.8308   20.1664 C   0  0  0  0  0  0
  -25.4110  -36.3142   24.0361 C   0  0  1  0  0  0
  -20.5859  -28.3669   23.1311 C   0  0  2  0  0  0
  -20.6762  -26.9405   22.5414 C   0  0  0  0  0  0
  -19.5738  -26.6388   21.5215 C   0  0  0  0  0  0
  -18.1916  -26.7927   22.1620 C   0  0  0  0  0  0
  -19.1520  -28.8841   23.2899 C   0  0  0  0  0  0
  -18.9444  -30.1444   23.8917 C   0  0  0  0  0  0
  -17.6445  -30.6584   24.0567 C   0  0  0  0  0  0
  -25.9030  -34.9492   23.5177 C   0  0  0  0  0  0
  -16.5339  -29.9087   23.6318 C   0  0  0  0  0  0
  -16.7258  -28.6501   23.0347 C   0  0  0  0  0  0
  -26.4473  -31.6600   25.0741 C   0  0  0  0  0  0
  -25.3753  -31.3646   26.1492 C   0  0  0  0  0  0
  -27.0314  -30.3065   24.6066 C   0  0  0  0  0  0
  -27.6075  -32.4312   25.7468 C   0  0  0  0  0  0
  -27.5588  -37.1832   24.8483 C   0  0  0  0  0  0
  -21.4139  -29.3037   22.3723 N   0  0  0  0  0  0
  -26.4315  -37.3809   23.9405 N   0  0  0  0  0  0
  -24.6621  -31.0851   22.1036 N   0  0  0  0  0  0
  -23.4197  -28.8178   23.3003 O   0  0  0  0  0  0
  -28.4267  -26.7883   20.0506 O   0  0  0  0  0  0
  -26.5582  -34.8932   22.4732 O   0  0  0  0  0  0
  -23.5318  -32.1419   23.7581 O   0  0  0  0  0  0
  -29.0404  -16.5209   18.9447 C   0  0  0  0  0  0
  -31.5962  -16.7494   17.9925 C   0  0  0  0  0  0
  -29.6250  -17.8139   18.9226 C   0  0  0  0  0  0
  -30.9463  -17.9120   18.4385 C   0  0  0  0  0  0
  -29.7793  -15.3844   18.5337 C   0  0  0  0  0  0
  -31.6842  -19.2286   18.3592 C   0  0  0  0  0  0
  -31.1417  -20.2822   19.3171 C   0  0  0  0  0  0
  -29.6019  -20.4128   19.2378 C   0  0  1  0  0  0
  -28.8613  -19.0419   19.4741 C   0  0  0  0  0  0
  -28.6611  -18.7939   20.9934 C   0  0  0  0  0  0
  -27.4849  -19.1351   18.7785 C   0  0  0  0  0  0
  -29.1402  -13.9308   18.4334 C   0  0  0  0  0  0
  -29.0157  -11.6665   20.0777 C   0  0  0  0  0  0
  -29.4148  -11.4090   21.6555 C   0  0  0  0  0  0
  -28.8774  -23.8476   19.3630 C   0  0  0  0  0  0
  -29.7379  -25.0804   19.0423 C   0  0  0  0  0  0
  -30.7865  -11.8711   22.3312 C   0  0  0  0  0  0
  -29.6589  -22.8080   20.1773 C   0  0  0  0  0  0
  -28.8872  -26.3248   18.7837 C   0  0  0  0  0  0
  -31.0259  -15.5342   18.0189 N   0  0  0  0  0  0
  -31.2574  -13.2994   22.2514 N   0  0  0  0  0  0
  -29.0467  -21.4579   20.1472 N   0  3  0  0  0  0
  -31.6483  -13.0572   18.4006 H   0  0  0  0  0  0
  -31.5661  -11.6939   19.3899 H   0  0  0  0  0  0
  -29.7011  -10.6293   17.7466 H   0  0  0  0  0  0
  -29.7958  -11.9463   16.7418 H   0  0  0  0  0  0
  -27.1616  -11.1368   18.2620 H   0  0  0  0  0  0
  -27.2100  -12.4945   17.2767 H   0  0  0  0  0  0
  -26.9234  -14.1381   19.2062 H   0  0  0  0  0  0
  -28.4901  -13.6724   21.8457 H   0  0  0  0  0  0
  -28.6063  -14.9667   20.8933 H   0  0  0  0  0  0
  -25.2419   -9.5653   22.4903 H   0  0  0  0  0  0
  -23.9855   -7.4439   22.7403 H   0  0  0  0  0  0
  -21.0628   -8.8489   19.8893 H   0  0  0  0  0  0
  -22.3266  -10.9563   19.6275 H   0  0  0  0  0  0
  -21.2002   -7.6089   23.9660 H   0  0  0  0  0  0
  -21.1468   -6.0490   25.9060 H   0  0  0  0  0  0
  -22.0641   -2.7535   23.2898 H   0  0  0  0  0  0
  -22.3164  -11.9758   22.5257 H   0  0  0  0  0  0
  -21.0129  -13.0992   22.2939 H   0  0  0  0  0  0
  -24.5563  -15.8776   20.7166 H   0  0  0  0  0  0
  -26.1686  -15.6545   20.2642 H   0  0  0  0  0  0
  -26.7091  -32.5578   23.1211 H   0  0  0  0  0  0
  -25.0080  -33.9794   25.0554 H   0  0  0  0  0  0
  -22.6856  -31.3116   21.4197 H   0  0  0  0  0  0
  -23.3762  -35.9647   23.3336 H   0  0  0  0  0  0
  -24.3582  -36.8891   22.2053 H   0  0  0  0  0  0
  -23.7224  -37.6537   23.6615 H   0  0  0  0  0  0
  -26.0402  -31.6161   20.6009 H   0  0  0  0  0  0
  -26.8102  -30.8964   21.9862 H   0  0  0  0  0  0
  -28.1015  -29.1522   21.1449 H   0  0  0  0  0  0
  -26.0751  -25.9733   19.0480 H   0  0  0  0  0  0
  -23.9813  -27.2906   19.0540 H   0  0  0  0  0  0
  -23.7164  -30.6099   19.4109 H   0  0  0  0  0  0
  -22.7319  -29.2528   19.8679 H   0  0  0  0  0  0
  -25.1287  -36.2052   25.0859 H   0  0  0  0  0  0
  -20.9958  -28.3249   24.1430 H   0  0  0  0  0  0
  -20.5675  -26.2286   23.3610 H   0  0  0  0  0  0
  -21.6629  -26.7452   22.1199 H   0  0  0  0  0  0
  -19.6902  -25.6305   21.1231 H   0  0  0  0  0  0
  -19.6676  -27.3211   20.6757 H   0  0  0  0  0  0
  -17.4194  -26.6689   21.4014 H   0  0  0  0  0  0
  -18.0303  -26.0060   22.9004 H   0  0  0  0  0  0
  -19.7919  -30.7252   24.2305 H   0  0  0  0  0  0
  -17.4998  -31.6262   24.5171 H   0  0  0  0  0  0
  -15.5338  -30.2997   23.7627 H   0  0  0  0  0  0
  -15.8658  -28.0825   22.7056 H   0  0  0  0  0  0
  -24.5930  -30.7005   25.7798 H   0  0  0  0  0  0
  -24.8929  -32.2765   26.5017 H   0  0  0  0  0  0
  -25.8112  -30.8744   27.0206 H   0  0  0  0  0  0
  -26.2830  -29.6803   24.1191 H   0  0  0  0  0  0
  -27.4205  -29.7321   25.4484 H   0  0  0  0  0  0
  -27.8615  -30.4432   23.9132 H   0  0  0  0  0  0
  -27.2727  -33.3600   26.2101 H   0  0  0  0  0  0
  -28.3824  -32.6895   25.0237 H   0  0  0  0  0  0
  -28.0816  -31.8406   26.5317 H   0  0  0  0  0  0
  -28.2670  -38.0071   24.7494 H   0  0  0  0  0  0
  -28.1027  -36.2611   24.6380 H   0  0  0  0  0  0
  -27.2290  -37.1571   25.8884 H   0  0  0  0  0  0
  -20.9320  -29.8767   21.6943 H   0  0  0  0  0  0
  -26.0236  -38.2917   24.1345 H   0  0  0  0  0  0
  -28.0244  -16.3974   19.2872 H   0  0  0  0  0  0
  -32.6042  -16.7916   17.5994 H   0  0  0  0  0  0
  -31.6183  -19.5865   17.3295 H   0  0  0  0  0  0
  -32.7449  -19.0655   18.5594 H   0  0  0  0  0  0
  -31.6449  -21.2026   19.0323 H   0  0  0  0  0  0
  -31.4462  -20.0558   20.3387 H   0  0  0  0  0  0
  -29.3938  -20.7465   18.2170 H   0  0  0  0  0  0
  -29.6131  -18.8222   21.5257 H   0  0  0  0  0  0
  -28.2244  -17.8162   21.1907 H   0  0  0  0  0  0
  -27.9864  -19.5143   21.4570 H   0  0  0  0  0  0
  -27.5991  -19.1556   17.6935 H   0  0  0  0  0  0
  -26.9389  -20.0341   19.0658 H   0  0  0  0  0  0
  -26.8443  -18.2898   19.0164 H   0  0  0  0  0  0
  -29.6283  -13.8553   17.4578 H   0  0  0  0  0  0
  -28.2737  -14.2809   17.8626 H   0  0  0  0  0  0
  -28.1071  -11.0671   20.1273 H   0  0  0  0  0  0
  -29.6083  -10.7831   19.8098 H   0  0  0  0  0  0
  -29.4133  -10.3260   21.7857 H   0  0  0  0  0  0
  -28.5834  -11.6811   22.3059 H   0  0  0  0  0  0
  -28.4972  -23.4262   18.4313 H   0  0  0  0  0  0
  -28.0042  -24.1576   19.9394 H   0  0  0  0  0  0
  -30.3625  -24.8660   18.1733 H   0  0  0  0  0  0
  -30.4274  -25.2917   19.8610 H   0  0  0  0  0  0
  -31.5807  -11.2475   21.9234 H   0  0  0  0  0  0
  -30.7338  -11.6163   23.3915 H   0  0  0  0  0  0
  -29.6571  -23.1332   21.2178 H   0  0  0  0  0  0
  -30.7040  -22.8116   19.8913 H   0  0  0  0  0  0
  -28.0954  -26.0887   18.0728 H   0  0  0  0  0  0
  -29.4990  -27.1040   18.3290 H   0  0  0  0  0  0
  -31.8884  -13.6056   22.9799 H   0  0  0  0  0  0
  -29.1290  -21.0837   21.0799 H   0  0  0  0  0  0
  -28.0581  -21.5622   19.9760 H   0  0  0  0  0  0
  1 25  1  0  0  0
  1 30  2  0  0  0
  1 91  1  0  0  0
  2  3  1  0  0  0
  2 25  1  0  0  0
  2 93  1  0  0  0
  2 94  1  0  0  0
  3  4  1  0  0  0
  3 95  1  0  0  0
  3 96  1  0  0  0
  4  5  1  0  0  0
  4 97  1  0  0  0
  4 98  1  0  0  0
  5  6  1  0  0  0
  5 26  1  0  0  0
  5 99  1  0  0  0
  6 25  1  0  0  0
  6100  1  0  0  0
  6101  1  0  0  0
  7  8  2  0  0  0
  7 26  1  0  0  0
  7 29  1  0  0  0
  8  9  1  0  0  0
  8 22  1  0  0  0
  9 10  1  0  0  0
  9 27  2  0  0  0
 10 11  2  0  0  0
 10 15  1  0  0  0
 11 12  1  0  0  0
 11102  1  0  0  0
 12 13  2  0  0  0
 12103  1  0  0  0
 13 14  1  0  0  0
 13 31  1  0  0  0
 14 15  2  0  0  0
 14104  1  0  0  0
 15105  1  0  0  0
 16 17  2  0  0  0
 16 21  1  0  0  0
 16 31  1  0  0  0
 17 18  1  0  0  0
 17106  1  0  0  0
 18 19  2  0  0  0
 18107  1  0  0  0
 19 20  1  0  0  0
 19 24  1  0  0  0
 20 21  2  0  0  0
 20108  1  0  0  0
 21 23  1  0  0  0
 22 28  1  0  0  0
 22 32  2  0  0  0
 26 27  1  0  0  0
 28109  1  0  0  0
 28110  1  0  0  0
 29111  1  0  0  0
 29112  1  0  0  0
 33 34  1  0  0  0
 33 66  1  0  0  0
 33 70  2  0  0  0
 34 36  1  0  0  0
 34 59  1  0  0  0
 34113  1  0  0  0
 35 44  2  0  0  0
 35 45  1  0  0  0
 35 68  1  0  0  0
 36 56  1  0  0  0
 36114  1  0  0  0
 37 39  1  0  0  0
 37 47  1  0  0  0
 37 66  1  0  0  0
 37115  1  0  0  0
 38 43  2  0  0  0
 38 46  1  0  0  0
 38 47  1  0  0  0
 39 64  1  0  0  0
 39 67  2  0  0  0
 40 52  1  0  0  0
 40 53  2  0  0  0
 40 58  1  0  0  0
 41116  1  0  0  0
 41117  1  0  0  0
 41118  1  0  0  0
 41 48  1  0  0  0
 42 43  1  0  0  0
 42 66  1  0  0  0
 42119  1  0  0  0
 42120  1  0  0  0
 43 44  1  0  0  0
 44121  1  0  0  0
 45 46  2  0  0  0
 45122  1  0  0  0
 46123  1  0  0  0
 47124  1  0  0  0
 47125  1  0  0  0
 48 56  1  0  0  0
 48 65  1  0  0  0
 48126  1  0  0  0
 49 50  1  0  0  0
 49 53  1  0  0  0
 49 64  1  0  0  0
 49127  1  0  0  0
 50 51  1  0  0  0
 50128  1  0  0  0
 50129  1  0  0  0
 51 52  1  0  0  0
 51130  1  0  0  0
 51131  1  0  0  0
 52132  1  0  0  0
 52133  1  0  0  0
 53 54  1  0  0  0
 54 55  2  0  0  0
 54134  1  0  0  0
 55 57  1  0  0  0
 55135  1  0  0  0
 56 69  2  0  0  0
 57 58  2  0  0  0
 57136  1  0  0  0
 58137  1  0  0  0
 59 60  1  0  0  0
 59 61  1  0  0  0
 59 62  1  0  0  0
 60138  1  0  0  0
 60139  1  0  0  0
 60140  1  0  0  0
 61141  1  0  0  0
 61142  1  0  0  0
 61143  1  0  0  0
 62144  1  0  0  0
 62145  1  0  0  0
 62146  1  0  0  0
 63 65  1  0  0  0
 63147  1  0  0  0
 63148  1  0  0  0
 63149  1  0  0  0
 64150  1  0  0  0
 65151  1  0  0  0
 68 89  1  0  0  0
 71 73  2  0  0  0
 71 75  1  0  0  0
 71152  1  0  0  0
 72 74  2  0  0  0
 72 90  1  0  0  0
 72153  1  0  0  0
 73 74  1  0  0  0
 73 79  1  0  0  0
 74 76  1  0  0  0
 75 82  1  0  0  0
 75 90  2  0  0  0
 76 77  1  0  0  0
 76154  1  0  0  0
 76155  1  0  0  0
 77 78  1  0  0  0
 77156  1  0  0  0
 77157  1  0  0  0
 78 79  1  0  0  0
 78 92  1  0  0  0
 78158  1  0  0  0
 79 80  1  0  0  0
 79 81  1  0  0  0
 80159  1  0  0  0
 80160  1  0  0  0
 80161  1  0  0  0
 81162  1  0  0  0
 81163  1  0  0  0
 81164  1  0  0  0
 82 83  1  0  0  0
 82165  1  0  0  0
 82166  1  0  0  0
 83 84  1  0  0  0
 83167  1  0  0  0
 83168  1  0  0  0
 84 87  1  0  0  0
 84169  1  0  0  0
 84170  1  0  0  0
 85 86  1  0  0  0
 85 88  1  0  0  0
 85171  1  0  0  0
 85172  1  0  0  0
 86 89  1  0  0  0
 86173  1  0  0  0
 86174  1  0  0  0
 87 91  1  0  0  0
 87175  1  0  0  0
 87176  1  0  0  0
 88 92  1  0  0  0
 88177  1  0  0  0
 88178  1  0  0  0
 89179  1  0  0  0
 89180  1  0  0  0
 91181  1  0  0  0
 92182  1  0  0  0
 92183  1  0  0  0
M  CHG  1  92   1
M  ISO  4   1 100  68 101  89 101  91 100
M  END
> <chiral flag>
0

> <version>
0

> <s_m_source_file>
/data/baiqing/PycharmProjects/Reinvent-master-3.2/result/LINK_invent/BTK/process_docking_weight1_custom_sum_contain_oxygen_bond_distance_aromatic_linkinvent_7_9_3/rearranged_h_0030.sdf

> <i_m_source_file_index>
32

> <r_mmod_Potential_Energy-OPLS-2005>
5144.41015625

> <r_mmod_Stretch_Energy-OPLS-2005>
3019.30151367188

> <r_mmod_Bend_Energy-OPLS-2005>
401.497955322266

> <r_mmod_Torsional_Energy-OPLS-2005>
424.653411865234

> <r_mmod_Improper_Torsional_Energy-OPLS-2005>
9.4728364944458

> <r_mmod_Van_der_Waal_Energy-OPLS-2005>
1799.2958984375

> <r_mmod_Electrostatic_Energy-OPLS-2005>
-478.471527099609

> <r_mmod_Solvation_Energy-OPLS-2005>
-466.320098876953

> <b_mmod_Minimization_Converged-OPLS-2005>
0

> <r_mmod_RMS_Derivative-OPLS-2005>
5.002685546875

$$$$
32
                    3D
 Structure written by MMmdl.
156164  0  0  1  0            999 V2000
  -30.5259  -14.8620   20.4413 C   0  0  0  0  0  0
  -30.4539  -12.5284   19.4811 C   0  0  0  0  0  0
  -29.5228  -12.5219   18.2449 C   0  0  0  0  0  0
  -28.0512  -12.3196   18.6600 C   0  0  0  0  0  0
  -27.6403  -13.2293   19.8468 C   0  0  2  0  0  0
  -28.6858  -13.1862   20.9828 C   0  0  0  0  0  0
  -25.2506  -13.8169   20.5674 C   0  0  0  0  0  0
  -24.1804  -13.0425   20.9221 C   0  0  0  0  0  0
  -24.6395  -11.6904   20.8755 C   0  0  0  0  0  0
  -23.9069  -10.4285   21.0414 C   0  0  0  0  0  0
  -24.3619   -9.4199   21.9188 C   0  0  0  0  0  0
  -23.6291   -8.2237   22.0755 C   0  0  0  0  0  0
  -22.4274   -8.0279   21.3547 C   0  0  0  0  0  0
  -21.9911   -9.0253   20.4648 C   0  0  0  0  0  0
  -22.7243  -10.2129   20.3059 C   0  0  0  0  0  0
  -21.6851   -6.0734   22.5279 C   0  0  0  0  0  0
  -21.4013   -6.5638   23.8212 C   0  0  0  0  0  0
  -21.3658   -5.6792   24.9174 C   0  0  0  0  0  0
  -21.6043   -4.3055   24.7225 C   0  0  0  0  0  0
  -21.8819   -3.8146   23.4347 C   0  0  0  0  0  0
  -21.9192   -4.6962   22.3403 C   0  0  0  0  0  0
  -22.7827  -13.5216   21.1875 C   0  0  0  0  0  0
  -22.1662   -4.2147   21.0981 F   0  0  0  0  0  0
  -21.5628   -3.4539   25.7738 F   0  0  0  0  0  0
  -29.9752  -13.5901   20.4016 N   0  0  0  0  0  0
  -26.2929  -12.9370   20.3247 N   0  0  0  0  0  0
  -25.9322  -11.6519   20.5736 N   0  0  0  0  0  0
  -22.0469  -12.8209   22.0430 N   0  0  0  0  0  0
  -25.4171  -15.1887   20.4032 N   0  0  0  0  0  0
  -31.7183  -15.0081   20.1492 O   0  0  0  0  0  0
  -21.6639   -6.8877   21.4241 O   0  0  0  0  0  0
  -22.3516  -14.5521   20.6715 O   0  0  0  0  0  0
  -24.6382  -31.8484   23.1916 C   0  0  0  0  0  0
  -25.9175  -32.4719   23.8292 C   0  0  1  0  0  0
  -27.2248  -27.1927   20.1516 C   0  0  0  0  0  0
  -25.5941  -33.8523   24.2213 N   0  0  0  0  0  0
  -23.4395  -30.4673   21.5361 C   0  0  2  0  0  0
  -24.8897  -28.8971   20.1158 C   0  0  0  0  0  0
  -22.7540  -29.4569   22.4887 C   0  0  0  0  0  0
  -18.0300  -28.1394   22.8481 C   0  0  0  0  0  0
  -24.1491  -36.7269   23.2642 C   0  0  0  0  0  0
  -25.9904  -30.7407   21.3807 C   0  0  0  0  0  0
  -26.0647  -29.3547   20.7271 C   0  0  0  0  0  0
  -27.2368  -28.5189   20.7249 C   0  0  0  0  0  0
  -26.0263  -26.8165   19.5105 C   0  0  0  0  0  0
  -24.8792  -27.6386   19.4934 C   0  0  0  0  0  0
  -23.6636  -29.7936   20.1563 C   0  0  0  0  0  0
  -25.4120  -36.3048   24.0320 C   0  0  1  0  0  0
  -20.5907  -28.3714   23.1252 C   0  0  2  0  0  0
  -20.6786  -26.9423   22.5407 C   0  0  0  0  0  0
  -19.5760  -26.6383   21.5214 C   0  0  0  0  0  0
  -18.1941  -26.7933   22.1625 C   0  0  0  0  0  0
  -19.1554  -28.8871   23.2859 C   0  0  0  0  0  0
  -18.9472  -30.1468   23.8882 C   0  0  0  0  0  0
  -17.6469  -30.6591   24.0561 C   0  0  0  0  0  0
  -25.9065  -34.9421   23.5074 C   0  0  0  0  0  0
  -16.5360  -29.9085   23.6335 C   0  0  0  0  0  0
  -16.7285  -28.6504   23.0355 C   0  0  0  0  0  0
  -26.4516  -31.6570   25.0712 C   0  0  0  0  0  0
  -25.3715  -31.3744   26.1416 C   0  0  0  0  0  0
  -27.0379  -30.2976   24.6255 C   0  0  0  0  0  0
  -27.6052  -32.4327   25.7498 C   0  0  0  0  0  0
  -27.5576  -37.1791   24.8466 C   0  0  0  0  0  0
  -21.4240  -29.3046   22.3631 N   0  0  0  0  0  0
  -26.4289  -37.3754   23.9407 N   0  0  0  0  0  0
  -24.7089  -31.0387   22.0921 N   0  0  0  0  0  0
  -23.4203  -28.8122   23.3026 O   0  0  0  0  0  0
  -28.3059  -26.2591   20.1558 O   0  0  0  0  0  0
  -26.5647  -34.8911   22.4651 O   0  0  0  0  0  0
  -23.5513  -32.1335   23.7169 O   0  0  0  0  0  0
  -28.3338  -18.0931   20.3075 C   0  0  0  0  0  0
  -30.6436  -18.4017   20.6953 C   0  0  0  0  0  0
  -28.1094  -19.5206   20.3252 C   0  0  0  0  0  0
  -30.4311  -19.8453   20.7354 C   0  0  0  0  0  0
  -29.1428  -20.4808   20.5816 C   0  0  0  0  0  0
  -29.5920  -17.4458   20.5152 C   0  0  0  0  0  0
  -26.6837  -20.0045   20.1232 C   0  0  0  0  0  0
  -31.6363  -20.7233   21.0173 C   0  0  0  0  0  0
  -28.8091  -22.0420   20.9746 C   0  0  0  0  0  0
  -28.7914  -23.4175   20.0511 C   0  0  0  0  0  0
  -28.1016  -24.8159   20.6368 C   0  0  0  0  0  0
  -29.6310  -15.9319   20.6105 N   0  0  0  0  0  0
  -31.4866  -12.6980   19.1714 H   0  0  0  0  0  0
  -30.4452  -11.5579   19.9797 H   0  0  0  0  0  0
  -29.8262  -11.7403   17.5471 H   0  0  0  0  0  0
  -29.6233  -13.4661   17.7075 H   0  0  0  0  0  0
  -27.9305  -11.2728   18.9412 H   0  0  0  0  0  0
  -27.3901  -12.4836   17.8082 H   0  0  0  0  0  0
  -27.6232  -14.2437   19.4484 H   0  0  0  0  0  0
  -28.7510  -12.1863   21.4141 H   0  0  0  0  0  0
  -28.3984  -13.8499   21.7999 H   0  0  0  0  0  0
  -25.2762   -9.5673   22.4763 H   0  0  0  0  0  0
  -23.9998   -7.4625   22.7474 H   0  0  0  0  0  0
  -21.0842   -8.8773   19.8951 H   0  0  0  0  0  0
  -22.3705  -10.9669   19.6169 H   0  0  0  0  0  0
  -21.2008   -7.6146   23.9715 H   0  0  0  0  0  0
  -21.1480   -6.0522   25.9077 H   0  0  0  0  0  0
  -22.0599   -2.7608   23.2848 H   0  0  0  0  0  0
  -22.4088  -11.9875   22.4824 H   0  0  0  0  0  0
  -21.1084  -13.1231   22.2630 H   0  0  0  0  0  0
  -24.6351  -15.8288   20.4881 H   0  0  0  0  0  0
  -26.2309  -15.6137   19.9814 H   0  0  0  0  0  0
  -26.7244  -32.5351   23.1029 H   0  0  0  0  0  0
  -25.0073  -33.9644   25.0349 H   0  0  0  0  0  0
  -22.7396  -31.2914   21.3826 H   0  0  0  0  0  0
  -23.3755  -35.9599   23.3296 H   0  0  0  0  0  0
  -24.3578  -36.8906   22.2059 H   0  0  0  0  0  0
  -23.7244  -37.6464   23.6679 H   0  0  0  0  0  0
  -26.1356  -31.4960   20.6072 H   0  0  0  0  0  0
  -26.8650  -30.7942   22.0176 H   0  0  0  0  0  0
  -28.1387  -28.8688   21.2071 H   0  0  0  0  0  0
  -25.9672  -25.8526   19.0250 H   0  0  0  0  0  0
  -23.9821  -27.2834   19.0052 H   0  0  0  0  0  0
  -23.7964  -30.5662   19.3983 H   0  0  0  0  0  0
  -22.7803  -29.2310   19.8489 H   0  0  0  0  0  0
  -25.1306  -36.1884   25.0812 H   0  0  0  0  0  0
  -20.9999  -28.3300   24.1373 H   0  0  0  0  0  0
  -20.5684  -26.2326   23.3620 H   0  0  0  0  0  0
  -21.6653  -26.7436   22.1202 H   0  0  0  0  0  0
  -19.6920  -25.6290   21.1254 H   0  0  0  0  0  0
  -19.6696  -27.3185   20.6737 H   0  0  0  0  0  0
  -17.4209  -26.6679   21.4029 H   0  0  0  0  0  0
  -18.0340  -26.0079   22.9026 H   0  0  0  0  0  0
  -19.7946  -30.7290   24.2244 H   0  0  0  0  0  0
  -17.5021  -31.6269   24.5166 H   0  0  0  0  0  0
  -15.5360  -30.2981   23.7666 H   0  0  0  0  0  0
  -15.8686  -28.0816   22.7078 H   0  0  0  0  0  0
  -24.5901  -30.7082   25.7741 H   0  0  0  0  0  0
  -24.8894  -32.2921   26.4795 H   0  0  0  0  0  0
  -25.8010  -30.8953   27.0223 H   0  0  0  0  0  0
  -26.2986  -29.6703   24.1261 H   0  0  0  0  0  0
  -27.4015  -29.7264   25.4807 H   0  0  0  0  0  0
  -27.8880  -30.4230   23.9545 H   0  0  0  0  0  0
  -27.2649  -33.3643   26.2032 H   0  0  0  0  0  0
  -28.3888  -32.6863   25.0346 H   0  0  0  0  0  0
  -28.0692  -31.8480   26.5452 H   0  0  0  0  0  0
  -28.2589  -38.0091   24.7507 H   0  0  0  0  0  0
  -28.1076  -36.2620   24.6298 H   0  0  0  0  0  0
  -27.2293  -37.1446   25.8869 H   0  0  0  0  0  0
  -20.9442  -29.8753   21.6810 H   0  0  0  0  0  0
  -26.0161  -38.2825   24.1404 H   0  0  0  0  0  0
  -27.4707  -17.4605   20.1573 H   0  0  0  0  0  0
  -31.6419  -18.0220   20.8647 H   0  0  0  0  0  0
  -26.0818  -19.2607   19.6001 H   0  0  0  0  0  0
  -26.6604  -20.9182   19.5283 H   0  0  0  0  0  0
  -26.2088  -20.2056   21.0837 H   0  0  0  0  0  0
  -31.6578  -21.0156   22.0675 H   0  0  0  0  0  0
  -31.6073  -21.6282   20.4094 H   0  0  0  0  0  0
  -32.5689  -20.2059   20.7899 H   0  0  0  0  0  0
  -29.4661  -22.2668   21.8149 H   0  0  0  0  0  0
  -27.8293  -22.0091   21.4496 H   0  0  0  0  0  0
  -28.2890  -23.1835   19.1123 H   0  0  0  0  0  0
  -29.8226  -23.6378   19.7752 H   0  0  0  0  0  0
  -28.4066  -24.8635   21.6824 H   0  0  0  0  0  0
  -27.0302  -24.6247   20.6953 H   0  0  0  0  0  0
  -28.7119  -15.5489   20.7659 H   0  0  0  0  0  0
  1 25  1  0  0  0
  1 30  2  0  0  0
  1 82  1  0  0  0
  2  3  1  0  0  0
  2 25  1  0  0  0
  2 83  1  0  0  0
  2 84  1  0  0  0
  3  4  1  0  0  0
  3 85  1  0  0  0
  3 86  1  0  0  0
  4  5  1  0  0  0
  4 87  1  0  0  0
  4 88  1  0  0  0
  5  6  1  0  0  0
  5 26  1  0  0  0
  5 89  1  0  0  0
  6 25  1  0  0  0
  6 90  1  0  0  0
  6 91  1  0  0  0
  7  8  2  0  0  0
  7 26  1  0  0  0
  7 29  1  0  0  0
  8  9  1  0  0  0
  8 22  1  0  0  0
  9 10  1  0  0  0
  9 27  2  0  0  0
 10 11  2  0  0  0
 10 15  1  0  0  0
 11 12  1  0  0  0
 11 92  1  0  0  0
 12 13  2  0  0  0
 12 93  1  0  0  0
 13 14  1  0  0  0
 13 31  1  0  0  0
 14 15  2  0  0  0
 14 94  1  0  0  0
 15 95  1  0  0  0
 16 17  2  0  0  0
 16 21  1  0  0  0
 16 31  1  0  0  0
 17 18  1  0  0  0
 17 96  1  0  0  0
 18 19  2  0  0  0
 18 97  1  0  0  0
 19 20  1  0  0  0
 19 24  1  0  0  0
 20 21  2  0  0  0
 20 98  1  0  0  0
 21 23  1  0  0  0
 22 28  1  0  0  0
 22 32  2  0  0  0
 26 27  1  0  0  0
 28 99  1  0  0  0
 28100  1  0  0  0
 29101  1  0  0  0
 29102  1  0  0  0
 33 34  1  0  0  0
 33 66  1  0  0  0
 33 70  2  0  0  0
 34 36  1  0  0  0
 34 59  1  0  0  0
 34103  1  0  0  0
 35 44  2  0  0  0
 35 45  1  0  0  0
 35 68  1  0  0  0
 36 56  1  0  0  0
 36104  1  0  0  0
 37 39  1  0  0  0
 37 47  1  0  0  0
 37 66  1  0  0  0
 37105  1  0  0  0
 38 43  2  0  0  0
 38 46  1  0  0  0
 38 47  1  0  0  0
 39 64  1  0  0  0
 39 67  2  0  0  0
 40 52  1  0  0  0
 40 53  2  0  0  0
 40 58  1  0  0  0
 41106  1  0  0  0
 41107  1  0  0  0
 41108  1  0  0  0
 41 48  1  0  0  0
 42 43  1  0  0  0
 42 66  1  0  0  0
 42109  1  0  0  0
 42110  1  0  0  0
 43 44  1  0  0  0
 44111  1  0  0  0
 45 46  2  0  0  0
 45112  1  0  0  0
 46113  1  0  0  0
 47114  1  0  0  0
 47115  1  0  0  0
 48 56  1  0  0  0
 48 65  1  0  0  0
 48116  1  0  0  0
 49 50  1  0  0  0
 49 53  1  0  0  0
 49 64  1  0  0  0
 49117  1  0  0  0
 50 51  1  0  0  0
 50118  1  0  0  0
 50119  1  0  0  0
 51 52  1  0  0  0
 51120  1  0  0  0
 51121  1  0  0  0
 52122  1  0  0  0
 52123  1  0  0  0
 53 54  1  0  0  0
 54 55  2  0  0  0
 54124  1  0  0  0
 55 57  1  0  0  0
 55125  1  0  0  0
 56 69  2  0  0  0
 57 58  2  0  0  0
 57126  1  0  0  0
 58127  1  0  0  0
 59 60  1  0  0  0
 59 61  1  0  0  0
 59 62  1  0  0  0
 60128  1  0  0  0
 60129  1  0  0  0
 60130  1  0  0  0
 61131  1  0  0  0
 61132  1  0  0  0
 61133  1  0  0  0
 62134  1  0  0  0
 62135  1  0  0  0
 62136  1  0  0  0
 63 65  1  0  0  0
 63137  1  0  0  0
 63138  1  0  0  0
 63139  1  0  0  0
 64140  1  0  0  0
 65141  1  0  0  0
 68 81  1  0  0  0
 71 73  2  0  0  0
 71 76  1  0  0  0
 71142  1  0  0  0
 72 74  1  0  0  0
 72 76  2  0  0  0
 72143  1  0  0  0
 73 75  1  0  0  0
 73 77  1  0  0  0
 74 75  2  0  0  0
 74 78  1  0  0  0
 75 79  1  0  0  0
 76 82  1  0  0  0
 77144  1  0  0  0
 77145  1  0  0  0
 77146  1  0  0  0
 78147  1  0  0  0
 78148  1  0  0  0
 78149  1  0  0  0
 79 80  1  0  0  0
 79150  1  0  0  0
 79151  1  0  0  0
 80 81  1  0  0  0
 80152  1  0  0  0
 80153  1  0  0  0
 81154  1  0  0  0
 81155  1  0  0  0
 82156  1  0  0  0
M  ISO  4   1 100  68 101  81 101  82 100
M  END
> <chiral flag>
0

> <version>
0

> <s_m_source_file>
/data/baiqing/PycharmProjects/Reinvent-master-3.2/result/LINK_invent/BTK/process_docking_weight1_custom_sum_contain_oxygen_bond_distance_aromatic_linkinvent_7_9_3/rearranged_h_0030.sdf

> <i_m_source_file_index>
33

> <r_mmod_Potential_Energy-OPLS-2005>
362.037933349609

> <r_mmod_Stretch_Energy-OPLS-2005>
186.312789916992

> <r_mmod_Bend_Energy-OPLS-2005>
241.12678527832

> <r_mmod_Torsional_Energy-OPLS-2005>
241.908493041992

> <r_mmod_Improper_Torsional_Energy-OPLS-2005>
7.68209409713745

> <r_mmod_Van_der_Waal_Energy-OPLS-2005>
128.809112548828

> <r_mmod_Electrostatic_Energy-OPLS-2005>
-377.669067382812

> <r_mmod_Solvation_Energy-OPLS-2005>
-205.003723144531

> <b_mmod_Minimization_Converged-OPLS-2005>
0

> <r_mmod_RMS_Derivative-OPLS-2005>
0.374660044908524

$$$$
33
                    3D
 Structure written by MMmdl.
166175  0  0  1  0            999 V2000
  -30.7024  -14.4208   20.5007 C   0  0  0  0  0  0
  -30.4207  -12.2508   19.4273 C   0  0  0  0  0  0
  -29.4955  -12.4763   18.2117 C   0  0  0  0  0  0
  -28.0139  -12.3527   18.6204 C   0  0  0  0  0  0
  -27.6641  -13.1915   19.8786 C   0  0  2  0  0  0
  -28.7087  -12.9712   21.0019 C   0  0  0  0  0  0
  -25.2604  -13.8125   20.5665 C   0  0  0  0  0  0
  -24.1850  -13.0427   20.9188 C   0  0  0  0  0  0
  -24.6375  -11.6880   20.8744 C   0  0  0  0  0  0
  -23.9027  -10.4275   21.0403 C   0  0  0  0  0  0
  -24.3589   -9.4209   21.9185 C   0  0  0  0  0  0
  -23.6275   -8.2238   22.0748 C   0  0  0  0  0  0
  -22.4261   -8.0264   21.3536 C   0  0  0  0  0  0
  -21.9878   -9.0237   20.4646 C   0  0  0  0  0  0
  -22.7193  -10.2124   20.3052 C   0  0  0  0  0  0
  -21.6857   -6.0723   22.5276 C   0  0  0  0  0  0
  -21.4011   -6.5630   23.8212 C   0  0  0  0  0  0
  -21.3665   -5.6777   24.9171 C   0  0  0  0  0  0
  -21.6052   -4.3039   24.7224 C   0  0  0  0  0  0
  -21.8823   -3.8133   23.4344 C   0  0  0  0  0  0
  -21.9201   -4.6950   22.3396 C   0  0  0  0  0  0
  -22.7873  -13.5249   21.1827 C   0  0  0  0  0  0
  -22.1655   -4.2130   21.0974 F   0  0  0  0  0  0
  -21.5651   -3.4532   25.7749 F   0  0  0  0  0  0
  -30.0483  -13.2360   20.4496 N   0  0  0  0  0  0
  -26.3033  -12.9265   20.3392 N   0  0  0  0  0  0
  -25.9298  -11.6440   20.5797 N   0  0  0  0  0  0
  -22.0501  -12.8256   22.0384 N   0  0  0  0  0  0
  -25.4291  -15.1843   20.3992 N   0  0  0  0  0  0
  -31.8650  -14.5866   20.1240 O   0  0  0  0  0  0
  -21.6640   -6.8856   21.4231 O   0  0  0  0  0  0
  -22.3571  -14.5555   20.6678 O   0  0  0  0  0  0
  -24.6050  -31.8717   23.2126 C   0  0  0  0  0  0
  -25.8980  -32.4844   23.8400 C   0  0  1  0  0  0
  -27.2623  -27.4937   20.1158 C   0  0  0  0  0  0
  -25.5870  -33.8641   24.2353 N   0  0  0  0  0  0
  -23.3897  -30.4905   21.5507 C   0  0  2  0  0  0
  -24.8410  -28.9568   20.1184 C   0  0  0  0  0  0
  -22.7352  -29.4659   22.5025 C   0  0  0  0  0  0
  -18.0262  -28.1375   22.8495 C   0  0  0  0  0  0
  -24.1488  -36.7327   23.2635 C   0  0  0  0  0  0
  -25.9036  -30.8642   21.3462 C   0  0  0  0  0  0
  -25.9880  -29.4971   20.7063 C   0  0  0  0  0  0
  -27.1956  -28.7813   20.6979 C   0  0  0  0  0  0
  -26.1033  -26.9631   19.5099 C   0  0  0  0  0  0
  -24.8903  -27.6860   19.5147 C   0  0  0  0  0  0
  -23.5958  -29.8126   20.1667 C   0  0  0  0  0  0
  -25.4104  -36.3123   24.0343 C   0  0  1  0  0  0
  -20.5837  -28.3637   23.1354 C   0  0  2  0  0  0
  -20.6756  -26.9387   22.5427 C   0  0  0  0  0  0
  -19.5749  -26.6389   21.5209 C   0  0  0  0  0  0
  -18.1918  -26.7930   22.1611 C   0  0  0  0  0  0
  -19.1504  -28.8823   23.2928 C   0  0  0  0  0  0
  -18.9441  -30.1431   23.8932 C   0  0  0  0  0  0
  -17.6446  -30.6585   24.0564 C   0  0  0  0  0  0
  -25.9025  -34.9487   23.5147 C   0  0  0  0  0  0
  -16.5337  -29.9088   23.6324 C   0  0  0  0  0  0
  -16.7251  -28.6505   23.0346 C   0  0  0  0  0  0
  -26.4456  -31.6595   25.0689 C   0  0  0  0  0  0
  -25.3750  -31.3669   26.1453 C   0  0  0  0  0  0
  -27.0288  -30.3061   24.5983 C   0  0  0  0  0  0
  -27.6066  -32.4288   25.7442 C   0  0  0  0  0  0
  -27.5595  -37.1801   24.8455 C   0  0  0  0  0  0
  -21.4090  -29.3015   22.3775 N   0  0  0  0  0  0
  -26.4292  -37.3806   23.9421 N   0  0  0  0  0  0
  -24.6509  -31.0885   22.0979 N   0  0  0  0  0  0
  -23.4165  -28.8216   23.3046 O   0  0  0  0  0  0
  -28.4191  -26.7451   20.0988 O   0  0  0  0  0  0
  -26.5587  -34.8931   22.4708 O   0  0  0  0  0  0
  -23.5266  -32.1426   23.7581 O   0  0  0  0  0  0
  -29.9688  -20.0547   20.9410 C   0  0  0  0  0  0
  -29.5722  -18.7244   20.7294 C   0  0  0  0  0  0
  -31.6935  -18.2794   19.6165 C   0  0  0  0  0  0
  -31.2189  -20.5207   20.4710 C   0  0  0  0  0  0
  -30.4165  -17.8485   20.0242 C   0  0  0  0  0  0
  -32.1006  -19.6095   19.8339 C   0  0  0  0  0  0
  -30.6940  -22.7703   19.5068 C   0  0  0  0  0  0
  -31.3143  -22.6029   21.9634 C   0  0  0  0  0  0
  -30.9100  -24.2862   19.5860 C   0  0  0  0  0  0
  -31.5170  -24.1258   21.9577 C   0  0  0  0  0  0
  -31.5326  -22.0114   20.5555 C   0  0  1  0  0  0
  -29.8917  -16.5016   19.5821 C   0  0  0  0  0  0
  -30.6122  -26.2490   21.0550 C   0  0  0  0  0  0
  -29.1969  -26.7764   21.3032 C   0  0  0  0  0  0
  -29.8742  -15.4626   20.6047 N   0  0  0  0  0  0
  -30.6270  -24.7704   20.9577 N   0  3  1  0  0  0
  -33.6469  -20.0985   19.2324 Cl  0  0  0  0  0  0
  -31.4664  -12.3328   19.1260 H   0  0  0  0  0  0
  -30.3057  -11.2397   19.8228 H   0  0  0  0  0  0
  -29.7257  -11.7548   17.4258 H   0  0  0  0  0  0
  -29.6832  -13.4631   17.7854 H   0  0  0  0  0  0
  -27.8124  -11.2986   18.8129 H   0  0  0  0  0  0
  -27.3666  -12.6379   17.7910 H   0  0  0  0  0  0
  -27.7042  -14.2352   19.5738 H   0  0  0  0  0  0
  -28.6662  -11.9416   21.3602 H   0  0  0  0  0  0
  -28.4966  -13.5990   21.8697 H   0  0  0  0  0  0
  -25.2714   -9.5718   22.4785 H   0  0  0  0  0  0
  -24.0011   -7.4621   22.7450 H   0  0  0  0  0  0
  -21.0815   -8.8716   19.8939 H   0  0  0  0  0  0
  -22.3602  -10.9663   19.6184 H   0  0  0  0  0  0
  -21.1972   -7.6128   23.9705 H   0  0  0  0  0  0
  -21.1491   -6.0510   25.9082 H   0  0  0  0  0  0
  -22.0598   -2.7592   23.2845 H   0  0  0  0  0  0
  -22.4104  -11.9919   22.4779 H   0  0  0  0  0  0
  -21.1115  -13.1290   22.2557 H   0  0  0  0  0  0
  -24.6478  -15.8264   20.4781 H   0  0  0  0  0  0
  -26.2613  -15.6211   20.0239 H   0  0  0  0  0  0
  -26.7056  -32.5608   23.1190 H   0  0  0  0  0  0
  -25.0034  -33.9813   25.0501 H   0  0  0  0  0  0
  -22.6737  -31.3027   21.4104 H   0  0  0  0  0  0
  -23.3750  -35.9661   23.3292 H   0  0  0  0  0  0
  -24.3588  -36.8942   22.2051 H   0  0  0  0  0  0
  -23.7236  -37.6531   23.6643 H   0  0  0  0  0  0
  -25.9895  -31.6267   20.5704 H   0  0  0  0  0  0
  -26.7994  -30.9375   21.9504 H   0  0  0  0  0  0
  -28.0633  -29.2620   21.1236 H   0  0  0  0  0  0
  -26.1389  -25.9870   19.0465 H   0  0  0  0  0  0
  -24.0083  -27.2612   19.0562 H   0  0  0  0  0  0
  -23.6946  -30.5828   19.4009 H   0  0  0  0  0  0
  -22.7249  -29.2212   19.8792 H   0  0  0  0  0  0
  -25.1275  -36.1997   25.0833 H   0  0  0  0  0  0
  -20.9931  -28.3196   24.1472 H   0  0  0  0  0  0
  -20.5658  -26.2237   23.3598 H   0  0  0  0  0  0
  -21.6631  -26.7450   22.1221 H   0  0  0  0  0  0
  -19.6913  -25.6305   21.1229 H   0  0  0  0  0  0
  -19.6710  -27.3205   20.6748 H   0  0  0  0  0  0
  -17.4197  -26.6682   21.4004 H   0  0  0  0  0  0
  -18.0321  -26.0060   22.8996 H   0  0  0  0  0  0
  -19.7911  -30.7234   24.2328 H   0  0  0  0  0  0
  -17.5000  -31.6273   24.5153 H   0  0  0  0  0  0
  -15.5337  -30.3005   23.7629 H   0  0  0  0  0  0
  -15.8651  -28.0834   22.7053 H   0  0  0  0  0  0
  -24.5918  -30.7028   25.7777 H   0  0  0  0  0  0
  -24.8941  -32.2814   26.4935 H   0  0  0  0  0  0
  -25.8109  -30.8803   27.0187 H   0  0  0  0  0  0
  -26.2793  -29.6811   24.1111 H   0  0  0  0  0  0
  -27.4193  -29.7299   25.4383 H   0  0  0  0  0  0
  -27.8562  -30.4434   23.9017 H   0  0  0  0  0  0
  -27.2716  -33.3569   26.2092 H   0  0  0  0  0  0
  -28.3837  -32.6875   25.0235 H   0  0  0  0  0  0
  -28.0782  -31.8358   26.5293 H   0  0  0  0  0  0
  -28.2580  -38.0130   24.7558 H   0  0  0  0  0  0
  -28.1121  -36.2667   24.6206 H   0  0  0  0  0  0
  -27.2324  -37.1367   25.8858 H   0  0  0  0  0  0
  -20.9235  -29.8716   21.6990 H   0  0  0  0  0  0
  -26.0189  -38.2880   24.1454 H   0  0  0  0  0  0
  -29.2666  -20.7269   21.4108 H   0  0  0  0  0  0
  -28.5912  -18.4010   21.0476 H   0  0  0  0  0  0
  -32.3441  -17.6099   19.0714 H   0  0  0  0  0  0
  -30.9496  -22.4182   18.5061 H   0  0  0  0  0  0
  -29.6331  -22.5547   19.6437 H   0  0  0  0  0  0
  -30.3137  -22.3914   22.3373 H   0  0  0  0  0  0
  -32.0040  -22.1413   22.6714 H   0  0  0  0  0  0
  -30.2593  -24.7866   18.8672 H   0  0  0  0  0  0
  -31.9356  -24.5368   19.3078 H   0  0  0  0  0  0
  -32.5566  -24.3732   21.7312 H   0  0  0  0  0  0
  -31.3088  -24.5185   22.9545 H   0  0  0  0  0  0
  -32.5822  -22.1809   20.3196 H   0  0  0  0  0  0
  -30.4420  -16.1797   18.6929 H   0  0  0  0  0  0
  -28.8675  -16.6346   19.2295 H   0  0  0  0  0  0
  -31.2337  -26.5685   21.8935 H   0  0  0  0  0  0
  -31.0437  -26.7218   20.1717 H   0  0  0  0  0  0
  -29.3227  -27.7748   21.7116 H   0  0  0  0  0  0
  -28.6925  -26.1960   22.0772 H   0  0  0  0  0  0
  -28.9647  -15.2449   20.9820 H   0  0  0  0  0  0
  -29.6864  -24.4747   21.1784 H   0  0  0  0  0  0
  1 25  1  0  0  0
  1 30  2  0  0  0
  1 85  1  0  0  0
  2  3  1  0  0  0
  2 25  1  0  0  0
  2 88  1  0  0  0
  2 89  1  0  0  0
  3  4  1  0  0  0
  3 90  1  0  0  0
  3 91  1  0  0  0
  4  5  1  0  0  0
  4 92  1  0  0  0
  4 93  1  0  0  0
  5  6  1  0  0  0
  5 26  1  0  0  0
  5 94  1  0  0  0
  6 25  1  0  0  0
  6 95  1  0  0  0
  6 96  1  0  0  0
  7  8  2  0  0  0
  7 26  1  0  0  0
  7 29  1  0  0  0
  8  9  1  0  0  0
  8 22  1  0  0  0
  9 10  1  0  0  0
  9 27  2  0  0  0
 10 11  2  0  0  0
 10 15  1  0  0  0
 11 12  1  0  0  0
 11 97  1  0  0  0
 12 13  2  0  0  0
 12 98  1  0  0  0
 13 14  1  0  0  0
 13 31  1  0  0  0
 14 15  2  0  0  0
 14 99  1  0  0  0
 15100  1  0  0  0
 16 17  2  0  0  0
 16 21  1  0  0  0
 16 31  1  0  0  0
 17 18  1  0  0  0
 17101  1  0  0  0
 18 19  2  0  0  0
 18102  1  0  0  0
 19 20  1  0  0  0
 19 24  1  0  0  0
 20 21  2  0  0  0
 20103  1  0  0  0
 21 23  1  0  0  0
 22 28  1  0  0  0
 22 32  2  0  0  0
 26 27  1  0  0  0
 28104  1  0  0  0
 28105  1  0  0  0
 29106  1  0  0  0
 29107  1  0  0  0
 33 34  1  0  0  0
 33 66  1  0  0  0
 33 70  2  0  0  0
 34 36  1  0  0  0
 34 59  1  0  0  0
 34108  1  0  0  0
 35 44  2  0  0  0
 35 45  1  0  0  0
 35 68  1  0  0  0
 36 56  1  0  0  0
 36109  1  0  0  0
 37 39  1  0  0  0
 37 47  1  0  0  0
 37 66  1  0  0  0
 37110  1  0  0  0
 38 43  2  0  0  0
 38 46  1  0  0  0
 38 47  1  0  0  0
 39 64  1  0  0  0
 39 67  2  0  0  0
 40 52  1  0  0  0
 40 53  2  0  0  0
 40 58  1  0  0  0
 41111  1  0  0  0
 41112  1  0  0  0
 41113  1  0  0  0
 41 48  1  0  0  0
 42 43  1  0  0  0
 42 66  1  0  0  0
 42114  1  0  0  0
 42115  1  0  0  0
 43 44  1  0  0  0
 44116  1  0  0  0
 45 46  2  0  0  0
 45117  1  0  0  0
 46118  1  0  0  0
 47119  1  0  0  0
 47120  1  0  0  0
 48 56  1  0  0  0
 48 65  1  0  0  0
 48121  1  0  0  0
 49 50  1  0  0  0
 49 53  1  0  0  0
 49 64  1  0  0  0
 49122  1  0  0  0
 50 51  1  0  0  0
 50123  1  0  0  0
 50124  1  0  0  0
 51 52  1  0  0  0
 51125  1  0  0  0
 51126  1  0  0  0
 52127  1  0  0  0
 52128  1  0  0  0
 53 54  1  0  0  0
 54 55  2  0  0  0
 54129  1  0  0  0
 55 57  1  0  0  0
 55130  1  0  0  0
 56 69  2  0  0  0
 57 58  2  0  0  0
 57131  1  0  0  0
 58132  1  0  0  0
 59 60  1  0  0  0
 59 61  1  0  0  0
 59 62  1  0  0  0
 60133  1  0  0  0
 60134  1  0  0  0
 60135  1  0  0  0
 61136  1  0  0  0
 61137  1  0  0  0
 61138  1  0  0  0
 62139  1  0  0  0
 62140  1  0  0  0
 62141  1  0  0  0
 63 65  1  0  0  0
 63142  1  0  0  0
 63143  1  0  0  0
 63144  1  0  0  0
 64145  1  0  0  0
 65146  1  0  0  0
 68 84  1  0  0  0
 71 72  2  0  0  0
 71 74  1  0  0  0
 71147  1  0  0  0
 72 75  1  0  0  0
 72148  1  0  0  0
 73 75  2  0  0  0
 73 76  1  0  0  0
 73149  1  0  0  0
 74 76  2  0  0  0
 74 81  1  0  0  0
 75 82  1  0  0  0
 76 87  1  0  0  0
 77 79  1  0  0  0
 77 81  1  0  0  0
 77150  1  0  0  0
 77151  1  0  0  0
 78 80  1  0  0  0
 78 81  1  0  0  0
 78152  1  0  0  0
 78153  1  0  0  0
 79 86  1  0  0  0
 79154  1  0  0  0
 79155  1  0  0  0
 80 86  1  0  0  0
 80156  1  0  0  0
 80157  1  0  0  0
 81158  1  0  0  0
 82 85  1  0  0  0
 82159  1  0  0  0
 82160  1  0  0  0
 83 84  1  0  0  0
 83161  1  0  0  0
 83162  1  0  0  0
 83 86  1  0  0  0
 84163  1  0  0  0
 84164  1  0  0  0
 85165  1  0  0  0
 86166  1  0  0  0
M  CHG  1  86   1
M  ISO  4   1 100  68 101  84 101  85 100
M  END
> <chiral flag>
0

> <version>
0

> <s_m_source_file>
/data/baiqing/PycharmProjects/Reinvent-master-3.2/result/LINK_invent/BTK/process_docking_weight1_custom_sum_contain_oxygen_bond_distance_aromatic_linkinvent_7_9_3/rearranged_h_0030.sdf

> <i_m_source_file_index>
34

> <r_mmod_Potential_Energy-OPLS-2005>
-113.562683105469

> <r_mmod_Stretch_Energy-OPLS-2005>
32.390983581543

> <r_mmod_Bend_Energy-OPLS-2005>
93.1468505859375

> <r_mmod_Torsional_Energy-OPLS-2005>
290.027679443359

> <r_mmod_Improper_Torsional_Energy-OPLS-2005>
15.4603462219238

> <r_mmod_Van_der_Waal_Energy-OPLS-2005>
166.918212890625

> <r_mmod_Electrostatic_Energy-OPLS-2005>
-296.125640869141

> <r_mmod_Solvation_Energy-OPLS-2005>
-427.373931884766

> <b_mmod_Minimization_Converged-OPLS-2005>
0

> <r_mmod_RMS_Derivative-OPLS-2005>
2.27289795875549

$$$$
34
                    3D
 Structure written by MMmdl.
161169  0  0  1  0            999 V2000
  -30.4853  -15.2910   21.4069 C   0  0  0  0  0  0
  -30.4353  -14.1472   17.6601 C   0  0  0  0  0  0
  -29.0393  -13.0126   17.1552 C   0  0  0  0  0  0
  -27.8382  -12.3144   18.3311 C   0  0  0  0  0  0
  -27.6400  -12.7043   20.0695 C   0  0  2  0  0  0
  -28.9871  -13.2790   21.2439 C   0  0  0  0  0  0
  -25.2256  -13.6713   20.6552 C   0  0  0  0  0  0
  -24.1291  -12.9559   20.9924 C   0  0  0  0  0  0
  -24.5577  -11.6008   20.9597 C   0  0  0  0  0  0
  -23.8283  -10.3725   21.0899 C   0  0  0  0  0  0
  -24.3044   -9.3671   21.9518 C   0  0  0  0  0  0
  -23.5884   -8.1686   22.0815 C   0  0  0  0  0  0
  -22.3907   -7.9869   21.3493 C   0  0  0  0  0  0
  -21.9506   -8.9842   20.4632 C   0  0  0  0  0  0
  -22.6709  -10.1759   20.3241 C   0  0  0  0  0  0
  -21.6630   -6.0506   22.5275 C   0  0  0  0  0  0
  -21.3836   -6.5501   23.8181 C   0  0  0  0  0  0
  -21.3604   -5.6718   24.9191 C   0  0  0  0  0  0
  -21.6052   -4.2981   24.7280 C   0  0  0  0  0  0
  -21.8850   -3.8025   23.4421 C   0  0  0  0  0  0
  -21.9130   -4.6776   22.3442 C   0  0  0  0  0  0
  -22.7430  -13.4842   21.2040 C   0  0  0  0  0  0
  -22.1644   -4.1978   21.1016 F   0  0  0  0  0  0
  -21.5688   -3.4510   25.7816 F   0  0  0  0  0  0
  -30.3153  -14.3689   20.6082 N   0  0  0  0  0  0
  -26.2785  -12.7010   20.5599 N   0  0  0  0  0  0
  -25.8385  -11.4711   20.7275 N   0  0  0  0  0  0
  -21.9788  -12.8149   22.0583 N   0  0  0  0  0  0
  -25.3173  -15.0330   20.3492 N   0  0  0  0  0  0
  -31.6460  -15.6068   21.5914 O   0  0  0  0  0  0
  -21.6306   -6.8525   21.4180 O   0  0  0  0  0  0
  -22.3501  -14.5220   20.6704 O   0  0  0  0  0  0
  -24.6732  -31.8144   23.1603 C   0  0  0  0  0  0
  -25.9353  -32.4565   23.8118 C   0  0  1  0  0  0
  -27.3050  -26.8768   20.1040 C   0  0  0  0  0  0
  -25.5975  -33.8376   24.2041 N   0  0  0  0  0  0
  -23.4957  -30.4158   21.5163 C   0  0  2  0  0  0
  -24.9544  -28.7723   20.1262 C   0  0  0  0  0  0
  -22.7722  -29.4398   22.4801 C   0  0  0  0  0  0
  -18.0328  -28.1441   22.8453 C   0  0  0  0  0  0
  -24.1486  -36.7194   23.2652 C   0  0  0  0  0  0
  -26.0702  -30.5922   21.4004 C   0  0  0  0  0  0
  -26.1489  -29.1727   20.7415 C   0  0  0  0  0  0
  -27.3048  -28.2509   20.6995 C   0  0  0  0  0  0
  -26.0467  -26.6246   19.5033 C   0  0  0  0  0  0
  -24.9279  -27.5122   19.5044 C   0  0  0  0  0  0
  -23.7409  -29.7109   20.1536 C   0  0  0  0  0  0
  -25.4137  -36.2970   24.0304 C   0  0  1  0  0  0
  -20.5954  -28.3796   23.1182 C   0  0  2  0  0  0
  -20.6820  -26.9475   22.5412 C   0  0  0  0  0  0
  -19.5794  -26.6396   21.5227 C   0  0  0  0  0  0
  -18.1970  -26.7972   22.1622 C   0  0  0  0  0  0
  -19.1586  -28.8939   23.2800 C   0  0  0  0  0  0
  -18.9497  -30.1526   23.8839 C   0  0  0  0  0  0
  -17.6488  -30.6618   24.0562 C   0  0  0  0  0  0
  -25.9101  -34.9345   23.5001 C   0  0  0  0  0  0
  -16.5379  -29.9102   23.6352 C   0  0  0  0  0  0
  -16.7311  -28.6532   23.0354 C   0  0  0  0  0  0
  -26.4561  -31.6548   25.0690 C   0  0  0  0  0  0
  -25.3641  -31.3804   26.1310 C   0  0  0  0  0  0
  -27.0491  -30.2924   24.6478 C   0  0  0  0  0  0
  -27.6055  -32.4365   25.7489 C   0  0  0  0  0  0
  -27.5580  -37.1759   24.8465 C   0  0  0  0  0  0
  -21.4387  -29.3051   22.3522 N   0  0  0  0  0  0
  -26.4284  -37.3719   23.9407 N   0  0  0  0  0  0
  -24.7694  -30.9686   22.0797 N   0  0  0  0  0  0
  -23.4199  -28.7982   23.3108 O   0  0  0  0  0  0
  -28.4060  -25.8298   19.9785 O   0  0  0  0  0  0
  -26.5734  -34.8899   22.4616 O   0  0  0  0  0  0
  -23.5776  -32.1146   23.6629 O   0  0  0  0  0  0
  -29.4678  -15.9951   18.7824 C   0  0  0  0  0  0
  -28.7957  -14.5679   19.0671 C   0  0  0  0  0  0
  -31.8410  -13.2918   19.2641 C   0  0  0  0  0  0
  -30.9800  -16.3205   18.9136 C   0  0  0  0  0  0
  -30.1527  -12.7080   19.2448 C   0  0  0  0  0  0
  -32.1175  -15.0256   19.0860 C   0  0  0  0  0  0
  -32.9841  -12.3171   19.4220 C   0  0  0  0  0  0
  -28.2154  -15.5438   20.3401 C   0  0  0  0  0  0
  -29.9451  -20.9528   19.7263 C   0  0  0  0  0  0
  -29.1913  -22.6188   19.3026 C   0  0  0  0  0  0
  -30.0609  -19.2523   18.9576 C   0  0  0  0  0  0
  -28.4865  -24.1389   20.1402 C   0  0  0  0  0  0
  -31.0703  -17.8978   19.1064 N   0  0  0  0  0  0
  -29.3107  -15.9822   21.3641 N   0  0  0  0  0  0
  -29.8908  -11.3869   19.4766 F   0  0  0  0  0  0
  -33.7714  -15.5224   19.1432 Cl  0  0  0  0  0  0
  -30.3817  -14.9957   16.9629 H   0  0  0  0  0  0
  -31.2861  -13.6952   17.1215 H   0  0  0  0  0  0
  -29.4693  -12.1831   16.5927 H   0  0  0  0  0  0
  -28.4572  -13.5510   16.4071 H   0  0  0  0  0  0
  -27.9198  -11.2292   18.2689 H   0  0  0  0  0  0
  -26.8628  -12.4663   17.8607 H   0  0  0  0  0  0
  -27.0974  -13.5015   19.6298 H   0  0  0  0  0  0
  -29.4761  -12.3906   21.6480 H   0  0  0  0  0  0
  -28.5442  -13.6633   22.1665 H   0  0  0  0  0  0
  -25.2138   -9.5129   22.5189 H   0  0  0  0  0  0
  -23.9587   -7.3983   22.7427 H   0  0  0  0  0  0
  -21.0496   -8.8321   19.8846 H   0  0  0  0  0  0
  -22.3273  -10.9381   19.6394 H   0  0  0  0  0  0
  -21.1746   -7.6003   23.9631 H   0  0  0  0  0  0
  -21.1436   -6.0471   25.9086 H   0  0  0  0  0  0
  -22.0712   -2.7492   23.2977 H   0  0  0  0  0  0
  -22.3157  -11.9787   22.5130 H   0  0  0  0  0  0
  -21.0420  -13.1345   22.2543 H   0  0  0  0  0  0
  -24.4656  -15.5835   20.3075 H   0  0  0  0  0  0
  -26.0206  -15.3666   19.7045 H   0  0  0  0  0  0
  -26.7430  -32.5076   23.0841 H   0  0  0  0  0  0
  -25.0057  -33.9431   25.0147 H   0  0  0  0  0  0
  -22.8145  -31.2494   21.3349 H   0  0  0  0  0  0
  -23.3789  -35.9480   23.3268 H   0  0  0  0  0  0
  -24.3556  -36.8890   22.2073 H   0  0  0  0  0  0
  -23.7181  -37.6343   23.6734 H   0  0  0  0  0  0
  -26.2552  -31.3286   20.6169 H   0  0  0  0  0  0
  -26.9262  -30.6569   22.0611 H   0  0  0  0  0  0
  -28.2143  -28.5785   21.1825 H   0  0  0  0  0  0
  -25.9179  -25.6729   19.0086 H   0  0  0  0  0  0
  -24.0178  -27.1896   19.0180 H   0  0  0  0  0  0
  -23.9036  -30.4714   19.3894 H   0  0  0  0  0  0
  -22.8471  -29.1706   19.8373 H   0  0  0  0  0  0
  -25.1335  -36.1778   25.0797 H   0  0  0  0  0  0
  -21.0029  -28.3413   24.1310 H   0  0  0  0  0  0
  -20.5732  -26.2416   23.3656 H   0  0  0  0  0  0
  -21.6684  -26.7468   22.1204 H   0  0  0  0  0  0
  -19.6963  -25.6285   21.1309 H   0  0  0  0  0  0
  -19.6741  -27.3160   20.6718 H   0  0  0  0  0  0
  -17.4251  -26.6708   21.4019 H   0  0  0  0  0  0
  -18.0359  -26.0137   22.9037 H   0  0  0  0  0  0
  -19.7967  -30.7372   24.2177 H   0  0  0  0  0  0
  -17.5033  -31.6289   24.5187 H   0  0  0  0  0  0
  -15.5377  -30.2988   23.7721 H   0  0  0  0  0  0
  -15.8714  -28.0847   22.7087 H   0  0  0  0  0  0
  -24.5850  -30.7164   25.7560 H   0  0  0  0  0  0
  -24.8795  -32.2996   26.4604 H   0  0  0  0  0  0
  -25.7799  -30.9023   27.0186 H   0  0  0  0  0  0
  -26.3200  -29.6586   24.1434 H   0  0  0  0  0  0
  -27.3957  -29.7318   25.5167 H   0  0  0  0  0  0
  -27.9145  -30.4133   23.9965 H   0  0  0  0  0  0
  -27.2661  -33.3740   26.1908 H   0  0  0  0  0  0
  -28.3929  -32.6812   25.0346 H   0  0  0  0  0  0
  -28.0657  -31.8597   26.5524 H   0  0  0  0  0  0
  -28.2579  -38.0085   24.7566 H   0  0  0  0  0  0
  -28.1112  -36.2617   24.6243 H   0  0  0  0  0  0
  -27.2302  -37.1332   25.8872 H   0  0  0  0  0  0
  -20.9683  -29.8677   21.6565 H   0  0  0  0  0  0
  -26.0145  -38.2782   24.1425 H   0  0  0  0  0  0
  -28.8420  -16.8488   18.5651 H   0  0  0  0  0  0
  -32.6496  -11.4137   19.9328 H   0  0  0  0  0  0
  -33.7942  -12.7602   20.0017 H   0  0  0  0  0  0
  -33.3649  -12.0378   18.4402 H   0  0  0  0  0  0
  -27.5254  -15.0878   21.0263 H   0  0  0  0  0  0
  -27.5993  -16.4021   20.0524 H   0  0  0  0  0  0
  -29.5730  -20.7460   20.7308 H   0  0  0  0  0  0
  -30.9883  -21.2130   19.9119 H   0  0  0  0  0  0
  -28.3895  -22.3521   18.6135 H   0  0  0  0  0  0
  -29.9410  -23.0449   18.6376 H   0  0  0  0  0  0
  -30.1059  -19.4501   17.8872 H   0  0  0  0  0  0
  -29.0519  -18.8611   19.0942 H   0  0  0  0  0  0
  -28.9470  -24.0841   21.1269 H   0  0  0  0  0  0
  -27.4511  -23.8689   20.3490 H   0  0  0  0  0  0
  -32.0219  -18.1826   19.3255 H   0  0  0  0  0  0
  -29.2726  -16.9124   21.7514 H   0  0  0  0  0  0
  1 25  1  0  0  0
  1 30  2  0  0  0
  1 84  1  0  0  0
  2  3  1  0  0  0
  2 25  1  0  0  0
  2 87  1  0  0  0
  2 88  1  0  0  0
  3  4  1  0  0  0
  3 89  1  0  0  0
  3 90  1  0  0  0
  4  5  1  0  0  0
  4 91  1  0  0  0
  4 92  1  0  0  0
  5  6  1  0  0  0
  5 26  1  0  0  0
  5 93  1  0  0  0
  6 25  1  0  0  0
  6 94  1  0  0  0
  6 95  1  0  0  0
  7  8  2  0  0  0
  7 26  1  0  0  0
  7 29  1  0  0  0
  8  9  1  0  0  0
  8 22  1  0  0  0
  9 10  1  0  0  0
  9 27  2  0  0  0
 10 11  2  0  0  0
 10 15  1  0  0  0
 11 12  1  0  0  0
 11 96  1  0  0  0
 12 13  2  0  0  0
 12 97  1  0  0  0
 13 14  1  0  0  0
 13 31  1  0  0  0
 14 15  2  0  0  0
 14 98  1  0  0  0
 15 99  1  0  0  0
 16 17  2  0  0  0
 16 21  1  0  0  0
 16 31  1  0  0  0
 17 18  1  0  0  0
 17100  1  0  0  0
 18 19  2  0  0  0
 18101  1  0  0  0
 19 20  1  0  0  0
 19 24  1  0  0  0
 20 21  2  0  0  0
 20102  1  0  0  0
 21 23  1  0  0  0
 22 28  1  0  0  0
 22 32  2  0  0  0
 26 27  1  0  0  0
 28103  1  0  0  0
 28104  1  0  0  0
 29105  1  0  0  0
 29106  1  0  0  0
 33 34  1  0  0  0
 33 66  1  0  0  0
 33 70  2  0  0  0
 34 36  1  0  0  0
 34 59  1  0  0  0
 34107  1  0  0  0
 35 44  2  0  0  0
 35 45  1  0  0  0
 35 68  1  0  0  0
 36 56  1  0  0  0
 36108  1  0  0  0
 37 39  1  0  0  0
 37 47  1  0  0  0
 37 66  1  0  0  0
 37109  1  0  0  0
 38 43  2  0  0  0
 38 46  1  0  0  0
 38 47  1  0  0  0
 39 64  1  0  0  0
 39 67  2  0  0  0
 40 52  1  0  0  0
 40 53  2  0  0  0
 40 58  1  0  0  0
 41110  1  0  0  0
 41111  1  0  0  0
 41112  1  0  0  0
 41 48  1  0  0  0
 42 43  1  0  0  0
 42 66  1  0  0  0
 42113  1  0  0  0
 42114  1  0  0  0
 43 44  1  0  0  0
 44115  1  0  0  0
 45 46  2  0  0  0
 45116  1  0  0  0
 46117  1  0  0  0
 47118  1  0  0  0
 47119  1  0  0  0
 48 56  1  0  0  0
 48 65  1  0  0  0
 48120  1  0  0  0
 49 50  1  0  0  0
 49 53  1  0  0  0
 49 64  1  0  0  0
 49121  1  0  0  0
 50 51  1  0  0  0
 50122  1  0  0  0
 50123  1  0  0  0
 51 52  1  0  0  0
 51124  1  0  0  0
 51125  1  0  0  0
 52126  1  0  0  0
 52127  1  0  0  0
 53 54  1  0  0  0
 54 55  2  0  0  0
 54128  1  0  0  0
 55 57  1  0  0  0
 55129  1  0  0  0
 56 69  2  0  0  0
 57 58  2  0  0  0
 57130  1  0  0  0
 58131  1  0  0  0
 59 60  1  0  0  0
 59 61  1  0  0  0
 59 62  1  0  0  0
 60132  1  0  0  0
 60133  1  0  0  0
 60134  1  0  0  0
 61135  1  0  0  0
 61136  1  0  0  0
 61137  1  0  0  0
 62138  1  0  0  0
 62139  1  0  0  0
 62140  1  0  0  0
 63 65  1  0  0  0
 63141  1  0  0  0
 63142  1  0  0  0
 63143  1  0  0  0
 64144  1  0  0  0
 65145  1  0  0  0
 68 82  1  0  0  0
 71 72  2  0  0  0
 71 74  1  0  0  0
 71146  1  0  0  0
 72 75  1  0  0  0
 72 78  1  0  0  0
 73 75  2  0  0  0
 73 76  1  0  0  0
 73 77  1  0  0  0
 74 76  2  0  0  0
 74 83  1  0  0  0
 75 85  1  0  0  0
 76 86  1  0  0  0
 77147  1  0  0  0
 77148  1  0  0  0
 77149  1  0  0  0
 78 84  1  0  0  0
 78150  1  0  0  0
 78151  1  0  0  0
 79 80  1  0  0  0
 79 81  1  0  0  0
 79152  1  0  0  0
 79153  1  0  0  0
 80 82  1  0  0  0
 80154  1  0  0  0
 80155  1  0  0  0
 81 83  1  0  0  0
 81156  1  0  0  0
 81157  1  0  0  0
 82158  1  0  0  0
 82159  1  0  0  0
 83160  1  0  0  0
 84161  1  0  0  0
M  ISO  4   1 100  68 101  82 101  84 100
M  END
> <chiral flag>
0

> <version>
0

> <s_m_source_file>
/data/baiqing/PycharmProjects/Reinvent-master-3.2/result/LINK_invent/BTK/process_docking_weight1_custom_sum_contain_oxygen_bond_distance_aromatic_linkinvent_7_9_3/rearranged_h_0030.sdf

> <i_m_source_file_index>
35

> <r_mmod_Potential_Energy-OPLS-2005>
13331.267578125

> <r_mmod_Stretch_Energy-OPLS-2005>
7287.2255859375

> <r_mmod_Bend_Energy-OPLS-2005>
1074.78894042969

> <r_mmod_Torsional_Energy-OPLS-2005>
483.091430664062

> <r_mmod_Improper_Torsional_Energy-OPLS-2005>
63.9317283630371

> <r_mmod_Van_der_Waal_Energy-OPLS-2005>
3304.82983398438

> <r_mmod_Electrostatic_Energy-OPLS-2005>
-410.567443847656

> <r_mmod_Solvation_Energy-OPLS-2005>
-207.78825378418

> <b_mmod_Minimization_Converged-OPLS-2005>
0

> <r_mmod_RMS_Derivative-OPLS-2005>
6.06418132781982

$$$$
35
                    3D
 Structure written by MMmdl.
167176  0  0  1  0            999 V2000
  -30.5646  -14.7615   20.4411 C   0  0  0  0  0  0
  -30.4434  -12.4564   19.4783 C   0  0  0  0  0  0
  -29.5174  -12.5135   18.2404 C   0  0  0  0  0  0
  -28.0402  -12.3363   18.6470 C   0  0  0  0  0  0
  -27.6457  -13.2281   19.8538 C   0  0  2  0  0  0
  -28.6890  -13.1350   20.9866 C   0  0  0  0  0  0
  -25.2536  -13.8189   20.5697 C   0  0  0  0  0  0
  -24.1815  -13.0438   20.9193 C   0  0  0  0  0  0
  -24.6397  -11.6913   20.8735 C   0  0  0  0  0  0
  -23.9071  -10.4293   21.0402 C   0  0  0  0  0  0
  -24.3621   -9.4209   21.9182 C   0  0  0  0  0  0
  -23.6295   -8.2245   22.0753 C   0  0  0  0  0  0
  -22.4277   -8.0282   21.3545 C   0  0  0  0  0  0
  -21.9913   -9.0256   20.4646 C   0  0  0  0  0  0
  -22.7242  -10.2133   20.3054 C   0  0  0  0  0  0
  -21.6854   -6.0737   22.5279 C   0  0  0  0  0  0
  -21.4014   -6.5641   23.8213 C   0  0  0  0  0  0
  -21.3659   -5.6793   24.9174 C   0  0  0  0  0  0
  -21.6045   -4.3056   24.7224 C   0  0  0  0  0  0
  -21.8819   -3.8148   23.4345 C   0  0  0  0  0  0
  -21.9193   -4.6965   22.3402 C   0  0  0  0  0  0
  -22.7837  -13.5224   21.1865 C   0  0  0  0  0  0
  -22.1663   -4.2151   21.0980 F   0  0  0  0  0  0
  -21.5629   -3.4539   25.7736 F   0  0  0  0  0  0
  -29.9923  -13.5059   20.4221 N   0  0  0  0  0  0
  -26.2959  -12.9385   20.3284 N   0  0  0  0  0  0
  -25.9328  -11.6529   20.5738 N   0  0  0  0  0  0
  -22.0486  -12.8210   22.0419 N   0  0  0  0  0  0
  -25.4246  -15.1910   20.4145 N   0  0  0  0  0  0
  -31.7541  -14.8718   20.1266 O   0  0  0  0  0  0
  -21.6641   -6.8880   21.4242 O   0  0  0  0  0  0
  -22.3519  -14.5532   20.6719 O   0  0  0  0  0  0
  -24.6308  -31.8539   23.1958 C   0  0  0  0  0  0
  -25.9130  -32.4748   23.8313 C   0  0  1  0  0  0
  -27.2227  -27.2582   20.1416 C   0  0  0  0  0  0
  -25.5924  -33.8548   24.2245 N   0  0  0  0  0  0
  -23.4278  -30.4734   21.5397 C   0  0  2  0  0  0
  -24.8760  -28.9117   20.1161 C   0  0  0  0  0  0
  -22.7503  -29.4585   22.4920 C   0  0  0  0  0  0
  -18.0297  -28.1386   22.8486 C   0  0  0  0  0  0
  -24.1491  -36.7277   23.2643 C   0  0  0  0  0  0
  -25.9729  -30.7669   21.3739 C   0  0  0  0  0  0
  -26.0475  -29.3866   20.7209 C   0  0  0  0  0  0
  -27.2266  -28.5751   20.7141 C   0  0  0  0  0  0
  -26.0289  -26.8395   19.5216 C   0  0  0  0  0  0
  -24.8716  -27.6463   19.5047 C   0  0  0  0  0  0
  -23.6469  -29.8004   20.1585 C   0  0  0  0  0  0
  -25.4115  -36.3062   24.0327 C   0  0  1  0  0  0
  -20.5899  -28.3686   23.1280 C   0  0  2  0  0  0
  -20.6783  -26.9404   22.5414 C   0  0  0  0  0  0
  -19.5760  -26.6379   21.5219 C   0  0  0  0  0  0
  -18.1939  -26.7931   22.1625 C   0  0  0  0  0  0
  -19.1551  -28.8855   23.2879 C   0  0  0  0  0  0
  -18.9468  -30.1458   23.8889 C   0  0  0  0  0  0
  -17.6467  -30.6584   24.0558 C   0  0  0  0  0  0
  -25.9052  -34.9435   23.5087 C   0  0  0  0  0  0
  -16.5358  -29.9078   23.6332 C   0  0  0  0  0  0
  -16.7283  -28.6498   23.0352 C   0  0  0  0  0  0
  -26.4496  -31.6577   25.0706 C   0  0  0  0  0  0
  -25.3714  -31.3733   26.1425 C   0  0  0  0  0  0
  -27.0352  -30.2999   24.6192 C   0  0  0  0  0  0
  -27.6050  -32.4316   25.7483 C   0  0  0  0  0  0
  -27.5577  -37.1790   24.8466 C   0  0  0  0  0  0
  -21.4210  -29.3031   22.3666 N   0  0  0  0  0  0
  -26.4289  -37.3760   23.9408 N   0  0  0  0  0  0
  -24.6963  -31.0498   22.0931 N   0  0  0  0  0  0
  -23.4204  -28.8137   23.3027 O   0  0  0  0  0  0
  -28.3317  -26.3862   20.1238 O   0  0  0  0  0  0
  -26.5632  -34.8915   22.4663 O   0  0  0  0  0  0
  -23.5457  -32.1362   23.7248 O   0  0  0  0  0  0
  -32.0079  -20.0802   21.6380 C   0  0  0  0  0  0
  -33.2660  -21.2819   19.4504 C   0  0  0  0  0  0
  -31.3119  -20.1144   20.3994 C   0  0  0  0  0  0
  -33.2986  -20.6211   21.7833 C   0  0  0  0  0  0
  -31.9759  -20.7389   19.2977 C   0  0  0  0  0  0
  -33.9331  -21.2270   20.6833 C   0  0  0  0  0  0
  -29.3327  -16.9310   19.3373 C   0  0  0  0  0  0
  -30.2289  -17.2205   21.6351 C   0  0  0  0  0  0
  -29.9135  -18.3996   19.1206 C   0  0  0  0  0  0
  -29.4785  -18.6251   21.5142 C   0  0  0  0  0  0
  -29.7045  -16.1241   20.6427 C   0  0  2  0  0  0
  -29.8807  -19.5155   20.2694 C   0  0  1  0  0  0
  -28.8697  -20.7828   19.9798 C   0  0  0  0  0  0
  -28.9975  -22.2628   20.6619 C   0  0  0  0  0  0
  -28.5346  -23.6278   19.8901 C   0  0  0  0  0  0
  -28.2269  -25.0022   20.7066 C   0  0  0  0  0  0
  -34.0835  -20.5284   23.3206 Cl  0  0  0  0  0  0
  -31.2782  -20.8800   17.7200 Cl  0  0  0  0  0  0
  -35.5171  -21.9064   20.8236 Cl  0  0  0  0  0  0
  -31.4831  -12.5915   19.1763 H   0  0  0  0  0  0
  -30.3970  -11.4738   19.9503 H   0  0  0  0  0  0
  -29.8012  -11.7446   17.5209 H   0  0  0  0  0  0
  -29.6444  -13.4707   17.7321 H   0  0  0  0  0  0
  -27.8931  -11.2861   18.9016 H   0  0  0  0  0  0
  -27.3859  -12.5369   17.7979 H   0  0  0  0  0  0
  -27.6465  -14.2539   19.4856 H   0  0  0  0  0  0
  -28.7257  -12.1223   21.3910 H   0  0  0  0  0  0
  -28.4218  -13.7773   21.8261 H   0  0  0  0  0  0
  -25.2765   -9.5685   22.4757 H   0  0  0  0  0  0
  -24.0005   -7.4635   22.7471 H   0  0  0  0  0  0
  -21.0845   -8.8771   19.8951 H   0  0  0  0  0  0
  -22.3699  -10.9671   19.6163 H   0  0  0  0  0  0
  -21.2005   -7.6149   23.9716 H   0  0  0  0  0  0
  -21.1483   -6.0523   25.9077 H   0  0  0  0  0  0
  -22.0598   -2.7610   23.2844 H   0  0  0  0  0  0
  -22.4107  -11.9867   22.4795 H   0  0  0  0  0  0
  -21.1106  -13.1233   22.2638 H   0  0  0  0  0  0
  -24.6608  -15.8474   20.5338 H   0  0  0  0  0  0
  -26.2822  -15.6326   20.1093 H   0  0  0  0  0  0
  -26.7193  -32.5397   23.1051 H   0  0  0  0  0  0
  -25.0064  -33.9686   25.0386 H   0  0  0  0  0  0
  -22.7239  -31.2945   21.3895 H   0  0  0  0  0  0
  -23.3756  -35.9606   23.3302 H   0  0  0  0  0  0
  -24.3581  -36.8902   22.2058 H   0  0  0  0  0  0
  -23.7245  -37.6475   23.6670 H   0  0  0  0  0  0
  -26.1099  -31.5250   20.6014 H   0  0  0  0  0  0
  -26.8509  -30.8191   22.0063 H   0  0  0  0  0  0
  -28.1306  -28.9399   21.1812 H   0  0  0  0  0  0
  -25.9896  -25.8667   19.0515 H   0  0  0  0  0  0
  -23.9742  -27.2765   19.0278 H   0  0  0  0  0  0
  -23.7724  -30.5729   19.3992 H   0  0  0  0  0  0
  -22.7655  -29.2330   19.8541 H   0  0  0  0  0  0
  -25.1299  -36.1901   25.0819 H   0  0  0  0  0  0
  -20.9990  -28.3261   24.1401 H   0  0  0  0  0  0
  -20.5693  -26.2290   23.3614 H   0  0  0  0  0  0
  -21.6647  -26.7434   22.1198 H   0  0  0  0  0  0
  -19.6922  -25.6292   21.1245 H   0  0  0  0  0  0
  -19.6702  -27.3190   20.6752 H   0  0  0  0  0  0
  -17.4210  -26.6682   21.4027 H   0  0  0  0  0  0
  -18.0331  -26.0076   22.9021 H   0  0  0  0  0  0
  -19.7944  -30.7279   24.2249 H   0  0  0  0  0  0
  -17.5019  -31.6266   24.5156 H   0  0  0  0  0  0
  -15.5357  -30.2972   23.7666 H   0  0  0  0  0  0
  -15.8685  -28.0813   22.7068 H   0  0  0  0  0  0
  -24.5886  -30.7088   25.7750 H   0  0  0  0  0  0
  -24.8908  -32.2910   26.4828 H   0  0  0  0  0  0
  -25.8020  -30.8920   27.0217 H   0  0  0  0  0  0
  -26.2943  -29.6735   24.1211 H   0  0  0  0  0  0
  -27.4049  -29.7262   25.4703 H   0  0  0  0  0  0
  -27.8809  -30.4289   23.9432 H   0  0  0  0  0  0
  -27.2661  -33.3627   26.2039 H   0  0  0  0  0  0
  -28.3871  -32.6855   25.0315 H   0  0  0  0  0  0
  -28.0706  -31.8454   26.5416 H   0  0  0  0  0  0
  -28.2587  -38.0094   24.7504 H   0  0  0  0  0  0
  -28.1082  -36.2619   24.6300 H   0  0  0  0  0  0
  -27.2297  -37.1445   25.8872 H   0  0  0  0  0  0
  -20.9398  -29.8734   21.6854 H   0  0  0  0  0  0
  -26.0168  -38.2836   24.1405 H   0  0  0  0  0  0
  -31.5836  -19.6339   22.5208 H   0  0  0  0  0  0
  -33.7516  -21.7471   18.6060 H   0  0  0  0  0  0
  -29.5828  -16.3278   18.4634 H   0  0  0  0  0  0
  -28.2456  -17.0155   19.3049 H   0  0  0  0  0  0
  -30.1155  -16.8428   22.6518 H   0  0  0  0  0  0
  -31.3012  -17.3579   21.4928 H   0  0  0  0  0  0
  -29.4638  -18.8051   18.2144 H   0  0  0  0  0  0
  -30.9556  -18.2272   18.8475 H   0  0  0  0  0  0
  -29.5573  -19.1933   22.4398 H   0  0  0  0  0  0
  -28.4097  -18.4158   21.4514 H   0  0  0  0  0  0
  -28.7507  -15.8064   21.0584 H   0  0  0  0  0  0
  -27.8454  -20.4345   20.1151 H   0  0  0  0  0  0
  -28.9150  -20.9774   18.9104 H   0  0  0  0  0  0
  -30.0343  -22.4172   20.9592 H   0  0  0  0  0  0
  -28.4538  -22.2172   21.6059 H   0  0  0  0  0  0
  -27.6459  -23.4010   19.3007 H   0  0  0  0  0  0
  -29.3075  -23.8496   19.1538 H   0  0  0  0  0  0
  -28.9275  -25.0183   21.5417 H   0  0  0  0  0  0
  -27.2520  -24.8946   21.1846 H   0  0  0  0  0  0
  1 25  1  0  0  0
  1 30  2  0  0  0
  1 81  1  0  0  0
  2  3  1  0  0  0
  2 25  1  0  0  0
  2 90  1  0  0  0
  2 91  1  0  0  0
  3  4  1  0  0  0
  3 92  1  0  0  0
  3 93  1  0  0  0
  4  5  1  0  0  0
  4 94  1  0  0  0
  4 95  1  0  0  0
  5  6  1  0  0  0
  5 26  1  0  0  0
  5 96  1  0  0  0
  6 25  1  0  0  0
  6 97  1  0  0  0
  6 98  1  0  0  0
  7  8  2  0  0  0
  7 26  1  0  0  0
  7 29  1  0  0  0
  8  9  1  0  0  0
  8 22  1  0  0  0
  9 10  1  0  0  0
  9 27  2  0  0  0
 10 11  2  0  0  0
 10 15  1  0  0  0
 11 12  1  0  0  0
 11 99  1  0  0  0
 12 13  2  0  0  0
 12100  1  0  0  0
 13 14  1  0  0  0
 13 31  1  0  0  0
 14 15  2  0  0  0
 14101  1  0  0  0
 15102  1  0  0  0
 16 17  2  0  0  0
 16 21  1  0  0  0
 16 31  1  0  0  0
 17 18  1  0  0  0
 17103  1  0  0  0
 18 19  2  0  0  0
 18104  1  0  0  0
 19 20  1  0  0  0
 19 24  1  0  0  0
 20 21  2  0  0  0
 20105  1  0  0  0
 21 23  1  0  0  0
 22 28  1  0  0  0
 22 32  2  0  0  0
 26 27  1  0  0  0
 28106  1  0  0  0
 28107  1  0  0  0
 29108  1  0  0  0
 29109  1  0  0  0
 33 34  1  0  0  0
 33 66  1  0  0  0
 33 70  2  0  0  0
 34 36  1  0  0  0
 34 59  1  0  0  0
 34110  1  0  0  0
 35 44  2  0  0  0
 35 45  1  0  0  0
 35 68  1  0  0  0
 36 56  1  0  0  0
 36111  1  0  0  0
 37 39  1  0  0  0
 37 47  1  0  0  0
 37 66  1  0  0  0
 37112  1  0  0  0
 38 43  2  0  0  0
 38 46  1  0  0  0
 38 47  1  0  0  0
 39 64  1  0  0  0
 39 67  2  0  0  0
 40 52  1  0  0  0
 40 53  2  0  0  0
 40 58  1  0  0  0
 41113  1  0  0  0
 41114  1  0  0  0
 41115  1  0  0  0
 41 48  1  0  0  0
 42 43  1  0  0  0
 42 66  1  0  0  0
 42116  1  0  0  0
 42117  1  0  0  0
 43 44  1  0  0  0
 44118  1  0  0  0
 45 46  2  0  0  0
 45119  1  0  0  0
 46120  1  0  0  0
 47121  1  0  0  0
 47122  1  0  0  0
 48 56  1  0  0  0
 48 65  1  0  0  0
 48123  1  0  0  0
 49 50  1  0  0  0
 49 53  1  0  0  0
 49 64  1  0  0  0
 49124  1  0  0  0
 50 51  1  0  0  0
 50125  1  0  0  0
 50126  1  0  0  0
 51 52  1  0  0  0
 51127  1  0  0  0
 51128  1  0  0  0
 52129  1  0  0  0
 52130  1  0  0  0
 53 54  1  0  0  0
 54 55  2  0  0  0
 54131  1  0  0  0
 55 57  1  0  0  0
 55132  1  0  0  0
 56 69  2  0  0  0
 57 58  2  0  0  0
 57133  1  0  0  0
 58134  1  0  0  0
 59 60  1  0  0  0
 59 61  1  0  0  0
 59 62  1  0  0  0
 60135  1  0  0  0
 60136  1  0  0  0
 60137  1  0  0  0
 61138  1  0  0  0
 61139  1  0  0  0
 61140  1  0  0  0
 62141  1  0  0  0
 62142  1  0  0  0
 62143  1  0  0  0
 63 65  1  0  0  0
 63144  1  0  0  0
 63145  1  0  0  0
 63146  1  0  0  0
 64147  1  0  0  0
 65148  1  0  0  0
 68 86  1  0  0  0
 71 73  2  0  0  0
 71 74  1  0  0  0
 71149  1  0  0  0
 72 75  2  0  0  0
 72 76  1  0  0  0
 72150  1  0  0  0
 73 75  1  0  0  0
 73 82  1  0  0  0
 74 76  2  0  0  0
 74 87  1  0  0  0
 75 88  1  0  0  0
 76 89  1  0  0  0
 77 79  1  0  0  0
 77 81  1  0  0  0
 77151  1  0  0  0
 77152  1  0  0  0
 78 80  1  0  0  0
 78 81  1  0  0  0
 78153  1  0  0  0
 78154  1  0  0  0
 79 82  1  0  0  0
 79155  1  0  0  0
 79156  1  0  0  0
 80 82  1  0  0  0
 80157  1  0  0  0
 80158  1  0  0  0
 81159  1  0  0  0
 82 83  1  0  0  0
 83 84  1  0  0  0
 83160  1  0  0  0
 83161  1  0  0  0
 84 85  1  0  0  0
 84162  1  0  0  0
 84163  1  0  0  0
 85 86  1  0  0  0
 85164  1  0  0  0
 85165  1  0  0  0
 86166  1  0  0  0
 86167  1  0  0  0
M  ISO  4   1 100  68 101  81 100  86 101
M  END
> <chiral flag>
0

> <version>
0

> <s_m_source_file>
/data/baiqing/PycharmProjects/Reinvent-master-3.2/result/LINK_invent/BTK/process_docking_weight1_custom_sum_contain_oxygen_bond_distance_aromatic_linkinvent_7_9_3/rearranged_h_0030.sdf

> <i_m_source_file_index>
36

> <r_mmod_Potential_Energy-OPLS-2005>
373.11669921875

> <r_mmod_Stretch_Energy-OPLS-2005>
149.895095825195

> <r_mmod_Bend_Energy-OPLS-2005>
208.077728271484

> <r_mmod_Torsional_Energy-OPLS-2005>
269.564636230469

> <r_mmod_Improper_Torsional_Energy-OPLS-2005>
4.29586505889893

> <r_mmod_Van_der_Waal_Energy-OPLS-2005>
147.26708984375

> <r_mmod_Electrostatic_Energy-OPLS-2005>
-299.512847900391

> <r_mmod_Solvation_Energy-OPLS-2005>
-192.052368164062

> <b_mmod_Minimization_Converged-OPLS-2005>
0

> <r_mmod_RMS_Derivative-OPLS-2005>
0.63938045501709

$$$$
36
                    3D
 Structure written by MMmdl.
168176  0  0  1  0            999 V2000
  -30.7551  -14.2914   20.7844 C   0  0  0  0  0  0
  -30.4311  -12.2513   19.4561 C   0  0  0  0  0  0
  -29.5257  -12.5060   18.2399 C   0  0  0  0  0  0
  -28.0423  -12.3150   18.6227 C   0  0  0  0  0  0
  -27.6703  -13.1875   19.8579 C   0  0  2  0  0  0
  -28.6796  -12.8952   20.9861 C   0  0  0  0  0  0
  -25.2807  -13.8117   20.5703 C   0  0  0  0  0  0
  -24.2096  -13.0404   20.9207 C   0  0  0  0  0  0
  -24.6690  -11.6867   20.8884 C   0  0  0  0  0  0
  -23.9372  -10.4276   21.0491 C   0  0  0  0  0  0
  -24.3864   -9.4203   21.9272 C   0  0  0  0  0  0
  -23.6365   -8.2316   22.0935 C   0  0  0  0  0  0
  -22.4397   -8.0413   21.3655 C   0  0  0  0  0  0
  -22.0002   -9.0377   20.4781 C   0  0  0  0  0  0
  -22.7508  -10.2175   20.3169 C   0  0  0  0  0  0
  -21.6856   -6.0843   22.5196 C   0  0  0  0  0  0
  -21.4052   -6.5691   23.8118 C   0  0  0  0  0  0
  -21.3726   -5.6855   24.9078 C   0  0  0  0  0  0
  -21.6067   -4.3110   24.6981 C   0  0  0  0  0  0
  -21.8951   -3.8254   23.4118 C   0  0  0  0  0  0
  -21.9178   -4.7026   22.3173 C   0  0  0  0  0  0
  -22.8072  -13.5124   21.1658 C   0  0  0  0  0  0
  -22.1614   -4.2334   21.0708 F   0  0  0  0  0  0
  -21.5649   -3.4598   25.7451 F   0  0  0  0  0  0
  -30.0412  -13.1919   20.4978 N   0  0  0  0  0  0
  -26.3188  -12.9271   20.3296 N   0  0  0  0  0  0
  -25.9557  -11.6520   20.5841 N   0  0  0  0  0  0
  -22.0705  -12.8083   22.0228 N   0  0  0  0  0  0
  -25.4597  -15.1828   20.3923 N   0  0  0  0  0  0
  -31.7188  -14.6876   20.1090 O   0  0  0  0  0  0
  -21.6768   -6.9000   21.4228 O   0  0  0  0  0  0
  -22.3747  -14.5389   20.6491 O   0  0  0  0  0  0
  -24.6203  -31.8690   23.2057 C   0  0  0  0  0  0
  -25.9088  -32.4858   23.8348 C   0  0  1  0  0  0
  -27.2579  -27.4768   19.9549 C   0  0  0  0  0  0
  -25.5842  -33.8624   24.2262 N   0  0  0  0  0  0
  -23.4181  -30.4835   21.5668 C   0  0  2  0  0  0
  -24.8581  -28.9804   20.0889 C   0  0  0  0  0  0
  -22.7541  -29.4640   22.5199 C   0  0  0  0  0  0
  -18.0380  -28.1627   22.8462 C   0  0  0  0  0  0
  -24.1454  -36.7333   23.2620 C   0  0  0  0  0  0
  -25.9530  -30.8298   21.3656 C   0  0  0  0  0  0
  -26.0343  -29.4775   20.6789 C   0  0  0  0  0  0
  -27.2238  -28.7229   20.6415 C   0  0  0  0  0  0
  -26.0719  -27.0218   19.3314 C   0  0  0  0  0  0
  -24.8661  -27.7332   19.4445 C   0  0  0  0  0  0
  -23.6191  -29.8329   20.1739 C   0  0  0  0  0  0
  -25.4088  -36.3076   24.0283 C   0  0  1  0  0  0
  -20.5965  -28.3724   23.1436 C   0  0  2  0  0  0
  -20.6913  -26.9561   22.5271 C   0  0  0  0  0  0
  -19.5915  -26.6790   21.4998 C   0  0  0  0  0  0
  -18.2050  -26.8273   22.1369 C   0  0  0  0  0  0
  -19.1583  -28.8988   23.3033 C   0  0  0  0  0  0
  -18.9445  -30.1548   23.9133 C   0  0  0  0  0  0
  -17.6396  -30.6627   24.0753 C   0  0  0  0  0  0
  -25.9058  -34.9462   23.5131 C   0  0  0  0  0  0
  -16.5338  -29.9178   23.6389 C   0  0  0  0  0  0
  -16.7305  -28.6705   23.0223 C   0  0  0  0  0  0
  -26.4460  -31.6616   25.0701 C   0  0  0  0  0  0
  -25.3651  -31.3733   26.1401 C   0  0  0  0  0  0
  -27.0217  -30.2995   24.6081 C   0  0  0  0  0  0
  -27.6067  -32.4300   25.7421 C   0  0  0  0  0  0
  -27.5577  -37.1792   24.8436 C   0  0  0  0  0  0
  -21.4263  -29.3030   22.3842 N   0  0  0  0  0  0
  -26.4281  -37.3723   23.9381 N   0  0  0  0  0  0
  -24.6858  -31.0735   22.1021 N   0  0  0  0  0  0
  -23.4249  -28.8150   23.3227 O   0  0  0  0  0  0
  -28.2175  -26.4946   20.2179 O   0  0  0  0  0  0
  -26.5649  -34.8903   22.4693 O   0  0  0  0  0  0
  -23.5408  -32.1464   23.7426 O   0  0  0  0  0  0
  -26.6573  -21.8684   22.9328 C   0  0  0  0  0  0
  -27.9475  -21.9958   22.3466 C   0  0  0  0  0  0
  -28.3832  -23.2651   21.8455 C   0  0  0  0  0  0
  -27.4888  -24.3951   21.8764 C   0  0  0  0  0  0
  -26.1781  -24.2205   22.4995 C   0  0  0  0  0  0
  -25.7761  -22.9573   23.0111 C   0  0  0  0  0  0
  -29.8636  -23.4463   21.4518 C   0  0  0  0  0  0
  -25.1458  -25.3856   22.6611 C   0  0  0  0  0  0
  -28.9062  -20.7916   22.4502 C   0  0  0  0  0  0
  -27.9105  -25.8729   21.5260 C   0  0  0  0  0  0
  -30.4856  -17.3028   22.4155 C   0  0  0  0  0  0
  -29.3510  -17.7796   23.3697 C   0  0  0  0  0  0
  -31.0444  -15.8905   22.7170 C   0  0  0  0  0  0
  -28.0937  -18.4489   22.7405 C   0  0  0  0  0  0
  -30.3939  -14.8265   21.9568 N   0  0  0  0  0  0
  -28.3957  -19.5601   21.8111 N   0  3  0  0  0  0
  -24.2126  -22.7281   23.7503 Cl  0  0  0  0  0  0
  -31.4973  -12.3167   19.2125 H   0  0  0  0  0  0
  -30.2671  -11.2414   19.8236 H   0  0  0  0  0  0
  -29.8459  -11.8211   17.4584 H   0  0  0  0  0  0
  -29.6849  -13.5217   17.8746 H   0  0  0  0  0  0
  -27.8824  -11.2661   18.8807 H   0  0  0  0  0  0
  -27.3970  -12.5263   17.7610 H   0  0  0  0  0  0
  -27.7313  -14.2365   19.5691 H   0  0  0  0  0  0
  -28.6286  -11.8463   21.2618 H   0  0  0  0  0  0
  -28.3879  -13.4370   21.8774 H   0  0  0  0  0  0
  -25.3092   -9.5676   22.4713 H   0  0  0  0  0  0
  -24.0140   -7.4859   22.7749 H   0  0  0  0  0  0
  -21.0958   -8.9016   19.9065 H   0  0  0  0  0  0
  -22.4079  -10.9764   19.6277 H   0  0  0  0  0  0
  -21.2180   -7.6189   23.9656 H   0  0  0  0  0  0
  -21.1371   -6.0509   25.8973 H   0  0  0  0  0  0
  -22.0703   -2.7696   23.2469 H   0  0  0  0  0  0
  -22.3984  -11.9412   22.4330 H   0  0  0  0  0  0
  -21.1506  -13.1312   22.2705 H   0  0  0  0  0  0
  -24.7407  -15.8636   20.5974 H   0  0  0  0  0  0
  -26.2888  -15.5852   19.9774 H   0  0  0  0  0  0
  -26.7224  -32.5489   23.1150 H   0  0  0  0  0  0
  -24.9617  -33.9637   25.0161 H   0  0  0  0  0  0
  -22.7100  -31.3005   21.4326 H   0  0  0  0  0  0
  -23.3660  -35.9736   23.3296 H   0  0  0  0  0  0
  -24.3599  -36.8948   22.2057 H   0  0  0  0  0  0
  -23.7299  -37.6551   23.6679 H   0  0  0  0  0  0
  -26.0771  -31.6116   20.6124 H   0  0  0  0  0  0
  -26.8361  -30.8667   21.9916 H   0  0  0  0  0  0
  -28.1078  -29.0491   21.1758 H   0  0  0  0  0  0
  -26.0559  -26.0371   18.8877 H   0  0  0  0  0  0
  -23.9428  -27.2994   19.0628 H   0  0  0  0  0  0
  -23.7201  -30.6296   19.4314 H   0  0  0  0  0  0
  -22.7322  -29.2579   19.8842 H   0  0  0  0  0  0
  -25.1317  -36.1920   25.0779 H   0  0  0  0  0  0
  -21.0066  -28.3078   24.1545 H   0  0  0  0  0  0
  -20.6004  -26.2128   23.3211 H   0  0  0  0  0  0
  -21.6784  -26.7840   22.0886 H   0  0  0  0  0  0
  -19.7066  -25.6824   21.0706 H   0  0  0  0  0  0
  -19.7033  -27.3815   20.6724 H   0  0  0  0  0  0
  -17.4436  -26.7317   21.3610 H   0  0  0  0  0  0
  -18.0361  -26.0297   22.8629 H   0  0  0  0  0  0
  -19.7824  -30.7379   24.2670 H   0  0  0  0  0  0
  -17.4859  -31.6157   24.5587 H   0  0  0  0  0  0
  -15.5300  -30.3026   23.7722 H   0  0  0  0  0  0
  -15.8784  -28.1050   22.6748 H   0  0  0  0  0  0
  -24.5820  -30.7127   25.7642 H   0  0  0  0  0  0
  -24.8856  -32.2911   26.4791 H   0  0  0  0  0  0
  -25.7892  -30.8858   27.0176 H   0  0  0  0  0  0
  -26.2717  -29.6801   24.1154 H   0  0  0  0  0  0
  -27.3927  -29.7178   25.4519 H   0  0  0  0  0  0
  -27.8575  -30.4185   23.9192 H   0  0  0  0  0  0
  -27.2685  -33.3533   26.2050 H   0  0  0  0  0  0
  -28.3748  -32.6963   25.0188 H   0  0  0  0  0  0
  -28.0847  -31.8419   26.5224 H   0  0  0  0  0  0
  -28.2613  -38.0044   24.7469 H   0  0  0  0  0  0
  -28.1021  -36.2629   24.6280 H   0  0  0  0  0  0
  -27.2310  -37.1453   25.8808 H   0  0  0  0  0  0
  -20.9520  -29.8411   21.6765 H   0  0  0  0  0  0
  -26.0180  -38.2786   24.1340 H   0  0  0  0  0  0
  -26.3188  -20.9341   23.3796 H   0  0  0  0  0  0
  -30.4858  -23.1647   22.3094 H   0  0  0  0  0  0
  -30.1206  -24.4710   21.1969 H   0  0  0  0  0  0
  -30.1903  -22.8026   20.6250 H   0  0  0  0  0  0
  -24.5664  -25.4612   21.7328 H   0  0  0  0  0  0
  -25.5999  -26.3669   22.8284 H   0  0  0  0  0  0
  -24.4704  -25.3115   23.5167 H   0  0  0  0  0  0
  -29.1224  -20.6473   23.5083 H   0  0  0  0  0  0
  -29.8791  -20.9476   21.9812 H   0  0  0  0  0  0
  -28.0822  -26.5192   22.4073 H   0  0  0  0  0  0
  -26.8654  -25.9968   21.3740 H   0  0  0  0  0  0
  -31.3214  -17.9944   22.5245 H   0  0  0  0  0  0
  -30.2071  -17.3537   21.3696 H   0  0  0  0  0  0
  -29.7919  -18.4627   24.1016 H   0  0  0  0  0  0
  -28.9764  -16.9428   23.9634 H   0  0  0  0  0  0
  -30.9445  -15.6600   23.7752 H   0  0  0  0  0  0
  -32.1102  -15.8377   22.5030 H   0  0  0  0  0  0
  -27.4895  -18.8326   23.5625 H   0  0  0  0  0  0
  -27.4793  -17.7027   22.2298 H   0  0  0  0  0  0
  -29.6551  -14.2990   22.3907 H   0  0  0  0  0  0
  -29.1015  -19.2279   21.1737 H   0  0  0  0  0  0
  -27.5847  -19.8008   21.2624 H   0  0  0  0  0  0
  1 25  1  0  0  0
  1 30  2  0  0  0
  1 85  1  0  0  0
  2  3  1  0  0  0
  2 25  1  0  0  0
  2 88  1  0  0  0
  2 89  1  0  0  0
  3  4  1  0  0  0
  3 90  1  0  0  0
  3 91  1  0  0  0
  4  5  1  0  0  0
  4 92  1  0  0  0
  4 93  1  0  0  0
  5  6  1  0  0  0
  5 26  1  0  0  0
  5 94  1  0  0  0
  6 25  1  0  0  0
  6 95  1  0  0  0
  6 96  1  0  0  0
  7  8  2  0  0  0
  7 26  1  0  0  0
  7 29  1  0  0  0
  8  9  1  0  0  0
  8 22  1  0  0  0
  9 10  1  0  0  0
  9 27  2  0  0  0
 10 11  2  0  0  0
 10 15  1  0  0  0
 11 12  1  0  0  0
 11 97  1  0  0  0
 12 13  2  0  0  0
 12 98  1  0  0  0
 13 14  1  0  0  0
 13 31  1  0  0  0
 14 15  2  0  0  0
 14 99  1  0  0  0
 15100  1  0  0  0
 16 17  2  0  0  0
 16 21  1  0  0  0
 16 31  1  0  0  0
 17 18  1  0  0  0
 17101  1  0  0  0
 18 19  2  0  0  0
 18102  1  0  0  0
 19 20  1  0  0  0
 19 24  1  0  0  0
 20 21  2  0  0  0
 20103  1  0  0  0
 21 23  1  0  0  0
 22 28  1  0  0  0
 22 32  2  0  0  0
 26 27  1  0  0  0
 28104  1  0  0  0
 28105  1  0  0  0
 29106  1  0  0  0
 29107  1  0  0  0
 33 34  1  0  0  0
 33 66  1  0  0  0
 33 70  2  0  0  0
 34 36  1  0  0  0
 34 59  1  0  0  0
 34108  1  0  0  0
 35 44  2  0  0  0
 35 45  1  0  0  0
 35 68  1  0  0  0
 36 56  1  0  0  0
 36109  1  0  0  0
 37 39  1  0  0  0
 37 47  1  0  0  0
 37 66  1  0  0  0
 37110  1  0  0  0
 38 43  2  0  0  0
 38 46  1  0  0  0
 38 47  1  0  0  0
 39 64  1  0  0  0
 39 67  2  0  0  0
 40 52  1  0  0  0
 40 53  2  0  0  0
 40 58  1  0  0  0
 41111  1  0  0  0
 41112  1  0  0  0
 41113  1  0  0  0
 41 48  1  0  0  0
 42 43  1  0  0  0
 42 66  1  0  0  0
 42114  1  0  0  0
 42115  1  0  0  0
 43 44  1  0  0  0
 44116  1  0  0  0
 45 46  2  0  0  0
 45117  1  0  0  0
 46118  1  0  0  0
 47119  1  0  0  0
 47120  1  0  0  0
 48 56  1  0  0  0
 48 65  1  0  0  0
 48121  1  0  0  0
 49 50  1  0  0  0
 49 53  1  0  0  0
 49 64  1  0  0  0
 49122  1  0  0  0
 50 51  1  0  0  0
 50123  1  0  0  0
 50124  1  0  0  0
 51 52  1  0  0  0
 51125  1  0  0  0
 51126  1  0  0  0
 52127  1  0  0  0
 52128  1  0  0  0
 53 54  1  0  0  0
 54 55  2  0  0  0
 54129  1  0  0  0
 55 57  1  0  0  0
 55130  1  0  0  0
 56 69  2  0  0  0
 57 58  2  0  0  0
 57131  1  0  0  0
 58132  1  0  0  0
 59 60  1  0  0  0
 59 61  1  0  0  0
 59 62  1  0  0  0
 60133  1  0  0  0
 60134  1  0  0  0
 60135  1  0  0  0
 61136  1  0  0  0
 61137  1  0  0  0
 61138  1  0  0  0
 62139  1  0  0  0
 62140  1  0  0  0
 62141  1  0  0  0
 63 65  1  0  0  0
 63142  1  0  0  0
 63143  1  0  0  0
 63144  1  0  0  0
 64145  1  0  0  0
 65146  1  0  0  0
 68 80  1  0  0  0
 71 72  2  0  0  0
 71 76  1  0  0  0
 71147  1  0  0  0
 72 73  1  0  0  0
 72 79  1  0  0  0
 73 74  2  0  0  0
 73 77  1  0  0  0
 74 75  1  0  0  0
 74 80  1  0  0  0
 75 76  2  0  0  0
 75 78  1  0  0  0
 76 87  1  0  0  0
 77148  1  0  0  0
 77149  1  0  0  0
 77150  1  0  0  0
 78151  1  0  0  0
 78152  1  0  0  0
 78153  1  0  0  0
 79 86  1  0  0  0
 79154  1  0  0  0
 79155  1  0  0  0
 80156  1  0  0  0
 80157  1  0  0  0
 81 82  1  0  0  0
 81 83  1  0  0  0
 81158  1  0  0  0
 81159  1  0  0  0
 82 84  1  0  0  0
 82160  1  0  0  0
 82161  1  0  0  0
 83 85  1  0  0  0
 83162  1  0  0  0
 83163  1  0  0  0
 84 86  1  0  0  0
 84164  1  0  0  0
 84165  1  0  0  0
 85166  1  0  0  0
 86167  1  0  0  0
 86168  1  0  0  0
M  CHG  1  86   1
M  ISO  4   1 100  68 101  80 101  85 100
M  END
> <chiral flag>
0

> <version>
0

> <s_m_source_file>
/data/baiqing/PycharmProjects/Reinvent-master-3.2/result/LINK_invent/BTK/process_docking_weight1_custom_sum_contain_oxygen_bond_distance_aromatic_linkinvent_7_9_3/rearranged_h_0030.sdf

> <i_m_source_file_index>
37

> <r_mmod_Potential_Energy-OPLS-2005>
34.6895523071289

> <r_mmod_Stretch_Energy-OPLS-2005>
70.0475845336914

> <r_mmod_Bend_Energy-OPLS-2005>
203.310974121094

> <r_mmod_Torsional_Energy-OPLS-2005>
289.054779052734

> <r_mmod_Improper_Torsional_Energy-OPLS-2005>
10.6893701553345

> <r_mmod_Van_der_Waal_Energy-OPLS-2005>
209.090545654297

> <r_mmod_Electrostatic_Energy-OPLS-2005>
-314.670776367188

> <r_mmod_Solvation_Energy-OPLS-2005>
-468.654510498047

> <b_mmod_Minimization_Converged-OPLS-2005>
0

> <r_mmod_RMS_Derivative-OPLS-2005>
17.5678844451904

$$$$
37
                    3D
 Structure written by MMmdl.
153161  0  0  1  0            999 V2000
  -30.5945  -14.8526   20.4373 C   0  0  0  0  0  0
  -30.4311  -12.5241   19.4963 C   0  0  0  0  0  0
  -29.5187  -12.5159   18.2501 C   0  0  0  0  0  0
  -28.0446  -12.3314   18.6566 C   0  0  0  0  0  0
  -27.6340  -13.2467   19.8412 C   0  0  2  0  0  0
  -28.6758  -13.2415   20.9803 C   0  0  0  0  0  0
  -25.2478  -13.8231   20.5696 C   0  0  0  0  0  0
  -24.1790  -13.0454   20.9214 C   0  0  0  0  0  0
  -24.6405  -11.6939   20.8744 C   0  0  0  0  0  0
  -23.9093  -10.4302   21.0395 C   0  0  0  0  0  0
  -24.3637   -9.4216   21.9179 C   0  0  0  0  0  0
  -23.6303   -8.2256   22.0754 C   0  0  0  0  0  0
  -22.4286   -8.0290   21.3542 C   0  0  0  0  0  0
  -21.9918   -9.0270   20.4650 C   0  0  0  0  0  0
  -22.7256  -10.2145   20.3053 C   0  0  0  0  0  0
  -21.6862   -6.0740   22.5279 C   0  0  0  0  0  0
  -21.4021   -6.5640   23.8213 C   0  0  0  0  0  0
  -21.3659   -5.6787   24.9172 C   0  0  0  0  0  0
  -21.6047   -4.3054   24.7221 C   0  0  0  0  0  0
  -21.8820   -3.8148   23.4341 C   0  0  0  0  0  0
  -21.9197   -4.6966   22.3398 C   0  0  0  0  0  0
  -22.7808  -13.5219   21.1861 C   0  0  0  0  0  0
  -22.1661   -4.2152   21.0973 F   0  0  0  0  0  0
  -21.5625   -3.4535   25.7733 F   0  0  0  0  0  0
  -29.9637  -13.6184   20.3888 N   0  0  0  0  0  0
  -26.2904  -12.9460   20.3241 N   0  0  0  0  0  0
  -25.9334  -11.6592   20.5729 N   0  0  0  0  0  0
  -22.0450  -12.8225   22.0423 N   0  0  0  0  0  0
  -25.4153  -15.1958   20.4102 N   0  0  0  0  0  0
  -31.7928  -14.8997   20.1435 O   0  0  0  0  0  0
  -21.6649   -6.8887   21.4242 O   0  0  0  0  0  0
  -22.3484  -14.5509   20.6686 O   0  0  0  0  0  0
  -24.6385  -31.8491   23.1898 C   0  0  0  0  0  0
  -25.9179  -32.4724   23.8279 C   0  0  1  0  0  0
  -27.2213  -27.1864   20.1494 C   0  0  0  0  0  0
  -25.5949  -33.8527   24.2205 N   0  0  0  0  0  0
  -23.4390  -30.4674   21.5353 C   0  0  2  0  0  0
  -24.8872  -28.8990   20.1101 C   0  0  0  0  0  0
  -22.7540  -29.4568   22.4882 C   0  0  0  0  0  0
  -18.0302  -28.1388   22.8475 C   0  0  0  0  0  0
  -24.1488  -36.7270   23.2638 C   0  0  0  0  0  0
  -25.9895  -30.7392   21.3779 C   0  0  0  0  0  0
  -26.0619  -29.3534   20.7227 C   0  0  0  0  0  0
  -27.2301  -28.5125   20.7249 C   0  0  0  0  0  0
  -26.0223  -26.8163   19.5016 C   0  0  0  0  0  0
  -24.8775  -27.6420   19.4845 C   0  0  0  0  0  0
  -23.6609  -29.7954   20.1540 C   0  0  0  0  0  0
  -25.4120  -36.3051   24.0313 C   0  0  1  0  0  0
  -20.5911  -28.3711   23.1246 C   0  0  2  0  0  0
  -20.6790  -26.9418   22.5405 C   0  0  0  0  0  0
  -19.5765  -26.6376   21.5214 C   0  0  0  0  0  0
  -18.1946  -26.7925   22.1621 C   0  0  0  0  0  0
  -19.1558  -28.8867   23.2855 C   0  0  0  0  0  0
  -18.9475  -30.1465   23.8877 C   0  0  0  0  0  0
  -17.6472  -30.6587   24.0554 C   0  0  0  0  0  0
  -25.9071  -34.9427   23.5069 C   0  0  0  0  0  0
  -16.5363  -29.9082   23.6330 C   0  0  0  0  0  0
  -16.7286  -28.6499   23.0351 C   0  0  0  0  0  0
  -26.4515  -31.6567   25.0699 C   0  0  0  0  0  0
  -25.3715  -31.3743   26.1405 C   0  0  0  0  0  0
  -27.0370  -30.2974   24.6225 C   0  0  0  0  0  0
  -27.6042  -32.4327   25.7495 C   0  0  0  0  0  0
  -27.5577  -37.1791   24.8462 C   0  0  0  0  0  0
  -21.4239  -29.3048   22.3630 N   0  0  0  0  0  0
  -26.4284  -37.3761   23.9410 N   0  0  0  0  0  0
  -24.7087  -31.0386   22.0904 N   0  0  0  0  0  0
  -23.4207  -28.8129   23.3023 O   0  0  0  0  0  0
  -28.2999  -26.2490   20.2263 O   0  0  0  0  0  0
  -26.5655  -34.8922   22.4647 O   0  0  0  0  0  0
  -23.5515  -32.1347   23.7148 O   0  0  0  0  0  0
  -29.3190  -19.7450   19.3011 C   0  0  0  0  0  0
  -29.6904  -19.7444   21.6292 C   0  0  0  0  0  0
  -29.6967  -18.9560   20.4382 C   0  0  0  0  0  0
  -29.1512  -21.9833   20.5117 C   0  0  0  0  0  0
  -29.0582  -21.1742   19.3272 C   0  0  0  0  0  0
  -29.4362  -21.1701   21.6714 C   0  0  0  0  0  0
  -30.5643  -24.0438   19.8840 C   0  0  0  0  0  0
  -30.4073  -17.4867   20.3215 C   0  0  0  0  0  0
  -28.0857  -24.7309   20.0815 C   0  0  0  0  0  0
  -29.2346  -23.6321   20.5390 C   0  0  1  0  0  0
  -29.8694  -16.0511   20.5856 N   0  0  0  0  0  0
  -28.7041  -21.9397   17.8199 Cl  0  0  0  0  0  0
  -29.5887  -21.9151   23.2248 Cl  0  0  0  0  0  0
  -31.4706  -12.6534   19.1918 H   0  0  0  0  0  0
  -30.3921  -11.5640   20.0136 H   0  0  0  0  0  0
  -29.8202  -11.7235   17.5638 H   0  0  0  0  0  0
  -29.6369  -13.4541   17.7058 H   0  0  0  0  0  0
  -27.9073  -11.2855   18.9316 H   0  0  0  0  0  0
  -27.3942  -12.5088   17.7990 H   0  0  0  0  0  0
  -27.6093  -14.2580   19.4350 H   0  0  0  0  0  0
  -28.7372  -12.2594   21.4510 H   0  0  0  0  0  0
  -28.3938  -13.9472   21.7633 H   0  0  0  0  0  0
  -25.2782   -9.5695   22.4757 H   0  0  0  0  0  0
  -24.0015   -7.4647   22.7469 H   0  0  0  0  0  0
  -21.0851   -8.8797   19.8950 H   0  0  0  0  0  0
  -22.3714  -10.9691   19.6169 H   0  0  0  0  0  0
  -21.2012   -7.6149   23.9719 H   0  0  0  0  0  0
  -21.1477   -6.0514   25.9075 H   0  0  0  0  0  0
  -22.0598   -2.7612   23.2841 H   0  0  0  0  0  0
  -22.4053  -11.9907   22.4854 H   0  0  0  0  0  0
  -21.1058  -13.1252   22.2581 H   0  0  0  0  0  0
  -24.6487  -15.8499   20.5245 H   0  0  0  0  0  0
  -26.2573  -15.6357   20.0629 H   0  0  0  0  0  0
  -26.7246  -32.5350   23.1015 H   0  0  0  0  0  0
  -25.0072  -33.9647   25.0335 H   0  0  0  0  0  0
  -22.7394  -31.2921   21.3830 H   0  0  0  0  0  0
  -23.3762  -35.9590   23.3285 H   0  0  0  0  0  0
  -24.3570  -36.8919   22.2055 H   0  0  0  0  0  0
  -23.7233  -37.6457   23.6686 H   0  0  0  0  0  0
  -26.1341  -31.4946   20.6043 H   0  0  0  0  0  0
  -26.8641  -30.7927   22.0141 H   0  0  0  0  0  0
  -28.1261  -28.8548   21.2230 H   0  0  0  0  0  0
  -25.9435  -25.8522   19.0214 H   0  0  0  0  0  0
  -23.9801  -27.2871   18.9960 H   0  0  0  0  0  0
  -23.7908  -30.5691   19.3962 H   0  0  0  0  0  0
  -22.7773  -29.2327   19.8473 H   0  0  0  0  0  0
  -25.1306  -36.1878   25.0804 H   0  0  0  0  0  0
  -21.0004  -28.3297   24.1366 H   0  0  0  0  0  0
  -20.5683  -26.2328   23.3623 H   0  0  0  0  0  0
  -21.6659  -26.7430   22.1206 H   0  0  0  0  0  0
  -19.6930  -25.6283   21.1260 H   0  0  0  0  0  0
  -19.6702  -27.3170   20.6734 H   0  0  0  0  0  0
  -17.4216  -26.6667   21.4021 H   0  0  0  0  0  0
  -18.0343  -26.0064   22.9015 H   0  0  0  0  0  0
  -19.7955  -30.7288   24.2231 H   0  0  0  0  0  0
  -17.5029  -31.6266   24.5160 H   0  0  0  0  0  0
  -15.5363  -30.2981   23.7667 H   0  0  0  0  0  0
  -15.8686  -28.0816   22.7077 H   0  0  0  0  0  0
  -24.5879  -30.7110   25.7726 H   0  0  0  0  0  0
  -24.8926  -32.2924   26.4815 H   0  0  0  0  0  0
  -25.8008  -30.8918   27.0193 H   0  0  0  0  0  0
  -26.2964  -29.6713   24.1233 H   0  0  0  0  0  0
  -27.4016  -29.7249   25.4765 H   0  0  0  0  0  0
  -27.8858  -30.4237   23.9502 H   0  0  0  0  0  0
  -27.2619  -33.3628   26.2047 H   0  0  0  0  0  0
  -28.3873  -32.6890   25.0348 H   0  0  0  0  0  0
  -28.0688  -31.8473   26.5439 H   0  0  0  0  0  0
  -28.2582  -38.0099   24.7525 H   0  0  0  0  0  0
  -28.1086  -36.2634   24.6268 H   0  0  0  0  0  0
  -27.2300  -37.1412   25.8865 H   0  0  0  0  0  0
  -20.9446  -29.8754   21.6806 H   0  0  0  0  0  0
  -26.0157  -38.2828   24.1424 H   0  0  0  0  0  0
  -29.3132  -19.2583   18.3366 H   0  0  0  0  0  0
  -29.9875  -19.2630   22.5508 H   0  0  0  0  0  0
  -31.4046  -23.5038   20.3208 H   0  0  0  0  0  0
  -30.7578  -25.1084   20.0173 H   0  0  0  0  0  0
  -30.5640  -23.8425   18.8134 H   0  0  0  0  0  0
  -31.3026  -17.5654   20.9394 H   0  0  0  0  0  0
  -30.7995  -17.4499   19.3043 H   0  0  0  0  0  0
  -27.1783  -24.4827   20.6329 H   0  0  0  0  0  0
  -27.8560  -24.5453   19.0320 H   0  0  0  0  0  0
  -29.3669  -23.8841   21.5881 H   0  0  0  0  0  0
  -28.8860  -15.9658   20.7919 H   0  0  0  0  0  0
  1 25  1  0  0  0
  1 30  2  0  0  0
  1 81  1  0  0  0
  2  3  1  0  0  0
  2 25  1  0  0  0
  2 84  1  0  0  0
  2 85  1  0  0  0
  3  4  1  0  0  0
  3 86  1  0  0  0
  3 87  1  0  0  0
  4  5  1  0  0  0
  4 88  1  0  0  0
  4 89  1  0  0  0
  5  6  1  0  0  0
  5 26  1  0  0  0
  5 90  1  0  0  0
  6 25  1  0  0  0
  6 91  1  0  0  0
  6 92  1  0  0  0
  7  8  2  0  0  0
  7 26  1  0  0  0
  7 29  1  0  0  0
  8  9  1  0  0  0
  8 22  1  0  0  0
  9 10  1  0  0  0
  9 27  2  0  0  0
 10 11  2  0  0  0
 10 15  1  0  0  0
 11 12  1  0  0  0
 11 93  1  0  0  0
 12 13  2  0  0  0
 12 94  1  0  0  0
 13 14  1  0  0  0
 13 31  1  0  0  0
 14 15  2  0  0  0
 14 95  1  0  0  0
 15 96  1  0  0  0
 16 17  2  0  0  0
 16 21  1  0  0  0
 16 31  1  0  0  0
 17 18  1  0  0  0
 17 97  1  0  0  0
 18 19  2  0  0  0
 18 98  1  0  0  0
 19 20  1  0  0  0
 19 24  1  0  0  0
 20 21  2  0  0  0
 20 99  1  0  0  0
 21 23  1  0  0  0
 22 28  1  0  0  0
 22 32  2  0  0  0
 26 27  1  0  0  0
 28100  1  0  0  0
 28101  1  0  0  0
 29102  1  0  0  0
 29103  1  0  0  0
 33 34  1  0  0  0
 33 66  1  0  0  0
 33 70  2  0  0  0
 34 36  1  0  0  0
 34 59  1  0  0  0
 34104  1  0  0  0
 35 44  2  0  0  0
 35 45  1  0  0  0
 35 68  1  0  0  0
 36 56  1  0  0  0
 36105  1  0  0  0
 37 39  1  0  0  0
 37 47  1  0  0  0
 37 66  1  0  0  0
 37106  1  0  0  0
 38 43  2  0  0  0
 38 46  1  0  0  0
 38 47  1  0  0  0
 39 64  1  0  0  0
 39 67  2  0  0  0
 40 52  1  0  0  0
 40 53  2  0  0  0
 40 58  1  0  0  0
 41107  1  0  0  0
 41108  1  0  0  0
 41109  1  0  0  0
 41 48  1  0  0  0
 42 43  1  0  0  0
 42 66  1  0  0  0
 42110  1  0  0  0
 42111  1  0  0  0
 43 44  1  0  0  0
 44112  1  0  0  0
 45 46  2  0  0  0
 45113  1  0  0  0
 46114  1  0  0  0
 47115  1  0  0  0
 47116  1  0  0  0
 48 56  1  0  0  0
 48 65  1  0  0  0
 48117  1  0  0  0
 49 50  1  0  0  0
 49 53  1  0  0  0
 49 64  1  0  0  0
 49118  1  0  0  0
 50 51  1  0  0  0
 50119  1  0  0  0
 50120  1  0  0  0
 51 52  1  0  0  0
 51121  1  0  0  0
 51122  1  0  0  0
 52123  1  0  0  0
 52124  1  0  0  0
 53 54  1  0  0  0
 54 55  2  0  0  0
 54125  1  0  0  0
 55 57  1  0  0  0
 55126  1  0  0  0
 56 69  2  0  0  0
 57 58  2  0  0  0
 57127  1  0  0  0
 58128  1  0  0  0
 59 60  1  0  0  0
 59 61  1  0  0  0
 59 62  1  0  0  0
 60129  1  0  0  0
 60130  1  0  0  0
 60131  1  0  0  0
 61132  1  0  0  0
 61133  1  0  0  0
 61134  1  0  0  0
 62135  1  0  0  0
 62136  1  0  0  0
 62137  1  0  0  0
 63 65  1  0  0  0
 63138  1  0  0  0
 63139  1  0  0  0
 63140  1  0  0  0
 64141  1  0  0  0
 65142  1  0  0  0
 68 79  1  0  0  0
 71 73  2  0  0  0
 71 75  1  0  0  0
 71143  1  0  0  0
 72 73  1  0  0  0
 72 76  2  0  0  0
 72144  1  0  0  0
 73 78  1  0  0  0
 74 75  2  0  0  0
 74 76  1  0  0  0
 74 80  1  0  0  0
 75 82  1  0  0  0
 76 83  1  0  0  0
 77145  1  0  0  0
 77146  1  0  0  0
 77147  1  0  0  0
 77 80  1  0  0  0
 78 81  1  0  0  0
 78148  1  0  0  0
 78149  1  0  0  0
 79 80  1  0  0  0
 79150  1  0  0  0
 79151  1  0  0  0
 80152  1  0  0  0
 81153  1  0  0  0
M  ISO  4   1 100  68 101  79 101  81 100
M  END
> <chiral flag>
0

> <version>
0

> <s_m_source_file>
/data/baiqing/PycharmProjects/Reinvent-master-3.2/result/LINK_invent/BTK/process_docking_weight1_custom_sum_contain_oxygen_bond_distance_aromatic_linkinvent_7_9_3/rearranged_h_0030.sdf

> <i_m_source_file_index>
38

> <r_mmod_Potential_Energy-OPLS-2005>
315.316223144531

> <r_mmod_Stretch_Energy-OPLS-2005>
188.595260620117

> <r_mmod_Bend_Energy-OPLS-2005>
232.908386230469

> <r_mmod_Torsional_Energy-OPLS-2005>
229.390914916992

> <r_mmod_Improper_Torsional_Energy-OPLS-2005>
9.83024024963379

> <r_mmod_Van_der_Waal_Energy-OPLS-2005>
132.764953613281

> <r_mmod_Electrostatic_Energy-OPLS-2005>
-410.254119873047

> <r_mmod_Solvation_Energy-OPLS-2005>
-206.442138671875

> <b_mmod_Minimization_Converged-OPLS-2005>
0

> <r_mmod_RMS_Derivative-OPLS-2005>
1.32504737377167

$$$$
38
                    3D
 Structure written by MMmdl.
147155  0  0  1  0            999 V2000
  -30.4791  -15.1826   20.3806 C   0  0  0  0  0  0
  -30.4374  -12.7511   19.5174 C   0  0  0  0  0  0
  -29.5304  -12.5597   18.2777 C   0  0  0  0  0  0
  -28.0746  -12.3017   18.7043 C   0  0  0  0  0  0
  -27.6147  -13.2695   19.8243 C   0  0  2  0  0  0
  -28.6521  -13.4144   20.9578 C   0  0  0  0  0  0
  -25.2403  -13.8242   20.5744 C   0  0  0  0  0  0
  -24.1747  -13.0438   20.9255 C   0  0  0  0  0  0
  -24.6397  -11.6933   20.8762 C   0  0  0  0  0  0
  -23.9090  -10.4292   21.0408 C   0  0  0  0  0  0
  -24.3634   -9.4206   21.9188 C   0  0  0  0  0  0
  -23.6302   -8.2243   22.0758 C   0  0  0  0  0  0
  -22.4284   -8.0283   21.3547 C   0  0  0  0  0  0
  -21.9926   -9.0258   20.4648 C   0  0  0  0  0  0
  -22.7260  -10.2135   20.3057 C   0  0  0  0  0  0
  -21.6855   -6.0739   22.5280 C   0  0  0  0  0  0
  -21.4015   -6.5641   23.8214 C   0  0  0  0  0  0
  -21.3660   -5.6793   24.9176 C   0  0  0  0  0  0
  -21.6043   -4.3056   24.7224 C   0  0  0  0  0  0
  -21.8818   -3.8149   23.4344 C   0  0  0  0  0  0
  -21.9192   -4.6966   22.3402 C   0  0  0  0  0  0
  -22.7764  -13.5191   21.1900 C   0  0  0  0  0  0
  -22.1661   -4.2151   21.0980 F   0  0  0  0  0  0
  -21.5629   -3.4540   25.7737 F   0  0  0  0  0  0
  -29.8946  -13.8935   20.3334 N   0  0  0  0  0  0
  -26.2830  -12.9510   20.3224 N   0  0  0  0  0  0
  -25.9332  -11.6621   20.5725 N   0  0  0  0  0  0
  -22.0421  -12.8175   22.0454 N   0  0  0  0  0  0
  -25.4042  -15.1976   20.4184 N   0  0  0  0  0  0
  -31.6990  -15.1812   20.1694 O   0  0  0  0  0  0
  -21.6642   -6.8883   21.4241 O   0  0  0  0  0  0
  -22.3442  -14.5490   20.6735 O   0  0  0  0  0  0
  -24.6595  -31.8284   23.1757 C   0  0  0  0  0  0
  -25.9295  -32.4612   23.8203 C   0  0  1  0  0  0
  -27.2147  -26.9745   20.1720 C   0  0  0  0  0  0
  -25.5981  -33.8427   24.2111 N   0  0  0  0  0  0
  -23.4715  -30.4438   21.5242 C   0  0  2  0  0  0
  -24.9239  -28.8441   20.1110 C   0  0  0  0  0  0
  -22.7647  -29.4473   22.4798 C   0  0  0  0  0  0
  -18.0318  -28.1411   22.8470 C   0  0  0  0  0  0
  -24.1495  -36.7220   23.2648 C   0  0  0  0  0  0
  -26.0395  -30.6502   21.3994 C   0  0  0  0  0  0
  -26.1079  -29.2458   20.7421 C   0  0  0  0  0  0
  -27.2506  -28.3313   20.7507 C   0  0  0  0  0  0
  -26.0020  -26.7206   19.4902 C   0  0  0  0  0  0
  -24.8937  -27.6003   19.4655 C   0  0  0  0  0  0
  -23.7081  -29.7659   20.1479 C   0  0  0  0  0  0
  -25.4133  -36.2983   24.0304 C   0  0  1  0  0  0
  -20.5944  -28.3751   23.1196 C   0  0  2  0  0  0
  -20.6801  -26.9436   22.5403 C   0  0  0  0  0  0
  -19.5774  -26.6382   21.5215 C   0  0  0  0  0  0
  -18.1955  -26.7946   22.1623 C   0  0  0  0  0  0
  -19.1580  -28.8899   23.2823 C   0  0  0  0  0  0
  -18.9492  -30.1493   23.8853 C   0  0  0  0  0  0
  -17.6486  -30.6600   24.0557 C   0  0  0  0  0  0
  -25.9094  -34.9361   23.5022 C   0  0  0  0  0  0
  -16.5377  -29.9088   23.6343 C   0  0  0  0  0  0
  -16.7301  -28.6509   23.0359 C   0  0  0  0  0  0
  -26.4558  -31.6538   25.0708 C   0  0  0  0  0  0
  -25.3700  -31.3782   26.1376 C   0  0  0  0  0  0
  -27.0444  -30.2912   24.6409 C   0  0  0  0  0  0
  -27.6065  -32.4333   25.7500 C   0  0  0  0  0  0
  -27.5566  -37.1774   24.8471 C   0  0  0  0  0  0
  -21.4320  -29.3054   22.3547 N   0  0  0  0  0  0
  -26.4286  -37.3710   23.9398 N   0  0  0  0  0  0
  -24.7446  -30.9994   22.0870 N   0  0  0  0  0  0
  -23.4215  -28.8034   23.3017 O   0  0  0  0  0  0
  -28.2052  -25.8717   20.2521 O   0  0  0  0  0  0
  -26.5691  -34.8886   22.4611 O   0  0  0  0  0  0
  -23.5672  -32.1229   23.6875 O   0  0  0  0  0  0
  -29.6797  -20.5790   19.2606 C   0  0  0  0  0  0
  -28.3352  -21.7885   21.2918 C   0  0  0  0  0  0
  -29.4394  -19.6058   20.3190 C   0  0  0  0  0  0
  -28.5770  -22.7597   20.2283 C   0  0  0  0  0  0
  -28.7346  -20.3560   21.3506 C   0  0  0  0  0  0
  -29.2830  -22.0075   19.2009 C   0  0  0  0  0  0
  -30.1803  -18.0349   20.3942 C   0  0  0  0  0  0
  -27.8087  -24.3078   20.0587 C   0  0  0  0  0  0
  -29.7392  -16.4511   20.4584 N   0  0  0  0  0  0
  -28.3440  -19.5028   22.7987 Cl  0  0  0  0  0  0
  -29.6738  -22.8475   17.7439 Cl  0  0  0  0  0  0
  -31.4610  -12.9385   19.1904 H   0  0  0  0  0  0
  -30.4827  -11.8362   20.1105 H   0  0  0  0  0  0
  -29.8939  -11.7350   17.6632 H   0  0  0  0  0  0
  -29.5762  -13.4524   17.6522 H   0  0  0  0  0  0
  -28.0154  -11.2734   19.0633 H   0  0  0  0  0  0
  -27.4065  -12.3641   17.8445 H   0  0  0  0  0  0
  -27.5398  -14.2438   19.3404 H   0  0  0  0  0  0
  -28.8011  -12.4721   21.4872 H   0  0  0  0  0  0
  -28.3083  -14.1382   21.6987 H   0  0  0  0  0  0
  -25.2778   -9.5680   22.4767 H   0  0  0  0  0  0
  -24.0008   -7.4633   22.7477 H   0  0  0  0  0  0
  -21.0859   -8.8777   19.8952 H   0  0  0  0  0  0
  -22.3718  -10.9674   19.6165 H   0  0  0  0  0  0
  -21.2008   -7.6151   23.9717 H   0  0  0  0  0  0
  -21.1483   -6.0525   25.9079 H   0  0  0  0  0  0
  -22.0595   -2.7610   23.2843 H   0  0  0  0  0  0
  -22.4048  -11.9842   22.4845 H   0  0  0  0  0  0
  -21.1033  -13.1183   22.2652 H   0  0  0  0  0  0
  -24.6352  -15.8483   20.5365 H   0  0  0  0  0  0
  -26.2457  -15.6409   20.0744 H   0  0  0  0  0  0
  -26.7357  -32.5161   23.0914 H   0  0  0  0  0  0
  -25.0094  -33.9518   25.0236 H   0  0  0  0  0  0
  -22.7830  -31.2751   21.3583 H   0  0  0  0  0  0
  -23.3757  -35.9553   23.3305 H   0  0  0  0  0  0
  -24.3574  -36.8859   22.2063 H   0  0  0  0  0  0
  -23.7255  -37.6414   23.6697 H   0  0  0  0  0  0
  -26.2149  -31.3940   20.6213 H   0  0  0  0  0  0
  -26.9023  -30.7052   22.0516 H   0  0  0  0  0  0
  -28.1457  -28.6350   21.2749 H   0  0  0  0  0  0
  -25.8632  -25.7756   18.9889 H   0  0  0  0  0  0
  -23.9945  -27.2879   18.9529 H   0  0  0  0  0  0
  -23.8600  -30.5373   19.3918 H   0  0  0  0  0  0
  -22.8183  -29.2192   19.8301 H   0  0  0  0  0  0
  -25.1334  -36.1790   25.0798 H   0  0  0  0  0  0
  -21.0037  -28.3351   24.1318 H   0  0  0  0  0  0
  -20.5688  -26.2367   23.3641 H   0  0  0  0  0  0
  -21.6662  -26.7421   22.1206 H   0  0  0  0  0  0
  -19.6931  -25.6282   21.1270 H   0  0  0  0  0  0
  -19.6708  -27.3170   20.6728 H   0  0  0  0  0  0
  -17.4224  -26.6689   21.4025 H   0  0  0  0  0  0
  -18.0349  -26.0103   22.9033 H   0  0  0  0  0  0
  -19.7968  -30.7326   24.2199 H   0  0  0  0  0  0
  -17.5037  -31.6275   24.5170 H   0  0  0  0  0  0
  -15.5375  -30.2975   23.7700 H   0  0  0  0  0  0
  -15.8702  -28.0817   22.7094 H   0  0  0  0  0  0
  -24.5893  -30.7111   25.7696 H   0  0  0  0  0  0
  -24.8876  -32.2983   26.4689 H   0  0  0  0  0  0
  -25.7952  -30.9027   27.0225 H   0  0  0  0  0  0
  -26.3100  -29.6603   24.1391 H   0  0  0  0  0  0
  -27.3965  -29.7258   25.5048 H   0  0  0  0  0  0
  -27.9047  -30.4106   23.9820 H   0  0  0  0  0  0
  -27.2648  -33.3679   26.1965 H   0  0  0  0  0  0
  -28.3938  -32.6821   25.0368 H   0  0  0  0  0  0
  -28.0667  -31.8529   26.5508 H   0  0  0  0  0  0
  -28.2595  -38.0057   24.7482 H   0  0  0  0  0  0
  -28.1047  -36.2584   24.6345 H   0  0  0  0  0  0
  -27.2277  -37.1473   25.8873 H   0  0  0  0  0  0
  -20.9562  -29.8746   21.6687 H   0  0  0  0  0  0
  -26.0136  -38.2774   24.1389 H   0  0  0  0  0  0
  -30.2365  -20.2145   18.4094 H   0  0  0  0  0  0
  -27.7681  -22.1530   22.1355 H   0  0  0  0  0  0
  -30.8293  -18.1294   21.2654 H   0  0  0  0  0  0
  -30.8813  -18.0540   19.5589 H   0  0  0  0  0  0
  -26.9078  -24.1981   20.6630 H   0  0  0  0  0  0
  -27.4468  -24.2647   19.0323 H   0  0  0  0  0  0
  -28.7457  -16.3168   20.5722 H   0  0  0  0  0  0
  1 25  1  0  0  0
  1 30  2  0  0  0
  1 79  1  0  0  0
  2  3  1  0  0  0
  2 25  1  0  0  0
  2 82  1  0  0  0
  2 83  1  0  0  0
  3  4  1  0  0  0
  3 84  1  0  0  0
  3 85  1  0  0  0
  4  5  1  0  0  0
  4 86  1  0  0  0
  4 87  1  0  0  0
  5  6  1  0  0  0
  5 26  1  0  0  0
  5 88  1  0  0  0
  6 25  1  0  0  0
  6 89  1  0  0  0
  6 90  1  0  0  0
  7  8  2  0  0  0
  7 26  1  0  0  0
  7 29  1  0  0  0
  8  9  1  0  0  0
  8 22  1  0  0  0
  9 10  1  0  0  0
  9 27  2  0  0  0
 10 11  2  0  0  0
 10 15  1  0  0  0
 11 12  1  0  0  0
 11 91  1  0  0  0
 12 13  2  0  0  0
 12 92  1  0  0  0
 13 14  1  0  0  0
 13 31  1  0  0  0
 14 15  2  0  0  0
 14 93  1  0  0  0
 15 94  1  0  0  0
 16 17  2  0  0  0
 16 21  1  0  0  0
 16 31  1  0  0  0
 17 18  1  0  0  0
 17 95  1  0  0  0
 18 19  2  0  0  0
 18 96  1  0  0  0
 19 20  1  0  0  0
 19 24  1  0  0  0
 20 21  2  0  0  0
 20 97  1  0  0  0
 21 23  1  0  0  0
 22 28  1  0  0  0
 22 32  2  0  0  0
 26 27  1  0  0  0
 28 98  1  0  0  0
 28 99  1  0  0  0
 29100  1  0  0  0
 29101  1  0  0  0
 33 34  1  0  0  0
 33 66  1  0  0  0
 33 70  2  0  0  0
 34 36  1  0  0  0
 34 59  1  0  0  0
 34102  1  0  0  0
 35 44  2  0  0  0
 35 45  1  0  0  0
 35 68  1  0  0  0
 36 56  1  0  0  0
 36103  1  0  0  0
 37 39  1  0  0  0
 37 47  1  0  0  0
 37 66  1  0  0  0
 37104  1  0  0  0
 38 43  2  0  0  0
 38 46  1  0  0  0
 38 47  1  0  0  0
 39 64  1  0  0  0
 39 67  2  0  0  0
 40 52  1  0  0  0
 40 53  2  0  0  0
 40 58  1  0  0  0
 41105  1  0  0  0
 41106  1  0  0  0
 41107  1  0  0  0
 41 48  1  0  0  0
 42 43  1  0  0  0
 42 66  1  0  0  0
 42108  1  0  0  0
 42109  1  0  0  0
 43 44  1  0  0  0
 44110  1  0  0  0
 45 46  2  0  0  0
 45111  1  0  0  0
 46112  1  0  0  0
 47113  1  0  0  0
 47114  1  0  0  0
 48 56  1  0  0  0
 48 65  1  0  0  0
 48115  1  0  0  0
 49 50  1  0  0  0
 49 53  1  0  0  0
 49 64  1  0  0  0
 49116  1  0  0  0
 50 51  1  0  0  0
 50117  1  0  0  0
 50118  1  0  0  0
 51 52  1  0  0  0
 51119  1  0  0  0
 51120  1  0  0  0
 52121  1  0  0  0
 52122  1  0  0  0
 53 54  1  0  0  0
 54 55  2  0  0  0
 54123  1  0  0  0
 55 57  1  0  0  0
 55124  1  0  0  0
 56 69  2  0  0  0
 57 58  2  0  0  0
 57125  1  0  0  0
 58126  1  0  0  0
 59 60  1  0  0  0
 59 61  1  0  0  0
 59 62  1  0  0  0
 60127  1  0  0  0
 60128  1  0  0  0
 60129  1  0  0  0
 61130  1  0  0  0
 61131  1  0  0  0
 61132  1  0  0  0
 62133  1  0  0  0
 62134  1  0  0  0
 62135  1  0  0  0
 63 65  1  0  0  0
 63136  1  0  0  0
 63137  1  0  0  0
 63138  1  0  0  0
 64139  1  0  0  0
 65140  1  0  0  0
 68 78  1  0  0  0
 71 73  2  0  0  0
 71 76  1  0  0  0
 71141  1  0  0  0
 72 74  1  0  0  0
 72 75  2  0  0  0
 72142  1  0  0  0
 73 75  1  0  0  0
 73 77  1  0  0  0
 74 76  2  0  0  0
 74 78  1  0  0  0
 75 80  1  0  0  0
 76 81  1  0  0  0
 77 79  1  0  0  0
 77143  1  0  0  0
 77144  1  0  0  0
 78145  1  0  0  0
 78146  1  0  0  0
 79147  1  0  0  0
M  ISO  4   1 100  68 101  78 101  79 100
M  END
> <chiral flag>
0

> <version>
0

> <s_m_source_file>
/data/baiqing/PycharmProjects/Reinvent-master-3.2/result/LINK_invent/BTK/process_docking_weight1_custom_sum_contain_oxygen_bond_distance_aromatic_linkinvent_7_9_3/rearranged_h_0030.sdf

> <i_m_source_file_index>
39

> <r_mmod_Potential_Energy-OPLS-2005>
1006.21594238281

> <r_mmod_Stretch_Energy-OPLS-2005>
445.494445800781

> <r_mmod_Bend_Energy-OPLS-2005>
410.511474609375

> <r_mmod_Torsional_Energy-OPLS-2005>
227.678451538086

> <r_mmod_Improper_Torsional_Energy-OPLS-2005>
9.72424793243408

> <r_mmod_Van_der_Waal_Energy-OPLS-2005>
128.632690429688

> <r_mmod_Electrostatic_Energy-OPLS-2005>
-387.786926269531

> <r_mmod_Solvation_Energy-OPLS-2005>
-213.734100341797

> <b_mmod_Minimization_Converged-OPLS-2005>
0

> <r_mmod_RMS_Derivative-OPLS-2005>
0.687332689762115

$$$$
39
                    3D
 Structure written by MMmdl.
153161  0  0  1  0            999 V2000
  -30.6980  -14.5900   20.5227 C   0  0  0  0  0  0
  -30.4199  -12.3714   19.4480 C   0  0  0  0  0  0
  -29.4977  -12.4967   18.2184 C   0  0  0  0  0  0
  -28.0222  -12.3455   18.6346 C   0  0  0  0  0  0
  -27.6503  -13.2244   19.8593 C   0  0  2  0  0  0
  -28.6970  -13.1014   20.9893 C   0  0  0  0  0  0
  -25.2543  -13.8194   20.5685 C   0  0  0  0  0  0
  -24.1820  -13.0445   20.9190 C   0  0  0  0  0  0
  -24.6401  -11.6920   20.8746 C   0  0  0  0  0  0
  -23.9071  -10.4295   21.0407 C   0  0  0  0  0  0
  -24.3621   -9.4210   21.9185 C   0  0  0  0  0  0
  -23.6295   -8.2247   22.0755 C   0  0  0  0  0  0
  -22.4278   -8.0283   21.3545 C   0  0  0  0  0  0
  -21.9914   -9.0258   20.4647 C   0  0  0  0  0  0
  -22.7244  -10.2136   20.3056 C   0  0  0  0  0  0
  -21.6854   -6.0735   22.5277 C   0  0  0  0  0  0
  -21.4016   -6.5638   23.8211 C   0  0  0  0  0  0
  -21.3661   -5.6792   24.9172 C   0  0  0  0  0  0
  -21.6046   -4.3055   24.7225 C   0  0  0  0  0  0
  -21.8819   -3.8146   23.4345 C   0  0  0  0  0  0
  -21.9194   -4.6963   22.3402 C   0  0  0  0  0  0
  -22.7840  -13.5226   21.1854 C   0  0  0  0  0  0
  -22.1660   -4.2147   21.0980 F   0  0  0  0  0  0
  -21.5631   -3.4539   25.7738 F   0  0  0  0  0  0
  -30.0126  -13.4112   20.4133 N   0  0  0  0  0  0
  -26.2982  -12.9394   20.3326 N   0  0  0  0  0  0
  -25.9335  -11.6539   20.5775 N   0  0  0  0  0  0
  -22.0489  -12.8214   22.0410 N   0  0  0  0  0  0
  -25.4236  -15.1913   20.4079 N   0  0  0  0  0  0
  -31.8643  -14.6843   20.1345 O   0  0  0  0  0  0
  -21.6642   -6.8880   21.4239 O   0  0  0  0  0  0
  -22.3517  -14.5531   20.6703 O   0  0  0  0  0  0
  -24.6244  -31.8634   23.2076 C   0  0  0  0  0  0
  -25.9103  -32.4793   23.8385 C   0  0  1  0  0  0
  -27.2149  -27.3399   20.1031 C   0  0  0  0  0  0
  -25.5934  -33.8593   24.2309 N   0  0  0  0  0  0
  -23.4155  -30.4919   21.5504 C   0  0  2  0  0  0
  -24.8590  -28.9591   20.1082 C   0  0  0  0  0  0
  -22.7467  -29.4647   22.4946 C   0  0  0  0  0  0
  -18.0287  -28.1381   22.8482 C   0  0  0  0  0  0
  -24.1491  -36.7298   23.2639 C   0  0  0  0  0  0
  -25.9574  -30.7993   21.3777 C   0  0  0  0  0  0
  -26.0290  -29.4306   20.7169 C   0  0  0  0  0  0
  -27.2089  -28.6305   20.7119 C   0  0  0  0  0  0
  -26.0227  -26.9334   19.4524 C   0  0  0  0  0  0
  -24.8567  -27.7137   19.4691 C   0  0  0  0  0  0
  -23.6276  -29.8366   20.1624 C   0  0  0  0  0  0
  -25.4111  -36.3089   24.0339 C   0  0  1  0  0  0
  -20.5889  -28.3684   23.1284 C   0  0  2  0  0  0
  -20.6779  -26.9407   22.5409 C   0  0  0  0  0  0
  -19.5748  -26.6386   21.5212 C   0  0  0  0  0  0
  -18.1927  -26.7922   22.1625 C   0  0  0  0  0  0
  -19.1540  -28.8848   23.2879 C   0  0  0  0  0  0
  -18.9464  -30.1450   23.8893 C   0  0  0  0  0  0
  -17.6466  -30.6583   24.0563 C   0  0  0  0  0  0
  -25.9052  -34.9459   23.5119 C   0  0  0  0  0  0
  -16.5355  -29.9085   23.6328 C   0  0  0  0  0  0
  -16.7274  -28.6504   23.0342 C   0  0  0  0  0  0
  -26.4494  -31.6589   25.0739 C   0  0  0  0  0  0
  -25.3732  -31.3720   26.1468 C   0  0  0  0  0  0
  -27.0325  -30.3016   24.6166 C   0  0  0  0  0  0
  -27.6060  -32.4315   25.7504 C   0  0  0  0  0  0
  -27.5578  -37.1805   24.8466 C   0  0  0  0  0  0
  -21.4186  -29.3045   22.3682 N   0  0  0  0  0  0
  -26.4289  -37.3783   23.9413 N   0  0  0  0  0  0
  -24.6846  -31.0670   22.1021 N   0  0  0  0  0  0
  -23.4203  -28.8171   23.3003 O   0  0  0  0  0  0
  -28.3228  -26.4787   20.1694 O   0  0  0  0  0  0
  -26.5611  -34.8920   22.4680 O   0  0  0  0  0  0
  -23.5414  -32.1433   23.7414 O   0  0  0  0  0  0
  -28.4047  -20.2427   21.1756 C   0  0  0  0  0  0
  -30.7083  -19.2570   19.9596 C   0  0  0  0  0  0
  -29.0964  -21.1084   20.2864 C   0  0  0  0  0  0
  -30.0165  -18.3897   20.8467 C   0  0  0  0  0  0
  -30.2663  -20.5809   19.6801 C   0  0  0  0  0  0
  -28.8470  -18.9176   21.4543 C   0  0  0  0  0  0
  -28.4625  -22.4735   19.8597 C   0  0  0  0  0  0
  -30.6554  -17.0213   21.2569 C   0  0  0  0  0  0
  -29.0141  -23.8784   20.3428 C   0  0  0  0  0  0
  -28.0620  -25.0551   19.8866 C   0  0  0  0  0  0
  -30.0222  -15.7012   20.9352 N   0  0  0  0  0  0
  -31.1713  -21.5355   18.5607 Cl  0  0  0  0  0  0
  -27.9433  -17.9594   22.5713 Cl  0  0  0  0  0  0
  -31.4643  -12.4626   19.1452 H   0  0  0  0  0  0
  -30.3279  -11.3821   19.8995 H   0  0  0  0  0  0
  -29.7551  -11.7412   17.4750 H   0  0  0  0  0  0
  -29.6490  -13.4645   17.7377 H   0  0  0  0  0  0
  -27.8548  -11.2937   18.8711 H   0  0  0  0  0  0
  -27.3673  -12.5743   17.7930 H   0  0  0  0  0  0
  -27.6646  -14.2572   19.5107 H   0  0  0  0  0  0
  -28.7005  -12.0926   21.4047 H   0  0  0  0  0  0
  -28.4533  -13.7676   21.8182 H   0  0  0  0  0  0
  -25.2766   -9.5686   22.4757 H   0  0  0  0  0  0
  -24.0003   -7.4639   22.7475 H   0  0  0  0  0  0
  -21.0845   -8.8779   19.8951 H   0  0  0  0  0  0
  -22.3705  -10.9676   19.6164 H   0  0  0  0  0  0
  -21.2007   -7.6146   23.9712 H   0  0  0  0  0  0
  -21.1483   -6.0523   25.9075 H   0  0  0  0  0  0
  -22.0598   -2.7609   23.2848 H   0  0  0  0  0  0
  -22.4110  -11.9873   22.4788 H   0  0  0  0  0  0
  -21.1110  -13.1239   22.2624 H   0  0  0  0  0  0
  -24.6590  -15.8471   20.5261 H   0  0  0  0  0  0
  -26.2773  -15.6333   20.0923 H   0  0  0  0  0  0
  -26.7166  -32.5469   23.1135 H   0  0  0  0  0  0
  -25.0078  -33.9743   25.0451 H   0  0  0  0  0  0
  -22.7080  -31.3125   21.4132 H   0  0  0  0  0  0
  -23.3747  -35.9637   23.3311 H   0  0  0  0  0  0
  -24.3583  -36.8902   22.2050 H   0  0  0  0  0  0
  -23.7251  -37.6511   23.6648 H   0  0  0  0  0  0
  -26.0882  -31.5650   20.6115 H   0  0  0  0  0  0
  -26.8389  -30.8446   22.0056 H   0  0  0  0  0  0
  -28.1021  -28.9840   21.2079 H   0  0  0  0  0  0
  -25.9474  -25.9940   18.9256 H   0  0  0  0  0  0
  -23.9627  -27.3504   18.9805 H   0  0  0  0  0  0
  -23.7459  -30.6183   19.4110 H   0  0  0  0  0  0
  -22.7466  -29.2689   19.8570 H   0  0  0  0  0  0
  -25.1287  -36.1950   25.0831 H   0  0  0  0  0  0
  -20.9978  -28.3254   24.1408 H   0  0  0  0  0  0
  -20.5682  -26.2292   23.3611 H   0  0  0  0  0  0
  -21.6644  -26.7444   22.1193 H   0  0  0  0  0  0
  -19.6915  -25.6304   21.1228 H   0  0  0  0  0  0
  -19.6681  -27.3208   20.6749 H   0  0  0  0  0  0
  -17.4197  -26.6673   21.4024 H   0  0  0  0  0  0
  -18.0320  -26.0070   22.9026 H   0  0  0  0  0  0
  -19.7945  -30.7262   24.2259 H   0  0  0  0  0  0
  -17.5026  -31.6264   24.5167 H   0  0  0  0  0  0
  -15.5355  -30.2983   23.7660 H   0  0  0  0  0  0
  -15.8675  -28.0829   22.7046 H   0  0  0  0  0  0
  -24.5907  -30.7070   25.7799 H   0  0  0  0  0  0
  -24.8923  -32.2883   26.4898 H   0  0  0  0  0  0
  -25.8057  -30.8896   27.0239 H   0  0  0  0  0  0
  -26.2890  -29.6783   24.1186 H   0  0  0  0  0  0
  -27.4030  -29.7252   25.4652 H   0  0  0  0  0  0
  -27.8762  -30.4313   23.9382 H   0  0  0  0  0  0
  -27.2673  -33.3607   26.2098 H   0  0  0  0  0  0
  -28.3858  -32.6886   25.0322 H   0  0  0  0  0  0
  -28.0743  -31.8431   26.5404 H   0  0  0  0  0  0
  -28.2596  -38.0100   24.7503 H   0  0  0  0  0  0
  -28.1070  -36.2630   24.6298 H   0  0  0  0  0  0
  -27.2296  -37.1459   25.8869 H   0  0  0  0  0  0
  -20.9352  -29.8801   21.6925 H   0  0  0  0  0  0
  -26.0173  -38.2859   24.1410 H   0  0  0  0  0  0
  -27.4938  -20.5875   21.6429 H   0  0  0  0  0  0
  -31.6177  -18.9117   19.4895 H   0  0  0  0  0  0
  -27.4098  -22.4236   20.1396 H   0  0  0  0  0  0
  -28.4466  -22.4796   18.7691 H   0  0  0  0  0  0
  -30.7604  -17.0482   22.3420 H   0  0  0  0  0  0
  -31.6841  -17.0321   20.8936 H   0  0  0  0  0  0
  -30.0192  -24.0380   19.9523 H   0  0  0  0  0  0
  -29.0945  -23.8849   21.4297 H   0  0  0  0  0  0
  -27.1029  -24.7951   20.3365 H   0  0  0  0  0  0
  -27.9374  -24.9674   18.8063 H   0  0  0  0  0  0
  -29.0504  -15.5860   21.1784 H   0  0  0  0  0  0
  1 25  1  0  0  0
  1 30  2  0  0  0
  1 81  1  0  0  0
  2  3  1  0  0  0
  2 25  1  0  0  0
  2 84  1  0  0  0
  2 85  1  0  0  0
  3  4  1  0  0  0
  3 86  1  0  0  0
  3 87  1  0  0  0
  4  5  1  0  0  0
  4 88  1  0  0  0
  4 89  1  0  0  0
  5  6  1  0  0  0
  5 26  1  0  0  0
  5 90  1  0  0  0
  6 25  1  0  0  0
  6 91  1  0  0  0
  6 92  1  0  0  0
  7  8  2  0  0  0
  7 26  1  0  0  0
  7 29  1  0  0  0
  8  9  1  0  0  0
  8 22  1  0  0  0
  9 10  1  0  0  0
  9 27  2  0  0  0
 10 11  2  0  0  0
 10 15  1  0  0  0
 11 12  1  0  0  0
 11 93  1  0  0  0
 12 13  2  0  0  0
 12 94  1  0  0  0
 13 14  1  0  0  0
 13 31  1  0  0  0
 14 15  2  0  0  0
 14 95  1  0  0  0
 15 96  1  0  0  0
 16 17  2  0  0  0
 16 21  1  0  0  0
 16 31  1  0  0  0
 17 18  1  0  0  0
 17 97  1  0  0  0
 18 19  2  0  0  0
 18 98  1  0  0  0
 19 20  1  0  0  0
 19 24  1  0  0  0
 20 21  2  0  0  0
 20 99  1  0  0  0
 21 23  1  0  0  0
 22 28  1  0  0  0
 22 32  2  0  0  0
 26 27  1  0  0  0
 28100  1  0  0  0
 28101  1  0  0  0
 29102  1  0  0  0
 29103  1  0  0  0
 33 34  1  0  0  0
 33 66  1  0  0  0
 33 70  2  0  0  0
 34 36  1  0  0  0
 34 59  1  0  0  0
 34104  1  0  0  0
 35 44  2  0  0  0
 35 45  1  0  0  0
 35 68  1  0  0  0
 36 56  1  0  0  0
 36105  1  0  0  0
 37 39  1  0  0  0
 37 47  1  0  0  0
 37 66  1  0  0  0
 37106  1  0  0  0
 38 43  2  0  0  0
 38 46  1  0  0  0
 38 47  1  0  0  0
 39 64  1  0  0  0
 39 67  2  0  0  0
 40 52  1  0  0  0
 40 53  2  0  0  0
 40 58  1  0  0  0
 41107  1  0  0  0
 41108  1  0  0  0
 41109  1  0  0  0
 41 48  1  0  0  0
 42 43  1  0  0  0
 42 66  1  0  0  0
 42110  1  0  0  0
 42111  1  0  0  0
 43 44  1  0  0  0
 44112  1  0  0  0
 45 46  2  0  0  0
 45113  1  0  0  0
 46114  1  0  0  0
 47115  1  0  0  0
 47116  1  0  0  0
 48 56  1  0  0  0
 48 65  1  0  0  0
 48117  1  0  0  0
 49 50  1  0  0  0
 49 53  1  0  0  0
 49 64  1  0  0  0
 49118  1  0  0  0
 50 51  1  0  0  0
 50119  1  0  0  0
 50120  1  0  0  0
 51 52  1  0  0  0
 51121  1  0  0  0
 51122  1  0  0  0
 52123  1  0  0  0
 52124  1  0  0  0
 53 54  1  0  0  0
 54 55  2  0  0  0
 54125  1  0  0  0
 55 57  1  0  0  0
 55126  1  0  0  0
 56 69  2  0  0  0
 57 58  2  0  0  0
 57127  1  0  0  0
 58128  1  0  0  0
 59 60  1  0  0  0
 59 61  1  0  0  0
 59 62  1  0  0  0
 60129  1  0  0  0
 60130  1  0  0  0
 60131  1  0  0  0
 61132  1  0  0  0
 61133  1  0  0  0
 61134  1  0  0  0
 62135  1  0  0  0
 62136  1  0  0  0
 62137  1  0  0  0
 63 65  1  0  0  0
 63138  1  0  0  0
 63139  1  0  0  0
 63140  1  0  0  0
 64141  1  0  0  0
 65142  1  0  0  0
 68 80  1  0  0  0
 71 73  2  0  0  0
 71 76  1  0  0  0
 71143  1  0  0  0
 72 74  1  0  0  0
 72 75  2  0  0  0
 72144  1  0  0  0
 73 75  1  0  0  0
 73 77  1  0  0  0
 74 76  2  0  0  0
 74 78  1  0  0  0
 75 82  1  0  0  0
 76 83  1  0  0  0
 77 79  1  0  0  0
 77145  1  0  0  0
 77146  1  0  0  0
 78 81  1  0  0  0
 78147  1  0  0  0
 78148  1  0  0  0
 79 80  1  0  0  0
 79149  1  0  0  0
 79150  1  0  0  0
 80151  1  0  0  0
 80152  1  0  0  0
 81153  1  0  0  0
M  ISO  4   1 100  68 101  80 101  81 100
M  END
> <chiral flag>
0

> <version>
0

> <s_m_source_file>
/data/baiqing/PycharmProjects/Reinvent-master-3.2/result/LINK_invent/BTK/process_docking_weight1_custom_sum_contain_oxygen_bond_distance_aromatic_linkinvent_7_9_3/rearranged_h_0030.sdf

> <i_m_source_file_index>
40

> <r_mmod_Potential_Energy-OPLS-2005>
3.14365649223328

> <r_mmod_Stretch_Energy-OPLS-2005>
66.8105850219727

> <r_mmod_Bend_Energy-OPLS-2005>
137.570220947266

> <r_mmod_Torsional_Energy-OPLS-2005>
203.396560668945

> <r_mmod_Improper_Torsional_Energy-OPLS-2005>
4.8842716217041

> <r_mmod_Van_der_Waal_Energy-OPLS-2005>
150.332794189453

> <r_mmod_Electrostatic_Energy-OPLS-2005>
-399.946563720703

> <r_mmod_Solvation_Energy-OPLS-2005>
-201.608932495117

> <b_mmod_Minimization_Converged-OPLS-2005>
0

> <r_mmod_RMS_Derivative-OPLS-2005>
0.743907630443573

$$$$
40
                    3D
 Structure written by MMmdl.
159167  0  0  1  0            999 V2000
  -30.7808  -14.4018   20.6822 C   0  0  0  0  0  0
  -30.4155  -12.3100   19.4148 C   0  0  0  0  0  0
  -29.4882  -12.5099   18.2018 C   0  0  0  0  0  0
  -28.0131  -12.3707   18.6172 C   0  0  0  0  0  0
  -27.6676  -13.2068   19.8768 C   0  0  2  0  0  0
  -28.7059  -12.9898   20.9999 C   0  0  0  0  0  0
  -25.2648  -13.8162   20.5698 C   0  0  0  0  0  0
  -24.1885  -13.0448   20.9176 C   0  0  0  0  0  0
  -24.6409  -11.6905   20.8723 C   0  0  0  0  0  0
  -23.9058  -10.4293   21.0377 C   0  0  0  0  0  0
  -24.3597   -9.4219   21.9172 C   0  0  0  0  0  0
  -23.6279   -8.2251   22.0753 C   0  0  0  0  0  0
  -22.4270   -8.0280   21.3537 C   0  0  0  0  0  0
  -21.9899   -9.0249   20.4639 C   0  0  0  0  0  0
  -22.7219  -10.2133   20.3044 C   0  0  0  0  0  0
  -21.6860   -6.0729   22.5275 C   0  0  0  0  0  0
  -21.4031   -6.5635   23.8203 C   0  0  0  0  0  0
  -21.3664   -5.6791   24.9169 C   0  0  0  0  0  0
  -21.6040   -4.3050   24.7218 C   0  0  0  0  0  0
  -21.8824   -3.8142   23.4340 C   0  0  0  0  0  0
  -21.9193   -4.6959   22.3392 C   0  0  0  0  0  0
  -22.7905  -13.5269   21.1800 C   0  0  0  0  0  0
  -22.1663   -4.2144   21.0971 F   0  0  0  0  0  0
  -21.5622   -3.4532   25.7725 F   0  0  0  0  0  0
  -30.0438  -13.2813   20.4560 N   0  0  0  0  0  0
  -26.3074  -12.9320   20.3392 N   0  0  0  0  0  0
  -25.9346  -11.6476   20.5781 N   0  0  0  0  0  0
  -22.0509  -12.8289   22.0349 N   0  0  0  0  0  0
  -25.4402  -15.1870   20.4126 N   0  0  0  0  0  0
  -31.8212  -14.6467   20.0639 O   0  0  0  0  0  0
  -21.6639   -6.8870   21.4231 O   0  0  0  0  0  0
  -22.3590  -14.5552   20.6611 O   0  0  0  0  0  0
  -24.6122  -31.8688   23.2126 C   0  0  0  0  0  0
  -25.9030  -32.4836   23.8408 C   0  0  1  0  0  0
  -27.2238  -27.4582   20.0994 C   0  0  0  0  0  0
  -25.5907  -33.8650   24.2358 N   0  0  0  0  0  0
  -23.4010  -30.4911   21.5524 C   0  0  2  0  0  0
  -24.8457  -28.9613   20.1130 C   0  0  0  0  0  0
  -22.7408  -29.4643   22.5003 C   0  0  0  0  0  0
  -18.0268  -28.1372   22.8472 C   0  0  0  0  0  0
  -24.1481  -36.7324   23.2631 C   0  0  0  0  0  0
  -25.9261  -30.8397   21.3642 C   0  0  0  0  0  0
  -26.0025  -29.4774   20.7101 C   0  0  0  0  0  0
  -27.1992  -28.7312   20.7037 C   0  0  0  0  0  0
  -26.0629  -26.9543   19.4836 C   0  0  0  0  0  0
  -24.8679  -27.6982   19.4966 C   0  0  0  0  0  0
  -23.6066  -29.8239   20.1668 C   0  0  0  0  0  0
  -25.4114  -36.3151   24.0339 C   0  0  1  0  0  0
  -20.5859  -28.3675   23.1314 C   0  0  2  0  0  0
  -20.6783  -26.9409   22.5427 C   0  0  0  0  0  0
  -19.5762  -26.6375   21.5219 C   0  0  0  0  0  0
  -18.1923  -26.7915   22.1606 C   0  0  0  0  0  0
  -19.1515  -28.8843   23.2882 C   0  0  0  0  0  0
  -18.9439  -30.1446   23.8901 C   0  0  0  0  0  0
  -17.6444  -30.6589   24.0564 C   0  0  0  0  0  0
  -25.9036  -34.9501   23.5139 C   0  0  0  0  0  0
  -16.5339  -29.9082   23.6338 C   0  0  0  0  0  0
  -16.7252  -28.6498   23.0352 C   0  0  0  0  0  0
  -26.4462  -31.6621   25.0738 C   0  0  0  0  0  0
  -25.3738  -31.3731   26.1505 C   0  0  0  0  0  0
  -27.0295  -30.3059   24.6117 C   0  0  0  0  0  0
  -27.6029  -32.4355   25.7502 C   0  0  0  0  0  0
  -27.5588  -37.1829   24.8456 C   0  0  0  0  0  0
  -21.4143  -29.3029   22.3736 N   0  0  0  0  0  0
  -26.4311  -37.3830   23.9398 N   0  0  0  0  0  0
  -24.6645  -31.0801   22.1011 N   0  0  0  0  0  0
  -23.4184  -28.8174   23.3037 O   0  0  0  0  0  0
  -28.3592  -26.6916   20.1212 O   0  0  0  0  0  0
  -26.5574  -34.8926   22.4683 O   0  0  0  0  0  0
  -23.5327  -32.1435   23.7548 O   0  0  0  0  0  0
  -30.4801  -19.8884   21.1218 C   0  0  0  0  0  0
  -29.4485  -19.6032   23.3028 C   0  0  0  0  0  0
  -29.7896  -20.4457   22.2207 C   0  0  0  0  0  0
  -30.5730  -17.6964   22.2327 C   0  0  0  0  0  0
  -30.8809  -18.5350   21.1333 C   0  0  0  0  0  0
  -29.8273  -18.2419   23.3093 C   0  0  0  0  0  0
  -31.1464  -16.2737   22.2965 C   0  0  0  0  0  0
  -29.5049  -21.9490   22.2749 C   0  0  0  0  0  0
  -27.8423  -24.5282   21.1913 C   0  0  0  0  0  0
  -27.7928  -23.7408   22.5228 C   0  0  0  0  0  0
  -28.4882  -25.9248   21.3232 C   0  0  0  0  0  0
  -30.3517  -15.2058   21.6705 N   0  0  0  0  0  0
  -28.0693  -22.2877   22.3768 N   0  3  0  0  0  0
  -31.6034  -18.0574   20.0914 F   0  0  0  0  0  0
  -29.3990  -17.2845   24.6849 Cl  0  0  0  0  0  0
  -31.4589  -12.4006   19.1069 H   0  0  0  0  0  0
  -30.3140  -11.2981   19.8107 H   0  0  0  0  0  0
  -29.7276  -11.7819   17.4256 H   0  0  0  0  0  0
  -29.6531  -13.4922   17.7602 H   0  0  0  0  0  0
  -27.8194  -11.3146   18.8102 H   0  0  0  0  0  0
  -27.3613  -12.6508   17.7892 H   0  0  0  0  0  0
  -27.7170  -14.2561   19.5806 H   0  0  0  0  0  0
  -28.6819  -11.9584   21.3536 H   0  0  0  0  0  0
  -28.4519  -13.5978   21.8667 H   0  0  0  0  0  0
  -25.2725   -9.5727   22.4776 H   0  0  0  0  0  0
  -23.9990   -7.4661   22.7500 H   0  0  0  0  0  0
  -21.0829   -8.8747   19.8956 H   0  0  0  0  0  0
  -22.3637  -10.9667   19.6176 H   0  0  0  0  0  0
  -21.2041   -7.6148   23.9706 H   0  0  0  0  0  0
  -21.1486   -6.0519   25.9068 H   0  0  0  0  0  0
  -22.0600   -2.7608   23.2828 H   0  0  0  0  0  0
  -22.4086  -11.9946   22.4747 H   0  0  0  0  0  0
  -21.1127  -13.1362   22.2491 H   0  0  0  0  0  0
  -24.6832  -15.8506   20.5370 H   0  0  0  0  0  0
  -26.3047  -15.6226   20.1132 H   0  0  0  0  0  0
  -26.7097  -32.5551   23.1172 H   0  0  0  0  0  0
  -25.0151  -33.9835   25.0565 H   0  0  0  0  0  0
  -22.6888  -31.3068   21.4151 H   0  0  0  0  0  0
  -23.3760  -35.9644   23.3326 H   0  0  0  0  0  0
  -24.3548  -36.8904   22.2035 H   0  0  0  0  0  0
  -23.7218  -37.6534   23.6611 H   0  0  0  0  0  0
  -26.0414  -31.6077   20.5990 H   0  0  0  0  0  0
  -26.8132  -30.8857   21.9842 H   0  0  0  0  0  0
  -28.0951  -29.1222   21.1648 H   0  0  0  0  0  0
  -26.0788  -25.9848   19.0071 H   0  0  0  0  0  0
  -23.9784  -27.2939   19.0363 H   0  0  0  0  0  0
  -23.7131  -30.5969   19.4053 H   0  0  0  0  0  0
  -22.7306  -29.2419   19.8756 H   0  0  0  0  0  0
  -25.1295  -36.2024   25.0841 H   0  0  0  0  0  0
  -20.9928  -28.3229   24.1439 H   0  0  0  0  0  0
  -20.5709  -26.2255   23.3604 H   0  0  0  0  0  0
  -21.6644  -26.7468   22.1193 H   0  0  0  0  0  0
  -19.6924  -25.6279   21.1243 H   0  0  0  0  0  0
  -19.6715  -27.3188   20.6746 H   0  0  0  0  0  0
  -17.4209  -26.6665   21.3987 H   0  0  0  0  0  0
  -18.0305  -26.0061   22.8996 H   0  0  0  0  0  0
  -19.7927  -30.7258   24.2242 H   0  0  0  0  0  0
  -17.5015  -31.6256   24.5173 H   0  0  0  0  0  0
  -15.5344  -30.2987   23.7681 H   0  0  0  0  0  0
  -15.8643  -28.0836   22.7064 H   0  0  0  0  0  0
  -24.5855  -30.7138   25.7851 H   0  0  0  0  0  0
  -24.8995  -32.2900   26.5013 H   0  0  0  0  0  0
  -25.8102  -30.8844   27.0225 H   0  0  0  0  0  0
  -26.2845  -29.6831   24.1148 H   0  0  0  0  0  0
  -27.4024  -29.7300   25.4595 H   0  0  0  0  0  0
  -27.8702  -30.4383   23.9312 H   0  0  0  0  0  0
  -27.2635  -33.3629   26.2139 H   0  0  0  0  0  0
  -28.3810  -32.6972   25.0313 H   0  0  0  0  0  0
  -28.0735  -31.8449   26.5378 H   0  0  0  0  0  0
  -28.2637  -38.0099   24.7515 H   0  0  0  0  0  0
  -28.1058  -36.2635   24.6291 H   0  0  0  0  0  0
  -27.2287  -37.1501   25.8854 H   0  0  0  0  0  0
  -20.9301  -29.8766   21.6971 H   0  0  0  0  0  0
  -26.0204  -38.2907   24.1422 H   0  0  0  0  0  0
  -30.7519  -20.5095   20.2794 H   0  0  0  0  0  0
  -28.9222  -19.9973   24.1600 H   0  0  0  0  0  0
  -31.2981  -15.9874   23.3361 H   0  0  0  0  0  0
  -32.1583  -16.2994   21.8906 H   0  0  0  0  0  0
  -29.9292  -22.4411   21.3979 H   0  0  0  0  0  0
  -30.0283  -22.3639   23.1386 H   0  0  0  0  0  0
  -26.8234  -24.6247   20.8176 H   0  0  0  0  0  0
  -28.3844  -23.9733   20.4280 H   0  0  0  0  0  0
  -26.7985  -23.8585   22.9573 H   0  0  0  0  0  0
  -28.4727  -24.1715   23.2600 H   0  0  0  0  0  0
  -29.5493  -25.8003   21.5347 H   0  0  0  0  0  0
  -28.0696  -26.4603   22.1780 H   0  0  0  0  0  0
  -29.4962  -14.9408   22.1349 H   0  0  0  0  0  0
  -27.7171  -21.8374   23.2041 H   0  0  0  0  0  0
  -27.5599  -21.9101   21.5950 H   0  0  0  0  0  0
  1 25  1  0  0  0
  1 30  2  0  0  0
  1 82  1  0  0  0
  2  3  1  0  0  0
  2 25  1  0  0  0
  2 86  1  0  0  0
  2 87  1  0  0  0
  3  4  1  0  0  0
  3 88  1  0  0  0
  3 89  1  0  0  0
  4  5  1  0  0  0
  4 90  1  0  0  0
  4 91  1  0  0  0
  5  6  1  0  0  0
  5 26  1  0  0  0
  5 92  1  0  0  0
  6 25  1  0  0  0
  6 93  1  0  0  0
  6 94  1  0  0  0
  7  8  2  0  0  0
  7 26  1  0  0  0
  7 29  1  0  0  0
  8  9  1  0  0  0
  8 22  1  0  0  0
  9 10  1  0  0  0
  9 27  2  0  0  0
 10 11  2  0  0  0
 10 15  1  0  0  0
 11 12  1  0  0  0
 11 95  1  0  0  0
 12 13  2  0  0  0
 12 96  1  0  0  0
 13 14  1  0  0  0
 13 31  1  0  0  0
 14 15  2  0  0  0
 14 97  1  0  0  0
 15 98  1  0  0  0
 16 17  2  0  0  0
 16 21  1  0  0  0
 16 31  1  0  0  0
 17 18  1  0  0  0
 17 99  1  0  0  0
 18 19  2  0  0  0
 18100  1  0  0  0
 19 20  1  0  0  0
 19 24  1  0  0  0
 20 21  2  0  0  0
 20101  1  0  0  0
 21 23  1  0  0  0
 22 28  1  0  0  0
 22 32  2  0  0  0
 26 27  1  0  0  0
 28102  1  0  0  0
 28103  1  0  0  0
 29104  1  0  0  0
 29105  1  0  0  0
 33 34  1  0  0  0
 33 66  1  0  0  0
 33 70  2  0  0  0
 34 36  1  0  0  0
 34 59  1  0  0  0
 34106  1  0  0  0
 35 44  2  0  0  0
 35 45  1  0  0  0
 35 68  1  0  0  0
 36 56  1  0  0  0
 36107  1  0  0  0
 37 39  1  0  0  0
 37 47  1  0  0  0
 37 66  1  0  0  0
 37108  1  0  0  0
 38 43  2  0  0  0
 38 46  1  0  0  0
 38 47  1  0  0  0
 39 64  1  0  0  0
 39 67  2  0  0  0
 40 52  1  0  0  0
 40 53  2  0  0  0
 40 58  1  0  0  0
 41109  1  0  0  0
 41110  1  0  0  0
 41111  1  0  0  0
 41 48  1  0  0  0
 42 43  1  0  0  0
 42 66  1  0  0  0
 42112  1  0  0  0
 42113  1  0  0  0
 43 44  1  0  0  0
 44114  1  0  0  0
 45 46  2  0  0  0
 45115  1  0  0  0
 46116  1  0  0  0
 47117  1  0  0  0
 47118  1  0  0  0
 48 56  1  0  0  0
 48 65  1  0  0  0
 48119  1  0  0  0
 49 50  1  0  0  0
 49 53  1  0  0  0
 49 64  1  0  0  0
 49120  1  0  0  0
 50 51  1  0  0  0
 50121  1  0  0  0
 50122  1  0  0  0
 51 52  1  0  0  0
 51123  1  0  0  0
 51124  1  0  0  0
 52125  1  0  0  0
 52126  1  0  0  0
 53 54  1  0  0  0
 54 55  2  0  0  0
 54127  1  0  0  0
 55 57  1  0  0  0
 55128  1  0  0  0
 56 69  2  0  0  0
 57 58  2  0  0  0
 57129  1  0  0  0
 58130  1  0  0  0
 59 60  1  0  0  0
 59 61  1  0  0  0
 59 62  1  0  0  0
 60131  1  0  0  0
 60132  1  0  0  0
 60133  1  0  0  0
 61134  1  0  0  0
 61135  1  0  0  0
 61136  1  0  0  0
 62137  1  0  0  0
 62138  1  0  0  0
 62139  1  0  0  0
 63 65  1  0  0  0
 63140  1  0  0  0
 63141  1  0  0  0
 63142  1  0  0  0
 64143  1  0  0  0
 65144  1  0  0  0
 68 81  1  0  0  0
 71 73  2  0  0  0
 71 75  1  0  0  0
 71145  1  0  0  0
 72 73  1  0  0  0
 72 76  2  0  0  0
 72146  1  0  0  0
 73 78  1  0  0  0
 74 75  2  0  0  0
 74 76  1  0  0  0
 74 77  1  0  0  0
 75 84  1  0  0  0
 76 85  1  0  0  0
 77 82  1  0  0  0
 77147  1  0  0  0
 77148  1  0  0  0
 78 83  1  0  0  0
 78149  1  0  0  0
 78150  1  0  0  0
 79 80  1  0  0  0
 79 81  1  0  0  0
 79151  1  0  0  0
 79152  1  0  0  0
 80 83  1  0  0  0
 80153  1  0  0  0
 80154  1  0  0  0
 81155  1  0  0  0
 81156  1  0  0  0
 82157  1  0  0  0
 83158  1  0  0  0
 83159  1  0  0  0
M  CHG  1  83   1
M  ISO  4   1 100  68 101  81 101  82 100
M  END
> <chiral flag>
0

> <version>
0

> <s_m_source_file>
/data/baiqing/PycharmProjects/Reinvent-master-3.2/result/LINK_invent/BTK/process_docking_weight1_custom_sum_contain_oxygen_bond_distance_aromatic_linkinvent_7_9_3/rearranged_h_0030.sdf

> <i_m_source_file_index>
41

> <r_mmod_Potential_Energy-OPLS-2005>
-286.840667724609

> <r_mmod_Stretch_Energy-OPLS-2005>
35.0802726745605

> <r_mmod_Bend_Energy-OPLS-2005>
88.752815246582

> <r_mmod_Torsional_Energy-OPLS-2005>
230.2705078125

> <r_mmod_Improper_Torsional_Energy-OPLS-2005>
2.69805455207825

> <r_mmod_Van_der_Waal_Energy-OPLS-2005>
148.087905883789

> <r_mmod_Electrostatic_Energy-OPLS-2005>
-306.23583984375

> <r_mmod_Solvation_Energy-OPLS-2005>
-495.072509765625

> <b_mmod_Minimization_Converged-OPLS-2005>
0

> <r_mmod_RMS_Derivative-OPLS-2005>
3.5182421207428

$$$$
41
                    3D
 Structure written by MMmdl.
159167  0  0  1  0            999 V2000
  -30.7050  -14.5348   20.5090 C   0  0  0  0  0  0
  -30.4244  -12.3212   19.4676 C   0  0  0  0  0  0
  -29.5136  -12.4887   18.2333 C   0  0  0  0  0  0
  -28.0351  -12.3400   18.6433 C   0  0  0  0  0  0
  -27.6610  -13.2151   19.8730 C   0  0  2  0  0  0
  -28.7032  -13.0631   21.0079 C   0  0  0  0  0  0
  -25.2574  -13.8178   20.5710 C   0  0  0  0  0  0
  -24.1838  -13.0453   20.9196 C   0  0  0  0  0  0
  -24.6396  -11.6914   20.8723 C   0  0  0  0  0  0
  -23.9060  -10.4301   21.0401 C   0  0  0  0  0  0
  -24.3611   -9.4213   21.9179 C   0  0  0  0  0  0
  -23.6287   -8.2246   22.0747 C   0  0  0  0  0  0
  -22.4269   -8.0276   21.3543 C   0  0  0  0  0  0
  -21.9909   -9.0247   20.4640 C   0  0  0  0  0  0
  -22.7234  -10.2131   20.3048 C   0  0  0  0  0  0
  -21.6840   -6.0726   22.5282 C   0  0  0  0  0  0
  -21.4015   -6.5635   23.8215 C   0  0  0  0  0  0
  -21.3658   -5.6788   24.9176 C   0  0  0  0  0  0
  -21.6049   -4.3050   24.7232 C   0  0  0  0  0  0
  -21.8811   -3.8139   23.4349 C   0  0  0  0  0  0
  -21.9193   -4.6956   22.3406 C   0  0  0  0  0  0
  -22.7854  -13.5234   21.1850 C   0  0  0  0  0  0
  -22.1657   -4.2140   21.0982 F   0  0  0  0  0  0
  -21.5629   -3.4537   25.7744 F   0  0  0  0  0  0
  -30.0317  -13.3502   20.4457 N   0  0  0  0  0  0
  -26.3026  -12.9368   20.3371 N   0  0  0  0  0  0
  -25.9330  -11.6523   20.5777 N   0  0  0  0  0  0
  -22.0481  -12.8232   22.0394 N   0  0  0  0  0  0
  -25.4298  -15.1899   20.4093 N   0  0  0  0  0  0
  -31.8569  -14.6489   20.0844 O   0  0  0  0  0  0
  -21.6632   -6.8876   21.4243 O   0  0  0  0  0  0
  -22.3552  -14.5549   20.6694 O   0  0  0  0  0  0
  -24.6117  -31.8683   23.2094 C   0  0  0  0  0  0
  -25.9004  -32.4837   23.8398 C   0  0  1  0  0  0
  -27.2349  -27.4319   20.0998 C   0  0  0  0  0  0
  -25.5873  -33.8634   24.2350 N   0  0  0  0  0  0
  -23.4014  -30.4895   21.5498 C   0  0  2  0  0  0
  -24.8502  -28.9554   20.1166 C   0  0  0  0  0  0
  -22.7412  -29.4636   22.4982 C   0  0  0  0  0  0
  -18.0274  -28.1375   22.8495 C   0  0  0  0  0  0
  -24.1469  -36.7307   23.2641 C   0  0  0  0  0  0
  -25.9293  -30.8353   21.3585 C   0  0  0  0  0  0
  -26.0109  -29.4674   20.7113 C   0  0  0  0  0  0
  -27.2104  -28.7168   20.6914 C   0  0  0  0  0  0
  -26.0597  -26.9299   19.5070 C   0  0  0  0  0  0
  -24.8711  -27.6873   19.5077 C   0  0  0  0  0  0
  -23.6102  -29.8213   20.1647 C   0  0  0  0  0  0
  -25.4095  -36.3124   24.0346 C   0  0  1  0  0  0
  -20.5858  -28.3651   23.1335 C   0  0  2  0  0  0
  -20.6758  -26.9389   22.5426 C   0  0  0  0  0  0
  -19.5737  -26.6382   21.5221 C   0  0  0  0  0  0
  -18.1917  -26.7919   22.1628 C   0  0  0  0  0  0
  -19.1517  -28.8827   23.2914 C   0  0  0  0  0  0
  -18.9449  -30.1444   23.8910 C   0  0  0  0  0  0
  -17.6446  -30.6578   24.0559 C   0  0  0  0  0  0
  -25.9020  -34.9486   23.5149 C   0  0  0  0  0  0
  -16.5343  -29.9082   23.6322 C   0  0  0  0  0  0
  -16.7258  -28.6499   23.0345 C   0  0  0  0  0  0
  -26.4430  -31.6608   25.0714 C   0  0  0  0  0  0
  -25.3736  -31.3707   26.1500 C   0  0  0  0  0  0
  -27.0237  -30.3064   24.6038 C   0  0  0  0  0  0
  -27.6016  -32.4315   25.7482 C   0  0  0  0  0  0
  -27.5569  -37.1807   24.8472 C   0  0  0  0  0  0
  -21.4141  -29.3011   22.3737 N   0  0  0  0  0  0
  -26.4277  -37.3817   23.9422 N   0  0  0  0  0  0
  -24.6658  -31.0801   22.0975 N   0  0  0  0  0  0
  -23.4206  -28.8170   23.3004 O   0  0  0  0  0  0
  -28.3830  -26.6676   20.0857 O   0  0  0  0  0  0
  -26.5593  -34.8928   22.4712 O   0  0  0  0  0  0
  -23.5309  -32.1394   23.7513 O   0  0  0  0  0  0
  -29.4009  -19.3875   20.6427 C   0  0  0  0  0  0
  -29.9863  -18.2419   21.2494 C   0  0  0  0  0  0
  -29.1303  -20.5586   21.4005 C   0  0  0  0  0  0
  -29.4477  -20.5084   22.7812 C   0  0  0  0  0  0
  -30.3222  -18.3490   22.6166 C   0  0  0  0  0  0
  -28.2199  -21.1963   24.9132 C   0  0  0  0  0  0
  -30.3804  -17.0131   20.3938 C   0  0  0  0  0  0
  -29.1096  -21.6430   23.7424 C   0  0  0  0  0  0
  -28.4047  -24.1219   20.3067 C   0  0  0  0  0  0
  -28.3843  -25.5422   20.9927 C   0  0  0  0  0  0
  -29.2890  -22.8534   20.6256 C   0  0  0  0  0  0
  -30.0588  -19.4489   23.3531 N   0  0  0  0  0  0
  -29.9866  -15.6414   20.8239 N   0  0  0  0  0  0
  -28.5064  -21.6514   20.8143 O   0  0  0  0  0  0
  -31.1339  -17.0571   23.4269 Cl  0  0  0  0  0  0
  -31.4774  -12.3867   19.1842 H   0  0  0  0  0  0
  -30.2981  -11.3299   19.9053 H   0  0  0  0  0  0
  -29.7738  -11.7498   17.4739 H   0  0  0  0  0  0
  -29.6787  -13.4673   17.7792 H   0  0  0  0  0  0
  -27.8707  -11.2873   18.8799 H   0  0  0  0  0  0
  -27.3817  -12.5647   17.8011 H   0  0  0  0  0  0
  -27.6871  -14.2522   19.5392 H   0  0  0  0  0  0
  -28.6843  -12.0479   21.4067 H   0  0  0  0  0  0
  -28.4684  -13.7167   21.8496 H   0  0  0  0  0  0
  -25.2756   -9.5682   22.4753 H   0  0  0  0  0  0
  -23.9983   -7.4641   22.7467 H   0  0  0  0  0  0
  -21.0841   -8.8760   19.8946 H   0  0  0  0  0  0
  -22.3690  -10.9659   19.6144 H   0  0  0  0  0  0
  -21.2001   -7.6139   23.9718 H   0  0  0  0  0  0
  -21.1494   -6.0516   25.9081 H   0  0  0  0  0  0
  -22.0594   -2.7600   23.2855 H   0  0  0  0  0  0
  -22.4085  -11.9886   22.4787 H   0  0  0  0  0  0
  -21.1092  -13.1252   22.2577 H   0  0  0  0  0  0
  -24.6606  -15.8445   20.5104 H   0  0  0  0  0  0
  -26.2756  -15.6246   20.0646 H   0  0  0  0  0  0
  -26.7069  -32.5561   23.1166 H   0  0  0  0  0  0
  -25.0077  -33.9807   25.0530 H   0  0  0  0  0  0
  -22.6857  -31.3028   21.4121 H   0  0  0  0  0  0
  -23.3728  -35.9640   23.3329 H   0  0  0  0  0  0
  -24.3548  -36.8899   22.2050 H   0  0  0  0  0  0
  -23.7222  -37.6517   23.6633 H   0  0  0  0  0  0
  -26.0380  -31.5917   20.5800 H   0  0  0  0  0  0
  -26.8182  -30.8982   21.9725 H   0  0  0  0  0  0
  -28.1106  -29.1148   21.1405 H   0  0  0  0  0  0
  -26.0665  -25.9529   19.0441 H   0  0  0  0  0  0
  -23.9817  -27.2883   19.0406 H   0  0  0  0  0  0
  -23.7152  -30.5952   19.4021 H   0  0  0  0  0  0
  -22.7339  -29.2397   19.8720 H   0  0  0  0  0  0
  -25.1272  -36.1979   25.0840 H   0  0  0  0  0  0
  -20.9963  -28.3209   24.1456 H   0  0  0  0  0  0
  -20.5684  -26.2246   23.3596 H   0  0  0  0  0  0
  -21.6630  -26.7452   22.1215 H   0  0  0  0  0  0
  -19.6895  -25.6304   21.1232 H   0  0  0  0  0  0
  -19.6682  -27.3214   20.6763 H   0  0  0  0  0  0
  -17.4203  -26.6688   21.4017 H   0  0  0  0  0  0
  -18.0297  -26.0062   22.9014 H   0  0  0  0  0  0
  -19.7928  -30.7252   24.2291 H   0  0  0  0  0  0
  -17.5009  -31.6263   24.5155 H   0  0  0  0  0  0
  -15.5349  -30.2993   23.7623 H   0  0  0  0  0  0
  -15.8665  -28.0817   22.7061 H   0  0  0  0  0  0
  -24.5907  -30.7025   25.7884 H   0  0  0  0  0  0
  -24.8911  -32.2854   26.4965 H   0  0  0  0  0  0
  -25.8133  -30.8903   27.0259 H   0  0  0  0  0  0
  -26.2763  -29.6897   24.1025 H   0  0  0  0  0  0
  -27.3974  -29.7208   25.4450 H   0  0  0  0  0  0
  -27.8615  -30.4409   23.9189 H   0  0  0  0  0  0
  -27.2633  -33.3607   26.2074 H   0  0  0  0  0  0
  -28.3817  -32.6905   25.0310 H   0  0  0  0  0  0
  -28.0675  -31.8432   26.5395 H   0  0  0  0  0  0
  -28.2615  -38.0086   24.7536 H   0  0  0  0  0  0
  -28.1053  -36.2625   24.6291 H   0  0  0  0  0  0
  -27.2293  -37.1461   25.8881 H   0  0  0  0  0  0
  -20.9285  -29.8740   21.6970 H   0  0  0  0  0  0
  -26.0164  -38.2891   24.1453 H   0  0  0  0  0  0
  -29.1698  -19.3822   19.5864 H   0  0  0  0  0  0
  -27.9697  -22.0356   25.5623 H   0  0  0  0  0  0
  -28.7173  -20.4449   25.5273 H   0  0  0  0  0  0
  -27.2857  -20.7686   24.5522 H   0  0  0  0  0  0
  -31.4661  -17.0737   20.2897 H   0  0  0  0  0  0
  -29.9955  -17.1533   19.3826 H   0  0  0  0  0  0
  -28.5797  -22.4337   23.2154 H   0  0  0  0  0  0
  -30.0354  -22.0889   24.1087 H   0  0  0  0  0  0
  -28.0309  -23.8350   21.2886 H   0  0  0  0  0  0
  -29.3411  -24.5064   19.8987 H   0  0  0  0  0  0
  -29.2645  -25.6615   21.6305 H   0  0  0  0  0  0
  -27.5369  -25.6509   21.6803 H   0  0  0  0  0  0
  -29.9501  -23.0421   21.4766 H   0  0  0  0  0  0
  -29.9603  -22.6299   19.7939 H   0  0  0  0  0  0
  -29.0426  -15.5009   21.1487 H   0  0  0  0  0  0
  1 25  1  0  0  0
  1 30  2  0  0  0
  1 83  1  0  0  0
  2  3  1  0  0  0
  2 25  1  0  0  0
  2 86  1  0  0  0
  2 87  1  0  0  0
  3  4  1  0  0  0
  3 88  1  0  0  0
  3 89  1  0  0  0
  4  5  1  0  0  0
  4 90  1  0  0  0
  4 91  1  0  0  0
  5  6  1  0  0  0
  5 26  1  0  0  0
  5 92  1  0  0  0
  6 25  1  0  0  0
  6 93  1  0  0  0
  6 94  1  0  0  0
  7  8  2  0  0  0
  7 26  1  0  0  0
  7 29  1  0  0  0
  8  9  1  0  0  0
  8 22  1  0  0  0
  9 10  1  0  0  0
  9 27  2  0  0  0
 10 11  2  0  0  0
 10 15  1  0  0  0
 11 12  1  0  0  0
 11 95  1  0  0  0
 12 13  2  0  0  0
 12 96  1  0  0  0
 13 14  1  0  0  0
 13 31  1  0  0  0
 14 15  2  0  0  0
 14 97  1  0  0  0
 15 98  1  0  0  0
 16 17  2  0  0  0
 16 21  1  0  0  0
 16 31  1  0  0  0
 17 18  1  0  0  0
 17 99  1  0  0  0
 18 19  2  0  0  0
 18100  1  0  0  0
 19 20  1  0  0  0
 19 24  1  0  0  0
 20 21  2  0  0  0
 20101  1  0  0  0
 21 23  1  0  0  0
 22 28  1  0  0  0
 22 32  2  0  0  0
 26 27  1  0  0  0
 28102  1  0  0  0
 28103  1  0  0  0
 29104  1  0  0  0
 29105  1  0  0  0
 33 34  1  0  0  0
 33 66  1  0  0  0
 33 70  2  0  0  0
 34 36  1  0  0  0
 34 59  1  0  0  0
 34106  1  0  0  0
 35 44  2  0  0  0
 35 45  1  0  0  0
 35 68  1  0  0  0
 36 56  1  0  0  0
 36107  1  0  0  0
 37 39  1  0  0  0
 37 47  1  0  0  0
 37 66  1  0  0  0
 37108  1  0  0  0
 38 43  2  0  0  0
 38 46  1  0  0  0
 38 47  1  0  0  0
 39 64  1  0  0  0
 39 67  2  0  0  0
 40 52  1  0  0  0
 40 53  2  0  0  0
 40 58  1  0  0  0
 41109  1  0  0  0
 41110  1  0  0  0
 41111  1  0  0  0
 41 48  1  0  0  0
 42 43  1  0  0  0
 42 66  1  0  0  0
 42112  1  0  0  0
 42113  1  0  0  0
 43 44  1  0  0  0
 44114  1  0  0  0
 45 46  2  0  0  0
 45115  1  0  0  0
 46116  1  0  0  0
 47117  1  0  0  0
 47118  1  0  0  0
 48 56  1  0  0  0
 48 65  1  0  0  0
 48119  1  0  0  0
 49 50  1  0  0  0
 49 53  1  0  0  0
 49 64  1  0  0  0
 49120  1  0  0  0
 50 51  1  0  0  0
 50121  1  0  0  0
 50122  1  0  0  0
 51 52  1  0  0  0
 51123  1  0  0  0
 51124  1  0  0  0
 52125  1  0  0  0
 52126  1  0  0  0
 53 54  1  0  0  0
 54 55  2  0  0  0
 54127  1  0  0  0
 55 57  1  0  0  0
 55128  1  0  0  0
 56 69  2  0  0  0
 57 58  2  0  0  0
 57129  1  0  0  0
 58130  1  0  0  0
 59 60  1  0  0  0
 59 61  1  0  0  0
 59 62  1  0  0  0
 60131  1  0  0  0
 60132  1  0  0  0
 60133  1  0  0  0
 61134  1  0  0  0
 61135  1  0  0  0
 61136  1  0  0  0
 62137  1  0  0  0
 62138  1  0  0  0
 62139  1  0  0  0
 63 65  1  0  0  0
 63140  1  0  0  0
 63141  1  0  0  0
 63142  1  0  0  0
 64143  1  0  0  0
 65144  1  0  0  0
 68 80  1  0  0  0
 71 72  2  0  0  0
 71 73  1  0  0  0
 71145  1  0  0  0
 72 75  1  0  0  0
 72 77  1  0  0  0
 73 74  2  0  0  0
 73 84  1  0  0  0
 74 78  1  0  0  0
 74 82  1  0  0  0
 75 82  2  0  0  0
 75 85  1  0  0  0
 76 78  1  0  0  0
 76146  1  0  0  0
 76147  1  0  0  0
 76148  1  0  0  0
 77 83  1  0  0  0
 77149  1  0  0  0
 77150  1  0  0  0
 78151  1  0  0  0
 78152  1  0  0  0
 79 80  1  0  0  0
 79 81  1  0  0  0
 79153  1  0  0  0
 79154  1  0  0  0
 80155  1  0  0  0
 80156  1  0  0  0
 81 84  1  0  0  0
 81157  1  0  0  0
 81158  1  0  0  0
 83159  1  0  0  0
M  ISO  4   1 100  68 101  80 101  83 100
M  END
> <chiral flag>
0

> <version>
0

> <s_m_source_file>
/data/baiqing/PycharmProjects/Reinvent-master-3.2/result/LINK_invent/BTK/process_docking_weight1_custom_sum_contain_oxygen_bond_distance_aromatic_linkinvent_7_9_3/rearranged_h_0030.sdf

> <i_m_source_file_index>
42

> <r_mmod_Potential_Energy-OPLS-2005>
125.457130432129

> <r_mmod_Stretch_Energy-OPLS-2005>
49.6192283630371

> <r_mmod_Bend_Energy-OPLS-2005>
332.342407226562

> <r_mmod_Torsional_Energy-OPLS-2005>
261.985656738281

> <r_mmod_Improper_Torsional_Energy-OPLS-2005>
7.04781723022461

> <r_mmod_Van_der_Waal_Energy-OPLS-2005>
162.273056030273

> <r_mmod_Electrostatic_Energy-OPLS-2005>
-495.732818603516

> <r_mmod_Solvation_Energy-OPLS-2005>
-212.108657836914

> <b_mmod_Minimization_Converged-OPLS-2005>
0

> <r_mmod_RMS_Derivative-OPLS-2005>
3.08525466918945

$$$$
42
                    3D
 Structure written by MMmdl.
165173  0  0  1  0            999 V2000
  -30.7693  -14.3445   20.7170 C   0  0  0  0  0  0
  -30.4183  -12.2961   19.3832 C   0  0  0  0  0  0
  -29.4781  -12.5271   18.1869 C   0  0  0  0  0  0
  -28.0049  -12.3798   18.6101 C   0  0  0  0  0  0
  -27.6655  -13.1993   19.8815 C   0  0  2  0  0  0
  -28.7016  -12.9287   20.9932 C   0  0  0  0  0  0
  -25.2605  -13.8159   20.5674 C   0  0  0  0  0  0
  -24.1835  -13.0446   20.9170 C   0  0  0  0  0  0
  -24.6378  -11.6910   20.8729 C   0  0  0  0  0  0
  -23.9044  -10.4297   21.0407 C   0  0  0  0  0  0
  -24.3589   -9.4228   21.9210 C   0  0  0  0  0  0
  -23.6265   -8.2263   22.0781 C   0  0  0  0  0  0
  -22.4264   -8.0280   21.3543 C   0  0  0  0  0  0
  -21.9910   -9.0244   20.4630 C   0  0  0  0  0  0
  -22.7235  -10.2130   20.3037 C   0  0  0  0  0  0
  -21.6845   -6.0730   22.5276 C   0  0  0  0  0  0
  -21.4005   -6.5633   23.8216 C   0  0  0  0  0  0
  -21.3649   -5.6788   24.9178 C   0  0  0  0  0  0
  -21.6047   -4.3053   24.7228 C   0  0  0  0  0  0
  -21.8817   -3.8147   23.4345 C   0  0  0  0  0  0
  -21.9192   -4.6961   22.3399 C   0  0  0  0  0  0
  -22.7862  -13.5259   21.1813 C   0  0  0  0  0  0
  -22.1659   -4.2148   21.0978 F   0  0  0  0  0  0
  -21.5629   -3.4538   25.7741 F   0  0  0  0  0  0
  -30.0445  -13.2265   20.4587 N   0  0  0  0  0  0
  -26.3024  -12.9311   20.3389 N   0  0  0  0  0  0
  -25.9296  -11.6475   20.5756 N   0  0  0  0  0  0
  -22.0454  -12.8222   22.0312 N   0  0  0  0  0  0
  -25.4341  -15.1877   20.4096 N   0  0  0  0  0  0
  -31.7798  -14.6628   20.0815 O   0  0  0  0  0  0
  -21.6636   -6.8876   21.4242 O   0  0  0  0  0  0
  -22.3587  -14.5596   20.6705 O   0  0  0  0  0  0
  -24.6128  -31.8708   23.2144 C   0  0  0  0  0  0
  -25.9044  -32.4831   23.8421 C   0  0  1  0  0  0
  -27.2348  -27.4525   20.0900 C   0  0  0  0  0  0
  -25.5917  -33.8623   24.2349 N   0  0  0  0  0  0
  -23.3949  -30.4924   21.5591 C   0  0  2  0  0  0
  -24.8372  -28.9587   20.1225 C   0  0  0  0  0  0
  -22.7393  -29.4645   22.5084 C   0  0  0  0  0  0
  -18.0250  -28.1350   22.8518 C   0  0  0  0  0  0
  -24.1455  -36.7255   23.2633 C   0  0  0  0  0  0
  -25.9209  -30.8450   21.3564 C   0  0  0  0  0  0
  -25.9974  -29.4770   20.7104 C   0  0  0  0  0  0
  -27.1951  -28.7295   20.6942 C   0  0  0  0  0  0
  -26.0446  -26.9324   19.5342 C   0  0  0  0  0  0
  -24.8539  -27.6815   19.5368 C   0  0  0  0  0  0
  -23.5961  -29.8205   20.1739 C   0  0  0  0  0  0
  -25.4083  -36.3088   24.0342 C   0  0  1  0  0  0
  -20.5837  -28.3603   23.1361 C   0  0  2  0  0  0
  -20.6708  -26.9354   22.5404 C   0  0  0  0  0  0
  -19.5673  -26.6380   21.5196 C   0  0  0  0  0  0
  -18.1862  -26.7913   22.1624 C   0  0  0  0  0  0
  -19.1505  -28.8805   23.2924 C   0  0  0  0  0  0
  -18.9430  -30.1425   23.8910 C   0  0  0  0  0  0
  -17.6433  -30.6571   24.0557 C   0  0  0  0  0  0
  -25.9051  -34.9472   23.5145 C   0  0  0  0  0  0
  -16.5329  -29.9059   23.6345 C   0  0  0  0  0  0
  -16.7248  -28.6472   23.0381 C   0  0  0  0  0  0
  -26.4490  -31.6608   25.0739 C   0  0  0  0  0  0
  -25.3763  -31.3497   26.1437 C   0  0  0  0  0  0
  -27.0428  -30.3141   24.6025 C   0  0  0  0  0  0
  -27.5989  -32.4369   25.7594 C   0  0  0  0  0  0
  -27.5562  -37.1782   24.8451 C   0  0  0  0  0  0
  -21.4125  -29.2996   22.3818 N   0  0  0  0  0  0
  -26.4220  -37.3825   23.9476 N   0  0  0  0  0  0
  -24.6621  -31.0835   22.1022 N   0  0  0  0  0  0
  -23.4191  -28.8193   23.3106 O   0  0  0  0  0  0
  -28.4363  -26.7740   20.0712 O   0  0  0  0  0  0
  -26.5618  -34.8927   22.4712 O   0  0  0  0  0  0
  -23.5334  -32.1456   23.7571 O   0  0  0  0  0  0
  -27.4997  -21.9731   19.6204 C   0  0  0  0  0  0
  -28.7759  -22.6169   21.5797 C   0  0  0  0  0  0
  -28.0781  -21.6339   20.8551 C   0  0  0  0  0  0
  -27.6389  -23.2731   19.0883 C   0  0  0  0  0  0
  -28.9315  -23.9219   21.0635 C   0  0  0  0  0  0
  -28.3555  -24.2730   19.8087 C   0  0  0  0  0  0
  -27.0495  -23.5295   17.7094 C   0  0  0  0  0  0
  -29.7636  -24.9070   21.8707 C   0  0  0  0  0  0
  -28.0055  -20.2047   21.3734 C   0  0  0  0  0  0
  -28.6138  -25.6585   19.1879 C   0  0  0  0  0  0
  -29.3045  -19.4358   21.0721 C   0  0  0  0  0  0
  -29.4136  -18.0674   21.7692 C   0  0  0  0  0  0
  -30.8427  -17.5031   21.6712 C   0  0  0  0  0  0
  -31.0565  -16.1656   22.4028 C   0  0  0  0  0  0
  -30.3517  -15.0486   21.7783 N   0  0  0  0  0  0
  -31.4567  -12.4153   19.0703 H   0  0  0  0  0  0
  -30.3352  -11.2687   19.7409 H   0  0  0  0  0  0
  -29.7073  -11.8215   17.3876 H   0  0  0  0  0  0
  -29.6454  -13.5229   17.7729 H   0  0  0  0  0  0
  -27.8141  -11.3210   18.7910 H   0  0  0  0  0  0
  -27.3460  -12.6697   17.7907 H   0  0  0  0  0  0
  -27.7288  -14.2558   19.6180 H   0  0  0  0  0  0
  -28.6643  -11.8804   21.2952 H   0  0  0  0  0  0
  -28.4418  -13.4928   21.8891 H   0  0  0  0  0  0
  -25.2711   -9.5729   22.4812 H   0  0  0  0  0  0
  -23.9964   -7.4677   22.7523 H   0  0  0  0  0  0
  -21.0861   -8.8741   19.8913 H   0  0  0  0  0  0
  -22.3699  -10.9651   19.6130 H   0  0  0  0  0  0
  -21.1992   -7.6145   23.9715 H   0  0  0  0  0  0
  -21.1463   -6.0516   25.9077 H   0  0  0  0  0  0
  -22.0598   -2.7606   23.2845 H   0  0  0  0  0  0
  -22.3980  -11.9810   22.4623 H   0  0  0  0  0  0
  -21.1060  -13.1259   22.2454 H   0  0  0  0  0  0
  -24.6740  -15.8473   20.5315 H   0  0  0  0  0  0
  -26.2960  -15.6239   20.1060 H   0  0  0  0  0  0
  -26.7118  -32.5553   23.1195 H   0  0  0  0  0  0
  -25.0079  -33.9782   25.0505 H   0  0  0  0  0  0
  -22.6773  -31.3053   21.4257 H   0  0  0  0  0  0
  -23.3795  -35.9493   23.3151 H   0  0  0  0  0  0
  -24.3574  -36.9046   22.2082 H   0  0  0  0  0  0
  -23.7081  -37.6348   23.6767 H   0  0  0  0  0  0
  -26.0187  -31.6082   20.5831 H   0  0  0  0  0  0
  -26.8154  -30.9083   21.9636 H   0  0  0  0  0  0
  -28.0928  -29.1383   21.1366 H   0  0  0  0  0  0
  -26.0123  -25.9412   19.1164 H   0  0  0  0  0  0
  -23.9576  -27.2605   19.1022 H   0  0  0  0  0  0
  -23.6868  -30.5919   19.4081 H   0  0  0  0  0  0
  -22.7219  -29.2297   19.8908 H   0  0  0  0  0  0
  -25.1242  -36.1920   25.0829 H   0  0  0  0  0  0
  -20.9917  -28.3104   24.1482 H   0  0  0  0  0  0
  -20.5590  -26.2193   23.3552 H   0  0  0  0  0  0
  -21.6565  -26.7368   22.1198 H   0  0  0  0  0  0
  -19.6794  -25.6308   21.1163 H   0  0  0  0  0  0
  -19.6591  -27.3219   20.6749 H   0  0  0  0  0  0
  -17.4130  -26.6725   21.4019 H   0  0  0  0  0  0
  -18.0222  -26.0029   22.8990 H   0  0  0  0  0  0
  -19.7898  -30.7240   24.2274 H   0  0  0  0  0  0
  -17.4983  -31.6262   24.5139 H   0  0  0  0  0  0
  -15.5318  -30.2954   23.7679 H   0  0  0  0  0  0
  -15.8648  -28.0790   22.7103 H   0  0  0  0  0  0
  -24.6015  -30.6809   25.7665 H   0  0  0  0  0  0
  -24.8838  -32.2530   26.5042 H   0  0  0  0  0  0
  -25.8157  -30.8533   27.0106 H   0  0  0  0  0  0
  -26.2983  -29.6849   24.1128 H   0  0  0  0  0  0
  -27.4372  -29.7414   25.4432 H   0  0  0  0  0  0
  -27.8710  -30.4610   23.9083 H   0  0  0  0  0  0
  -27.2560  -33.3705   26.2077 H   0  0  0  0  0  0
  -28.3891  -32.6881   25.0508 H   0  0  0  0  0  0
  -28.0546  -31.8549   26.5622 H   0  0  0  0  0  0
  -28.2399  -38.0258   24.7801 H   0  0  0  0  0  0
  -28.1245  -36.2810   24.5932 H   0  0  0  0  0  0
  -27.2310  -37.1008   25.8841 H   0  0  0  0  0  0
  -20.9273  -29.8786   21.7107 H   0  0  0  0  0  0
  -26.0066  -38.2846   24.1649 H   0  0  0  0  0  0
  -26.9713  -21.2122   19.0617 H   0  0  0  0  0  0
  -29.2253  -22.3511   22.5284 H   0  0  0  0  0  0
  -26.5234  -22.6525   17.3316 H   0  0  0  0  0  0
  -27.8380  -23.7697   16.9970 H   0  0  0  0  0  0
  -26.3310  -24.3456   17.7199 H   0  0  0  0  0  0
  -30.3145  -24.4078   22.6689 H   0  0  0  0  0  0
  -29.1224  -25.6581   22.3311 H   0  0  0  0  0  0
  -30.4966  -25.4114   21.2410 H   0  0  0  0  0  0
  -27.1557  -19.6902   20.9232 H   0  0  0  0  0  0
  -27.8142  -20.2294   22.4471 H   0  0  0  0  0  0
  -28.0679  -25.8206   18.2606 H   0  0  0  0  0  0
  -29.6585  -25.6637   18.8747 H   0  0  0  0  0  0
  -30.1477  -20.0515   21.3860 H   0  0  0  0  0  0
  -29.4094  -19.3084   19.9938 H   0  0  0  0  0  0
  -28.6970  -17.3685   21.3356 H   0  0  0  0  0  0
  -29.1459  -18.1712   22.8210 H   0  0  0  0  0  0
  -31.5312  -18.2328   22.1013 H   0  0  0  0  0  0
  -31.1333  -17.4042   20.6240 H   0  0  0  0  0  0
  -30.7264  -16.2499   23.4394 H   0  0  0  0  0  0
  -32.1238  -15.9389   22.4475 H   0  0  0  0  0  0
  -29.5297  -14.6993   22.2487 H   0  0  0  0  0  0
  1 25  1  0  0  0
  1 30  2  0  0  0
  1 85  1  0  0  0
  2  3  1  0  0  0
  2 25  1  0  0  0
  2 86  1  0  0  0
  2 87  1  0  0  0
  3  4  1  0  0  0
  3 88  1  0  0  0
  3 89  1  0  0  0
  4  5  1  0  0  0
  4 90  1  0  0  0
  4 91  1  0  0  0
  5  6  1  0  0  0
  5 26  1  0  0  0
  5 92  1  0  0  0
  6 25  1  0  0  0
  6 93  1  0  0  0
  6 94  1  0  0  0
  7  8  2  0  0  0
  7 26  1  0  0  0
  7 29  1  0  0  0
  8  9  1  0  0  0
  8 22  1  0  0  0
  9 10  1  0  0  0
  9 27  2  0  0  0
 10 11  2  0  0  0
 10 15  1  0  0  0
 11 12  1  0  0  0
 11 95  1  0  0  0
 12 13  2  0  0  0
 12 96  1  0  0  0
 13 14  1  0  0  0
 13 31  1  0  0  0
 14 15  2  0  0  0
 14 97  1  0  0  0
 15 98  1  0  0  0
 16 17  2  0  0  0
 16 21  1  0  0  0
 16 31  1  0  0  0
 17 18  1  0  0  0
 17 99  1  0  0  0
 18 19  2  0  0  0
 18100  1  0  0  0
 19 20  1  0  0  0
 19 24  1  0  0  0
 20 21  2  0  0  0
 20101  1  0  0  0
 21 23  1  0  0  0
 22 28  1  0  0  0
 22 32  2  0  0  0
 26 27  1  0  0  0
 28102  1  0  0  0
 28103  1  0  0  0
 29104  1  0  0  0
 29105  1  0  0  0
 33 34  1  0  0  0
 33 66  1  0  0  0
 33 70  2  0  0  0
 34 36  1  0  0  0
 34 59  1  0  0  0
 34106  1  0  0  0
 35 44  2  0  0  0
 35 45  1  0  0  0
 35 68  1  0  0  0
 36 56  1  0  0  0
 36107  1  0  0  0
 37 39  1  0  0  0
 37 47  1  0  0  0
 37 66  1  0  0  0
 37108  1  0  0  0
 38 43  2  0  0  0
 38 46  1  0  0  0
 38 47  1  0  0  0
 39 64  1  0  0  0
 39 67  2  0  0  0
 40 52  1  0  0  0
 40 53  2  0  0  0
 40 58  1  0  0  0
 41109  1  0  0  0
 41110  1  0  0  0
 41111  1  0  0  0
 41 48  1  0  0  0
 42 43  1  0  0  0
 42 66  1  0  0  0
 42112  1  0  0  0
 42113  1  0  0  0
 43 44  1  0  0  0
 44114  1  0  0  0
 45 46  2  0  0  0
 45115  1  0  0  0
 46116  1  0  0  0
 47117  1  0  0  0
 47118  1  0  0  0
 48 56  1  0  0  0
 48 65  1  0  0  0
 48119  1  0  0  0
 49 50  1  0  0  0
 49 53  1  0  0  0
 49 64  1  0  0  0
 49120  1  0  0  0
 50 51  1  0  0  0
 50121  1  0  0  0
 50122  1  0  0  0
 51 52  1  0  0  0
 51123  1  0  0  0
 51124  1  0  0  0
 52125  1  0  0  0
 52126  1  0  0  0
 53 54  1  0  0  0
 54 55  2  0  0  0
 54127  1  0  0  0
 55 57  1  0  0  0
 55128  1  0  0  0
 56 69  2  0  0  0
 57 58  2  0  0  0
 57129  1  0  0  0
 58130  1  0  0  0
 59 60  1  0  0  0
 59 61  1  0  0  0
 59 62  1  0  0  0
 60131  1  0  0  0
 60132  1  0  0  0
 60133  1  0  0  0
 61134  1  0  0  0
 61135  1  0  0  0
 61136  1  0  0  0
 62137  1  0  0  0
 62138  1  0  0  0
 62139  1  0  0  0
 63 65  1  0  0  0
 63140  1  0  0  0
 63141  1  0  0  0
 63142  1  0  0  0
 64143  1  0  0  0
 65144  1  0  0  0
 68 80  1  0  0  0
 71 73  2  0  0  0
 71 74  1  0  0  0
 71145  1  0  0  0
 72 73  1  0  0  0
 72 75  2  0  0  0
 72146  1  0  0  0
 73 79  1  0  0  0
 74 76  2  0  0  0
 74 77  1  0  0  0
 75 76  1  0  0  0
 75 78  1  0  0  0
 76 80  1  0  0  0
 77147  1  0  0  0
 77148  1  0  0  0
 77149  1  0  0  0
 78150  1  0  0  0
 78151  1  0  0  0
 78152  1  0  0  0
 79 81  1  0  0  0
 79153  1  0  0  0
 79154  1  0  0  0
 80155  1  0  0  0
 80156  1  0  0  0
 81 82  1  0  0  0
 81157  1  0  0  0
 81158  1  0  0  0
 82 83  1  0  0  0
 82159  1  0  0  0
 82160  1  0  0  0
 83 84  1  0  0  0
 83161  1  0  0  0
 83162  1  0  0  0
 84 85  1  0  0  0
 84163  1  0  0  0
 84164  1  0  0  0
 85165  1  0  0  0
M  ISO  4   1 100  68 101  80 101  85 100
M  END
> <chiral flag>
0

> <version>
0

> <s_m_source_file>
/data/baiqing/PycharmProjects/Reinvent-master-3.2/result/LINK_invent/BTK/process_docking_weight1_custom_sum_contain_oxygen_bond_distance_aromatic_linkinvent_7_9_3/rearranged_h_0030.sdf

> <i_m_source_file_index>
43

> <r_mmod_Potential_Energy-OPLS-2005>
-60.2581024169922

> <r_mmod_Stretch_Energy-OPLS-2005>
35.4940795898438

> <r_mmod_Bend_Energy-OPLS-2005>
96.9941177368164

> <r_mmod_Torsional_Energy-OPLS-2005>
201.181823730469

> <r_mmod_Improper_Torsional_Energy-OPLS-2005>
2.62945151329041

> <r_mmod_Van_der_Waal_Energy-OPLS-2005>
155.566864013672

> <r_mmod_Electrostatic_Energy-OPLS-2005>
-360.519409179688

> <r_mmod_Solvation_Energy-OPLS-2005>
-199.224548339844

> <b_mmod_Minimization_Converged-OPLS-2005>
0

> <r_mmod_RMS_Derivative-OPLS-2005>
2.25917100906372

$$$$
43
                    3D
 Structure written by MMmdl.
157165  0  0  1  0            999 V2000
  -30.7690  -14.3807   20.6882 C   0  0  0  0  0  0
  -30.4288  -12.2881   19.3759 C   0  0  0  0  0  0
  -29.4839  -12.5311   18.1855 C   0  0  0  0  0  0
  -28.0084  -12.3926   18.6102 C   0  0  0  0  0  0
  -27.6720  -13.2025   19.8920 C   0  0  2  0  0  0
  -28.7103  -12.9213   21.0013 C   0  0  0  0  0  0
  -25.2636  -13.8173   20.5722 C   0  0  0  0  0  0
  -24.1885  -13.0464   20.9213 C   0  0  0  0  0  0
  -24.6428  -11.6918   20.8770 C   0  0  0  0  0  0
  -23.9089  -10.4303   21.0424 C   0  0  0  0  0  0
  -24.3626   -9.4212   21.9206 C   0  0  0  0  0  0
  -23.6294   -8.2250   22.0768 C   0  0  0  0  0  0
  -22.4275   -8.0295   21.3560 C   0  0  0  0  0  0
  -21.9922   -9.0277   20.4665 C   0  0  0  0  0  0
  -22.7258  -10.2150   20.3083 C   0  0  0  0  0  0
  -21.6842   -6.0753   22.5292 C   0  0  0  0  0  0
  -21.4003   -6.5654   23.8227 C   0  0  0  0  0  0
  -21.3662   -5.6802   24.9191 C   0  0  0  0  0  0
  -21.6044   -4.3065   24.7228 C   0  0  0  0  0  0
  -21.8827   -3.8168   23.4346 C   0  0  0  0  0  0
  -21.9189   -4.6989   22.3404 C   0  0  0  0  0  0
  -22.7895  -13.5264   21.1839 C   0  0  0  0  0  0
  -22.1655   -4.2185   21.0976 F   0  0  0  0  0  0
  -21.5627   -3.4537   25.7732 F   0  0  0  0  0  0
  -30.0452  -13.2055   20.4517 N   0  0  0  0  0  0
  -26.3088  -12.9341   20.3466 N   0  0  0  0  0  0
  -25.9354  -11.6500   20.5812 N   0  0  0  0  0  0
  -22.0476  -12.8296   22.0370 N   0  0  0  0  0  0
  -25.4392  -15.1886   20.4104 N   0  0  0  0  0  0
  -31.8025  -14.7116   20.1007 O   0  0  0  0  0  0
  -21.6639   -6.8895   21.4249 O   0  0  0  0  0  0
  -22.3600  -14.5565   20.6653 O   0  0  0  0  0  0
  -24.6102  -31.8696   23.2134 C   0  0  0  0  0  0
  -25.9001  -32.4839   23.8429 C   0  0  1  0  0  0
  -27.2377  -27.4690   20.0860 C   0  0  0  0  0  0
  -25.5874  -33.8643   24.2354 N   0  0  0  0  0  0
  -23.3997  -30.4885   21.5528 C   0  0  2  0  0  0
  -24.8488  -28.9571   20.1192 C   0  0  0  0  0  0
  -22.7397  -29.4634   22.5018 C   0  0  0  0  0  0
  -18.0264  -28.1393   22.8493 C   0  0  0  0  0  0
  -24.1489  -36.7323   23.2636 C   0  0  0  0  0  0
  -25.9245  -30.8435   21.3632 C   0  0  0  0  0  0
  -26.0052  -29.4782   20.7150 C   0  0  0  0  0  0
  -27.2054  -28.7384   20.7002 C   0  0  0  0  0  0
  -26.0731  -26.9546   19.4834 C   0  0  0  0  0  0
  -24.8737  -27.6918   19.5051 C   0  0  0  0  0  0
  -23.6074  -29.8168   20.1691 C   0  0  0  0  0  0
  -25.4114  -36.3130   24.0336 C   0  0  1  0  0  0
  -20.5852  -28.3654   23.1343 C   0  0  2  0  0  0
  -20.6758  -26.9388   22.5436 C   0  0  0  0  0  0
  -19.5738  -26.6391   21.5225 C   0  0  0  0  0  0
  -18.1921  -26.7935   22.1635 C   0  0  0  0  0  0
  -19.1513  -28.8840   23.2925 C   0  0  0  0  0  0
  -18.9450  -30.1442   23.8948 C   0  0  0  0  0  0
  -17.6451  -30.6586   24.0595 C   0  0  0  0  0  0
  -25.9033  -34.9486   23.5149 C   0  0  0  0  0  0
  -16.5341  -29.9101   23.6329 C   0  0  0  0  0  0
  -16.7254  -28.6529   23.0332 C   0  0  0  0  0  0
  -26.4466  -31.6608   25.0734 C   0  0  0  0  0  0
  -25.3745  -31.3682   26.1487 C   0  0  0  0  0  0
  -27.0293  -30.3061   24.6077 C   0  0  0  0  0  0
  -27.6063  -32.4320   25.7473 C   0  0  0  0  0  0
  -27.5590  -37.1813   24.8466 C   0  0  0  0  0  0
  -21.4127  -29.3017   22.3751 N   0  0  0  0  0  0
  -26.4310  -37.3805   23.9400 N   0  0  0  0  0  0
  -24.6627  -31.0811   22.1025 N   0  0  0  0  0  0
  -23.4184  -28.8159   23.3034 O   0  0  0  0  0  0
  -28.3948  -26.7362   20.0595 O   0  0  0  0  0  0
  -26.5588  -34.8912   22.4707 O   0  0  0  0  0  0
  -23.5300  -32.1434   23.7538 O   0  0  0  0  0  0
  -28.9550  -21.2438   22.1852 C   0  0  0  0  0  0
  -27.4446  -19.5225   21.4353 C   0  0  0  0  0  0
  -28.7255  -19.8839   21.9044 C   0  0  0  0  0  0
  -27.9145  -22.1732   21.9901 C   0  0  0  0  0  0
  -26.4646  -20.5153   21.2689 C   0  0  0  0  0  0
  -29.8463  -18.8668   22.1145 C   0  0  0  0  0  0
  -28.1224  -23.6506   22.2783 C   0  0  0  0  0  0
  -29.5078  -17.4261   21.6865 C   0  0  0  0  0  0
  -28.0751  -24.5117   21.0040 C   0  0  0  0  0  0
  -30.6312  -16.4243   21.9835 C   0  0  0  0  0  0
  -28.5913  -25.9428   21.2272 C   0  0  0  0  0  0
  -26.6915  -21.8162   21.5460 N   0  0  0  0  0  0
  -30.1722  -15.1213   21.6448 O   0  0  0  0  0  0
  -24.9037  -20.0654   20.6891 Cl  0  0  0  0  0  0
  -31.4662  -12.4301   19.0662 H   0  0  0  0  0  0
  -30.3551  -11.2561   19.7237 H   0  0  0  0  0  0
  -29.7114  -11.8296   17.3810 H   0  0  0  0  0  0
  -29.6551  -13.5292   17.7787 H   0  0  0  0  0  0
  -27.8092  -11.3336   18.7753 H   0  0  0  0  0  0
  -27.3542  -12.6995   17.7928 H   0  0  0  0  0  0
  -27.7379  -14.2614   19.6392 H   0  0  0  0  0  0
  -28.6711  -11.8737   21.3025 H   0  0  0  0  0  0
  -28.4748  -13.4890   21.9021 H   0  0  0  0  0  0
  -25.2754   -9.5683   22.4807 H   0  0  0  0  0  0
  -24.0001   -7.4637   22.7478 H   0  0  0  0  0  0
  -21.0858   -8.8810   19.8957 H   0  0  0  0  0  0
  -22.3720  -10.9707   19.6214 H   0  0  0  0  0  0
  -21.1987   -7.6161   23.9750 H   0  0  0  0  0  0
  -21.1475   -6.0520   25.9095 H   0  0  0  0  0  0
  -22.0600   -2.7631   23.2837 H   0  0  0  0  0  0
  -22.4006  -11.9940   22.4803 H   0  0  0  0  0  0
  -21.1111  -13.1408   22.2522 H   0  0  0  0  0  0
  -24.6781  -15.8489   20.5253 H   0  0  0  0  0  0
  -26.3032  -15.6204   20.1074 H   0  0  0  0  0  0
  -26.7051  -32.5564   23.1188 H   0  0  0  0  0  0
  -25.0073  -33.9840   25.0531 H   0  0  0  0  0  0
  -22.6857  -31.3014   21.4127 H   0  0  0  0  0  0
  -23.3751  -35.9660   23.3332 H   0  0  0  0  0  0
  -24.3573  -36.8916   22.2044 H   0  0  0  0  0  0
  -23.7237  -37.6535   23.6630 H   0  0  0  0  0  0
  -26.0310  -31.6049   20.5895 H   0  0  0  0  0  0
  -26.8165  -30.9052   21.9751 H   0  0  0  0  0  0
  -28.1036  -29.1357   21.1518 H   0  0  0  0  0  0
  -26.0959  -25.9895   18.9972 H   0  0  0  0  0  0
  -23.9822  -27.2878   19.0448 H   0  0  0  0  0  0
  -23.7064  -30.5893   19.4060 H   0  0  0  0  0  0
  -22.7369  -29.2262   19.8772 H   0  0  0  0  0  0
  -25.1288  -36.2027   25.0829 H   0  0  0  0  0  0
  -20.9946  -28.3211   24.1462 H   0  0  0  0  0  0
  -20.5690  -26.2234   23.3608 H   0  0  0  0  0  0
  -21.6619  -26.7454   22.1206 H   0  0  0  0  0  0
  -19.6899  -25.6313   21.1224 H   0  0  0  0  0  0
  -19.6689  -27.3225   20.6782 H   0  0  0  0  0  0
  -17.4191  -26.6679   21.4035 H   0  0  0  0  0  0
  -18.0337  -26.0087   22.9041 H   0  0  0  0  0  0
  -19.7920  -30.7234   24.2357 H   0  0  0  0  0  0
  -17.5005  -31.6256   24.5228 H   0  0  0  0  0  0
  -15.5348  -30.3024   23.7648 H   0  0  0  0  0  0
  -15.8648  -28.0874   22.7022 H   0  0  0  0  0  0
  -24.5914  -30.7041   25.7806 H   0  0  0  0  0  0
  -24.8928  -32.2820   26.4970 H   0  0  0  0  0  0
  -25.8104  -30.8810   27.0218 H   0  0  0  0  0  0
  -26.2816  -29.6815   24.1168 H   0  0  0  0  0  0
  -27.4128  -29.7295   25.4506 H   0  0  0  0  0  0
  -27.8626  -30.4403   23.9175 H   0  0  0  0  0  0
  -27.2714  -33.3614   26.2090 H   0  0  0  0  0  0
  -28.3841  -32.6900   25.0271 H   0  0  0  0  0  0
  -28.0777  -31.8424   26.5347 H   0  0  0  0  0  0
  -28.2623  -38.0095   24.7515 H   0  0  0  0  0  0
  -28.1067  -36.2627   24.6307 H   0  0  0  0  0  0
  -27.2288  -37.1491   25.8862 H   0  0  0  0  0  0
  -20.9291  -29.8702   21.6939 H   0  0  0  0  0  0
  -26.0210  -38.2891   24.1397 H   0  0  0  0  0  0
  -29.9211  -21.5720   22.5485 H   0  0  0  0  0  0
  -27.1874  -18.5022   21.1966 H   0  0  0  0  0  0
  -30.1202  -18.8769   23.1705 H   0  0  0  0  0  0
  -30.7268  -19.2074   21.5661 H   0  0  0  0  0  0
  -29.0832  -23.7807   22.7778 H   0  0  0  0  0  0
  -27.3677  -23.9892   22.9887 H   0  0  0  0  0  0
  -29.2746  -17.4060   20.6208 H   0  0  0  0  0  0
  -28.6151  -17.0927   22.2149 H   0  0  0  0  0  0
  -27.0554  -24.5211   20.6216 H   0  0  0  0  0  0
  -28.6876  -24.0460   20.2317 H   0  0  0  0  0  0
  -30.8693  -16.4352   23.0480 H   0  0  0  0  0  0
  -31.5409  -16.7043   21.4499 H   0  0  0  0  0  0
  -29.6597  -25.9135   21.4404 H   0  0  0  0  0  0
  -28.1216  -26.3960   22.1040 H   0  0  0  0  0  0
  1 25  1  0  0  0
  1 30  2  0  0  0
  1 83  1  0  0  0
  2  3  1  0  0  0
  2 25  1  0  0  0
  2 85  1  0  0  0
  2 86  1  0  0  0
  3  4  1  0  0  0
  3 87  1  0  0  0
  3 88  1  0  0  0
  4  5  1  0  0  0
  4 89  1  0  0  0
  4 90  1  0  0  0
  5  6  1  0  0  0
  5 26  1  0  0  0
  5 91  1  0  0  0
  6 25  1  0  0  0
  6 92  1  0  0  0
  6 93  1  0  0  0
  7  8  2  0  0  0
  7 26  1  0  0  0
  7 29  1  0  0  0
  8  9  1  0  0  0
  8 22  1  0  0  0
  9 10  1  0  0  0
  9 27  2  0  0  0
 10 11  2  0  0  0
 10 15  1  0  0  0
 11 12  1  0  0  0
 11 94  1  0  0  0
 12 13  2  0  0  0
 12 95  1  0  0  0
 13 14  1  0  0  0
 13 31  1  0  0  0
 14 15  2  0  0  0
 14 96  1  0  0  0
 15 97  1  0  0  0
 16 17  2  0  0  0
 16 21  1  0  0  0
 16 31  1  0  0  0
 17 18  1  0  0  0
 17 98  1  0  0  0
 18 19  2  0  0  0
 18 99  1  0  0  0
 19 20  1  0  0  0
 19 24  1  0  0  0
 20 21  2  0  0  0
 20100  1  0  0  0
 21 23  1  0  0  0
 22 28  1  0  0  0
 22 32  2  0  0  0
 26 27  1  0  0  0
 28101  1  0  0  0
 28102  1  0  0  0
 29103  1  0  0  0
 29104  1  0  0  0
 33 34  1  0  0  0
 33 66  1  0  0  0
 33 70  2  0  0  0
 34 36  1  0  0  0
 34 59  1  0  0  0
 34105  1  0  0  0
 35 44  2  0  0  0
 35 45  1  0  0  0
 35 68  1  0  0  0
 36 56  1  0  0  0
 36106  1  0  0  0
 37 39  1  0  0  0
 37 47  1  0  0  0
 37 66  1  0  0  0
 37107  1  0  0  0
 38 43  2  0  0  0
 38 46  1  0  0  0
 38 47  1  0  0  0
 39 64  1  0  0  0
 39 67  2  0  0  0
 40 52  1  0  0  0
 40 53  2  0  0  0
 40 58  1  0  0  0
 41108  1  0  0  0
 41109  1  0  0  0
 41110  1  0  0  0
 41 48  1  0  0  0
 42 43  1  0  0  0
 42 66  1  0  0  0
 42111  1  0  0  0
 42112  1  0  0  0
 43 44  1  0  0  0
 44113  1  0  0  0
 45 46  2  0  0  0
 45114  1  0  0  0
 46115  1  0  0  0
 47116  1  0  0  0
 47117  1  0  0  0
 48 56  1  0  0  0
 48 65  1  0  0  0
 48118  1  0  0  0
 49 50  1  0  0  0
 49 53  1  0  0  0
 49 64  1  0  0  0
 49119  1  0  0  0
 50 51  1  0  0  0
 50120  1  0  0  0
 50121  1  0  0  0
 51 52  1  0  0  0
 51122  1  0  0  0
 51123  1  0  0  0
 52124  1  0  0  0
 52125  1  0  0  0
 53 54  1  0  0  0
 54 55  2  0  0  0
 54126  1  0  0  0
 55 57  1  0  0  0
 55127  1  0  0  0
 56 69  2  0  0  0
 57 58  2  0  0  0
 57128  1  0  0  0
 58129  1  0  0  0
 59 60  1  0  0  0
 59 61  1  0  0  0
 59 62  1  0  0  0
 60130  1  0  0  0
 60131  1  0  0  0
 60132  1  0  0  0
 61133  1  0  0  0
 61134  1  0  0  0
 61135  1  0  0  0
 62136  1  0  0  0
 62137  1  0  0  0
 62138  1  0  0  0
 63 65  1  0  0  0
 63139  1  0  0  0
 63140  1  0  0  0
 63141  1  0  0  0
 64142  1  0  0  0
 65143  1  0  0  0
 68 81  1  0  0  0
 71 73  2  0  0  0
 71 74  1  0  0  0
 71144  1  0  0  0
 72 73  1  0  0  0
 72 75  2  0  0  0
 72145  1  0  0  0
 73 76  1  0  0  0
 74 77  1  0  0  0
 74 82  2  0  0  0
 75 82  1  0  0  0
 75 84  1  0  0  0
 76 78  1  0  0  0
 76146  1  0  0  0
 76147  1  0  0  0
 77 79  1  0  0  0
 77148  1  0  0  0
 77149  1  0  0  0
 78 80  1  0  0  0
 78150  1  0  0  0
 78151  1  0  0  0
 79 81  1  0  0  0
 79152  1  0  0  0
 79153  1  0  0  0
 80 83  1  0  0  0
 80154  1  0  0  0
 80155  1  0  0  0
 81156  1  0  0  0
 81157  1  0  0  0
M  ISO  4   1 100  68 101  81 101  83 100
M  END
> <chiral flag>
0

> <version>
0

> <s_m_source_file>
/data/baiqing/PycharmProjects/Reinvent-master-3.2/result/LINK_invent/BTK/process_docking_weight1_custom_sum_contain_oxygen_bond_distance_aromatic_linkinvent_7_9_3/rearranged_h_0030.sdf

> <i_m_source_file_index>
44

> <r_mmod_Potential_Energy-OPLS-2005>
-288.550811767578

> <r_mmod_Stretch_Energy-OPLS-2005>
30.5167922973633

> <r_mmod_Bend_Energy-OPLS-2005>
83.6059799194336

> <r_mmod_Torsional_Energy-OPLS-2005>
169.307510375977

> <r_mmod_Improper_Torsional_Energy-OPLS-2005>
1.68413257598877

> <r_mmod_Van_der_Waal_Energy-OPLS-2005>
151.291000366211

> <r_mmod_Electrostatic_Energy-OPLS-2005>
-533.441101074219

> <r_mmod_Solvation_Energy-OPLS-2005>
-198.181060791016

> <b_mmod_Minimization_Converged-OPLS-2005>
0

> <r_mmod_RMS_Derivative-OPLS-2005>
2.28941893577576

$$$$
44
                    3D
 Structure written by MMmdl.
171180  0  0  1  0            999 V2000
  -30.7184  -14.4400   20.3657 C   0  0  0  0  0  0
  -30.4070  -12.2041   19.4339 C   0  0  0  0  0  0
  -29.4729  -12.3818   18.2134 C   0  0  0  0  0  0
  -27.9967  -12.3023   18.6295 C   0  0  0  0  0  0
  -27.6514  -13.1957   19.8483 C   0  0  2  0  0  0
  -28.6985  -13.0454   20.9742 C   0  0  0  0  0  0
  -25.2587  -13.8154   20.5685 C   0  0  0  0  0  0
  -24.1832  -13.0447   20.9190 C   0  0  0  0  0  0
  -24.6367  -11.6905   20.8766 C   0  0  0  0  0  0
  -23.9036  -10.4291   21.0422 C   0  0  0  0  0  0
  -24.3597   -9.4206   21.9195 C   0  0  0  0  0  0
  -23.6277   -8.2242   22.0757 C   0  0  0  0  0  0
  -22.4265   -8.0272   21.3540 C   0  0  0  0  0  0
  -21.9896   -9.0247   20.4646 C   0  0  0  0  0  0
  -22.7214  -10.2134   20.3065 C   0  0  0  0  0  0
  -21.6853   -6.0730   22.5278 C   0  0  0  0  0  0
  -21.4009   -6.5638   23.8209 C   0  0  0  0  0  0
  -21.3659   -5.6797   24.9174 C   0  0  0  0  0  0
  -21.6051   -4.3058   24.7233 C   0  0  0  0  0  0
  -21.8820   -3.8143   23.4352 C   0  0  0  0  0  0
  -21.9193   -4.6957   22.3404 C   0  0  0  0  0  0
  -22.7860  -13.5247   21.1854 C   0  0  0  0  0  0
  -22.1666   -4.2138   21.0983 F   0  0  0  0  0  0
  -21.5634   -3.4542   25.7748 F   0  0  0  0  0  0
  -30.0551  -13.2133   20.4331 N   0  0  0  0  0  0
  -26.2985  -12.9298   20.3313 N   0  0  0  0  0  0
  -25.9285  -11.6476   20.5809 N   0  0  0  0  0  0
  -22.0504  -12.8228   22.0404 N   0  0  0  0  0  0
  -25.4343  -15.1872   20.4101 N   0  0  0  0  0  0
  -31.9342  -14.6102   20.2956 O   0  0  0  0  0  0
  -21.6635   -6.8867   21.4235 O   0  0  0  0  0  0
  -22.3546  -14.5555   20.6705 O   0  0  0  0  0  0
  -24.6042  -31.8737   23.2129 C   0  0  0  0  0  0
  -25.8970  -32.4862   23.8406 C   0  0  1  0  0  0
  -27.2629  -27.5091   20.1063 C   0  0  0  0  0  0
  -25.5864  -33.8655   24.2348 N   0  0  0  0  0  0
  -23.3888  -30.4922   21.5503 C   0  0  2  0  0  0
  -24.8417  -28.9630   20.1172 C   0  0  0  0  0  0
  -22.7365  -29.4666   22.5030 C   0  0  0  0  0  0
  -18.0258  -28.1369   22.8495 C   0  0  0  0  0  0
  -24.1495  -36.7334   23.2636 C   0  0  0  0  0  0
  -25.9032  -30.8687   21.3479 C   0  0  0  0  0  0
  -25.9892  -29.5034   20.7068 C   0  0  0  0  0  0
  -27.1961  -28.7871   20.7040 C   0  0  0  0  0  0
  -26.0970  -26.9624   19.5285 C   0  0  0  0  0  0
  -24.8869  -27.6862   19.5256 C   0  0  0  0  0  0
  -23.5948  -29.8158   20.1656 C   0  0  0  0  0  0
  -25.4114  -36.3143   24.0344 C   0  0  1  0  0  0
  -20.5840  -28.3637   23.1355 C   0  0  2  0  0  0
  -20.6748  -26.9383   22.5431 C   0  0  0  0  0  0
  -19.5733  -26.6379   21.5219 C   0  0  0  0  0  0
  -18.1905  -26.7917   22.1623 C   0  0  0  0  0  0
  -19.1502  -28.8821   23.2923 C   0  0  0  0  0  0
  -18.9434  -30.1431   23.8923 C   0  0  0  0  0  0
  -17.6437  -30.6577   24.0564 C   0  0  0  0  0  0
  -25.9025  -34.9501   23.5146 C   0  0  0  0  0  0
  -16.5329  -29.9079   23.6319 C   0  0  0  0  0  0
  -16.7250  -28.6499   23.0337 C   0  0  0  0  0  0
  -26.4435  -31.6607   25.0695 C   0  0  0  0  0  0
  -25.3735  -31.3676   26.1467 C   0  0  0  0  0  0
  -27.0239  -30.3067   24.5977 C   0  0  0  0  0  0
  -27.6025  -32.4303   25.7469 C   0  0  0  0  0  0
  -27.5589  -37.1826   24.8468 C   0  0  0  0  0  0
  -21.4103  -29.3007   22.3771 N   0  0  0  0  0  0
  -26.4309  -37.3816   23.9406 N   0  0  0  0  0  0
  -24.6498  -31.0911   22.0977 N   0  0  0  0  0  0
  -23.4178  -28.8229   23.3058 O   0  0  0  0  0  0
  -28.4141  -26.7601   20.0684 O   0  0  0  0  0  0
  -26.5597  -34.8943   22.4712 O   0  0  0  0  0  0
  -23.5263  -32.1441   23.7587 O   0  0  0  0  0  0
  -29.2458  -17.1790   18.4973 C   0  0  0  0  0  0
  -30.9320  -16.3111   16.4316 C   0  0  0  0  0  0
  -29.2955  -17.8907   17.2784 C   0  0  0  0  0  0
  -30.0326  -16.0280   18.7094 C   0  0  0  0  0  0
  -30.8934  -15.6074   17.6462 C   0  0  0  0  0  0
  -30.1397  -17.4493   16.2366 C   0  0  0  0  0  0
  -30.1117  -22.7856   19.3054 C   0  0  0  0  0  0
  -30.9574  -23.9578   19.8098 C   0  0  0  0  0  0
  -30.3041  -25.3427   17.9003 C   0  0  0  0  0  0
  -29.8903  -22.8207   17.7724 C   0  0  2  0  0  0
  -29.4320  -24.2242   17.3049 C   0  0  2  0  0  0
  -28.5266  -19.1882   17.1491 C   0  0  0  0  0  0
  -28.8915  -21.7255   17.3425 C   0  0  0  0  0  0
  -29.4295  -20.3234   17.6297 C   0  0  0  0  0  0
  -30.7979  -26.4249   20.0978 C   0  0  0  0  0  0
  -29.6649  -27.4560   20.1746 C   0  0  0  0  0  0
  -30.3313  -25.2222   19.3761 N   0  3  2  0  0  0
  -29.8554  -15.3791   19.9281 O   0  0  0  0  0  0
  -31.6789  -14.5069   17.7247 F   0  0  0  0  0  0
  -30.2569  -18.2974   14.7338 Cl  0  0  0  0  0  0
  -29.4993  -24.3338   15.5230 Cl  0  0  0  0  0  0
  -31.4528  -12.2800   19.1293 H   0  0  0  0  0  0
  -30.2859  -11.2091   19.8642 H   0  0  0  0  0  0
  -29.6862  -11.6088   17.4742 H   0  0  0  0  0  0
  -29.6387  -13.3249   17.7055 H   0  0  0  0  0  0
  -27.7897  -11.2578   18.8646 H   0  0  0  0  0  0
  -27.3529  -12.5528   17.7856 H   0  0  0  0  0  0
  -27.6688  -14.2247   19.4945 H   0  0  0  0  0  0
  -28.6219  -12.0610   21.4369 H   0  0  0  0  0  0
  -28.5110  -13.7708   21.7676 H   0  0  0  0  0  0
  -25.2745   -9.5693   22.4766 H   0  0  0  0  0  0
  -23.9993   -7.4637   22.7474 H   0  0  0  0  0  0
  -21.0839   -8.8763   19.8938 H   0  0  0  0  0  0
  -22.3670  -10.9679   19.6181 H   0  0  0  0  0  0
  -21.1992   -7.6143   23.9701 H   0  0  0  0  0  0
  -21.1489   -6.0532   25.9077 H   0  0  0  0  0  0
  -22.0598   -2.7601   23.2863 H   0  0  0  0  0  0
  -22.4127  -11.9883   22.4780 H   0  0  0  0  0  0
  -21.1118  -13.1237   22.2609 H   0  0  0  0  0  0
  -24.6749  -15.8482   20.5290 H   0  0  0  0  0  0
  -26.3008  -15.6237   20.1221 H   0  0  0  0  0  0
  -26.7064  -32.5624   23.1208 H   0  0  0  0  0  0
  -25.0033  -33.9841   25.0501 H   0  0  0  0  0  0
  -22.6716  -31.3036   21.4110 H   0  0  0  0  0  0
  -23.3760  -35.9663   23.3322 H   0  0  0  0  0  0
  -24.3587  -36.8916   22.2044 H   0  0  0  0  0  0
  -23.7245  -37.6546   23.6632 H   0  0  0  0  0  0
  -25.9907  -31.6317   20.5731 H   0  0  0  0  0  0
  -26.7991  -30.9399   21.9525 H   0  0  0  0  0  0
  -28.0539  -29.2425   21.1737 H   0  0  0  0  0  0
  -26.1321  -25.9827   19.0727 H   0  0  0  0  0  0
  -24.0039  -27.2580   19.0718 H   0  0  0  0  0  0
  -23.6897  -30.5862   19.3996 H   0  0  0  0  0  0
  -22.7247  -29.2231   19.8778 H   0  0  0  0  0  0
  -25.1281  -36.2024   25.0835 H   0  0  0  0  0  0
  -20.9923  -28.3185   24.1482 H   0  0  0  0  0  0
  -20.5658  -26.2231   23.3601 H   0  0  0  0  0  0
  -21.6620  -26.7435   22.1223 H   0  0  0  0  0  0
  -19.6897  -25.6300   21.1224 H   0  0  0  0  0  0
  -19.6674  -27.3210   20.6767 H   0  0  0  0  0  0
  -17.4179  -26.6673   21.4020 H   0  0  0  0  0  0
  -18.0298  -26.0046   22.9008 H   0  0  0  0  0  0
  -19.7908  -30.7240   24.2300 H   0  0  0  0  0  0
  -17.4991  -31.6259   24.5159 H   0  0  0  0  0  0
  -15.5329  -30.2989   23.7625 H   0  0  0  0  0  0
  -15.8654  -28.0835   22.7024 H   0  0  0  0  0  0
  -24.5902  -30.7028   25.7815 H   0  0  0  0  0  0
  -24.8937  -32.2816   26.4971 H   0  0  0  0  0  0
  -25.8122  -30.8816   27.0186 H   0  0  0  0  0  0
  -26.2746  -29.6890   24.1018 H   0  0  0  0  0  0
  -27.4028  -29.7230   25.4374 H   0  0  0  0  0  0
  -27.8568  -30.4422   23.9075 H   0  0  0  0  0  0
  -27.2644  -33.3572   26.2116 H   0  0  0  0  0  0
  -28.3809  -32.6915   25.0289 H   0  0  0  0  0  0
  -28.0720  -31.8380   26.5335 H   0  0  0  0  0  0
  -28.2625  -38.0110   24.7514 H   0  0  0  0  0  0
  -28.1065  -36.2641   24.6296 H   0  0  0  0  0  0
  -27.2300  -37.1477   25.8871 H   0  0  0  0  0  0
  -20.9252  -29.8726   21.7000 H   0  0  0  0  0  0
  -26.0207  -38.2901   24.1396 H   0  0  0  0  0  0
  -28.6034  -17.5300   19.2926 H   0  0  0  0  0  0
  -31.5833  -15.9691   15.6412 H   0  0  0  0  0  0
  -29.1499  -22.7861   19.8217 H   0  0  0  0  0  0
  -30.6146  -21.8676   19.6049 H   0  0  0  0  0  0
  -31.9806  -23.8932   19.4375 H   0  0  0  0  0  0
  -31.0120  -23.9082   20.8983 H   0  0  0  0  0  0
  -29.8967  -26.3092   17.6019 H   0  0  0  0  0  0
  -31.3211  -25.2942   17.5084 H   0  0  0  0  0  0
  -30.8523  -22.6208   17.2964 H   0  0  0  0  0  0
  -28.3912  -24.3913   17.5867 H   0  0  0  0  0  0
  -27.6139  -19.1471   17.7449 H   0  0  0  0  0  0
  -28.2075  -19.3456   16.1184 H   0  0  0  0  0  0
  -28.6848  -21.8053   16.2743 H   0  0  0  0  0  0
  -27.9339  -21.8660   17.8472 H   0  0  0  0  0  0
  -30.4052  -20.2325   17.1494 H   0  0  0  0  0  0
  -29.5982  -20.1805   18.6963 H   0  0  0  0  0  0
  -31.0570  -26.1481   21.1206 H   0  0  0  0  0  0
  -31.7004  -26.8446   19.6517 H   0  0  0  0  0  0
  -29.7480  -28.1737   19.3562 H   0  0  0  0  0  0
  -29.7623  -28.0008   21.1142 H   0  0  0  0  0  0
  -29.3616  -25.1654   19.6641 H   0  0  0  0  0  0
  1 25  1  0  0  0
  1 30  2  0  0  0
  1 88  1  0  0  0
  2  3  1  0  0  0
  2 25  1  0  0  0
  2 92  1  0  0  0
  2 93  1  0  0  0
  3  4  1  0  0  0
  3 94  1  0  0  0
  3 95  1  0  0  0
  4  5  1  0  0  0
  4 96  1  0  0  0
  4 97  1  0  0  0
  5  6  1  0  0  0
  5 26  1  0  0  0
  5 98  1  0  0  0
  6 25  1  0  0  0
  6 99  1  0  0  0
  6100  1  0  0  0
  7  8  2  0  0  0
  7 26  1  0  0  0
  7 29  1  0  0  0
  8  9  1  0  0  0
  8 22  1  0  0  0
  9 10  1  0  0  0
  9 27  2  0  0  0
 10 11  2  0  0  0
 10 15  1  0  0  0
 11 12  1  0  0  0
 11101  1  0  0  0
 12 13  2  0  0  0
 12102  1  0  0  0
 13 14  1  0  0  0
 13 31  1  0  0  0
 14 15  2  0  0  0
 14103  1  0  0  0
 15104  1  0  0  0
 16 17  2  0  0  0
 16 21  1  0  0  0
 16 31  1  0  0  0
 17 18  1  0  0  0
 17105  1  0  0  0
 18 19  2  0  0  0
 18106  1  0  0  0
 19 20  1  0  0  0
 19 24  1  0  0  0
 20 21  2  0  0  0
 20107  1  0  0  0
 21 23  1  0  0  0
 22 28  1  0  0  0
 22 32  2  0  0  0
 26 27  1  0  0  0
 28108  1  0  0  0
 28109  1  0  0  0
 29110  1  0  0  0
 29111  1  0  0  0
 33 34  1  0  0  0
 33 66  1  0  0  0
 33 70  2  0  0  0
 34 36  1  0  0  0
 34 59  1  0  0  0
 34112  1  0  0  0
 35 44  2  0  0  0
 35 45  1  0  0  0
 35 68  1  0  0  0
 36 56  1  0  0  0
 36113  1  0  0  0
 37 39  1  0  0  0
 37 47  1  0  0  0
 37 66  1  0  0  0
 37114  1  0  0  0
 38 43  2  0  0  0
 38 46  1  0  0  0
 38 47  1  0  0  0
 39 64  1  0  0  0
 39 67  2  0  0  0
 40 52  1  0  0  0
 40 53  2  0  0  0
 40 58  1  0  0  0
 41115  1  0  0  0
 41116  1  0  0  0
 41117  1  0  0  0
 41 48  1  0  0  0
 42 43  1  0  0  0
 42 66  1  0  0  0
 42118  1  0  0  0
 42119  1  0  0  0
 43 44  1  0  0  0
 44120  1  0  0  0
 45 46  2  0  0  0
 45121  1  0  0  0
 46122  1  0  0  0
 47123  1  0  0  0
 47124  1  0  0  0
 48 56  1  0  0  0
 48 65  1  0  0  0
 48125  1  0  0  0
 49 50  1  0  0  0
 49 53  1  0  0  0
 49 64  1  0  0  0
 49126  1  0  0  0
 50 51  1  0  0  0
 50127  1  0  0  0
 50128  1  0  0  0
 51 52  1  0  0  0
 51129  1  0  0  0
 51130  1  0  0  0
 52131  1  0  0  0
 52132  1  0  0  0
 53 54  1  0  0  0
 54 55  2  0  0  0
 54133  1  0  0  0
 55 57  1  0  0  0
 55134  1  0  0  0
 56 69  2  0  0  0
 57 58  2  0  0  0
 57135  1  0  0  0
 58136  1  0  0  0
 59 60  1  0  0  0
 59 61  1  0  0  0
 59 62  1  0  0  0
 60137  1  0  0  0
 60138  1  0  0  0
 60139  1  0  0  0
 61140  1  0  0  0
 61141  1  0  0  0
 61142  1  0  0  0
 62143  1  0  0  0
 62144  1  0  0  0
 62145  1  0  0  0
 63 65  1  0  0  0
 63146  1  0  0  0
 63147  1  0  0  0
 63148  1  0  0  0
 64149  1  0  0  0
 65150  1  0  0  0
 68 86  1  0  0  0
 71 73  2  0  0  0
 71 74  1  0  0  0
 71151  1  0  0  0
 72 75  1  0  0  0
 72 76  2  0  0  0
 72152  1  0  0  0
 73 76  1  0  0  0
 73 82  1  0  0  0
 74 75  2  0  0  0
 74 88  1  0  0  0
 75 89  1  0  0  0
 76 90  1  0  0  0
 77 78  1  0  0  0
 77 80  1  0  0  0
 77153  1  0  0  0
 77154  1  0  0  0
 78 87  1  0  0  0
 78155  1  0  0  0
 78156  1  0  0  0
 79 81  1  0  0  0
 79 87  1  0  0  0
 79157  1  0  0  0
 79158  1  0  0  0
 80 81  1  0  0  0
 80 83  1  0  0  0
 80159  1  0  0  0
 81 91  1  0  0  0
 81160  1  0  0  0
 82 84  1  0  0  0
 82161  1  0  0  0
 82162  1  0  0  0
 83 84  1  0  0  0
 83163  1  0  0  0
 83164  1  0  0  0
 84165  1  0  0  0
 84166  1  0  0  0
 85 86  1  0  0  0
 85167  1  0  0  0
 85168  1  0  0  0
 85 87  1  0  0  0
 86169  1  0  0  0
 86170  1  0  0  0
 87171  1  0  0  0
M  CHG  1  87   1
M  ISO  4   1 100  68 101  86 101  88 100
M  END
> <chiral flag>
0

> <version>
0

> <s_m_source_file>
/data/baiqing/PycharmProjects/Reinvent-master-3.2/result/LINK_invent/BTK/process_docking_weight1_custom_sum_contain_oxygen_bond_distance_aromatic_linkinvent_7_9_3/rearranged_h_0030.sdf

> <i_m_source_file_index>
45

> <r_mmod_Potential_Energy-OPLS-2005>
-5.15747022628784

> <r_mmod_Stretch_Energy-OPLS-2005>
33.9985046386719

> <r_mmod_Bend_Energy-OPLS-2005>
105.585113525391

> <r_mmod_Torsional_Energy-OPLS-2005>
284.377319335938

> <r_mmod_Improper_Torsional_Energy-OPLS-2005>
13.4774141311646

> <r_mmod_Van_der_Waal_Energy-OPLS-2005>
174.735198974609

> <r_mmod_Electrostatic_Energy-OPLS-2005>
-227.325897216797

> <r_mmod_Solvation_Energy-OPLS-2005>
-418.293609619141

> <b_mmod_Minimization_Converged-OPLS-2005>
0

> <r_mmod_RMS_Derivative-OPLS-2005>
1.15862798690796

$$$$
45
                    3D
 Structure written by MMmdl.
159167  0  0  1  0            999 V2000
  -30.6986  -14.5842   20.4937 C   0  0  0  0  0  0
  -30.4069  -12.3496   19.4694 C   0  0  0  0  0  0
  -29.4900  -12.4684   18.2360 C   0  0  0  0  0  0
  -28.0169  -12.3309   18.6522 C   0  0  0  0  0  0
  -27.6462  -13.2209   19.8681 C   0  0  2  0  0  0
  -28.6948  -13.1109   21.0001 C   0  0  0  0  0  0
  -25.2479  -13.8198   20.5722 C   0  0  0  0  0  0
  -24.1749  -13.0454   20.9177 C   0  0  0  0  0  0
  -24.6340  -11.6911   20.8769 C   0  0  0  0  0  0
  -23.9039  -10.4282   21.0417 C   0  0  0  0  0  0
  -24.3603   -9.4195   21.9192 C   0  0  0  0  0  0
  -23.6305   -8.2214   22.0771 C   0  0  0  0  0  0
  -22.4295   -8.0227   21.3548 C   0  0  0  0  0  0
  -21.9912   -9.0191   20.4665 C   0  0  0  0  0  0
  -22.7212  -10.2087   20.3079 C   0  0  0  0  0  0
  -21.6856   -6.0705   22.5280 C   0  0  0  0  0  0
  -21.4020   -6.5629   23.8202 C   0  0  0  0  0  0
  -21.3681   -5.6793   24.9172 C   0  0  0  0  0  0
  -21.6052   -4.3050   24.7222 C   0  0  0  0  0  0
  -21.8838   -3.8127   23.4361 C   0  0  0  0  0  0
  -21.9199   -4.6934   22.3410 C   0  0  0  0  0  0
  -22.7777  -13.5230   21.1843 C   0  0  0  0  0  0
  -22.1684   -4.2110   21.0988 F   0  0  0  0  0  0
  -21.5597   -3.4551   25.7748 F   0  0  0  0  0  0
  -30.0086  -13.4051   20.4201 N   0  0  0  0  0  0
  -26.2940  -12.9400   20.3425 N   0  0  0  0  0  0
  -25.9276  -11.6546   20.5853 N   0  0  0  0  0  0
  -22.0469  -12.8222   22.0409 N   0  0  0  0  0  0
  -25.4224  -15.1935   20.4159 N   0  0  0  0  0  0
  -31.8724  -14.6494   20.1247 O   0  0  0  0  0  0
  -21.6669   -6.8829   21.4235 O   0  0  0  0  0  0
  -22.3467  -14.5560   20.6700 O   0  0  0  0  0  0
  -24.6263  -31.8606   23.2068 C   0  0  0  0  0  0
  -25.9099  -32.4803   23.8415 C   0  0  1  0  0  0
  -27.2294  -27.3577   20.0997 C   0  0  0  0  0  0
  -25.5903  -33.8605   24.2344 N   0  0  0  0  0  0
  -23.4215  -30.4897   21.5443 C   0  0  2  0  0  0
  -24.8696  -28.9568   20.1099 C   0  0  0  0  0  0
  -22.7465  -29.4652   22.4885 C   0  0  0  0  0  0
  -18.0291  -28.1351   22.8473 C   0  0  0  0  0  0
  -24.1505  -36.7359   23.2638 C   0  0  0  0  0  0
  -25.9632  -30.8065   21.3715 C   0  0  0  0  0  0
  -26.0393  -29.4373   20.7122 C   0  0  0  0  0  0
  -27.2252  -28.6477   20.7046 C   0  0  0  0  0  0
  -26.0373  -26.9384   19.4576 C   0  0  0  0  0  0
  -24.8689  -27.7087   19.4785 C   0  0  0  0  0  0
  -23.6379  -29.8302   20.1588 C   0  0  0  0  0  0
  -25.4108  -36.3111   24.0340 C   0  0  1  0  0  0
  -20.5901  -28.3664   23.1258 C   0  0  2  0  0  0
  -20.6774  -26.9376   22.5379 C   0  0  0  0  0  0
  -19.5755  -26.6353   21.5180 C   0  0  0  0  0  0
  -18.1942  -26.7896   22.1603 C   0  0  0  0  0  0
  -19.1547  -28.8806   23.2881 C   0  0  0  0  0  0
  -18.9469  -30.1403   23.8902 C   0  0  0  0  0  0
  -17.6471  -30.6548   24.0549 C   0  0  0  0  0  0
  -25.9012  -34.9466   23.5136 C   0  0  0  0  0  0
  -16.5359  -29.9054   23.6301 C   0  0  0  0  0  0
  -16.7279  -28.6466   23.0335 C   0  0  0  0  0  0
  -26.4478  -31.6591   25.0755 C   0  0  0  0  0  0
  -25.3794  -31.3703   26.1543 C   0  0  0  0  0  0
  -27.0295  -30.3023   24.6157 C   0  0  0  0  0  0
  -27.6013  -32.4334   25.7552 C   0  0  0  0  0  0
  -27.5595  -37.1849   24.8445 C   0  0  0  0  0  0
  -21.4172  -29.3063   22.3660 N   0  0  0  0  0  0
  -26.4306  -37.3786   23.9383 N   0  0  0  0  0  0
  -24.6893  -31.0692   22.0976 N   0  0  0  0  0  0
  -23.4169  -28.8128   23.2924 O   0  0  0  0  0  0
  -28.3357  -26.5010   20.1620 O   0  0  0  0  0  0
  -26.5562  -34.8919   22.4689 O   0  0  0  0  0  0
  -23.5415  -32.1326   23.7401 O   0  0  0  0  0  0
  -29.8966  -19.3060   21.7437 C   0  0  0  0  0  0
  -29.3920  -20.6323   21.6653 C   0  0  0  0  0  0
  -29.9269  -18.4312   20.6326 C   0  0  0  0  0  0
  -28.9049  -21.1570   20.4342 C   0  0  0  0  0  0
  -28.9714  -20.2970   19.2890 C   0  0  0  0  0  0
  -29.4497  -18.9498   19.3986 C   0  0  0  0  0  0
  -29.4154  -21.4616   22.9440 C   0  0  0  0  0  0
  -28.5582  -20.8084   17.9079 C   0  0  0  0  0  0
  -28.1859  -22.5445   20.3804 C   0  0  0  0  0  0
  -30.6985  -17.0758   20.7394 C   0  0  0  0  0  0
  -28.9874  -23.9027   20.3817 C   0  0  0  0  0  0
  -28.0046  -25.0755   20.0472 C   0  0  0  0  0  0
  -30.0279  -15.7345   20.8008 N   0  0  0  0  0  0
  -29.4932  -17.9285   17.9991 Cl  0  0  0  0  0  0
  -31.4553  -12.4189   19.1685 H   0  0  0  0  0  0
  -30.2969  -11.3667   19.9323 H   0  0  0  0  0  0
  -29.7464  -11.6920   17.5124 H   0  0  0  0  0  0
  -29.6429  -13.4261   17.7372 H   0  0  0  0  0  0
  -27.8603  -11.2828   18.9071 H   0  0  0  0  0  0
  -27.3584  -12.5400   17.8076 H   0  0  0  0  0  0
  -27.6610  -14.2530   19.5167 H   0  0  0  0  0  0
  -28.4595  -13.7992   21.8108 H   0  0  0  0  0  0
  -28.6959  -12.1122   21.4381 H   0  0  0  0  0  0
  -25.2732   -9.5655   22.4775 H   0  0  0  0  0  0
  -24.0009   -7.4635   22.7518 H   0  0  0  0  0  0
  -21.0834   -8.8688   19.9005 H   0  0  0  0  0  0
  -22.3642  -10.9611   19.6188 H   0  0  0  0  0  0
  -21.2043   -7.6142   23.9670 H   0  0  0  0  0  0
  -21.1499   -6.0552   25.9071 H   0  0  0  0  0  0
  -22.0611   -2.7596   23.2894 H   0  0  0  0  0  0
  -22.4153  -11.9892   22.4780 H   0  0  0  0  0  0
  -21.1094  -13.1225   22.2683 H   0  0  0  0  0  0
  -24.6661  -15.8566   20.5394 H   0  0  0  0  0  0
  -26.2942  -15.6356   20.1555 H   0  0  0  0  0  0
  -26.7188  -32.5478   23.1188 H   0  0  0  0  0  0
  -25.0104  -33.9781   25.0523 H   0  0  0  0  0  0
  -22.7202  -31.3121   21.3968 H   0  0  0  0  0  0
  -23.3734  -35.9728   23.3263 H   0  0  0  0  0  0
  -24.3620  -36.9000   22.2064 H   0  0  0  0  0  0
  -23.7308  -37.6581   23.6660 H   0  0  0  0  0  0
  -26.0950  -31.5711   20.6048 H   0  0  0  0  0  0
  -26.8450  -30.8546   21.9980 H   0  0  0  0  0  0
  -28.1192  -29.0086   21.1952 H   0  0  0  0  0  0
  -25.9639  -25.9989   18.9331 H   0  0  0  0  0  0
  -23.9754  -27.3267   19.0049 H   0  0  0  0  0  0
  -23.7656  -30.6059   19.4030 H   0  0  0  0  0  0
  -22.7607  -29.2602   19.8461 H   0  0  0  0  0  0
  -25.1301  -36.1993   25.0842 H   0  0  0  0  0  0
  -21.0052  -28.3237   24.1357 H   0  0  0  0  0  0
  -20.5627  -26.2278   23.3576 H   0  0  0  0  0  0
  -21.6656  -26.7351   22.1213 H   0  0  0  0  0  0
  -19.6919  -25.6267   21.1205 H   0  0  0  0  0  0
  -19.6719  -27.3152   20.6704 H   0  0  0  0  0  0
  -17.4203  -26.6603   21.4020 H   0  0  0  0  0  0
  -18.0366  -26.0043   22.9006 H   0  0  0  0  0  0
  -19.7948  -30.7212   24.2289 H   0  0  0  0  0  0
  -17.5022  -31.6239   24.5144 H   0  0  0  0  0  0
  -15.5359  -30.2959   23.7624 H   0  0  0  0  0  0
  -15.8675  -28.0793   22.7051 H   0  0  0  0  0  0
  -24.5957  -30.7011   25.7971 H   0  0  0  0  0  0
  -24.9000  -32.2849   26.5053 H   0  0  0  0  0  0
  -25.8243  -30.8897   27.0273 H   0  0  0  0  0  0
  -26.2834  -29.6818   24.1162 H   0  0  0  0  0  0
  -27.3979  -29.7236   25.4640 H   0  0  0  0  0  0
  -27.8720  -30.4316   23.9356 H   0  0  0  0  0  0
  -27.2551  -33.3589   26.2181 H   0  0  0  0  0  0
  -28.3821  -32.6985   25.0412 H   0  0  0  0  0  0
  -28.0670  -31.8434   26.5456 H   0  0  0  0  0  0
  -28.2588  -38.0168   24.7467 H   0  0  0  0  0  0
  -28.1117  -36.2691   24.6281 H   0  0  0  0  0  0
  -27.2300  -37.1512   25.8846 H   0  0  0  0  0  0
  -20.9268  -29.8930   21.7056 H   0  0  0  0  0  0
  -26.0191  -38.2876   24.1333 H   0  0  0  0  0  0
  -30.3050  -18.9607   22.6834 H   0  0  0  0  0  0
  -30.4473  -21.6186   23.2573 H   0  0  0  0  0  0
  -28.9040  -20.9358   23.7488 H   0  0  0  0  0  0
  -28.9567  -22.4456   22.8559 H   0  0  0  0  0  0
  -27.5419  -20.5003   17.6553 H   0  0  0  0  0  0
  -29.2255  -20.4262   17.1366 H   0  0  0  0  0  0
  -28.6237  -21.8897   17.8145 H   0  0  0  0  0  0
  -27.5164  -22.5584   19.5233 H   0  0  0  0  0  0
  -27.4784  -22.5697   21.2102 H   0  0  0  0  0  0
  -31.3756  -17.0816   19.8850 H   0  0  0  0  0  0
  -31.3622  -17.1345   21.6057 H   0  0  0  0  0  0
  -29.7781  -23.8714   19.6324 H   0  0  0  0  0  0
  -29.4682  -24.0652   21.3456 H   0  0  0  0  0  0
  -27.7263  -24.8882   19.0112 H   0  0  0  0  0  0
  -27.1170  -24.8991   20.6623 H   0  0  0  0  0  0
  -29.0590  -15.6780   21.0762 H   0  0  0  0  0  0
  1 25  1  0  0  0
  1 30  2  0  0  0
  1 83  1  0  0  0
  2  3  1  0  0  0
  2 25  1  0  0  0
  2 85  1  0  0  0
  2 86  1  0  0  0
  3  4  1  0  0  0
  3 87  1  0  0  0
  3 88  1  0  0  0
  4  5  1  0  0  0
  4 89  1  0  0  0
  4 90  1  0  0  0
  5  6  1  0  0  0
  5 26  1  0  0  0
  5 91  1  0  0  0
  6 25  1  0  0  0
  6 92  1  0  0  0
  6 93  1  0  0  0
  7  8  2  0  0  0
  7 26  1  0  0  0
  7 29  1  0  0  0
  8  9  1  0  0  0
  8 22  1  0  0  0
  9 10  1  0  0  0
  9 27  2  0  0  0
 10 11  2  0  0  0
 10 15  1  0  0  0
 11 12  1  0  0  0
 11 94  1  0  0  0
 12 13  2  0  0  0
 12 95  1  0  0  0
 13 14  1  0  0  0
 13 31  1  0  0  0
 14 15  2  0  0  0
 14 96  1  0  0  0
 15 97  1  0  0  0
 16 17  2  0  0  0
 16 21  1  0  0  0
 16 31  1  0  0  0
 17 18  1  0  0  0
 17 98  1  0  0  0
 18 19  2  0  0  0
 18 99  1  0  0  0
 19 20  1  0  0  0
 19 24  1  0  0  0
 20 21  2  0  0  0
 20100  1  0  0  0
 21 23  1  0  0  0
 22 28  1  0  0  0
 22 32  2  0  0  0
 26 27  1  0  0  0
 28101  1  0  0  0
 28102  1  0  0  0
 29103  1  0  0  0
 29104  1  0  0  0
 33 34  1  0  0  0
 33 66  1  0  0  0
 33 70  2  0  0  0
 34 36  1  0  0  0
 34 59  1  0  0  0
 34105  1  0  0  0
 35 44  2  0  0  0
 35 45  1  0  0  0
 35 68  1  0  0  0
 36 56  1  0  0  0
 36106  1  0  0  0
 37 39  1  0  0  0
 37 47  1  0  0  0
 37 66  1  0  0  0
 37107  1  0  0  0
 38 43  2  0  0  0
 38 46  1  0  0  0
 38 47  1  0  0  0
 39 64  1  0  0  0
 39 67  2  0  0  0
 40 52  1  0  0  0
 40 53  2  0  0  0
 40 58  1  0  0  0
 41108  1  0  0  0
 41109  1  0  0  0
 41110  1  0  0  0
 41 48  1  0  0  0
 42 43  1  0  0  0
 42 66  1  0  0  0
 42111  1  0  0  0
 42112  1  0  0  0
 43 44  1  0  0  0
 44113  1  0  0  0
 45 46  2  0  0  0
 45114  1  0  0  0
 46115  1  0  0  0
 47116  1  0  0  0
 47117  1  0  0  0
 48 56  1  0  0  0
 48 65  1  0  0  0
 48118  1  0  0  0
 49 50  1  0  0  0
 49 53  1  0  0  0
 49 64  1  0  0  0
 49119  1  0  0  0
 50 51  1  0  0  0
 50120  1  0  0  0
 50121  1  0  0  0
 51 52  1  0  0  0
 51122  1  0  0  0
 51123  1  0  0  0
 52124  1  0  0  0
 52125  1  0  0  0
 53 54  1  0  0  0
 54 55  2  0  0  0
 54126  1  0  0  0
 55 57  1  0  0  0
 55127  1  0  0  0
 56 69  2  0  0  0
 57 58  2  0  0  0
 57128  1  0  0  0
 58129  1  0  0  0
 59 60  1  0  0  0
 59 61  1  0  0  0
 59 62  1  0  0  0
 60130  1  0  0  0
 60131  1  0  0  0
 60132  1  0  0  0
 61133  1  0  0  0
 61134  1  0  0  0
 61135  1  0  0  0
 62136  1  0  0  0
 62137  1  0  0  0
 62138  1  0  0  0
 63 65  1  0  0  0
 63139  1  0  0  0
 63140  1  0  0  0
 63141  1  0  0  0
 64142  1  0  0  0
 65143  1  0  0  0
 68 82  1  0  0  0
 71 72  2  0  0  0
 71 73  1  0  0  0
 71144  1  0  0  0
 72 74  1  0  0  0
 72 77  1  0  0  0
 73 76  2  0  0  0
 73 80  1  0  0  0
 74 75  2  0  0  0
 74 79  1  0  0  0
 75 76  1  0  0  0
 75 78  1  0  0  0
 76 84  1  0  0  0
 77145  1  0  0  0
 77146  1  0  0  0
 77147  1  0  0  0
 78148  1  0  0  0
 78149  1  0  0  0
 78150  1  0  0  0
 79 81  1  0  0  0
 79151  1  0  0  0
 79152  1  0  0  0
 80 83  1  0  0  0
 80153  1  0  0  0
 80154  1  0  0  0
 81 82  1  0  0  0
 81155  1  0  0  0
 81156  1  0  0  0
 82157  1  0  0  0
 82158  1  0  0  0
 83159  1  0  0  0
M  ISO  4   1 100  68 101  82 101  83 100
M  END
> <chiral flag>
0

> <version>
0

> <s_m_source_file>
/data/baiqing/PycharmProjects/Reinvent-master-3.2/result/LINK_invent/BTK/process_docking_weight1_custom_sum_contain_oxygen_bond_distance_aromatic_linkinvent_7_9_3/rearranged_h_0030.sdf

> <i_m_source_file_index>
46

> <r_mmod_Potential_Energy-OPLS-2005>
20.3797149658203

> <r_mmod_Stretch_Energy-OPLS-2005>
65.9519271850586

> <r_mmod_Bend_Energy-OPLS-2005>
143.682525634766

> <r_mmod_Torsional_Energy-OPLS-2005>
212.291717529297

> <r_mmod_Improper_Torsional_Energy-OPLS-2005>
5.68984985351562

> <r_mmod_Van_der_Waal_Energy-OPLS-2005>
167.763137817383

> <r_mmod_Electrostatic_Energy-OPLS-2005>
-412.676483154297

> <r_mmod_Solvation_Energy-OPLS-2005>
-202.314834594727

> <b_mmod_Minimization_Converged-OPLS-2005>
0

> <r_mmod_RMS_Derivative-OPLS-2005>
5.17510271072388

$$$$
46
                    3D
 Structure written by MMmdl.
159167  0  0  1  0            999 V2000
  -30.5851  -14.7117   20.4794 C   0  0  0  0  0  0
  -30.4382  -12.4345   19.4383 C   0  0  0  0  0  0
  -29.4990  -12.4881   18.2136 C   0  0  0  0  0  0
  -28.0304  -12.2951   18.6427 C   0  0  0  0  0  0
  -27.6360  -13.2112   19.8343 C   0  0  2  0  0  0
  -28.6829  -13.1327   20.9638 C   0  0  0  0  0  0
  -25.2531  -13.8162   20.5678 C   0  0  0  0  0  0
  -24.1819  -13.0455   20.9168 C   0  0  0  0  0  0
  -24.6357  -11.6900   20.8726 C   0  0  0  0  0  0
  -23.9048  -10.4296   21.0387 C   0  0  0  0  0  0
  -24.3603   -9.4218   21.9177 C   0  0  0  0  0  0
  -23.6287   -8.2250   22.0771 C   0  0  0  0  0  0
  -22.4266   -8.0282   21.3551 C   0  0  0  0  0  0
  -21.9884   -9.0253   20.4653 C   0  0  0  0  0  0
  -22.7214  -10.2124   20.3047 C   0  0  0  0  0  0
  -21.6831   -6.0754   22.5294 C   0  0  0  0  0  0
  -21.4024   -6.5669   23.8240 C   0  0  0  0  0  0
  -21.3651   -5.6808   24.9188 C   0  0  0  0  0  0
  -21.6036   -4.3071   24.7220 C   0  0  0  0  0  0
  -21.8819   -3.8172   23.4337 C   0  0  0  0  0  0
  -21.9199   -4.6993   22.3406 C   0  0  0  0  0  0
  -22.7837  -13.5243   21.1847 C   0  0  0  0  0  0
  -22.1663   -4.2201   21.0968 F   0  0  0  0  0  0
  -21.5614   -3.4536   25.7708 F   0  0  0  0  0  0
  -29.9808  -13.4831   20.3710 N   0  0  0  0  0  0
  -26.2916  -12.9327   20.3199 N   0  0  0  0  0  0
  -25.9271  -11.6491   20.5712 N   0  0  0  0  0  0
  -22.0452  -12.8252   22.0366 N   0  0  0  0  0  0
  -25.4280  -15.1903   20.4140 N   0  0  0  0  0  0
  -31.7958  -14.8372   20.2833 O   0  0  0  0  0  0
  -21.6632   -6.8864   21.4240 O   0  0  0  0  0  0
  -22.3542  -14.5550   20.6664 O   0  0  0  0  0  0
  -24.6245  -31.8608   23.2073 C   0  0  0  0  0  0
  -25.9079  -32.4791   23.8426 C   0  0  1  0  0  0
  -27.2179  -27.2958   20.1357 C   0  0  0  0  0  0
  -25.5918  -33.8609   24.2355 N   0  0  0  0  0  0
  -23.4233  -30.4877   21.5409 C   0  0  2  0  0  0
  -24.8727  -28.9406   20.1063 C   0  0  0  0  0  0
  -22.7509  -29.4608   22.4833 C   0  0  0  0  0  0
  -18.0287  -28.1458   22.8353 C   0  0  0  0  0  0
  -24.1473  -36.7292   23.2644 C   0  0  0  0  0  0
  -25.9659  -30.7808   21.3857 C   0  0  0  0  0  0
  -26.0389  -29.4084   20.7242 C   0  0  0  0  0  0
  -27.2166  -28.5991   20.7283 C   0  0  0  0  0  0
  -26.0254  -26.8920   19.4878 C   0  0  0  0  0  0
  -24.8696  -27.6874   19.4764 C   0  0  0  0  0  0
  -23.6546  -29.8404   20.1491 C   0  0  0  0  0  0
  -25.4109  -36.3113   24.0335 C   0  0  1  0  0  0
  -20.5876  -28.3754   23.1190 C   0  0  2  0  0  0
  -20.6762  -26.9467   22.5352 C   0  0  0  0  0  0
  -19.5774  -26.6402   21.5130 C   0  0  0  0  0  0
  -18.1949  -26.7975   22.1536 C   0  0  0  0  0  0
  -19.1543  -28.8920   23.2744 C   0  0  0  0  0  0
  -18.9500  -30.1508   23.8778 C   0  0  0  0  0  0
  -17.6516  -30.6614   24.0567 C   0  0  0  0  0  0
  -25.9035  -34.9471   23.5157 C   0  0  0  0  0  0
  -16.5386  -29.9142   23.6330 C   0  0  0  0  0  0
  -16.7271  -28.6608   23.0212 C   0  0  0  0  0  0
  -26.4471  -31.6621   25.0807 C   0  0  0  0  0  0
  -25.3734  -31.3725   26.1574 C   0  0  0  0  0  0
  -27.0341  -30.3073   24.6281 C   0  0  0  0  0  0
  -27.6092  -32.4300   25.7543 C   0  0  0  0  0  0
  -27.5558  -37.1811   24.8470 C   0  0  0  0  0  0
  -21.4218  -29.3124   22.3633 N   0  0  0  0  0  0
  -26.4254  -37.3822   23.9445 N   0  0  0  0  0  0
  -24.6896  -31.0620   22.1020 N   0  0  0  0  0  0
  -23.4228  -28.8068   23.2863 O   0  0  0  0  0  0
  -28.3093  -26.4093   20.2061 O   0  0  0  0  0  0
  -26.5560  -34.8909   22.4693 O   0  0  0  0  0  0
  -23.5391  -32.1388   23.7372 O   0  0  0  0  0  0
  -32.0456  -20.1524   20.8487 C   0  0  0  0  0  0
  -29.3291  -19.6722   20.7321 C   0  0  0  0  0  0
  -31.1760  -21.2514   20.7149 C   0  0  0  0  0  0
  -31.6049  -18.8197   20.9166 C   0  0  0  0  0  0
  -29.7656  -21.0602   20.6244 C   0  0  0  0  0  0
  -30.2187  -18.5299   20.9006 C   0  0  0  0  0  0
  -31.8597  -22.6066   20.7158 C   0  0  0  0  0  0
  -32.6902  -17.7648   21.0678 C   0  0  0  0  0  0
  -28.7305  -22.2714   20.4378 C   0  0  0  0  0  0
  -29.7320  -17.0828   21.3485 C   0  0  0  0  0  0
  -29.1206  -23.8447   20.4305 C   0  0  0  0  0  0
  -28.0208  -24.9482   20.0927 C   0  0  0  0  0  0
  -29.7411  -15.8026   20.5330 N   0  0  0  0  0  0
  -31.4741  -12.5826   19.1295 H   0  0  0  0  0  0
  -30.4049  -11.4509   19.9125 H   0  0  0  0  0  0
  -29.7770  -11.7211   17.4907 H   0  0  0  0  0  0
  -29.6125  -13.4451   17.7001 H   0  0  0  0  0  0
  -27.9018  -11.2480   18.9304 H   0  0  0  0  0  0
  -27.3611  -12.4627   17.7987 H   0  0  0  0  0  0
  -27.6320  -14.2272   19.4432 H   0  0  0  0  0  0
  -28.7125  -12.1314   21.3984 H   0  0  0  0  0  0
  -28.4211  -13.8090   21.7788 H   0  0  0  0  0  0
  -25.2728   -9.5731   22.4757 H   0  0  0  0  0  0
  -24.0021   -7.4635   22.7486 H   0  0  0  0  0  0
  -21.0832   -8.8753   19.8921 H   0  0  0  0  0  0
  -22.3678  -10.9663   19.6163 H   0  0  0  0  0  0
  -21.2023   -7.6177   23.9768 H   0  0  0  0  0  0
  -21.1462   -6.0514   25.9095 H   0  0  0  0  0  0
  -22.0593   -2.7638   23.2810 H   0  0  0  0  0  0
  -22.4041  -11.9930   22.4801 H   0  0  0  0  0  0
  -21.1069  -13.1322   22.2521 H   0  0  0  0  0  0
  -24.6634  -15.8429   20.5483 H   0  0  0  0  0  0
  -26.2834  -15.6356   20.1134 H   0  0  0  0  0  0
  -26.7117  -32.5462   23.1135 H   0  0  0  0  0  0
  -25.0198  -33.9792   25.0595 H   0  0  0  0  0  0
  -22.7087  -31.3008   21.3967 H   0  0  0  0  0  0
  -23.3747  -35.9608   23.3320 H   0  0  0  0  0  0
  -24.3557  -36.8895   22.2053 H   0  0  0  0  0  0
  -23.7180  -37.6485   23.6644 H   0  0  0  0  0  0
  -26.0954  -31.5364   20.6116 H   0  0  0  0  0  0
  -26.8461  -30.8306   22.0129 H   0  0  0  0  0  0
  -28.0998  -28.9589   21.2362 H   0  0  0  0  0  0
  -25.9512  -25.9337   18.9960 H   0  0  0  0  0  0
  -23.9805  -27.3193   18.9826 H   0  0  0  0  0  0
  -23.8208  -30.6331   19.4159 H   0  0  0  0  0  0
  -22.7691  -29.3054   19.8035 H   0  0  0  0  0  0
  -25.1259  -36.1971   25.0810 H   0  0  0  0  0  0
  -20.9862  -28.3322   24.1338 H   0  0  0  0  0  0
  -20.5588  -26.2392   23.3556 H   0  0  0  0  0  0
  -21.6657  -26.7447   22.1210 H   0  0  0  0  0  0
  -19.6963  -25.6292   21.1211 H   0  0  0  0  0  0
  -19.6754  -27.3147   20.6599 H   0  0  0  0  0  0
  -17.4189  -26.6538   21.3979 H   0  0  0  0  0  0
  -18.0451  -26.0219   22.9050 H   0  0  0  0  0  0
  -19.8023  -30.7323   24.2054 H   0  0  0  0  0  0
  -17.5128  -31.6259   24.5275 H   0  0  0  0  0  0
  -15.5411  -30.3023   23.7821 H   0  0  0  0  0  0
  -15.8636  -28.1012   22.6834 H   0  0  0  0  0  0
  -24.5967  -30.6982   25.7930 H   0  0  0  0  0  0
  -24.8832  -32.2853   26.4995 H   0  0  0  0  0  0
  -25.8131  -30.8964   27.0358 H   0  0  0  0  0  0
  -26.2962  -29.6812   24.1251 H   0  0  0  0  0  0
  -27.4023  -29.7333   25.4788 H   0  0  0  0  0  0
  -27.8831  -30.4417   23.9560 H   0  0  0  0  0  0
  -27.2837  -33.3657   26.2105 H   0  0  0  0  0  0
  -28.3921  -32.6756   25.0346 H   0  0  0  0  0  0
  -28.0734  -31.8399   26.5448 H   0  0  0  0  0  0
  -28.2579  -38.0106   24.7504 H   0  0  0  0  0  0
  -28.1031  -36.2627   24.6288 H   0  0  0  0  0  0
  -27.2252  -37.1428   25.8863 H   0  0  0  0  0  0
  -20.9393  -29.9090   21.7048 H   0  0  0  0  0  0
  -26.0135  -38.2885   24.1534 H   0  0  0  0  0  0
  -33.1059  -20.3418   20.9370 H   0  0  0  0  0  0
  -28.2626  -19.4779   20.7390 H   0  0  0  0  0  0
  -31.5021  -23.2139   21.5413 H   0  0  0  0  0  0
  -31.7255  -23.1061   19.7588 H   0  0  0  0  0  0
  -32.9368  -22.5273   20.8596 H   0  0  0  0  0  0
  -33.6039  -18.2158   21.4589 H   0  0  0  0  0  0
  -32.9461  -17.3372   20.0970 H   0  0  0  0  0  0
  -32.4290  -16.9623   21.7524 H   0  0  0  0  0  0
  -27.9673  -22.1448   21.2057 H   0  0  0  0  0  0
  -28.2129  -22.0843   19.5002 H   0  0  0  0  0  0
  -28.6990  -17.2044   21.6754 H   0  0  0  0  0  0
  -30.2557  -16.8610   22.2768 H   0  0  0  0  0  0
  -29.8864  -24.0299   19.6861 H   0  0  0  0  0  0
  -29.5259  -24.0987   21.4068 H   0  0  0  0  0  0
  -27.1551  -24.7138   20.7145 H   0  0  0  0  0  0
  -27.7315  -24.7741   19.0559 H   0  0  0  0  0  0
  -28.8033  -15.5277   20.2821 H   0  0  0  0  0  0
  1 25  1  0  0  0
  1 30  2  0  0  0
  1 83  1  0  0  0
  2  3  1  0  0  0
  2 25  1  0  0  0
  2 84  1  0  0  0
  2 85  1  0  0  0
  3  4  1  0  0  0
  3 86  1  0  0  0
  3 87  1  0  0  0
  4  5  1  0  0  0
  4 88  1  0  0  0
  4 89  1  0  0  0
  5  6  1  0  0  0
  5 26  1  0  0  0
  5 90  1  0  0  0
  6 25  1  0  0  0
  6 91  1  0  0  0
  6 92  1  0  0  0
  7  8  2  0  0  0
  7 26  1  0  0  0
  7 29  1  0  0  0
  8  9  1  0  0  0
  8 22  1  0  0  0
  9 10  1  0  0  0
  9 27  2  0  0  0
 10 11  2  0  0  0
 10 15  1  0  0  0
 11 12  1  0  0  0
 11 93  1  0  0  0
 12 13  2  0  0  0
 12 94  1  0  0  0
 13 14  1  0  0  0
 13 31  1  0  0  0
 14 15  2  0  0  0
 14 95  1  0  0  0
 15 96  1  0  0  0
 16 17  2  0  0  0
 16 21  1  0  0  0
 16 31  1  0  0  0
 17 18  1  0  0  0
 17 97  1  0  0  0
 18 19  2  0  0  0
 18 98  1  0  0  0
 19 20  1  0  0  0
 19 24  1  0  0  0
 20 21  2  0  0  0
 20 99  1  0  0  0
 21 23  1  0  0  0
 22 28  1  0  0  0
 22 32  2  0  0  0
 26 27  1  0  0  0
 28100  1  0  0  0
 28101  1  0  0  0
 29102  1  0  0  0
 29103  1  0  0  0
 33 34  1  0  0  0
 33 66  1  0  0  0
 33 70  2  0  0  0
 34 36  1  0  0  0
 34 59  1  0  0  0
 34104  1  0  0  0
 35 44  2  0  0  0
 35 45  1  0  0  0
 35 68  1  0  0  0
 36 56  1  0  0  0
 36105  1  0  0  0
 37 39  1  0  0  0
 37 47  1  0  0  0
 37 66  1  0  0  0
 37106  1  0  0  0
 38 43  2  0  0  0
 38 46  1  0  0  0
 38 47  1  0  0  0
 39 64  1  0  0  0
 39 67  2  0  0  0
 40 52  1  0  0  0
 40 53  2  0  0  0
 40 58  1  0  0  0
 41107  1  0  0  0
 41108  1  0  0  0
 41109  1  0  0  0
 41 48  1  0  0  0
 42 43  1  0  0  0
 42 66  1  0  0  0
 42110  1  0  0  0
 42111  1  0  0  0
 43 44  1  0  0  0
 44112  1  0  0  0
 45 46  2  0  0  0
 45113  1  0  0  0
 46114  1  0  0  0
 47115  1  0  0  0
 47116  1  0  0  0
 48 56  1  0  0  0
 48 65  1  0  0  0
 48117  1  0  0  0
 49 50  1  0  0  0
 49 53  1  0  0  0
 49 64  1  0  0  0
 49118  1  0  0  0
 50 51  1  0  0  0
 50119  1  0  0  0
 50120  1  0  0  0
 51 52  1  0  0  0
 51121  1  0  0  0
 51122  1  0  0  0
 52123  1  0  0  0
 52124  1  0  0  0
 53 54  1  0  0  0
 54 55  2  0  0  0
 54125  1  0  0  0
 55 57  1  0  0  0
 55126  1  0  0  0
 56 69  2  0  0  0
 57 58  2  0  0  0
 57127  1  0  0  0
 58128  1  0  0  0
 59 60  1  0  0  0
 59 61  1  0  0  0
 59 62  1  0  0  0
 60129  1  0  0  0
 60130  1  0  0  0
 60131  1  0  0  0
 61132  1  0  0  0
 61133  1  0  0  0
 61134  1  0  0  0
 62135  1  0  0  0
 62136  1  0  0  0
 62137  1  0  0  0
 63 65  1  0  0  0
 63138  1  0  0  0
 63139  1  0  0  0
 63140  1  0  0  0
 64141  1  0  0  0
 65142  1  0  0  0
 68 82  1  0  0  0
 71 73  2  0  0  0
 71 74  1  0  0  0
 71143  1  0  0  0
 72 75  2  0  0  0
 72 76  1  0  0  0
 72144  1  0  0  0
 73 75  1  0  0  0
 73 77  1  0  0  0
 74 76  2  0  0  0
 74 78  1  0  0  0
 75 79  1  0  0  0
 76 80  1  0  0  0
 77145  1  0  0  0
 77146  1  0  0  0
 77147  1  0  0  0
 78148  1  0  0  0
 78149  1  0  0  0
 78150  1  0  0  0
 79 81  1  0  0  0
 79151  1  0  0  0
 79152  1  0  0  0
 80 83  1  0  0  0
 80153  1  0  0  0
 80154  1  0  0  0
 81 82  1  0  0  0
 81155  1  0  0  0
 81156  1  0  0  0
 82157  1  0  0  0
 82158  1  0  0  0
 83159  1  0  0  0
M  ISO  4   1 100  68 101  82 101  83 100
M  END
> <chiral flag>
0

> <version>
0

> <s_m_source_file>
/data/baiqing/PycharmProjects/Reinvent-master-3.2/result/LINK_invent/BTK/process_docking_weight1_custom_sum_contain_oxygen_bond_distance_aromatic_linkinvent_7_9_3/rearranged_h_0030.sdf

> <i_m_source_file_index>
47

> <r_mmod_Potential_Energy-OPLS-2005>
150.177581787109

> <r_mmod_Stretch_Energy-OPLS-2005>
109.86124420166

> <r_mmod_Bend_Energy-OPLS-2005>
189.168228149414

> <r_mmod_Torsional_Energy-OPLS-2005>
238.478240966797

> <r_mmod_Improper_Torsional_Energy-OPLS-2005>
9.89785003662109

> <r_mmod_Van_der_Waal_Energy-OPLS-2005>
152.182891845703

> <r_mmod_Electrostatic_Energy-OPLS-2005>
-415.654022216797

> <r_mmod_Solvation_Energy-OPLS-2005>
-212.275283813477

> <b_mmod_Minimization_Converged-OPLS-2005>
0

> <r_mmod_RMS_Derivative-OPLS-2005>
6.22225046157837

$$$$
47
                    3D
 Structure written by MMmdl.
150158  0  0  1  0            999 V2000
  -30.4860  -15.1816   20.3691 C   0  0  0  0  0  0
  -30.4339  -12.7481   19.5213 C   0  0  0  0  0  0
  -29.5303  -12.5591   18.2795 C   0  0  0  0  0  0
  -28.0750  -12.3008   18.7056 C   0  0  0  0  0  0
  -27.6137  -13.2709   19.8226 C   0  0  2  0  0  0
  -28.6493  -13.4234   20.9567 C   0  0  0  0  0  0
  -25.2398  -13.8248   20.5737 C   0  0  0  0  0  0
  -24.1746  -13.0441   20.9252 C   0  0  0  0  0  0
  -24.6395  -11.6937   20.8759 C   0  0  0  0  0  0
  -23.9091  -10.4295   21.0406 C   0  0  0  0  0  0
  -24.3636   -9.4208   21.9183 C   0  0  0  0  0  0
  -23.6304   -8.2245   22.0753 C   0  0  0  0  0  0
  -22.4284   -8.0286   21.3546 C   0  0  0  0  0  0
  -21.9924   -9.0261   20.4649 C   0  0  0  0  0  0
  -22.7260  -10.2135   20.3057 C   0  0  0  0  0  0
  -21.6858   -6.0739   22.5280 C   0  0  0  0  0  0
  -21.4019   -6.5643   23.8214 C   0  0  0  0  0  0
  -21.3661   -5.6795   24.9176 C   0  0  0  0  0  0
  -21.6042   -4.3057   24.7226 C   0  0  0  0  0  0
  -21.8819   -3.8150   23.4348 C   0  0  0  0  0  0
  -21.9192   -4.6967   22.3404 C   0  0  0  0  0  0
  -22.7762  -13.5193   21.1900 C   0  0  0  0  0  0
  -22.1661   -4.2154   21.0980 F   0  0  0  0  0  0
  -21.5626   -3.4540   25.7738 F   0  0  0  0  0  0
  -29.8933  -13.8957   20.3313 N   0  0  0  0  0  0
  -26.2822  -12.9516   20.3213 N   0  0  0  0  0  0
  -25.9331  -11.6625   20.5725 N   0  0  0  0  0  0
  -22.0425  -12.8174   22.0459 N   0  0  0  0  0  0
  -25.4026  -15.1980   20.4165 N   0  0  0  0  0  0
  -31.7071  -15.1613   20.1678 O   0  0  0  0  0  0
  -21.6645   -6.8882   21.4242 O   0  0  0  0  0  0
  -22.3438  -14.5493   20.6743 O   0  0  0  0  0  0
  -24.6594  -31.8288   23.1760 C   0  0  0  0  0  0
  -25.9299  -32.4615   23.8201 C   0  0  1  0  0  0
  -27.2127  -26.9742   20.1687 C   0  0  0  0  0  0
  -25.5983  -33.8427   24.2108 N   0  0  0  0  0  0
  -23.4713  -30.4447   21.5246 C   0  0  2  0  0  0
  -24.9234  -28.8457   20.1100 C   0  0  0  0  0  0
  -22.7652  -29.4473   22.4797 C   0  0  0  0  0  0
  -18.0321  -28.1404   22.8469 C   0  0  0  0  0  0
  -24.1495  -36.7216   23.2644 C   0  0  0  0  0  0
  -26.0394  -30.6497   21.4010 C   0  0  0  0  0  0
  -26.1080  -29.2460   20.7414 C   0  0  0  0  0  0
  -27.2497  -28.3304   20.7498 C   0  0  0  0  0  0
  -26.0003  -26.7238   19.4850 C   0  0  0  0  0  0
  -24.8927  -27.6033   19.4623 C   0  0  0  0  0  0
  -23.7085  -29.7679   20.1482 C   0  0  0  0  0  0
  -25.4135  -36.2981   24.0302 C   0  0  1  0  0  0
  -20.5946  -28.3747   23.1191 C   0  0  2  0  0  0
  -20.6801  -26.9433   22.5398 C   0  0  0  0  0  0
  -19.5772  -26.6377   21.5211 C   0  0  0  0  0  0
  -18.1956  -26.7937   22.1624 C   0  0  0  0  0  0
  -19.1584  -28.8896   23.2818 C   0  0  0  0  0  0
  -18.9493  -30.1488   23.8851 C   0  0  0  0  0  0
  -17.6486  -30.6594   24.0559 C   0  0  0  0  0  0
  -25.9095  -34.9363   23.5021 C   0  0  0  0  0  0
  -16.5377  -29.9083   23.6342 C   0  0  0  0  0  0
  -16.7305  -28.6504   23.0359 C   0  0  0  0  0  0
  -26.4557  -31.6540   25.0713 C   0  0  0  0  0  0
  -25.3692  -31.3794   26.1380 C   0  0  0  0  0  0
  -27.0438  -30.2903   24.6428 C   0  0  0  0  0  0
  -27.6055  -32.4339   25.7511 C   0  0  0  0  0  0
  -27.5571  -37.1773   24.8468 C   0  0  0  0  0  0
  -21.4328  -29.3045   22.3545 N   0  0  0  0  0  0
  -26.4285  -37.3712   23.9404 N   0  0  0  0  0  0
  -24.7443  -30.9996   22.0875 N   0  0  0  0  0  0
  -23.4224  -28.8031   23.3013 O   0  0  0  0  0  0
  -28.1964  -25.8654   20.2535 O   0  0  0  0  0  0
  -26.5695  -34.8887   22.4611 O   0  0  0  0  0  0
  -23.5674  -32.1240   23.6880 O   0  0  0  0  0  0
  -27.7376  -21.5205   19.8641 C   0  0  0  0  0  0
  -29.7887  -22.2488   20.5962 C   0  0  0  0  0  0
  -28.4876  -22.7339   20.1833 C   0  0  0  0  0  0
  -29.4796  -19.6193   20.3047 C   0  0  0  0  0  0
  -28.1710  -20.1023   19.9070 C   0  0  0  0  0  0
  -30.2406  -20.8324   20.6477 C   0  0  0  0  0  0
  -30.8086  -18.0505   18.7407 C   0  0  0  0  0  0
  -27.7917  -24.3141   19.9993 C   0  0  0  0  0  0
  -30.1907  -18.0339   20.1516 C   0  0  2  0  0  0
  -29.7573  -16.4620   20.4118 N   0  0  0  0  0  0
  -27.0281  -18.9196   19.3824 Cl  0  0  0  0  0  0
  -31.8863  -20.6204   21.1304 Cl  0  0  0  0  0  0
  -31.4597  -12.9266   19.1965 H   0  0  0  0  0  0
  -30.4708  -11.8351   20.1179 H   0  0  0  0  0  0
  -29.8942  -11.7348   17.6646 H   0  0  0  0  0  0
  -29.5777  -13.4537   17.6561 H   0  0  0  0  0  0
  -28.0173  -11.2732   19.0674 H   0  0  0  0  0  0
  -27.4081  -12.3612   17.8448 H   0  0  0  0  0  0
  -27.5367  -14.2436   19.3350 H   0  0  0  0  0  0
  -28.7945  -12.4863   21.4962 H   0  0  0  0  0  0
  -28.3041  -14.1552   21.6886 H   0  0  0  0  0  0
  -25.2778   -9.5683   22.4764 H   0  0  0  0  0  0
  -24.0013   -7.4634   22.7471 H   0  0  0  0  0  0
  -21.0855   -8.8785   19.8951 H   0  0  0  0  0  0
  -22.3719  -10.9678   19.6172 H   0  0  0  0  0  0
  -21.2016   -7.6151   23.9719 H   0  0  0  0  0  0
  -21.1482   -6.0525   25.9078 H   0  0  0  0  0  0
  -22.0594   -2.7612   23.2847 H   0  0  0  0  0  0
  -22.4060  -11.9850   22.4859 H   0  0  0  0  0  0
  -21.1038  -13.1182   22.2664 H   0  0  0  0  0  0
  -24.6277  -15.8437   20.5210 H   0  0  0  0  0  0
  -26.2380  -15.6426   20.0604 H   0  0  0  0  0  0
  -26.7373  -32.5167   23.0922 H   0  0  0  0  0  0
  -25.0092  -33.9509   25.0231 H   0  0  0  0  0  0
  -22.7823  -31.2759   21.3597 H   0  0  0  0  0  0
  -23.3756  -35.9549   23.3297 H   0  0  0  0  0  0
  -24.3570  -36.8865   22.2059 H   0  0  0  0  0  0
  -23.7258  -37.6411   23.6693 H   0  0  0  0  0  0
  -26.2170  -31.3956   20.6251 H   0  0  0  0  0  0
  -26.9009  -30.7025   22.0549 H   0  0  0  0  0  0
  -28.1445  -28.6318   21.2762 H   0  0  0  0  0  0
  -25.8589  -25.7794   18.9829 H   0  0  0  0  0  0
  -23.9928  -27.2913   18.9497 H   0  0  0  0  0  0
  -23.8620  -30.5399   19.3932 H   0  0  0  0  0  0
  -22.8190  -29.2219   19.8294 H   0  0  0  0  0  0
  -25.1331  -36.1789   25.0793 H   0  0  0  0  0  0
  -21.0037  -28.3351   24.1313 H   0  0  0  0  0  0
  -20.5681  -26.2365   23.3633 H   0  0  0  0  0  0
  -21.6665  -26.7413   22.1204 H   0  0  0  0  0  0
  -19.6929  -25.6277   21.1268 H   0  0  0  0  0  0
  -19.6705  -27.3163   20.6721 H   0  0  0  0  0  0
  -17.4222  -26.6676   21.4030 H   0  0  0  0  0  0
  -18.0358  -26.0090   22.9032 H   0  0  0  0  0  0
  -19.7969  -30.7322   24.2193 H   0  0  0  0  0  0
  -17.5037  -31.6269   24.5170 H   0  0  0  0  0  0
  -15.5375  -30.2969   23.7688 H   0  0  0  0  0  0
  -15.8707  -28.0809   22.7092 H   0  0  0  0  0  0
  -24.5883  -30.7127   25.7703 H   0  0  0  0  0  0
  -24.8870  -32.2997   26.4684 H   0  0  0  0  0  0
  -25.7933  -30.9051   27.0239 H   0  0  0  0  0  0
  -26.3097  -29.6593   24.1405 H   0  0  0  0  0  0
  -27.3939  -29.7256   25.5080 H   0  0  0  0  0  0
  -27.9056  -30.4076   23.9854 H   0  0  0  0  0  0
  -27.2626  -33.3673   26.1985 H   0  0  0  0  0  0
  -28.3920  -32.6849   25.0381 H   0  0  0  0  0  0
  -28.0661  -31.8539   26.5518 H   0  0  0  0  0  0
  -28.2587  -38.0069   24.7491 H   0  0  0  0  0  0
  -28.1068  -36.2596   24.6323 H   0  0  0  0  0  0
  -27.2283  -37.1455   25.8870 H   0  0  0  0  0  0
  -20.9568  -29.8745   21.6691 H   0  0  0  0  0  0
  -26.0136  -38.2776   24.1394 H   0  0  0  0  0  0
  -26.7250  -21.6822   19.5228 H   0  0  0  0  0  0
  -30.5125  -23.0012   20.8752 H   0  0  0  0  0  0
  -31.3997  -18.9526   18.5799 H   0  0  0  0  0  0
  -30.0315  -18.0301   17.9763 H   0  0  0  0  0  0
  -31.4744  -17.2081   18.5587 H   0  0  0  0  0  0
  -26.8443  -24.2118   20.5291 H   0  0  0  0  0  0
  -27.5177  -24.3056   18.9443 H   0  0  0  0  0  0
  -31.0286  -18.0971   20.8446 H   0  0  0  0  0  0
  -28.7664  -16.3416   20.5605 H   0  0  0  0  0  0
  1 25  1  0  0  0
  1 30  2  0  0  0
  1 80  1  0  0  0
  2  3  1  0  0  0
  2 25  1  0  0  0
  2 83  1  0  0  0
  2 84  1  0  0  0
  3  4  1  0  0  0
  3 85  1  0  0  0
  3 86  1  0  0  0
  4  5  1  0  0  0
  4 87  1  0  0  0
  4 88  1  0  0  0
  5  6  1  0  0  0
  5 26  1  0  0  0
  5 89  1  0  0  0
  6 25  1  0  0  0
  6 90  1  0  0  0
  6 91  1  0  0  0
  7  8  2  0  0  0
  7 26  1  0  0  0
  7 29  1  0  0  0
  8  9  1  0  0  0
  8 22  1  0  0  0
  9 10  1  0  0  0
  9 27  2  0  0  0
 10 11  2  0  0  0
 10 15  1  0  0  0
 11 12  1  0  0  0
 11 92  1  0  0  0
 12 13  2  0  0  0
 12 93  1  0  0  0
 13 14  1  0  0  0
 13 31  1  0  0  0
 14 15  2  0  0  0
 14 94  1  0  0  0
 15 95  1  0  0  0
 16 17  2  0  0  0
 16 21  1  0  0  0
 16 31  1  0  0  0
 17 18  1  0  0  0
 17 96  1  0  0  0
 18 19  2  0  0  0
 18 97  1  0  0  0
 19 20  1  0  0  0
 19 24  1  0  0  0
 20 21  2  0  0  0
 20 98  1  0  0  0
 21 23  1  0  0  0
 22 28  1  0  0  0
 22 32  2  0  0  0
 26 27  1  0  0  0
 28 99  1  0  0  0
 28100  1  0  0  0
 29101  1  0  0  0
 29102  1  0  0  0
 33 34  1  0  0  0
 33 66  1  0  0  0
 33 70  2  0  0  0
 34 36  1  0  0  0
 34 59  1  0  0  0
 34103  1  0  0  0
 35 44  2  0  0  0
 35 45  1  0  0  0
 35 68  1  0  0  0
 36 56  1  0  0  0
 36104  1  0  0  0
 37 39  1  0  0  0
 37 47  1  0  0  0
 37 66  1  0  0  0
 37105  1  0  0  0
 38 43  2  0  0  0
 38 46  1  0  0  0
 38 47  1  0  0  0
 39 64  1  0  0  0
 39 67  2  0  0  0
 40 52  1  0  0  0
 40 53  2  0  0  0
 40 58  1  0  0  0
 41106  1  0  0  0
 41107  1  0  0  0
 41108  1  0  0  0
 41 48  1  0  0  0
 42 43  1  0  0  0
 42 66  1  0  0  0
 42109  1  0  0  0
 42110  1  0  0  0
 43 44  1  0  0  0
 44111  1  0  0  0
 45 46  2  0  0  0
 45112  1  0  0  0
 46113  1  0  0  0
 47114  1  0  0  0
 47115  1  0  0  0
 48 56  1  0  0  0
 48 65  1  0  0  0
 48116  1  0  0  0
 49 50  1  0  0  0
 49 53  1  0  0  0
 49 64  1  0  0  0
 49117  1  0  0  0
 50 51  1  0  0  0
 50118  1  0  0  0
 50119  1  0  0  0
 51 52  1  0  0  0
 51120  1  0  0  0
 51121  1  0  0  0
 52122  1  0  0  0
 52123  1  0  0  0
 53 54  1  0  0  0
 54 55  2  0  0  0
 54124  1  0  0  0
 55 57  1  0  0  0
 55125  1  0  0  0
 56 69  2  0  0  0
 57 58  2  0  0  0
 57126  1  0  0  0
 58127  1  0  0  0
 59 60  1  0  0  0
 59 61  1  0  0  0
 59 62  1  0  0  0
 60128  1  0  0  0
 60129  1  0  0  0
 60130  1  0  0  0
 61131  1  0  0  0
 61132  1  0  0  0
 61133  1  0  0  0
 62134  1  0  0  0
 62135  1  0  0  0
 62136  1  0  0  0
 63 65  1  0  0  0
 63137  1  0  0  0
 63138  1  0  0  0
 63139  1  0  0  0
 64140  1  0  0  0
 65141  1  0  0  0
 68 78  1  0  0  0
 71 73  2  0  0  0
 71 75  1  0  0  0
 71142  1  0  0  0
 72 73  1  0  0  0
 72 76  2  0  0  0
 72143  1  0  0  0
 73 78  1  0  0  0
 74 75  2  0  0  0
 74 76  1  0  0  0
 74 79  1  0  0  0
 75 81  1  0  0  0
 76 82  1  0  0  0
 77144  1  0  0  0
 77145  1  0  0  0
 77146  1  0  0  0
 77 79  1  0  0  0
 78147  1  0  0  0
 78148  1  0  0  0
 79 80  1  0  0  0
 79149  1  0  0  0
 80150  1  0  0  0
M  ISO  4   1 100  68 101  78 101  80 100
M  END
> <chiral flag>
0

> <version>
0

> <s_m_source_file>
/data/baiqing/PycharmProjects/Reinvent-master-3.2/result/LINK_invent/BTK/process_docking_weight1_custom_sum_contain_oxygen_bond_distance_aromatic_linkinvent_7_9_3/rearranged_h_0030.sdf

> <i_m_source_file_index>
48

> <r_mmod_Potential_Energy-OPLS-2005>
1059.28442382812

> <r_mmod_Stretch_Energy-OPLS-2005>
454.34228515625

> <r_mmod_Bend_Energy-OPLS-2005>
434.0439453125

> <r_mmod_Torsional_Energy-OPLS-2005>
214.127380371094

> <r_mmod_Improper_Torsional_Energy-OPLS-2005>
6.44816112518311

> <r_mmod_Van_der_Waal_Energy-OPLS-2005>
128.649230957031

> <r_mmod_Electrostatic_Energy-OPLS-2005>
-359.925933837891

> <r_mmod_Solvation_Energy-OPLS-2005>
-204.736770629883

> <b_mmod_Minimization_Converged-OPLS-2005>
0

> <r_mmod_RMS_Derivative-OPLS-2005>
0.662958323955536

$$$$
48
                    3D
 Structure written by MMmdl.
153161  0  0  1  0            999 V2000
  -30.6172  -14.7169   20.4551 C   0  0  0  0  0  0
  -30.4304  -12.4307   19.4831 C   0  0  0  0  0  0
  -29.5145  -12.5133   18.2416 C   0  0  0  0  0  0
  -28.0382  -12.3451   18.6470 C   0  0  0  0  0  0
  -27.6467  -13.2318   19.8590 C   0  0  2  0  0  0
  -28.6879  -13.1450   20.9980 C   0  0  0  0  0  0
  -25.2533  -13.8201   20.5707 C   0  0  0  0  0  0
  -24.1815  -13.0445   20.9194 C   0  0  0  0  0  0
  -24.6404  -11.6920   20.8729 C   0  0  0  0  0  0
  -23.9074  -10.4296   21.0389 C   0  0  0  0  0  0
  -24.3623   -9.4214   21.9170 C   0  0  0  0  0  0
  -23.6295   -8.2258   22.0748 C   0  0  0  0  0  0
  -22.4279   -8.0287   21.3545 C   0  0  0  0  0  0
  -21.9911   -9.0258   20.4647 C   0  0  0  0  0  0
  -22.7242  -10.2134   20.3050 C   0  0  0  0  0  0
  -21.6861   -6.0735   22.5274 C   0  0  0  0  0  0
  -21.4021   -6.5637   23.8207 C   0  0  0  0  0  0
  -21.3665   -5.6788   24.9167 C   0  0  0  0  0  0
  -21.6047   -4.3048   24.7223 C   0  0  0  0  0  0
  -21.8822   -3.8144   23.4340 C   0  0  0  0  0  0
  -21.9197   -4.6963   22.3396 C   0  0  0  0  0  0
  -22.7837  -13.5228   21.1845 C   0  0  0  0  0  0
  -22.1661   -4.2151   21.0972 F   0  0  0  0  0  0
  -21.5630   -3.4533   25.7735 F   0  0  0  0  0  0
  -29.9977  -13.4869   20.4285 N   0  0  0  0  0  0
  -26.2961  -12.9405   20.3304 N   0  0  0  0  0  0
  -25.9338  -11.6549   20.5748 N   0  0  0  0  0  0
  -22.0486  -12.8228   22.0412 N   0  0  0  0  0  0
  -25.4245  -15.1928   20.4162 N   0  0  0  0  0  0
  -31.7934  -14.8106   20.0872 O   0  0  0  0  0  0
  -21.6648   -6.8879   21.4238 O   0  0  0  0  0  0
  -22.3526  -14.5524   20.6677 O   0  0  0  0  0  0
  -24.6312  -31.8561   23.2004 C   0  0  0  0  0  0
  -25.9146  -32.4758   23.8337 C   0  0  1  0  0  0
  -27.2101  -27.2582   20.1309 C   0  0  0  0  0  0
  -25.5947  -33.8561   24.2265 N   0  0  0  0  0  0
  -23.4279  -30.4802   21.5437 C   0  0  2  0  0  0
  -24.8742  -28.9337   20.1058 C   0  0  0  0  0  0
  -22.7505  -29.4606   22.4913 C   0  0  0  0  0  0
  -18.0293  -28.1387   22.8486 C   0  0  0  0  0  0
  -24.1498  -36.7284   23.2638 C   0  0  0  0  0  0
  -25.9750  -30.7652   21.3863 C   0  0  0  0  0  0
  -26.0436  -29.3898   20.7263 C   0  0  0  0  0  0
  -27.2115  -28.5613   20.7351 C   0  0  0  0  0  0
  -26.0260  -26.8889   19.4506 C   0  0  0  0  0  0
  -24.8714  -27.6924   19.4553 C   0  0  0  0  0  0
  -23.6464  -29.8218   20.1568 C   0  0  0  0  0  0
  -25.4124  -36.3076   24.0329 C   0  0  1  0  0  0
  -20.5894  -28.3704   23.1269 C   0  0  2  0  0  0
  -20.6795  -26.9422   22.5408 C   0  0  0  0  0  0
  -19.5768  -26.6381   21.5219 C   0  0  0  0  0  0
  -18.1945  -26.7926   22.1627 C   0  0  0  0  0  0
  -19.1545  -28.8862   23.2874 C   0  0  0  0  0  0
  -18.9464  -30.1461   23.8894 C   0  0  0  0  0  0
  -17.6462  -30.6589   24.0557 C   0  0  0  0  0  0
  -25.9064  -34.9442   23.5101 C   0  0  0  0  0  0
  -16.5353  -29.9087   23.6325 C   0  0  0  0  0  0
  -16.7278  -28.6500   23.0356 C   0  0  0  0  0  0
  -26.4501  -31.6580   25.0731 C   0  0  0  0  0  0
  -25.3713  -31.3737   26.1446 C   0  0  0  0  0  0
  -27.0348  -30.2994   24.6229 C   0  0  0  0  0  0
  -27.6066  -32.4308   25.7498 C   0  0  0  0  0  0
  -27.5589  -37.1801   24.8464 C   0  0  0  0  0  0
  -21.4215  -29.3045   22.3658 N   0  0  0  0  0  0
  -26.4299  -37.3776   23.9411 N   0  0  0  0  0  0
  -24.6968  -31.0516   22.0993 N   0  0  0  0  0  0
  -23.4198  -28.8144   23.3019 O   0  0  0  0  0  0
  -28.2928  -26.3499   20.2319 O   0  0  0  0  0  0
  -26.5628  -34.8912   22.4668 O   0  0  0  0  0  0
  -23.5462  -32.1396   23.7292 O   0  0  0  0  0  0
  -30.4048  -17.4087   18.8744 C   0  0  0  0  0  0
  -29.4978  -18.4393   20.8480 C   0  0  0  0  0  0
  -29.9473  -17.2198   20.1963 C   0  0  0  0  0  0
  -30.3963  -18.6895   18.2860 C   0  0  0  0  0  0
  -29.5290  -19.7312   20.1852 C   0  0  0  0  0  0
  -30.8788  -18.8897   16.8644 C   0  0  0  0  0  0
  -28.8786  -23.6876   20.6552 C   0  0  0  0  0  0
  -28.0997  -24.8906   19.9063 C   0  0  0  0  0  0
  -28.9176  -22.2170   19.9712 C   0  0  0  0  0  0
  -29.9712  -19.8073   18.9134 N   0  0  0  0  0  0
  -29.8672  -15.8448   20.7571 N   0  0  0  0  0  0
  -29.1532  -20.9759   20.7777 O   0  0  0  0  0  0
  -31.4755  -12.5376   19.1878 H   0  0  0  0  0  0
  -30.3559  -11.4479   19.9519 H   0  0  0  0  0  0
  -29.7943  -11.7494   17.5157 H   0  0  0  0  0  0
  -29.6541  -13.4750   17.7450 H   0  0  0  0  0  0
  -27.8854  -11.2939   18.8942 H   0  0  0  0  0  0
  -27.3866  -12.5558   17.7976 H   0  0  0  0  0  0
  -27.6482  -14.2589   19.4947 H   0  0  0  0  0  0
  -28.7118  -12.1410   21.4245 H   0  0  0  0  0  0
  -28.4258  -13.8169   21.8170 H   0  0  0  0  0  0
  -25.2766   -9.5696   22.4746 H   0  0  0  0  0  0
  -24.0012   -7.4652   22.7464 H   0  0  0  0  0  0
  -21.0844   -8.8768   19.8954 H   0  0  0  0  0  0
  -22.3683  -10.9675   19.6166 H   0  0  0  0  0  0
  -21.2012   -7.6144   23.9711 H   0  0  0  0  0  0
  -21.1486   -6.0515   25.9070 H   0  0  0  0  0  0
  -22.0598   -2.7609   23.2835 H   0  0  0  0  0  0
  -22.4089  -11.9895   22.4821 H   0  0  0  0  0  0
  -21.1104  -13.1256   22.2600 H   0  0  0  0  0  0
  -24.6611  -15.8494   20.5381 H   0  0  0  0  0  0
  -26.2775  -15.6353   20.0987 H   0  0  0  0  0  0
  -26.7214  -32.5397   23.1074 H   0  0  0  0  0  0
  -25.0104  -33.9691   25.0417 H   0  0  0  0  0  0
  -22.7247  -31.3034   21.4013 H   0  0  0  0  0  0
  -23.3767  -35.9609   23.3289 H   0  0  0  0  0  0
  -24.3596  -36.8909   22.2053 H   0  0  0  0  0  0
  -23.7234  -37.6479   23.6660 H   0  0  0  0  0  0
  -26.1208  -31.5257   20.6179 H   0  0  0  0  0  0
  -26.8497  -30.8076   22.0237 H   0  0  0  0  0  0
  -28.0998  -28.8965   21.2523 H   0  0  0  0  0  0
  -25.9517  -25.9578   18.9114 H   0  0  0  0  0  0
  -23.9836  -27.3458   18.9459 H   0  0  0  0  0  0
  -23.7755  -30.6027   19.4063 H   0  0  0  0  0  0
  -22.7634  -29.2604   19.8468 H   0  0  0  0  0  0
  -25.1305  -36.1930   25.0820 H   0  0  0  0  0  0
  -20.9978  -28.3284   24.1393 H   0  0  0  0  0  0
  -20.5731  -26.2306   23.3611 H   0  0  0  0  0  0
  -21.6661  -26.7479   22.1178 H   0  0  0  0  0  0
  -19.6936  -25.6292   21.1259 H   0  0  0  0  0  0
  -19.6702  -27.3186   20.6744 H   0  0  0  0  0  0
  -17.4219  -26.6669   21.4026 H   0  0  0  0  0  0
  -18.0342  -26.0067   22.9020 H   0  0  0  0  0  0
  -19.7941  -30.7277   24.2261 H   0  0  0  0  0  0
  -17.5018  -31.6270   24.5158 H   0  0  0  0  0  0
  -15.5356  -30.2993   23.7647 H   0  0  0  0  0  0
  -15.8675  -28.0815   22.7081 H   0  0  0  0  0  0
  -24.5890  -30.7086   25.7769 H   0  0  0  0  0  0
  -24.8903  -32.2907   26.4860 H   0  0  0  0  0  0
  -25.8011  -30.8917   27.0235 H   0  0  0  0  0  0
  -26.2934  -29.6737   24.1249 H   0  0  0  0  0  0
  -27.4020  -29.7265   25.4751 H   0  0  0  0  0  0
  -27.8819  -30.4268   23.9487 H   0  0  0  0  0  0
  -27.2697  -33.3623   26.2061 H   0  0  0  0  0  0
  -28.3884  -32.6833   25.0323 H   0  0  0  0  0  0
  -28.0727  -31.8436   26.5420 H   0  0  0  0  0  0
  -28.2600  -38.0107   24.7530 H   0  0  0  0  0  0
  -28.1089  -36.2635   24.6272 H   0  0  0  0  0  0
  -27.2305  -37.1429   25.8867 H   0  0  0  0  0  0
  -20.9404  -29.8747   21.6845 H   0  0  0  0  0  0
  -26.0179  -38.2854   24.1403 H   0  0  0  0  0  0
  -30.7504  -16.5677   18.2887 H   0  0  0  0  0  0
  -29.1280  -18.3918   21.8626 H   0  0  0  0  0  0
  -31.0921  -17.9387   16.3758 H   0  0  0  0  0  0
  -31.7926  -19.4839   16.8545 H   0  0  0  0  0  0
  -30.1255  -19.4092   16.2719 H   0  0  0  0  0  0
  -28.4437  -23.5893   21.6501 H   0  0  0  0  0  0
  -29.9084  -23.9982   20.8259 H   0  0  0  0  0  0
  -27.0547  -24.6226   20.0590 H   0  0  0  0  0  0
  -28.2773  -24.7917   18.8350 H   0  0  0  0  0  0
  -29.6683  -22.2802   19.1832 H   0  0  0  0  0  0
  -27.9700  -22.0599   19.4555 H   0  0  0  0  0  0
  -29.0230  -15.6496   21.2723 H   0  0  0  0  0  0
  1 25  1  0  0  0
  1 30  2  0  0  0
  1 81  1  0  0  0
  2  3  1  0  0  0
  2 25  1  0  0  0
  2 83  1  0  0  0
  2 84  1  0  0  0
  3  4  1  0  0  0
  3 85  1  0  0  0
  3 86  1  0  0  0
  4  5  1  0  0  0
  4 87  1  0  0  0
  4 88  1  0  0  0
  5  6  1  0  0  0
  5 26  1  0  0  0
  5 89  1  0  0  0
  6 25  1  0  0  0
  6 90  1  0  0  0
  6 91  1  0  0  0
  7  8  2  0  0  0
  7 26  1  0  0  0
  7 29  1  0  0  0
  8  9  1  0  0  0
  8 22  1  0  0  0
  9 10  1  0  0  0
  9 27  2  0  0  0
 10 11  2  0  0  0
 10 15  1  0  0  0
 11 12  1  0  0  0
 11 92  1  0  0  0
 12 13  2  0  0  0
 12 93  1  0  0  0
 13 14  1  0  0  0
 13 31  1  0  0  0
 14 15  2  0  0  0
 14 94  1  0  0  0
 15 95  1  0  0  0
 16 17  2  0  0  0
 16 21  1  0  0  0
 16 31  1  0  0  0
 17 18  1  0  0  0
 17 96  1  0  0  0
 18 19  2  0  0  0
 18 97  1  0  0  0
 19 20  1  0  0  0
 19 24  1  0  0  0
 20 21  2  0  0  0
 20 98  1  0  0  0
 21 23  1  0  0  0
 22 28  1  0  0  0
 22 32  2  0  0  0
 26 27  1  0  0  0
 28 99  1  0  0  0
 28100  1  0  0  0
 29101  1  0  0  0
 29102  1  0  0  0
 33 34  1  0  0  0
 33 66  1  0  0  0
 33 70  2  0  0  0
 34 36  1  0  0  0
 34 59  1  0  0  0
 34103  1  0  0  0
 35 44  2  0  0  0
 35 45  1  0  0  0
 35 68  1  0  0  0
 36 56  1  0  0  0
 36104  1  0  0  0
 37 39  1  0  0  0
 37 47  1  0  0  0
 37 66  1  0  0  0
 37105  1  0  0  0
 38 43  2  0  0  0
 38 46  1  0  0  0
 38 47  1  0  0  0
 39 64  1  0  0  0
 39 67  2  0  0  0
 40 52  1  0  0  0
 40 53  2  0  0  0
 40 58  1  0  0  0
 41106  1  0  0  0
 41107  1  0  0  0
 41108  1  0  0  0
 41 48  1  0  0  0
 42 43  1  0  0  0
 42 66  1  0  0  0
 42109  1  0  0  0
 42110  1  0  0  0
 43 44  1  0  0  0
 44111  1  0  0  0
 45 46  2  0  0  0
 45112  1  0  0  0
 46113  1  0  0  0
 47114  1  0  0  0
 47115  1  0  0  0
 48 56  1  0  0  0
 48 65  1  0  0  0
 48116  1  0  0  0
 49 50  1  0  0  0
 49 53  1  0  0  0
 49 64  1  0  0  0
 49117  1  0  0  0
 50 51  1  0  0  0
 50118  1  0  0  0
 50119  1  0  0  0
 51 52  1  0  0  0
 51120  1  0  0  0
 51121  1  0  0  0
 52122  1  0  0  0
 52123  1  0  0  0
 53 54  1  0  0  0
 54 55  2  0  0  0
 54124  1  0  0  0
 55 57  1  0  0  0
 55125  1  0  0  0
 56 69  2  0  0  0
 57 58  2  0  0  0
 57126  1  0  0  0
 58127  1  0  0  0
 59 60  1  0  0  0
 59 61  1  0  0  0
 59 62  1  0  0  0
 60128  1  0  0  0
 60129  1  0  0  0
 60130  1  0  0  0
 61131  1  0  0  0
 61132  1  0  0  0
 61133  1  0  0  0
 62134  1  0  0  0
 62135  1  0  0  0
 62136  1  0  0  0
 63 65  1  0  0  0
 63137  1  0  0  0
 63138  1  0  0  0
 63139  1  0  0  0
 64140  1  0  0  0
 65141  1  0  0  0
 68 78  1  0  0  0
 71 73  2  0  0  0
 71 74  1  0  0  0
 71142  1  0  0  0
 72 73  1  0  0  0
 72 75  2  0  0  0
 72143  1  0  0  0
 73 81  1  0  0  0
 74 76  1  0  0  0
 74 80  2  0  0  0
 75 80  1  0  0  0
 75 82  1  0  0  0
 76144  1  0  0  0
 76145  1  0  0  0
 76146  1  0  0  0
 77 78  1  0  0  0
 77 79  1  0  0  0
 77147  1  0  0  0
 77148  1  0  0  0
 78149  1  0  0  0
 78150  1  0  0  0
 79 82  1  0  0  0
 79151  1  0  0  0
 79152  1  0  0  0
 81153  1  0  0  0
M  ISO  4   1 100  68 101  78 101  81 100
M  END
> <chiral flag>
0

> <version>
0

> <s_m_source_file>
/data/baiqing/PycharmProjects/Reinvent-master-3.2/result/LINK_invent/BTK/process_docking_weight1_custom_sum_contain_oxygen_bond_distance_aromatic_linkinvent_7_9_3/rearranged_h_0030.sdf

> <i_m_source_file_index>
49

> <r_mmod_Potential_Energy-OPLS-2005>
22.7878360748291

> <r_mmod_Stretch_Energy-OPLS-2005>
120.739181518555

> <r_mmod_Bend_Energy-OPLS-2005>
165.478576660156

> <r_mmod_Torsional_Energy-OPLS-2005>
222.423248291016

> <r_mmod_Improper_Torsional_Energy-OPLS-2005>
4.11780405044556

> <r_mmod_Van_der_Waal_Energy-OPLS-2005>
151.864608764648

> <r_mmod_Electrostatic_Energy-OPLS-2005>
-505.178405761719

> <r_mmod_Solvation_Energy-OPLS-2005>
-218.719619750977

> <b_mmod_Minimization_Converged-OPLS-2005>
0

> <r_mmod_RMS_Derivative-OPLS-2005>
1.51391446590424

$$$$
49
                    3D
 Structure written by MMmdl.
165173  0  0  1  0            999 V2000
  -30.7693  -14.3445   20.7170 C   0  0  0  0  0  0
  -30.4183  -12.2961   19.3832 C   0  0  0  0  0  0
  -29.4781  -12.5271   18.1869 C   0  0  0  0  0  0
  -28.0049  -12.3798   18.6101 C   0  0  0  0  0  0
  -27.6655  -13.1993   19.8815 C   0  0  2  0  0  0
  -28.7016  -12.9287   20.9932 C   0  0  0  0  0  0
  -25.2605  -13.8159   20.5674 C   0  0  0  0  0  0
  -24.1835  -13.0446   20.9170 C   0  0  0  0  0  0
  -24.6378  -11.6910   20.8729 C   0  0  0  0  0  0
  -23.9044  -10.4297   21.0407 C   0  0  0  0  0  0
  -24.3589   -9.4228   21.9210 C   0  0  0  0  0  0
  -23.6265   -8.2263   22.0781 C   0  0  0  0  0  0
  -22.4264   -8.0280   21.3543 C   0  0  0  0  0  0
  -21.9910   -9.0244   20.4630 C   0  0  0  0  0  0
  -22.7235  -10.2130   20.3037 C   0  0  0  0  0  0
  -21.6845   -6.0730   22.5276 C   0  0  0  0  0  0
  -21.4005   -6.5633   23.8216 C   0  0  0  0  0  0
  -21.3649   -5.6788   24.9178 C   0  0  0  0  0  0
  -21.6047   -4.3053   24.7228 C   0  0  0  0  0  0
  -21.8817   -3.8147   23.4345 C   0  0  0  0  0  0
  -21.9192   -4.6961   22.3399 C   0  0  0  0  0  0
  -22.7862  -13.5259   21.1813 C   0  0  0  0  0  0
  -22.1659   -4.2148   21.0978 F   0  0  0  0  0  0
  -21.5629   -3.4538   25.7741 F   0  0  0  0  0  0
  -30.0445  -13.2265   20.4587 N   0  0  0  0  0  0
  -26.3024  -12.9311   20.3389 N   0  0  0  0  0  0
  -25.9296  -11.6475   20.5756 N   0  0  0  0  0  0
  -22.0454  -12.8222   22.0312 N   0  0  0  0  0  0
  -25.4341  -15.1877   20.4096 N   0  0  0  0  0  0
  -31.7798  -14.6628   20.0815 O   0  0  0  0  0  0
  -21.6636   -6.8876   21.4242 O   0  0  0  0  0  0
  -22.3587  -14.5596   20.6705 O   0  0  0  0  0  0
  -24.6128  -31.8708   23.2144 C   0  0  0  0  0  0
  -25.9044  -32.4831   23.8421 C   0  0  1  0  0  0
  -27.2348  -27.4525   20.0900 C   0  0  0  0  0  0
  -25.5917  -33.8623   24.2349 N   0  0  0  0  0  0
  -23.3949  -30.4924   21.5591 C   0  0  2  0  0  0
  -24.8372  -28.9587   20.1225 C   0  0  0  0  0  0
  -22.7393  -29.4645   22.5084 C   0  0  0  0  0  0
  -18.0250  -28.1350   22.8518 C   0  0  0  0  0  0
  -24.1455  -36.7255   23.2633 C   0  0  0  0  0  0
  -25.9209  -30.8450   21.3564 C   0  0  0  0  0  0
  -25.9974  -29.4770   20.7104 C   0  0  0  0  0  0
  -27.1951  -28.7295   20.6942 C   0  0  0  0  0  0
  -26.0446  -26.9324   19.5342 C   0  0  0  0  0  0
  -24.8539  -27.6815   19.5368 C   0  0  0  0  0  0
  -23.5961  -29.8205   20.1739 C   0  0  0  0  0  0
  -25.4083  -36.3088   24.0342 C   0  0  1  0  0  0
  -20.5837  -28.3603   23.1361 C   0  0  2  0  0  0
  -20.6708  -26.9354   22.5404 C   0  0  0  0  0  0
  -19.5673  -26.6380   21.5196 C   0  0  0  0  0  0
  -18.1862  -26.7913   22.1624 C   0  0  0  0  0  0
  -19.1505  -28.8805   23.2924 C   0  0  0  0  0  0
  -18.9430  -30.1425   23.8910 C   0  0  0  0  0  0
  -17.6433  -30.6571   24.0557 C   0  0  0  0  0  0
  -25.9051  -34.9472   23.5145 C   0  0  0  0  0  0
  -16.5329  -29.9059   23.6345 C   0  0  0  0  0  0
  -16.7248  -28.6472   23.0381 C   0  0  0  0  0  0
  -26.4490  -31.6608   25.0739 C   0  0  0  0  0  0
  -25.3763  -31.3497   26.1437 C   0  0  0  0  0  0
  -27.0428  -30.3141   24.6025 C   0  0  0  0  0  0
  -27.5989  -32.4369   25.7594 C   0  0  0  0  0  0
  -27.5562  -37.1782   24.8451 C   0  0  0  0  0  0
  -21.4125  -29.2996   22.3818 N   0  0  0  0  0  0
  -26.4220  -37.3825   23.9476 N   0  0  0  0  0  0
  -24.6621  -31.0835   22.1022 N   0  0  0  0  0  0
  -23.4191  -28.8193   23.3106 O   0  0  0  0  0  0
  -28.4363  -26.7740   20.0712 O   0  0  0  0  0  0
  -26.5618  -34.8927   22.4712 O   0  0  0  0  0  0
  -23.5334  -32.1456   23.7571 O   0  0  0  0  0  0
  -27.4997  -21.9731   19.6204 C   0  0  0  0  0  0
  -28.7759  -22.6169   21.5797 C   0  0  0  0  0  0
  -28.0781  -21.6339   20.8551 C   0  0  0  0  0  0
  -27.6389  -23.2731   19.0883 C   0  0  0  0  0  0
  -28.9315  -23.9219   21.0635 C   0  0  0  0  0  0
  -28.3555  -24.2730   19.8087 C   0  0  0  0  0  0
  -27.0495  -23.5295   17.7094 C   0  0  0  0  0  0
  -29.7636  -24.9070   21.8707 C   0  0  0  0  0  0
  -28.0055  -20.2047   21.3734 C   0  0  0  0  0  0
  -28.6138  -25.6585   19.1879 C   0  0  0  0  0  0
  -29.3045  -19.4358   21.0721 C   0  0  0  0  0  0
  -29.4136  -18.0674   21.7692 C   0  0  0  0  0  0
  -30.8427  -17.5031   21.6712 C   0  0  0  0  0  0
  -31.0565  -16.1656   22.4028 C   0  0  0  0  0  0
  -30.3517  -15.0486   21.7783 N   0  0  0  0  0  0
  -31.4567  -12.4153   19.0703 H   0  0  0  0  0  0
  -30.3352  -11.2687   19.7409 H   0  0  0  0  0  0
  -29.7073  -11.8215   17.3876 H   0  0  0  0  0  0
  -29.6454  -13.5229   17.7729 H   0  0  0  0  0  0
  -27.8141  -11.3210   18.7910 H   0  0  0  0  0  0
  -27.3460  -12.6697   17.7907 H   0  0  0  0  0  0
  -27.7288  -14.2558   19.6180 H   0  0  0  0  0  0
  -28.6643  -11.8804   21.2952 H   0  0  0  0  0  0
  -28.4418  -13.4928   21.8891 H   0  0  0  0  0  0
  -25.2711   -9.5729   22.4812 H   0  0  0  0  0  0
  -23.9964   -7.4677   22.7523 H   0  0  0  0  0  0
  -21.0861   -8.8741   19.8913 H   0  0  0  0  0  0
  -22.3699  -10.9651   19.6130 H   0  0  0  0  0  0
  -21.1992   -7.6145   23.9715 H   0  0  0  0  0  0
  -21.1463   -6.0516   25.9077 H   0  0  0  0  0  0
  -22.0598   -2.7606   23.2845 H   0  0  0  0  0  0
  -22.3980  -11.9810   22.4623 H   0  0  0  0  0  0
  -21.1060  -13.1259   22.2454 H   0  0  0  0  0  0
  -24.6740  -15.8473   20.5315 H   0  0  0  0  0  0
  -26.2960  -15.6239   20.1060 H   0  0  0  0  0  0
  -26.7118  -32.5553   23.1195 H   0  0  0  0  0  0
  -25.0079  -33.9782   25.0505 H   0  0  0  0  0  0
  -22.6773  -31.3053   21.4257 H   0  0  0  0  0  0
  -23.3795  -35.9493   23.3151 H   0  0  0  0  0  0
  -24.3574  -36.9046   22.2082 H   0  0  0  0  0  0
  -23.7081  -37.6348   23.6767 H   0  0  0  0  0  0
  -26.0187  -31.6082   20.5831 H   0  0  0  0  0  0
  -26.8154  -30.9083   21.9636 H   0  0  0  0  0  0
  -28.0928  -29.1383   21.1366 H   0  0  0  0  0  0
  -26.0123  -25.9412   19.1164 H   0  0  0  0  0  0
  -23.9576  -27.2605   19.1022 H   0  0  0  0  0  0
  -23.6868  -30.5919   19.4081 H   0  0  0  0  0  0
  -22.7219  -29.2297   19.8908 H   0  0  0  0  0  0
  -25.1242  -36.1920   25.0829 H   0  0  0  0  0  0
  -20.9917  -28.3104   24.1482 H   0  0  0  0  0  0
  -20.5590  -26.2193   23.3552 H   0  0  0  0  0  0
  -21.6565  -26.7368   22.1198 H   0  0  0  0  0  0
  -19.6794  -25.6308   21.1163 H   0  0  0  0  0  0
  -19.6591  -27.3219   20.6749 H   0  0  0  0  0  0
  -17.4130  -26.6725   21.4019 H   0  0  0  0  0  0
  -18.0222  -26.0029   22.8990 H   0  0  0  0  0  0
  -19.7898  -30.7240   24.2274 H   0  0  0  0  0  0
  -17.4983  -31.6262   24.5139 H   0  0  0  0  0  0
  -15.5318  -30.2954   23.7679 H   0  0  0  0  0  0
  -15.8648  -28.0790   22.7103 H   0  0  0  0  0  0
  -24.6015  -30.6809   25.7665 H   0  0  0  0  0  0
  -24.8838  -32.2530   26.5042 H   0  0  0  0  0  0
  -25.8157  -30.8533   27.0106 H   0  0  0  0  0  0
  -26.2983  -29.6849   24.1128 H   0  0  0  0  0  0
  -27.4372  -29.7414   25.4432 H   0  0  0  0  0  0
  -27.8710  -30.4610   23.9083 H   0  0  0  0  0  0
  -27.2560  -33.3705   26.2077 H   0  0  0  0  0  0
  -28.3891  -32.6881   25.0508 H   0  0  0  0  0  0
  -28.0546  -31.8549   26.5622 H   0  0  0  0  0  0
  -28.2399  -38.0258   24.7801 H   0  0  0  0  0  0
  -28.1245  -36.2810   24.5932 H   0  0  0  0  0  0
  -27.2310  -37.1008   25.8841 H   0  0  0  0  0  0
  -20.9273  -29.8786   21.7107 H   0  0  0  0  0  0
  -26.0066  -38.2846   24.1649 H   0  0  0  0  0  0
  -26.9713  -21.2122   19.0617 H   0  0  0  0  0  0
  -29.2253  -22.3511   22.5284 H   0  0  0  0  0  0
  -26.5234  -22.6525   17.3316 H   0  0  0  0  0  0
  -27.8380  -23.7697   16.9970 H   0  0  0  0  0  0
  -26.3310  -24.3456   17.7199 H   0  0  0  0  0  0
  -30.3145  -24.4078   22.6689 H   0  0  0  0  0  0
  -29.1224  -25.6581   22.3311 H   0  0  0  0  0  0
  -30.4966  -25.4114   21.2410 H   0  0  0  0  0  0
  -27.1557  -19.6902   20.9232 H   0  0  0  0  0  0
  -27.8142  -20.2294   22.4471 H   0  0  0  0  0  0
  -28.0679  -25.8206   18.2606 H   0  0  0  0  0  0
  -29.6585  -25.6637   18.8747 H   0  0  0  0  0  0
  -30.1477  -20.0515   21.3860 H   0  0  0  0  0  0
  -29.4094  -19.3084   19.9938 H   0  0  0  0  0  0
  -28.6970  -17.3685   21.3356 H   0  0  0  0  0  0
  -29.1459  -18.1712   22.8210 H   0  0  0  0  0  0
  -31.5312  -18.2328   22.1013 H   0  0  0  0  0  0
  -31.1333  -17.4042   20.6240 H   0  0  0  0  0  0
  -30.7264  -16.2499   23.4394 H   0  0  0  0  0  0
  -32.1238  -15.9389   22.4475 H   0  0  0  0  0  0
  -29.5297  -14.6993   22.2487 H   0  0  0  0  0  0
  1 25  1  0  0  0
  1 30  2  0  0  0
  1 85  1  0  0  0
  2  3  1  0  0  0
  2 25  1  0  0  0
  2 86  1  0  0  0
  2 87  1  0  0  0
  3  4  1  0  0  0
  3 88  1  0  0  0
  3 89  1  0  0  0
  4  5  1  0  0  0
  4 90  1  0  0  0
  4 91  1  0  0  0
  5  6  1  0  0  0
  5 26  1  0  0  0
  5 92  1  0  0  0
  6 25  1  0  0  0
  6 93  1  0  0  0
  6 94  1  0  0  0
  7  8  2  0  0  0
  7 26  1  0  0  0
  7 29  1  0  0  0
  8  9  1  0  0  0
  8 22  1  0  0  0
  9 10  1  0  0  0
  9 27  2  0  0  0
 10 11  2  0  0  0
 10 15  1  0  0  0
 11 12  1  0  0  0
 11 95  1  0  0  0
 12 13  2  0  0  0
 12 96  1  0  0  0
 13 14  1  0  0  0
 13 31  1  0  0  0
 14 15  2  0  0  0
 14 97  1  0  0  0
 15 98  1  0  0  0
 16 17  2  0  0  0
 16 21  1  0  0  0
 16 31  1  0  0  0
 17 18  1  0  0  0
 17 99  1  0  0  0
 18 19  2  0  0  0
 18100  1  0  0  0
 19 20  1  0  0  0
 19 24  1  0  0  0
 20 21  2  0  0  0
 20101  1  0  0  0
 21 23  1  0  0  0
 22 28  1  0  0  0
 22 32  2  0  0  0
 26 27  1  0  0  0
 28102  1  0  0  0
 28103  1  0  0  0
 29104  1  0  0  0
 29105  1  0  0  0
 33 34  1  0  0  0
 33 66  1  0  0  0
 33 70  2  0  0  0
 34 36  1  0  0  0
 34 59  1  0  0  0
 34106  1  0  0  0
 35 44  2  0  0  0
 35 45  1  0  0  0
 35 68  1  0  0  0
 36 56  1  0  0  0
 36107  1  0  0  0
 37 39  1  0  0  0
 37 47  1  0  0  0
 37 66  1  0  0  0
 37108  1  0  0  0
 38 43  2  0  0  0
 38 46  1  0  0  0
 38 47  1  0  0  0
 39 64  1  0  0  0
 39 67  2  0  0  0
 40 52  1  0  0  0
 40 53  2  0  0  0
 40 58  1  0  0  0
 41109  1  0  0  0
 41110  1  0  0  0
 41111  1  0  0  0
 41 48  1  0  0  0
 42 43  1  0  0  0
 42 66  1  0  0  0
 42112  1  0  0  0
 42113  1  0  0  0
 43 44  1  0  0  0
 44114  1  0  0  0
 45 46  2  0  0  0
 45115  1  0  0  0
 46116  1  0  0  0
 47117  1  0  0  0
 47118  1  0  0  0
 48 56  1  0  0  0
 48 65  1  0  0  0
 48119  1  0  0  0
 49 50  1  0  0  0
 49 53  1  0  0  0
 49 64  1  0  0  0
 49120  1  0  0  0
 50 51  1  0  0  0
 50121  1  0  0  0
 50122  1  0  0  0
 51 52  1  0  0  0
 51123  1  0  0  0
 51124  1  0  0  0
 52125  1  0  0  0
 52126  1  0  0  0
 53 54  1  0  0  0
 54 55  2  0  0  0
 54127  1  0  0  0
 55 57  1  0  0  0
 55128  1  0  0  0
 56 69  2  0  0  0
 57 58  2  0  0  0
 57129  1  0  0  0
 58130  1  0  0  0
 59 60  1  0  0  0
 59 61  1  0  0  0
 59 62  1  0  0  0
 60131  1  0  0  0
 60132  1  0  0  0
 60133  1  0  0  0
 61134  1  0  0  0
 61135  1  0  0  0
 61136  1  0  0  0
 62137  1  0  0  0
 62138  1  0  0  0
 62139  1  0  0  0
 63 65  1  0  0  0
 63140  1  0  0  0
 63141  1  0  0  0
 63142  1  0  0  0
 64143  1  0  0  0
 65144  1  0  0  0
 68 80  1  0  0  0
 71 73  2  0  0  0
 71 74  1  0  0  0
 71145  1  0  0  0
 72 73  1  0  0  0
 72 75  2  0  0  0
 72146  1  0  0  0
 73 79  1  0  0  0
 74 76  2  0  0  0
 74 77  1  0  0  0
 75 76  1  0  0  0
 75 78  1  0  0  0
 76 80  1  0  0  0
 77147  1  0  0  0
 77148  1  0  0  0
 77149  1  0  0  0
 78150  1  0  0  0
 78151  1  0  0  0
 78152  1  0  0  0
 79 81  1  0  0  0
 79153  1  0  0  0
 79154  1  0  0  0
 80155  1  0  0  0
 80156  1  0  0  0
 81 82  1  0  0  0
 81157  1  0  0  0
 81158  1  0  0  0
 82 83  1  0  0  0
 82159  1  0  0  0
 82160  1  0  0  0
 83 84  1  0  0  0
 83161  1  0  0  0
 83162  1  0  0  0
 84 85  1  0  0  0
 84163  1  0  0  0
 84164  1  0  0  0
 85165  1  0  0  0
M  ISO  4   1 100  68 101  80 101  85 100
M  END
> <chiral flag>
0

> <version>
0

> <s_m_source_file>
/data/baiqing/PycharmProjects/Reinvent-master-3.2/result/LINK_invent/BTK/process_docking_weight1_custom_sum_contain_oxygen_bond_distance_aromatic_linkinvent_7_9_3/rearranged_h_0030.sdf

> <i_m_source_file_index>
50

> <r_mmod_Potential_Energy-OPLS-2005>
-60.2581024169922

> <r_mmod_Stretch_Energy-OPLS-2005>
35.4940795898438

> <r_mmod_Bend_Energy-OPLS-2005>
96.9941177368164

> <r_mmod_Torsional_Energy-OPLS-2005>
201.181823730469

> <r_mmod_Improper_Torsional_Energy-OPLS-2005>
2.62945151329041

> <r_mmod_Van_der_Waal_Energy-OPLS-2005>
155.566864013672

> <r_mmod_Electrostatic_Energy-OPLS-2005>
-360.519409179688

> <r_mmod_Solvation_Energy-OPLS-2005>
-199.224548339844

> <b_mmod_Minimization_Converged-OPLS-2005>
0

> <r_mmod_RMS_Derivative-OPLS-2005>
2.25917100906372

$$$$
50
                    3D
 Structure written by MMmdl.
156164  0  0  1  0            999 V2000
  -30.5146  -14.9858   20.4040 C   0  0  0  0  0  0
  -30.4414  -12.6007   19.5330 C   0  0  0  0  0  0
  -29.5342  -12.5366   18.2799 C   0  0  0  0  0  0
  -28.0652  -12.3219   18.6867 C   0  0  0  0  0  0
  -27.6340  -13.2541   19.8500 C   0  0  2  0  0  0
  -28.6682  -13.2879   20.9975 C   0  0  0  0  0  0
  -25.2463  -13.8233   20.5721 C   0  0  0  0  0  0
  -24.1775  -13.0450   20.9217 C   0  0  0  0  0  0
  -24.6401  -11.6936   20.8749 C   0  0  0  0  0  0
  -23.9090  -10.4298   21.0403 C   0  0  0  0  0  0
  -24.3641   -9.4210   21.9179 C   0  0  0  0  0  0
  -23.6305   -8.2247   22.0759 C   0  0  0  0  0  0
  -22.4282   -8.0289   21.3550 C   0  0  0  0  0  0
  -21.9917   -9.0265   20.4653 C   0  0  0  0  0  0
  -22.7260  -10.2134   20.3055 C   0  0  0  0  0  0
  -21.6848   -6.0737   22.5277 C   0  0  0  0  0  0
  -21.4022   -6.5644   23.8211 C   0  0  0  0  0  0
  -21.3660   -5.6796   24.9175 C   0  0  0  0  0  0
  -21.6042   -4.3057   24.7226 C   0  0  0  0  0  0
  -21.8818   -3.8150   23.4345 C   0  0  0  0  0  0
  -21.9193   -4.6965   22.3400 C   0  0  0  0  0  0
  -22.7790  -13.5214   21.1870 C   0  0  0  0  0  0
  -22.1657   -4.2152   21.0977 F   0  0  0  0  0  0
  -21.5625   -3.4543   25.7736 F   0  0  0  0  0  0
  -29.9524  -13.7045   20.4177 N   0  0  0  0  0  0
  -26.2903  -12.9477   20.3284 N   0  0  0  0  0  0
  -25.9339  -11.6603   20.5744 N   0  0  0  0  0  0
  -22.0443  -12.8203   22.0429 N   0  0  0  0  0  0
  -25.4127  -15.1962   20.4141 N   0  0  0  0  0  0
  -31.6791  -15.0650   19.9991 O   0  0  0  0  0  0
  -21.6647   -6.8886   21.4240 O   0  0  0  0  0  0
  -22.3467  -14.5514   20.6710 O   0  0  0  0  0  0
  -24.6438  -31.8383   23.1826 C   0  0  0  0  0  0
  -25.9197  -32.4659   23.8232 C   0  0  1  0  0  0
  -27.2321  -27.1057   20.1598 C   0  0  0  0  0  0
  -25.5938  -33.8469   24.2148 N   0  0  0  0  0  0
  -23.4505  -30.4524   21.5267 C   0  0  2  0  0  0
  -24.9041  -28.8664   20.1051 C   0  0  0  0  0  0
  -22.7572  -29.4500   22.4831 C   0  0  0  0  0  0
  -18.0306  -28.1394   22.8472 C   0  0  0  0  0  0
  -24.1495  -36.7249   23.2646 C   0  0  0  0  0  0
  -26.0054  -30.7020   21.3851 C   0  0  0  0  0  0
  -26.0768  -29.3087   20.7283 C   0  0  0  0  0  0
  -27.2347  -28.4426   20.7388 C   0  0  0  0  0  0
  -26.0352  -26.7644   19.4949 C   0  0  0  0  0  0
  -24.8983  -27.6102   19.4726 C   0  0  0  0  0  0
  -23.6790  -29.7709   20.1480 C   0  0  0  0  0  0
  -25.4127  -36.3007   24.0308 C   0  0  1  0  0  0
  -20.5916  -28.3717   23.1231 C   0  0  2  0  0  0
  -20.6782  -26.9413   22.5409 C   0  0  0  0  0  0
  -19.5762  -26.6371   21.5211 C   0  0  0  0  0  0
  -18.1942  -26.7932   22.1617 C   0  0  0  0  0  0
  -19.1563  -28.8874   23.2843 C   0  0  0  0  0  0
  -18.9478  -30.1468   23.8870 C   0  0  0  0  0  0
  -17.6473  -30.6586   24.0554 C   0  0  0  0  0  0
  -25.9073  -34.9386   23.5041 C   0  0  0  0  0  0
  -16.5364  -29.9076   23.6334 C   0  0  0  0  0  0
  -16.7289  -28.6497   23.0353 C   0  0  0  0  0  0
  -26.4520  -31.6552   25.0694 C   0  0  0  0  0  0
  -25.3712  -31.3750   26.1398 C   0  0  0  0  0  0
  -27.0392  -30.2942   24.6306 C   0  0  0  0  0  0
  -27.6031  -32.4344   25.7488 C   0  0  0  0  0  0
  -27.5570  -37.1781   24.8464 C   0  0  0  0  0  0
  -21.4262  -29.3033   22.3592 N   0  0  0  0  0  0
  -26.4283  -37.3723   23.9398 N   0  0  0  0  0  0
  -24.7192  -31.0206   22.0864 N   0  0  0  0  0  0
  -23.4206  -28.8070   23.3002 O   0  0  0  0  0  0
  -28.3088  -26.1467   20.2937 O   0  0  0  0  0  0
  -26.5670  -34.8891   22.4627 O   0  0  0  0  0  0
  -23.5550  -32.1270   23.7038 O   0  0  0  0  0  0
  -30.6129  -21.9635   20.7166 C   0  0  0  0  0  0
  -28.8730  -20.3403   20.2991 C   0  0  0  0  0  0
  -29.2382  -21.7844   20.4624 C   0  0  0  0  0  0
  -31.5340  -20.8872   20.8096 C   0  0  0  0  0  0
  -29.7955  -19.1592   20.3878 C   0  0  0  0  0  0
  -31.1381  -19.5249   20.6566 C   0  0  0  0  0  0
  -33.4362  -21.0278   22.5108 C   0  0  0  0  0  0
  -28.2908  -23.1576   20.5799 C   0  0  0  0  0  0
  -32.9990  -21.2370   21.0544 C   0  0  0  0  0  0
  -29.4971  -17.5688   19.9655 C   0  0  0  0  0  0
  -28.4373  -24.6618   19.7852 C   0  0  0  0  0  0
  -29.7347  -16.1543   20.6752 N   0  0  0  0  0  0
  -32.3440  -18.2845   20.7317 Cl  0  0  0  0  0  0
  -31.4799  -12.7453   19.2319 H   0  0  0  0  0  0
  -30.4249  -11.6505   20.0691 H   0  0  0  0  0  0
  -29.8607  -11.7341   17.6167 H   0  0  0  0  0  0
  -29.6287  -13.4622   17.7095 H   0  0  0  0  0  0
  -27.9591  -11.2805   18.9938 H   0  0  0  0  0  0
  -27.4071  -12.4536   17.8269 H   0  0  0  0  0  0
  -27.5985  -14.2568   19.4232 H   0  0  0  0  0  0
  -28.7490  -12.3133   21.4825 H   0  0  0  0  0  0
  -28.3562  -13.9898   21.7720 H   0  0  0  0  0  0
  -25.2783   -9.5676   22.4760 H   0  0  0  0  0  0
  -24.0004   -7.4636   22.7481 H   0  0  0  0  0  0
  -21.0842   -8.8799   19.8961 H   0  0  0  0  0  0
  -22.3727  -10.9679   19.6172 H   0  0  0  0  0  0
  -21.2021   -7.6153   23.9716 H   0  0  0  0  0  0
  -21.1481   -6.0526   25.9075 H   0  0  0  0  0  0
  -22.0594   -2.7611   23.2847 H   0  0  0  0  0  0
  -22.4064  -11.9890   22.4854 H   0  0  0  0  0  0
  -21.1054  -13.1218   22.2625 H   0  0  0  0  0  0
  -24.6437  -15.8479   20.5272 H   0  0  0  0  0  0
  -26.2538  -15.6352   20.0646 H   0  0  0  0  0  0
  -26.7258  -32.5250   23.0954 H   0  0  0  0  0  0
  -25.0050  -33.9575   25.0271 H   0  0  0  0  0  0
  -22.7543  -31.2779   21.3660 H   0  0  0  0  0  0
  -23.3745  -35.9591   23.3300 H   0  0  0  0  0  0
  -24.3571  -36.8894   22.2060 H   0  0  0  0  0  0
  -23.7271  -37.6449   23.6696 H   0  0  0  0  0  0
  -26.1640  -31.4546   20.6116 H   0  0  0  0  0  0
  -26.8742  -30.7546   22.0295 H   0  0  0  0  0  0
  -28.1255  -28.7741   21.2537 H   0  0  0  0  0  0
  -25.9483  -25.7950   19.0270 H   0  0  0  0  0  0
  -24.0011  -27.2661   18.9766 H   0  0  0  0  0  0
  -23.8149  -30.5415   19.3885 H   0  0  0  0  0  0
  -22.7944  -29.2110   19.8387 H   0  0  0  0  0  0
  -25.1321  -36.1824   25.0799 H   0  0  0  0  0  0
  -21.0011  -28.3314   24.1352 H   0  0  0  0  0  0
  -20.5663  -26.2328   23.3634 H   0  0  0  0  0  0
  -21.6648  -26.7405   22.1217 H   0  0  0  0  0  0
  -19.6919  -25.6275   21.1260 H   0  0  0  0  0  0
  -19.6703  -27.3163   20.6730 H   0  0  0  0  0  0
  -17.4210  -26.6674   21.4021 H   0  0  0  0  0  0
  -18.0340  -26.0081   22.9022 H   0  0  0  0  0  0
  -19.7952  -30.7293   24.2227 H   0  0  0  0  0  0
  -17.5023  -31.6265   24.5160 H   0  0  0  0  0  0
  -15.5362  -30.2968   23.7674 H   0  0  0  0  0  0
  -15.8691  -28.0805   22.7085 H   0  0  0  0  0  0
  -24.5890  -30.7094   25.7731 H   0  0  0  0  0  0
  -24.8909  -32.2937   26.4775 H   0  0  0  0  0  0
  -25.8010  -30.8961   27.0207 H   0  0  0  0  0  0
  -26.3010  -29.6655   24.1314 H   0  0  0  0  0  0
  -27.3982  -29.7252   25.4893 H   0  0  0  0  0  0
  -27.8927  -30.4153   23.9635 H   0  0  0  0  0  0
  -27.2591  -33.3657   26.1997 H   0  0  0  0  0  0
  -28.3879  -32.6892   25.0354 H   0  0  0  0  0  0
  -28.0662  -31.8528   26.5468 H   0  0  0  0  0  0
  -28.2584  -38.0078   24.7477 H   0  0  0  0  0  0
  -28.1067  -36.2602   24.6330 H   0  0  0  0  0  0
  -27.2281  -37.1476   25.8866 H   0  0  0  0  0  0
  -20.9479  -29.8732   21.6754 H   0  0  0  0  0  0
  -26.0146  -38.2787   24.1391 H   0  0  0  0  0  0
  -30.9750  -22.9703   20.8734 H   0  0  0  0  0  0
  -27.8342  -20.1263   20.0890 H   0  0  0  0  0  0
  -34.4854  -21.2954   22.6414 H   0  0  0  0  0  0
  -33.3240  -19.9882   22.8192 H   0  0  0  0  0  0
  -32.8494  -21.6449   23.1911 H   0  0  0  0  0  0
  -28.3498  -23.4032   21.6406 H   0  0  0  0  0  0
  -27.2593  -22.8296   20.4500 H   0  0  0  0  0  0
  -33.1767  -22.2763   20.7744 H   0  0  0  0  0  0
  -33.6323  -20.6527   20.3862 H   0  0  0  0  0  0
  -29.9776  -17.4617   18.9926 H   0  0  0  0  0  0
  -28.4342  -17.5597   19.7241 H   0  0  0  0  0  0
  -27.8861  -24.5879   18.8480 H   0  0  0  0  0  0
  -29.4749  -24.6577   19.4514 H   0  0  0  0  0  0
  -28.9202  -15.8971   21.2134 H   0  0  0  0  0  0
  1 25  1  0  0  0
  1 30  2  0  0  0
  1 82  1  0  0  0
  2  3  1  0  0  0
  2 25  1  0  0  0
  2 84  1  0  0  0
  2 85  1  0  0  0
  3  4  1  0  0  0
  3 86  1  0  0  0
  3 87  1  0  0  0
  4  5  1  0  0  0
  4 88  1  0  0  0
  4 89  1  0  0  0
  5  6  1  0  0  0
  5 26  1  0  0  0
  5 90  1  0  0  0
  6 25  1  0  0  0
  6 91  1  0  0  0
  6 92  1  0  0  0
  7  8  2  0  0  0
  7 26  1  0  0  0
  7 29  1  0  0  0
  8  9  1  0  0  0
  8 22  1  0  0  0
  9 10  1  0  0  0
  9 27  2  0  0  0
 10 11  2  0  0  0
 10 15  1  0  0  0
 11 12  1  0  0  0
 11 93  1  0  0  0
 12 13  2  0  0  0
 12 94  1  0  0  0
 13 14  1  0  0  0
 13 31  1  0  0  0
 14 15  2  0  0  0
 14 95  1  0  0  0
 15 96  1  0  0  0
 16 17  2  0  0  0
 16 21  1  0  0  0
 16 31  1  0  0  0
 17 18  1  0  0  0
 17 97  1  0  0  0
 18 19  2  0  0  0
 18 98  1  0  0  0
 19 20  1  0  0  0
 19 24  1  0  0  0
 20 21  2  0  0  0
 20 99  1  0  0  0
 21 23  1  0  0  0
 22 28  1  0  0  0
 22 32  2  0  0  0
 26 27  1  0  0  0
 28100  1  0  0  0
 28101  1  0  0  0
 29102  1  0  0  0
 29103  1  0  0  0
 33 34  1  0  0  0
 33 66  1  0  0  0
 33 70  2  0  0  0
 34 36  1  0  0  0
 34 59  1  0  0  0
 34104  1  0  0  0
 35 44  2  0  0  0
 35 45  1  0  0  0
 35 68  1  0  0  0
 36 56  1  0  0  0
 36105  1  0  0  0
 37 39  1  0  0  0
 37 47  1  0  0  0
 37 66  1  0  0  0
 37106  1  0  0  0
 38 43  2  0  0  0
 38 46  1  0  0  0
 38 47  1  0  0  0
 39 64  1  0  0  0
 39 67  2  0  0  0
 40 52  1  0  0  0
 40 53  2  0  0  0
 40 58  1  0  0  0
 41107  1  0  0  0
 41108  1  0  0  0
 41109  1  0  0  0
 41 48  1  0  0  0
 42 43  1  0  0  0
 42 66  1  0  0  0
 42110  1  0  0  0
 42111  1  0  0  0
 43 44  1  0  0  0
 44112  1  0  0  0
 45 46  2  0  0  0
 45113  1  0  0  0
 46114  1  0  0  0
 47115  1  0  0  0
 47116  1  0  0  0
 48 56  1  0  0  0
 48 65  1  0  0  0
 48117  1  0  0  0
 49 50  1  0  0  0
 49 53  1  0  0  0
 49 64  1  0  0  0
 49118  1  0  0  0
 50 51  1  0  0  0
 50119  1  0  0  0
 50120  1  0  0  0
 51 52  1  0  0  0
 51121  1  0  0  0
 51122  1  0  0  0
 52123  1  0  0  0
 52124  1  0  0  0
 53 54  1  0  0  0
 54 55  2  0  0  0
 54125  1  0  0  0
 55 57  1  0  0  0
 55126  1  0  0  0
 56 69  2  0  0  0
 57 58  2  0  0  0
 57127  1  0  0  0
 58128  1  0  0  0
 59 60  1  0  0  0
 59 61  1  0  0  0
 59 62  1  0  0  0
 60129  1  0  0  0
 60130  1  0  0  0
 60131  1  0  0  0
 61132  1  0  0  0
 61133  1  0  0  0
 61134  1  0  0  0
 62135  1  0  0  0
 62136  1  0  0  0
 62137  1  0  0  0
 63 65  1  0  0  0
 63138  1  0  0  0
 63139  1  0  0  0
 63140  1  0  0  0
 64141  1  0  0  0
 65142  1  0  0  0
 68 81  1  0  0  0
 71 73  2  0  0  0
 71 74  1  0  0  0
 71143  1  0  0  0
 72 73  1  0  0  0
 72 75  2  0  0  0
 72144  1  0  0  0
 73 78  1  0  0  0
 74 76  2  0  0  0
 74 79  1  0  0  0
 75 76  1  0  0  0
 75 80  1  0  0  0
 76 83  1  0  0  0
 77 79  1  0  0  0
 77145  1  0  0  0
 77146  1  0  0  0
 77147  1  0  0  0
 78 81  1  0  0  0
 78148  1  0  0  0
 78149  1  0  0  0
 79150  1  0  0  0
 79151  1  0  0  0
 80 82  1  0  0  0
 80152  1  0  0  0
 80153  1  0  0  0
 81154  1  0  0  0
 81155  1  0  0  0
 82156  1  0  0  0
M  ISO  4   1 100  68 101  81 101  82 100
M  END
> <chiral flag>
0

> <version>
0

> <s_m_source_file>
/data/baiqing/PycharmProjects/Reinvent-master-3.2/result/LINK_invent/BTK/process_docking_weight1_custom_sum_contain_oxygen_bond_distance_aromatic_linkinvent_7_9_3/rearranged_h_0030.sdf

> <i_m_source_file_index>
51

> <r_mmod_Potential_Energy-OPLS-2005>
641.440246582031

> <r_mmod_Stretch_Energy-OPLS-2005>
303.157012939453

> <r_mmod_Bend_Energy-OPLS-2005>
331.856536865234

> <r_mmod_Torsional_Energy-OPLS-2005>
232.377639770508

> <r_mmod_Improper_Torsional_Energy-OPLS-2005>
7.95365715026855

> <r_mmod_Van_der_Waal_Energy-OPLS-2005>
124.979042053223

> <r_mmod_Electrostatic_Energy-OPLS-2005>
-360.05810546875

> <r_mmod_Solvation_Energy-OPLS-2005>
-217.705551147461

> <b_mmod_Minimization_Converged-OPLS-2005>
0

> <r_mmod_RMS_Derivative-OPLS-2005>
1.42022788524628

$$$$
51
                    3D
 Structure written by MMmdl.
150158  0  0  1  0            999 V2000
  -30.5637  -14.7387   20.4980 C   0  0  0  0  0  0
  -30.4548  -12.4571   19.4638 C   0  0  0  0  0  0
  -29.5177  -12.5252   18.2344 C   0  0  0  0  0  0
  -28.0424  -12.3417   18.6459 C   0  0  0  0  0  0
  -27.6530  -13.2188   19.8645 C   0  0  2  0  0  0
  -28.6989  -13.0917   20.9954 C   0  0  0  0  0  0
  -25.2542  -13.8146   20.5637 C   0  0  0  0  0  0
  -24.1823  -13.0420   20.9184 C   0  0  0  0  0  0
  -24.6403  -11.6896   20.8748 C   0  0  0  0  0  0
  -23.9068  -10.4284   21.0413 C   0  0  0  0  0  0
  -24.3618   -9.4199   21.9190 C   0  0  0  0  0  0
  -23.6292   -8.2236   22.0756 C   0  0  0  0  0  0
  -22.4273   -8.0279   21.3546 C   0  0  0  0  0  0
  -21.9909   -9.0254   20.4649 C   0  0  0  0  0  0
  -22.7240  -10.2132   20.3062 C   0  0  0  0  0  0
  -21.6850   -6.0735   22.5280 C   0  0  0  0  0  0
  -21.4012   -6.5638   23.8214 C   0  0  0  0  0  0
  -21.3659   -5.6791   24.9176 C   0  0  0  0  0  0
  -21.6044   -4.3054   24.7225 C   0  0  0  0  0  0
  -21.8819   -3.8146   23.4346 C   0  0  0  0  0  0
  -21.9191   -4.6963   22.3403 C   0  0  0  0  0  0
  -22.7849  -13.5221   21.1850 C   0  0  0  0  0  0
  -22.1661   -4.2149   21.0980 F   0  0  0  0  0  0
  -21.5629   -3.4537   25.7738 F   0  0  0  0  0  0
  -30.0058  -13.4794   20.4355 N   0  0  0  0  0  0
  -26.2990  -12.9339   20.3318 N   0  0  0  0  0  0
  -25.9337  -11.6495   20.5773 N   0  0  0  0  0  0
  -22.0492  -12.8224   22.0418 N   0  0  0  0  0  0
  -25.4204  -15.1850   20.3947 N   0  0  0  0  0  0
  -31.7130  -14.9426   20.0935 O   0  0  0  0  0  0
  -21.6637   -6.8877   21.4242 O   0  0  0  0  0  0
  -22.3532  -14.5526   20.6697 O   0  0  0  0  0  0
  -24.6324  -31.8545   23.1978 C   0  0  0  0  0  0
  -25.9145  -32.4752   23.8325 C   0  0  1  0  0  0
  -27.2257  -27.2568   20.1258 C   0  0  0  0  0  0
  -25.5935  -33.8555   24.2243 N   0  0  0  0  0  0
  -23.4299  -30.4775   21.5415 C   0  0  2  0  0  0
  -24.8780  -28.9251   20.1113 C   0  0  0  0  0  0
  -22.7512  -29.4598   22.4907 C   0  0  0  0  0  0
  -18.0293  -28.1390   22.8485 C   0  0  0  0  0  0
  -24.1490  -36.7284   23.2640 C   0  0  0  0  0  0
  -25.9774  -30.7668   21.3786 C   0  0  0  0  0  0
  -26.0515  -29.3895   20.7187 C   0  0  0  0  0  0
  -27.2279  -28.5699   20.7116 C   0  0  0  0  0  0
  -26.0229  -26.8629   19.4935 C   0  0  0  0  0  0
  -24.8696  -27.6700   19.4875 C   0  0  0  0  0  0
  -23.6490  -29.8123   20.1579 C   0  0  0  0  0  0
  -25.4117  -36.3067   24.0323 C   0  0  1  0  0  0
  -20.5900  -28.3700   23.1269 C   0  0  2  0  0  0
  -20.6781  -26.9416   22.5412 C   0  0  0  0  0  0
  -19.5756  -26.6383   21.5216 C   0  0  0  0  0  0
  -18.1936  -26.7931   22.1625 C   0  0  0  0  0  0
  -19.1549  -28.8863   23.2870 C   0  0  0  0  0  0
  -18.9468  -30.1462   23.8888 C   0  0  0  0  0  0
  -17.6466  -30.6589   24.0564 C   0  0  0  0  0  0
  -25.9059  -34.9439   23.5084 C   0  0  0  0  0  0
  -16.5357  -29.9086   23.6333 C   0  0  0  0  0  0
  -16.7280  -28.6506   23.0351 C   0  0  0  0  0  0
  -26.4502  -31.6587   25.0724 C   0  0  0  0  0  0
  -25.3717  -31.3760   26.1443 C   0  0  0  0  0  0
  -27.0343  -30.2994   24.6232 C   0  0  0  0  0  0
  -27.6051  -32.4334   25.7496 C   0  0  0  0  0  0
  -27.5580  -37.1795   24.8462 C   0  0  0  0  0  0
  -21.4218  -29.3045   22.3654 N   0  0  0  0  0  0
  -26.4289  -37.3769   23.9410 N   0  0  0  0  0  0
  -24.6991  -31.0509   22.0955 N   0  0  0  0  0  0
  -23.4209  -28.8138   23.3009 O   0  0  0  0  0  0
  -28.3238  -26.3586   20.1766 O   0  0  0  0  0  0
  -26.5635  -34.8918   22.4656 O   0  0  0  0  0  0
  -23.5471  -32.1366   23.7270 O   0  0  0  0  0  0
  -30.2655  -18.2971   20.2804 C   0  0  0  0  0  0
  -29.6025  -17.2237   20.8791 C   0  0  0  0  0  0
  -28.5579  -17.9066   21.5622 C   0  0  0  0  0  0
  -28.7938  -22.1571   20.3646 C   0  0  0  0  0  0
  -29.1975  -23.7370   20.3080 C   0  0  0  0  0  0
  -29.9278  -20.9914   20.3316 C   0  0  0  0  0  0
  -28.0607  -24.8748   20.0956 C   0  0  0  0  0  0
  -28.5422  -19.2316   21.4210 N   0  0  0  0  0  0
  -29.5905  -19.5237   20.6091 N   0  0  0  0  0  0
  -29.7133  -15.7396   20.9209 N   0  0  0  0  0  0
  -27.3816  -17.1106   22.5401 Cl  0  0  0  0  0  0
  -31.4902  -12.6161   19.1577 H   0  0  0  0  0  0
  -30.4262  -11.4649   19.9168 H   0  0  0  0  0  0
  -29.7993  -11.7668   17.5027 H   0  0  0  0  0  0
  -29.6385  -13.4885   17.7363 H   0  0  0  0  0  0
  -27.8962  -11.2886   18.8894 H   0  0  0  0  0  0
  -27.3843  -12.5523   17.8019 H   0  0  0  0  0  0
  -27.6631  -14.2511   19.5145 H   0  0  0  0  0  0
  -28.7363  -12.0671   21.3685 H   0  0  0  0  0  0
  -28.4230  -13.7054   21.8542 H   0  0  0  0  0  0
  -25.2764   -9.5672   22.4764 H   0  0  0  0  0  0
  -23.9999   -7.4624   22.7473 H   0  0  0  0  0  0
  -21.0839   -8.8775   19.8956 H   0  0  0  0  0  0
  -22.3701  -10.9673   19.6172 H   0  0  0  0  0  0
  -21.2004   -7.6146   23.9718 H   0  0  0  0  0  0
  -21.1482   -6.0521   25.9079 H   0  0  0  0  0  0
  -22.0599   -2.7608   23.2846 H   0  0  0  0  0  0
  -22.4108  -11.9891   22.4814 H   0  0  0  0  0  0
  -21.1115  -13.1263   22.2627 H   0  0  0  0  0  0
  -24.6536  -15.8369   20.5149 H   0  0  0  0  0  0
  -26.2672  -15.6275   20.0646 H   0  0  0  0  0  0
  -26.7214  -32.5399   23.1069 H   0  0  0  0  0  0
  -25.0075  -33.9689   25.0383 H   0  0  0  0  0  0
  -22.7266  -31.2998   21.3951 H   0  0  0  0  0  0
  -23.3753  -35.9614   23.3294 H   0  0  0  0  0  0
  -24.3581  -36.8917   22.2056 H   0  0  0  0  0  0
  -23.7241  -37.6480   23.6673 H   0  0  0  0  0  0
  -26.1186  -31.5290   20.6110 H   0  0  0  0  0  0
  -26.8536  -30.8137   22.0139 H   0  0  0  0  0  0
  -28.1260  -28.9230   21.1988 H   0  0  0  0  0  0
  -25.9355  -25.9064   19.0031 H   0  0  0  0  0  0
  -23.9720  -27.3082   19.0047 H   0  0  0  0  0  0
  -23.7748  -30.5886   19.4022 H   0  0  0  0  0  0
  -22.7674  -29.2464   19.8516 H   0  0  0  0  0  0
  -25.1301  -36.1905   25.0815 H   0  0  0  0  0  0
  -20.9991  -28.3278   24.1390 H   0  0  0  0  0  0
  -20.5678  -26.2311   23.3618 H   0  0  0  0  0  0
  -21.6649  -26.7436   22.1207 H   0  0  0  0  0  0
  -19.6917  -25.6291   21.1251 H   0  0  0  0  0  0
  -19.6694  -27.3190   20.6743 H   0  0  0  0  0  0
  -17.4207  -26.6679   21.4026 H   0  0  0  0  0  0
  -18.0332  -26.0075   22.9022 H   0  0  0  0  0  0
  -19.7943  -30.7284   24.2250 H   0  0  0  0  0  0
  -17.5019  -31.6267   24.5168 H   0  0  0  0  0  0
  -15.5356  -30.2984   23.7664 H   0  0  0  0  0  0
  -15.8680  -28.0824   22.7065 H   0  0  0  0  0  0
  -24.5891  -30.7106   25.7781 H   0  0  0  0  0  0
  -24.8912  -32.2941   26.4834 H   0  0  0  0  0  0
  -25.8026  -30.8965   27.0240 H   0  0  0  0  0  0
  -26.2931  -29.6744   24.1237 H   0  0  0  0  0  0
  -27.3984  -29.7262   25.4769 H   0  0  0  0  0  0
  -27.8829  -30.4251   23.9503 H   0  0  0  0  0  0
  -27.2652  -33.3638   26.2056 H   0  0  0  0  0  0
  -28.3868  -32.6889   25.0329 H   0  0  0  0  0  0
  -28.0712  -31.8472   26.5426 H   0  0  0  0  0  0
  -28.2593  -38.0097   24.7512 H   0  0  0  0  0  0
  -28.1078  -36.2628   24.6277 H   0  0  0  0  0  0
  -27.2303  -37.1433   25.8867 H   0  0  0  0  0  0
  -20.9403  -29.8769   21.6861 H   0  0  0  0  0  0
  -26.0163  -38.2839   24.1418 H   0  0  0  0  0  0
  -31.1483  -18.3064   19.6572 H   0  0  0  0  0  0
  -28.1086  -21.9592   19.5402 H   0  0  0  0  0  0
  -28.1963  -22.0138   21.2653 H   0  0  0  0  0  0
  -29.9338  -23.8640   19.5139 H   0  0  0  0  0  0
  -29.7316  -23.9704   21.2293 H   0  0  0  0  0  0
  -30.7004  -21.2629   21.0515 H   0  0  0  0  0  0
  -30.4218  -21.0255   19.3600 H   0  0  0  0  0  0
  -27.2607  -24.6590   20.8053 H   0  0  0  0  0  0
  -27.6478  -24.6717   19.1081 H   0  0  0  0  0  0
  -28.8848  -15.3243   21.3217 H   0  0  0  0  0  0
  1 25  1  0  0  0
  1 30  2  0  0  0
  1 80  1  0  0  0
  2  3  1  0  0  0
  2 25  1  0  0  0
  2 82  1  0  0  0
  2 83  1  0  0  0
  3  4  1  0  0  0
  3 84  1  0  0  0
  3 85  1  0  0  0
  4  5  1  0  0  0
  4 86  1  0  0  0
  4 87  1  0  0  0
  5  6  1  0  0  0
  5 26  1  0  0  0
  5 88  1  0  0  0
  6 25  1  0  0  0
  6 89  1  0  0  0
  6 90  1  0  0  0
  7  8  2  0  0  0
  7 26  1  0  0  0
  7 29  1  0  0  0
  8  9  1  0  0  0
  8 22  1  0  0  0
  9 10  1  0  0  0
  9 27  2  0  0  0
 10 11  2  0  0  0
 10 15  1  0  0  0
 11 12  1  0  0  0
 11 91  1  0  0  0
 12 13  2  0  0  0
 12 92  1  0  0  0
 13 14  1  0  0  0
 13 31  1  0  0  0
 14 15  2  0  0  0
 14 93  1  0  0  0
 15 94  1  0  0  0
 16 17  2  0  0  0
 16 21  1  0  0  0
 16 31  1  0  0  0
 17 18  1  0  0  0
 17 95  1  0  0  0
 18 19  2  0  0  0
 18 96  1  0  0  0
 19 20  1  0  0  0
 19 24  1  0  0  0
 20 21  2  0  0  0
 20 97  1  0  0  0
 21 23  1  0  0  0
 22 28  1  0  0  0
 22 32  2  0  0  0
 26 27  1  0  0  0
 28 98  1  0  0  0
 28 99  1  0  0  0
 29100  1  0  0  0
 29101  1  0  0  0
 33 34  1  0  0  0
 33 66  1  0  0  0
 33 70  2  0  0  0
 34 36  1  0  0  0
 34 59  1  0  0  0
 34102  1  0  0  0
 35 44  2  0  0  0
 35 45  1  0  0  0
 35 68  1  0  0  0
 36 56  1  0  0  0
 36103  1  0  0  0
 37 39  1  0  0  0
 37 47  1  0  0  0
 37 66  1  0  0  0
 37104  1  0  0  0
 38 43  2  0  0  0
 38 46  1  0  0  0
 38 47  1  0  0  0
 39 64  1  0  0  0
 39 67  2  0  0  0
 40 52  1  0  0  0
 40 53  2  0  0  0
 40 58  1  0  0  0
 41105  1  0  0  0
 41106  1  0  0  0
 41107  1  0  0  0
 41 48  1  0  0  0
 42 43  1  0  0  0
 42 66  1  0  0  0
 42108  1  0  0  0
 42109  1  0  0  0
 43 44  1  0  0  0
 44110  1  0  0  0
 45 46  2  0  0  0
 45111  1  0  0  0
 46112  1  0  0  0
 47113  1  0  0  0
 47114  1  0  0  0
 48 56  1  0  0  0
 48 65  1  0  0  0
 48115  1  0  0  0
 49 50  1  0  0  0
 49 53  1  0  0  0
 49 64  1  0  0  0
 49116  1  0  0  0
 50 51  1  0  0  0
 50117  1  0  0  0
 50118  1  0  0  0
 51 52  1  0  0  0
 51119  1  0  0  0
 51120  1  0  0  0
 52121  1  0  0  0
 52122  1  0  0  0
 53 54  1  0  0  0
 54 55  2  0  0  0
 54123  1  0  0  0
 55 57  1  0  0  0
 55124  1  0  0  0
 56 69  2  0  0  0
 57 58  2  0  0  0
 57125  1  0  0  0
 58126  1  0  0  0
 59 60  1  0  0  0
 59 61  1  0  0  0
 59 62  1  0  0  0
 60127  1  0  0  0
 60128  1  0  0  0
 60129  1  0  0  0
 61130  1  0  0  0
 61131  1  0  0  0
 61132  1  0  0  0
 62133  1  0  0  0
 62134  1  0  0  0
 62135  1  0  0  0
 63 65  1  0  0  0
 63136  1  0  0  0
 63137  1  0  0  0
 63138  1  0  0  0
 64139  1  0  0  0
 65140  1  0  0  0
 68 77  1  0  0  0
 71 72  2  0  0  0
 71 79  1  0  0  0
 71141  1  0  0  0
 72 73  1  0  0  0
 72 80  1  0  0  0
 73 78  2  0  0  0
 73 81  1  0  0  0
 74 75  1  0  0  0
 74 76  1  0  0  0
 74142  1  0  0  0
 74143  1  0  0  0
 75 77  1  0  0  0
 75144  1  0  0  0
 75145  1  0  0  0
 76 79  1  0  0  0
 76146  1  0  0  0
 76147  1  0  0  0
 77148  1  0  0  0
 77149  1  0  0  0
 78 79  1  0  0  0
 80150  1  0  0  0
M  ISO  4   1 100  68 101  77 101  80 100
M  END
> <chiral flag>
0

> <version>
0

> <s_m_source_file>
/data/baiqing/PycharmProjects/Reinvent-master-3.2/result/LINK_invent/BTK/process_docking_weight1_custom_sum_contain_oxygen_bond_distance_aromatic_linkinvent_7_9_3/rearranged_h_0030.sdf

> <i_m_source_file_index>
52

> <r_mmod_Potential_Energy-OPLS-2005>
137.331756591797

> <r_mmod_Stretch_Energy-OPLS-2005>
123.962226867676

> <r_mmod_Bend_Energy-OPLS-2005>
207.179656982422

> <r_mmod_Torsional_Energy-OPLS-2005>
218.119491577148

> <r_mmod_Improper_Torsional_Energy-OPLS-2005>
3.45709729194641

> <r_mmod_Van_der_Waal_Energy-OPLS-2005>
113.383125305176

> <r_mmod_Electrostatic_Energy-OPLS-2005>
-400.420928955078

> <r_mmod_Solvation_Energy-OPLS-2005>
-213.224426269531

> <b_mmod_Minimization_Converged-OPLS-2005>
0

> <r_mmod_RMS_Derivative-OPLS-2005>
0.272392064332962

$$$$
52
                    3D
 Structure written by MMmdl.
174183  0  0  1  0            999 V2000
  -30.7155  -14.3859   20.5364 C   0  0  0  0  0  0
  -30.4038  -12.2635   19.3653 C   0  0  0  0  0  0
  -29.4557  -12.4788   18.1687 C   0  0  0  0  0  0
  -27.9802  -12.3847   18.5969 C   0  0  0  0  0  0
  -27.6522  -13.2033   19.8697 C   0  0  2  0  0  0
  -28.7031  -12.9555   20.9733 C   0  0  0  0  0  0
  -25.2570  -13.8170   20.5731 C   0  0  0  0  0  0
  -24.1839  -13.0466   20.9253 C   0  0  0  0  0  0
  -24.6378  -11.6903   20.8811 C   0  0  0  0  0  0
  -23.9042  -10.4305   21.0445 C   0  0  0  0  0  0
  -24.3598   -9.4209   21.9218 C   0  0  0  0  0  0
  -23.6307   -8.2237   22.0748 C   0  0  0  0  0  0
  -22.4279   -8.0294   21.3538 C   0  0  0  0  0  0
  -21.9901   -9.0259   20.4638 C   0  0  0  0  0  0
  -22.7211  -10.2153   20.3086 C   0  0  0  0  0  0
  -21.6852   -6.0779   22.5294 C   0  0  0  0  0  0
  -21.3990   -6.5673   23.8225 C   0  0  0  0  0  0
  -21.3658   -5.6810   24.9175 C   0  0  0  0  0  0
  -21.6038   -4.3076   24.7214 C   0  0  0  0  0  0
  -21.8816   -3.8189   23.4330 C   0  0  0  0  0  0
  -21.9192   -4.7016   22.3392 C   0  0  0  0  0  0
  -22.7868  -13.5242   21.1933 C   0  0  0  0  0  0
  -22.1668   -4.2215   21.0973 F   0  0  0  0  0  0
  -21.5611   -3.4545   25.7703 F   0  0  0  0  0  0
  -30.0330  -13.2277   20.4048 N   0  0  0  0  0  0
  -26.2982  -12.9334   20.3391 N   0  0  0  0  0  0
  -25.9302  -11.6488   20.5852 N   0  0  0  0  0  0
  -22.0505  -12.8203   22.0462 N   0  0  0  0  0  0
  -25.4325  -15.1898   20.4116 N   0  0  0  0  0  0
  -31.9068  -14.5039   20.2560 O   0  0  0  0  0  0
  -21.6622   -6.8918   21.4248 O   0  0  0  0  0  0
  -22.3578  -14.5595   20.6833 O   0  0  0  0  0  0
  -24.6080  -31.8710   23.2127 C   0  0  0  0  0  0
  -25.8998  -32.4840   23.8419 C   0  0  1  0  0  0
  -27.2546  -27.5020   20.0708 C   0  0  0  0  0  0
  -25.5884  -33.8641   24.2349 N   0  0  0  0  0  0
  -23.3944  -30.4906   21.5513 C   0  0  2  0  0  0
  -24.8430  -28.9576   20.1199 C   0  0  0  0  0  0
  -22.7375  -29.4660   22.5028 C   0  0  0  0  0  0
  -18.0273  -28.1370   22.8501 C   0  0  0  0  0  0
  -24.1485  -36.7328   23.2634 C   0  0  0  0  0  0
  -25.9149  -30.8510   21.3587 C   0  0  0  0  0  0
  -25.9938  -29.4874   20.7132 C   0  0  0  0  0  0
  -27.1965  -28.7600   20.6958 C   0  0  0  0  0  0
  -26.0807  -26.9551   19.5010 C   0  0  0  0  0  0
  -24.8762  -27.6853   19.5201 C   0  0  0  0  0  0
  -23.6004  -29.8157   20.1679 C   0  0  0  0  0  0
  -25.4104  -36.3125   24.0336 C   0  0  1  0  0  0
  -20.5848  -28.3631   23.1347 C   0  0  2  0  0  0
  -20.6755  -26.9382   22.5405 C   0  0  0  0  0  0
  -19.5732  -26.6377   21.5207 C   0  0  0  0  0  0
  -18.1915  -26.7930   22.1616 C   0  0  0  0  0  0
  -19.1514  -28.8824   23.2926 C   0  0  0  0  0  0
  -18.9447  -30.1436   23.8915 C   0  0  0  0  0  0
  -17.6449  -30.6580   24.0559 C   0  0  0  0  0  0
  -25.9021  -34.9488   23.5133 C   0  0  0  0  0  0
  -16.5344  -29.9072   23.6330 C   0  0  0  0  0  0
  -16.7263  -28.6493   23.0357 C   0  0  0  0  0  0
  -26.4453  -31.6614   25.0732 C   0  0  0  0  0  0
  -25.3740  -31.3704   26.1493 C   0  0  0  0  0  0
  -27.0278  -30.3072   24.6060 C   0  0  0  0  0  0
  -27.6028  -32.4334   25.7500 C   0  0  0  0  0  0
  -27.5599  -37.1810   24.8459 C   0  0  0  0  0  0
  -21.4116  -29.3007   22.3772 N   0  0  0  0  0  0
  -26.4295  -37.3805   23.9421 N   0  0  0  0  0  0
  -24.6566  -31.0849   22.1003 N   0  0  0  0  0  0
  -23.4161  -28.8205   23.3060 O   0  0  0  0  0  0
  -28.4819  -26.8928   20.0606 O   0  0  0  0  0  0
  -26.5574  -34.8931   22.4685 O   0  0  0  0  0  0
  -23.5285  -32.1438   23.7556 O   0  0  0  0  0  0
  -33.9647  -19.2401   18.9048 C   0  0  0  0  0  0
  -33.4851  -18.5127   17.7987 C   0  0  0  0  0  0
  -33.9190  -20.6411   18.8609 C   0  0  0  0  0  0
  -33.4440  -21.2446   17.6756 C   0  0  0  0  0  0
  -33.1793  -19.2091   16.6100 C   0  0  0  0  0  0
  -30.7498  -25.0009   17.7828 C   0  0  0  0  0  0
  -29.2742  -23.3997   19.0507 C   0  0  0  0  0  0
  -30.1915  -26.1728   18.5970 C   0  0  0  0  0  0
  -28.7001  -24.5513   19.8797 C   0  0  0  0  0  0
  -30.7181  -23.7132   18.6185 C   0  0  1  0  0  0
  -28.7723  -25.8800   19.1173 C   0  0  1  0  0  0
  -33.1192  -17.0528   17.9753 C   0  0  0  0  0  0
  -32.8708  -22.6441   17.6880 C   0  0  0  0  0  0
  -31.3456  -22.5274   17.8904 C   0  0  0  0  0  0
  -31.6658  -16.9497   18.4850 C   0  0  0  0  0  0
  -31.4918  -17.3349   19.9727 C   0  0  0  0  0  0
  -30.1507  -16.8785   20.5967 C   0  0  0  0  0  0
  -33.1723  -20.5537   16.5493 N   0  0  0  0  0  0
  -29.9117  -15.4363   20.7444 N   0  0  0  0  0  0
  -34.2788  -21.5487   20.2890 Cl  0  0  0  0  0  0
  -32.6559  -18.3677   15.1943 Cl  0  0  0  0  0  0
  -31.4347  -12.3771   19.0299 H   0  0  0  0  0  0
  -30.3123  -11.2476   19.7498 H   0  0  0  0  0  0
  -29.6496  -11.7347   17.3949 H   0  0  0  0  0  0
  -29.6404  -13.4521   17.7108 H   0  0  0  0  0  0
  -27.7444  -11.3334   18.7636 H   0  0  0  0  0  0
  -27.3314  -12.7045   17.7798 H   0  0  0  0  0  0
  -27.6995  -14.2554   19.5893 H   0  0  0  0  0  0
  -28.6570  -11.9182   21.3087 H   0  0  0  0  0  0
  -28.4973  -13.5635   21.8543 H   0  0  0  0  0  0
  -25.2746   -9.5673   22.4798 H   0  0  0  0  0  0
  -24.0050   -7.4582   22.7396 H   0  0  0  0  0  0
  -21.0861   -8.8732   19.8929 H   0  0  0  0  0  0
  -22.3654  -10.9696   19.6205 H   0  0  0  0  0  0
  -21.1972   -7.6172   23.9743 H   0  0  0  0  0  0
  -21.1475   -6.0532   25.9073 H   0  0  0  0  0  0
  -22.0598   -2.7664   23.2779 H   0  0  0  0  0  0
  -22.4131  -11.9863   22.4850 H   0  0  0  0  0  0
  -21.1138  -13.1218   22.2701 H   0  0  0  0  0  0
  -24.6597  -15.8394   20.5077 H   0  0  0  0  0  0
  -26.2792  -15.6309   20.0751 H   0  0  0  0  0  0
  -26.7069  -32.5592   23.1200 H   0  0  0  0  0  0
  -25.0082  -33.9814   25.0526 H   0  0  0  0  0  0
  -22.6808  -31.3040   21.4093 H   0  0  0  0  0  0
  -23.3764  -35.9643   23.3252 H   0  0  0  0  0  0
  -24.3587  -36.8983   22.2058 H   0  0  0  0  0  0
  -23.7201  -37.6504   23.6671 H   0  0  0  0  0  0
  -26.0152  -31.6180   20.5889 H   0  0  0  0  0  0
  -26.8062  -30.9116   21.9706 H   0  0  0  0  0  0
  -28.0926  -29.1731   21.1370 H   0  0  0  0  0  0
  -26.0799  -25.9770   19.0425 H   0  0  0  0  0  0
  -23.9881  -27.2627   19.0707 H   0  0  0  0  0  0
  -23.7021  -30.5835   19.4010 H   0  0  0  0  0  0
  -22.7308  -29.2237   19.8785 H   0  0  0  0  0  0
  -25.1279  -36.1995   25.0828 H   0  0  0  0  0  0
  -20.9947  -28.3163   24.1464 H   0  0  0  0  0  0
  -20.5688  -26.2217   23.3565 H   0  0  0  0  0  0
  -21.6626  -26.7430   22.1190 H   0  0  0  0  0  0
  -19.6883  -25.6291   21.1236 H   0  0  0  0  0  0
  -19.6698  -27.3189   20.6747 H   0  0  0  0  0  0
  -17.4195  -26.6709   21.4013 H   0  0  0  0  0  0
  -18.0296  -26.0059   22.8989 H   0  0  0  0  0  0
  -19.7907  -30.7265   24.2287 H   0  0  0  0  0  0
  -17.4987  -31.6274   24.5128 H   0  0  0  0  0  0
  -15.5336  -30.2977   23.7634 H   0  0  0  0  0  0
  -15.8667  -28.0815   22.7051 H   0  0  0  0  0  0
  -24.5888  -30.7082   25.7832 H   0  0  0  0  0  0
  -24.8971  -32.2859   26.5004 H   0  0  0  0  0  0
  -25.8109  -30.8827   27.0212 H   0  0  0  0  0  0
  -26.2796  -29.6849   24.1133 H   0  0  0  0  0  0
  -27.4091  -29.7293   25.4486 H   0  0  0  0  0  0
  -27.8613  -30.4424   23.9161 H   0  0  0  0  0  0
  -27.2655  -33.3637   26.2081 H   0  0  0  0  0  0
  -28.3850  -32.6881   25.0341 H   0  0  0  0  0  0
  -28.0678  -31.8456   26.5422 H   0  0  0  0  0  0
  -28.2563  -38.0159   24.7567 H   0  0  0  0  0  0
  -28.1147  -36.2684   24.6212 H   0  0  0  0  0  0
  -27.2322  -37.1375   25.8860 H   0  0  0  0  0  0
  -20.9264  -29.8738   21.7016 H   0  0  0  0  0  0
  -26.0191  -38.2878   24.1450 H   0  0  0  0  0  0
  -34.2200  -18.7381   19.8262 H   0  0  0  0  0  0
  -31.7677  -25.2300   17.4674 H   0  0  0  0  0  0
  -30.1683  -24.8707   16.8687 H   0  0  0  0  0  0
  -28.6442  -23.2261   18.1762 H   0  0  0  0  0  0
  -29.2387  -22.4837   19.6414 H   0  0  0  0  0  0
  -30.1891  -27.0771   17.9882 H   0  0  0  0  0  0
  -30.8581  -26.3705   19.4373 H   0  0  0  0  0  0
  -29.2627  -24.6417   20.8105 H   0  0  0  0  0  0
  -27.6703  -24.3424   20.1661 H   0  0  0  0  0  0
  -31.3048  -23.8726   19.5242 H   0  0  0  0  0  0
  -28.1034  -25.8737   18.2568 H   0  0  0  0  0  0
  -33.8114  -16.5595   18.6595 H   0  0  0  0  0  0
  -33.2162  -16.5170   17.0309 H   0  0  0  0  0  0
  -33.1061  -23.1671   16.7610 H   0  0  0  0  0  0
  -33.3216  -23.2329   18.4845 H   0  0  0  0  0  0
  -30.8488  -22.3225   16.9422 H   0  0  0  0  0  0
  -31.1553  -21.6498   18.5122 H   0  0  0  0  0  0
  -31.3123  -15.9373   18.3073 H   0  0  0  0  0  0
  -31.0042  -17.5781   17.8870 H   0  0  0  0  0  0
  -31.5516  -18.4194   20.0591 H   0  0  0  0  0  0
  -32.3262  -16.9687   20.5716 H   0  0  0  0  0  0
  -29.3364  -17.2800   19.9891 H   0  0  0  0  0  0
  -30.0434  -17.3240   21.5846 H   0  0  0  0  0  0
  -28.9522  -15.1692   20.9111 H   0  0  0  0  0  0
  1 25  1  0  0  0
  1 30  2  0  0  0
  1 89  1  0  0  0
  2  3  1  0  0  0
  2 25  1  0  0  0
  2 92  1  0  0  0
  2 93  1  0  0  0
  3  4  1  0  0  0
  3 94  1  0  0  0
  3 95  1  0  0  0
  4  5  1  0  0  0
  4 96  1  0  0  0
  4 97  1  0  0  0
  5  6  1  0  0  0
  5 26  1  0  0  0
  5 98  1  0  0  0
  6 25  1  0  0  0
  6 99  1  0  0  0
  6100  1  0  0  0
  7  8  2  0  0  0
  7 26  1  0  0  0
  7 29  1  0  0  0
  8  9  1  0  0  0
  8 22  1  0  0  0
  9 10  1  0  0  0
  9 27  2  0  0  0
 10 11  2  0  0  0
 10 15  1  0  0  0
 11 12  1  0  0  0
 11101  1  0  0  0
 12 13  2  0  0  0
 12102  1  0  0  0
 13 14  1  0  0  0
 13 31  1  0  0  0
 14 15  2  0  0  0
 14103  1  0  0  0
 15104  1  0  0  0
 16 17  2  0  0  0
 16 21  1  0  0  0
 16 31  1  0  0  0
 17 18  1  0  0  0
 17105  1  0  0  0
 18 19  2  0  0  0
 18106  1  0  0  0
 19 20  1  0  0  0
 19 24  1  0  0  0
 20 21  2  0  0  0
 20107  1  0  0  0
 21 23  1  0  0  0
 22 28  1  0  0  0
 22 32  2  0  0  0
 26 27  1  0  0  0
 28108  1  0  0  0
 28109  1  0  0  0
 29110  1  0  0  0
 29111  1  0  0  0
 33 34  1  0  0  0
 33 66  1  0  0  0
 33 70  2  0  0  0
 34 36  1  0  0  0
 34 59  1  0  0  0
 34112  1  0  0  0
 35 44  2  0  0  0
 35 45  1  0  0  0
 35 68  1  0  0  0
 36 56  1  0  0  0
 36113  1  0  0  0
 37 39  1  0  0  0
 37 47  1  0  0  0
 37 66  1  0  0  0
 37114  1  0  0  0
 38 43  2  0  0  0
 38 46  1  0  0  0
 38 47  1  0  0  0
 39 64  1  0  0  0
 39 67  2  0  0  0
 40 52  1  0  0  0
 40 53  2  0  0  0
 40 58  1  0  0  0
 41115  1  0  0  0
 41116  1  0  0  0
 41117  1  0  0  0
 41 48  1  0  0  0
 42 43  1  0  0  0
 42 66  1  0  0  0
 42118  1  0  0  0
 42119  1  0  0  0
 43 44  1  0  0  0
 44120  1  0  0  0
 45 46  2  0  0  0
 45121  1  0  0  0
 46122  1  0  0  0
 47123  1  0  0  0
 47124  1  0  0  0
 48 56  1  0  0  0
 48 65  1  0  0  0
 48125  1  0  0  0
 49 50  1  0  0  0
 49 53  1  0  0  0
 49 64  1  0  0  0
 49126  1  0  0  0
 50 51  1  0  0  0
 50127  1  0  0  0
 50128  1  0  0  0
 51 52  1  0  0  0
 51129  1  0  0  0
 51130  1  0  0  0
 52131  1  0  0  0
 52132  1  0  0  0
 53 54  1  0  0  0
 54 55  2  0  0  0
 54133  1  0  0  0
 55 57  1  0  0  0
 55134  1  0  0  0
 56 69  2  0  0  0
 57 58  2  0  0  0
 57135  1  0  0  0
 58136  1  0  0  0
 59 60  1  0  0  0
 59 61  1  0  0  0
 59 62  1  0  0  0
 60137  1  0  0  0
 60138  1  0  0  0
 60139  1  0  0  0
 61140  1  0  0  0
 61141  1  0  0  0
 61142  1  0  0  0
 62143  1  0  0  0
 62144  1  0  0  0
 62145  1  0  0  0
 63 65  1  0  0  0
 63146  1  0  0  0
 63147  1  0  0  0
 63148  1  0  0  0
 64149  1  0  0  0
 65150  1  0  0  0
 68 81  1  0  0  0
 71 72  2  0  0  0
 71 73  1  0  0  0
 71151  1  0  0  0
 72 75  1  0  0  0
 72 82  1  0  0  0
 73 74  2  0  0  0
 73 90  1  0  0  0
 74 83  1  0  0  0
 74 88  1  0  0  0
 75 88  2  0  0  0
 75 91  1  0  0  0
 76 78  1  0  0  0
 76 80  1  0  0  0
 76152  1  0  0  0
 76153  1  0  0  0
 77 79  1  0  0  0
 77 80  1  0  0  0
 77154  1  0  0  0
 77155  1  0  0  0
 78 81  1  0  0  0
 78156  1  0  0  0
 78157  1  0  0  0
 79 81  1  0  0  0
 79158  1  0  0  0
 79159  1  0  0  0
 80 84  1  0  0  0
 80160  1  0  0  0
 81161  1  0  0  0
 82 85  1  0  0  0
 82162  1  0  0  0
 82163  1  0  0  0
 83 84  1  0  0  0
 83164  1  0  0  0
 83165  1  0  0  0
 84166  1  0  0  0
 84167  1  0  0  0
 85 86  1  0  0  0
 85168  1  0  0  0
 85169  1  0  0  0
 86 87  1  0  0  0
 86170  1  0  0  0
 86171  1  0  0  0
 87 89  1  0  0  0
 87172  1  0  0  0
 87173  1  0  0  0
 89174  1  0  0  0
M  ISO  4   1 100  68 101  81 101  89 100
M  END
> <chiral flag>
0

> <version>
0

> <s_m_source_file>
/data/baiqing/PycharmProjects/Reinvent-master-3.2/result/LINK_invent/BTK/process_docking_weight1_custom_sum_contain_oxygen_bond_distance_aromatic_linkinvent_7_9_3/rearranged_h_0030.sdf

> <i_m_source_file_index>
53

> <r_mmod_Potential_Energy-OPLS-2005>
-100.033790588379

> <r_mmod_Stretch_Energy-OPLS-2005>
29.8628273010254

> <r_mmod_Bend_Energy-OPLS-2005>
116.994094848633

> <r_mmod_Torsional_Energy-OPLS-2005>
257.873718261719

> <r_mmod_Improper_Torsional_Energy-OPLS-2005>
10.3540649414062

> <r_mmod_Van_der_Waal_Energy-OPLS-2005>
169.106079101562

> <r_mmod_Electrostatic_Energy-OPLS-2005>
-501.421630859375

> <r_mmod_Solvation_Energy-OPLS-2005>
-202.970718383789

> <b_mmod_Minimization_Converged-OPLS-2005>
0

> <r_mmod_RMS_Derivative-OPLS-2005>
4.50128221511841

$$$$
53
                    3D
 Structure written by MMmdl.
163172  0  0  1  0            999 V2000
  -30.6372  -14.5800   20.5538 C   0  0  0  0  0  0
  -30.4373  -12.3748   19.4248 C   0  0  0  0  0  0
  -29.4997  -12.5057   18.2055 C   0  0  0  0  0  0
  -28.0214  -12.3452   18.6199 C   0  0  0  0  0  0
  -27.6499  -13.2080   19.8551 C   0  0  2  0  0  0
  -28.6940  -13.0317   20.9772 C   0  0  0  0  0  0
  -25.2545  -13.8151   20.5655 C   0  0  0  0  0  0
  -24.1809  -13.0427   20.9182 C   0  0  0  0  0  0
  -24.6371  -11.6897   20.8721 C   0  0  0  0  0  0
  -23.9043  -10.4290   21.0389 C   0  0  0  0  0  0
  -24.3605   -9.4213   21.9166 C   0  0  0  0  0  0
  -23.6300   -8.2236   22.0736 C   0  0  0  0  0  0
  -22.4278   -8.0272   21.3543 C   0  0  0  0  0  0
  -21.9906   -9.0235   20.4643 C   0  0  0  0  0  0
  -22.7213  -10.2126   20.3042 C   0  0  0  0  0  0
  -21.6862   -6.0731   22.5290 C   0  0  0  0  0  0
  -21.4007   -6.5632   23.8222 C   0  0  0  0  0  0
  -21.3655   -5.6786   24.9182 C   0  0  0  0  0  0
  -21.6049   -4.3054   24.7230 C   0  0  0  0  0  0
  -21.8819   -3.8142   23.4355 C   0  0  0  0  0  0
  -21.9190   -4.6956   22.3410 C   0  0  0  0  0  0
  -22.7836  -13.5229   21.1869 C   0  0  0  0  0  0
  -22.1661   -4.2141   21.0988 F   0  0  0  0  0  0
  -21.5627   -3.4533   25.7744 F   0  0  0  0  0  0
  -30.0104  -13.3757   20.4178 N   0  0  0  0  0  0
  -26.2955  -12.9312   20.3254 N   0  0  0  0  0  0
  -25.9288  -11.6481   20.5713 N   0  0  0  0  0  0
  -22.0470  -12.8241   22.0438 N   0  0  0  0  0  0
  -25.4268  -15.1871   20.4087 N   0  0  0  0  0  0
  -31.8032  -14.7596   20.1956 O   0  0  0  0  0  0
  -21.6637   -6.8876   21.4259 O   0  0  0  0  0  0
  -22.3530  -14.5533   20.6710 O   0  0  0  0  0  0
  -24.6211  -31.8629   23.2067 C   0  0  0  0  0  0
  -25.9074  -32.4798   23.8379 C   0  0  1  0  0  0
  -27.2217  -27.3588   20.1260 C   0  0  0  0  0  0
  -25.5910  -33.8597   24.2311 N   0  0  0  0  0  0
  -23.4150  -30.4861   21.5460 C   0  0  2  0  0  0
  -24.8611  -28.9375   20.1216 C   0  0  0  0  0  0
  -22.7448  -29.4655   22.4946 C   0  0  0  0  0  0
  -18.0299  -28.1400   22.8491 C   0  0  0  0  0  0
  -24.1487  -36.7308   23.2640 C   0  0  0  0  0  0
  -25.9492  -30.8055   21.3703 C   0  0  0  0  0  0
  -26.0251  -29.4308   20.7251 C   0  0  0  0  0  0
  -27.2119  -28.6501   20.7227 C   0  0  0  0  0  0
  -26.0443  -26.9019   19.5013 C   0  0  0  0  0  0
  -24.8683  -27.6760   19.5028 C   0  0  0  0  0  0
  -23.6307  -29.8178   20.1619 C   0  0  0  0  0  0
  -25.4108  -36.3095   24.0338 C   0  0  1  0  0  0
  -20.5888  -28.3698   23.1297 C   0  0  2  0  0  0
  -20.6791  -26.9429   22.5415 C   0  0  0  0  0  0
  -19.5773  -26.6398   21.5216 C   0  0  0  0  0  0
  -18.1948  -26.7949   22.1616 C   0  0  0  0  0  0
  -19.1543  -28.8863   23.2891 C   0  0  0  0  0  0
  -18.9470  -30.1465   23.8914 C   0  0  0  0  0  0
  -17.6468  -30.6600   24.0577 C   0  0  0  0  0  0
  -25.9036  -34.9466   23.5125 C   0  0  0  0  0  0
  -16.5361  -29.9109   23.6323 C   0  0  0  0  0  0
  -16.7284  -28.6523   23.0346 C   0  0  0  0  0  0
  -26.4488  -31.6590   25.0722 C   0  0  0  0  0  0
  -25.3754  -31.3704   26.1471 C   0  0  0  0  0  0
  -27.0312  -30.3030   24.6107 C   0  0  0  0  0  0
  -27.6062  -32.4310   25.7476 C   0  0  0  0  0  0
  -27.5583  -37.1811   24.8464 C   0  0  0  0  0  0
  -21.4170  -29.3048   22.3675 N   0  0  0  0  0  0
  -26.4291  -37.3787   23.9418 N   0  0  0  0  0  0
  -24.6809  -31.0674   22.0992 N   0  0  0  0  0  0
  -23.4178  -28.8195   23.3017 O   0  0  0  0  0  0
  -28.3536  -26.5590   20.0755 O   0  0  0  0  0  0
  -26.5597  -34.8922   22.4679 O   0  0  0  0  0  0
  -23.5386  -32.1410   23.7407 O   0  0  0  0  0  0
  -29.6473  -19.4763   20.9230 C   0  0  0  0  0  0
  -30.5173  -18.0498   19.1614 C   0  0  0  0  0  0
  -29.7540  -20.6478   20.0997 C   0  0  0  0  0  0
  -30.3091  -20.4794   18.7980 C   0  0  0  0  0  0
  -30.0688  -18.1798   20.4832 C   0  0  0  0  0  0
  -30.6388  -19.1748   18.3264 C   0  0  0  0  0  0
  -30.6332  -21.6970   17.9383 C   0  0  0  0  0  0
  -29.4219  -22.0687   20.6865 C   0  0  0  0  0  0
  -29.4144  -22.5552   17.6009 C   0  0  0  0  0  0
  -29.0976  -23.5880   18.6842 C   0  0  0  0  0  0
  -30.1905  -16.9685   21.4468 C   0  0  0  0  0  0
  -27.7626  -24.0541   20.7052 C   0  0  0  0  0  0
  -28.4540  -25.4451   21.0154 C   0  0  0  0  0  0
  -29.8418  -15.6027   20.9693 N   0  0  0  0  0  0
  -28.5100  -22.9989   19.9100 N   0  3  2  0  0  0
  -31.2699  -18.8968   16.7387 Cl  0  0  0  0  0  0
  -31.4744  -12.5169   19.1155 H   0  0  0  0  0  0
  -30.3804  -11.3731   19.8522 H   0  0  0  0  0  0
  -29.7613  -11.7631   17.4492 H   0  0  0  0  0  0
  -29.6426  -13.4809   17.7385 H   0  0  0  0  0  0
  -27.8549  -11.2917   18.8468 H   0  0  0  0  0  0
  -27.3663  -12.5818   17.7806 H   0  0  0  0  0  0
  -27.6766  -14.2478   19.5283 H   0  0  0  0  0  0
  -28.7012  -12.0014   21.3333 H   0  0  0  0  0  0
  -28.4417  -13.6408   21.8458 H   0  0  0  0  0  0
  -25.2741   -9.5699   22.4749 H   0  0  0  0  0  0
  -24.0017   -7.4626   22.7449 H   0  0  0  0  0  0
  -21.0829   -8.8737   19.8966 H   0  0  0  0  0  0
  -22.3642  -10.9656   19.6158 H   0  0  0  0  0  0
  -21.1992   -7.6140   23.9729 H   0  0  0  0  0  0
  -21.1482   -6.0509   25.9089 H   0  0  0  0  0  0
  -22.0604   -2.7606   23.2852 H   0  0  0  0  0  0
  -22.4076  -11.9892   22.4825 H   0  0  0  0  0  0
  -21.1084  -13.1274   22.2635 H   0  0  0  0  0  0
  -24.6579  -15.8402   20.5109 H   0  0  0  0  0  0
  -26.2729  -15.6287   20.0714 H   0  0  0  0  0  0
  -26.7138  -32.5493   23.1126 H   0  0  0  0  0  0
  -25.0066  -33.9749   25.0465 H   0  0  0  0  0  0
  -22.7098  -31.3071   21.4017 H   0  0  0  0  0  0
  -23.3741  -35.9647   23.3298 H   0  0  0  0  0  0
  -24.3580  -36.8925   22.2053 H   0  0  0  0  0  0
  -23.7242  -37.6516   23.6654 H   0  0  0  0  0  0
  -26.0654  -31.5620   20.5936 H   0  0  0  0  0  0
  -26.8369  -30.8654   21.9882 H   0  0  0  0  0  0
  -28.1123  -29.0275   21.1872 H   0  0  0  0  0  0
  -26.0319  -25.9443   19.0035 H   0  0  0  0  0  0
  -23.9771  -27.2965   19.0218 H   0  0  0  0  0  0
  -23.7597  -30.5938   19.4062 H   0  0  0  0  0  0
  -22.7512  -29.2489   19.8546 H   0  0  0  0  0  0
  -25.1283  -36.1953   25.0832 H   0  0  0  0  0  0
  -20.9996  -28.3281   24.1413 H   0  0  0  0  0  0
  -20.5711  -26.2309   23.3607 H   0  0  0  0  0  0
  -21.6658  -26.7483   22.1199 H   0  0  0  0  0  0
  -19.6935  -25.6307   21.1253 H   0  0  0  0  0  0
  -19.6727  -27.3201   20.6744 H   0  0  0  0  0  0
  -17.4228  -26.6714   21.4008 H   0  0  0  0  0  0
  -18.0343  -26.0088   22.9008 H   0  0  0  0  0  0
  -19.7945  -30.7280   24.2284 H   0  0  0  0  0  0
  -17.5031  -31.6282   24.5182 H   0  0  0  0  0  0
  -15.5363  -30.3022   23.7645 H   0  0  0  0  0  0
  -15.8685  -28.0858   22.7042 H   0  0  0  0  0  0
  -24.5924  -30.7049   25.7817 H   0  0  0  0  0  0
  -24.8949  -32.2859   26.4932 H   0  0  0  0  0  0
  -25.8118  -30.8871   27.0220 H   0  0  0  0  0  0
  -26.2850  -29.6784   24.1181 H   0  0  0  0  0  0
  -27.4099  -29.7276   25.4561 H   0  0  0  0  0  0
  -27.8683  -30.4344   23.9248 H   0  0  0  0  0  0
  -27.2685  -33.3596   26.2084 H   0  0  0  0  0  0
  -28.3853  -32.6886   25.0292 H   0  0  0  0  0  0
  -28.0748  -31.8414   26.5363 H   0  0  0  0  0  0
  -28.2599  -38.0110   24.7505 H   0  0  0  0  0  0
  -28.1083  -36.2640   24.6291 H   0  0  0  0  0  0
  -27.2308  -37.1464   25.8870 H   0  0  0  0  0  0
  -20.9343  -29.8747   21.6871 H   0  0  0  0  0  0
  -26.0173  -38.2860   24.1433 H   0  0  0  0  0  0
  -29.3018  -19.5856   21.9417 H   0  0  0  0  0  0
  -30.8420  -17.0859   18.7952 H   0  0  0  0  0  0
  -31.0989  -21.4100   16.9982 H   0  0  0  0  0  0
  -31.3945  -22.2921   18.4455 H   0  0  0  0  0  0
  -30.3563  -22.5849   20.9037 H   0  0  0  0  0  0
  -28.9602  -21.8945   21.6583 H   0  0  0  0  0  0
  -28.5504  -21.9423   17.3382 H   0  0  0  0  0  0
  -29.6599  -23.1218   16.7012 H   0  0  0  0  0  0
  -28.3775  -24.2883   18.2555 H   0  0  0  0  0  0
  -29.9810  -24.1809   18.9288 H   0  0  0  0  0  0
  -29.5671  -17.1702   22.3194 H   0  0  0  0  0  0
  -31.2134  -16.9525   21.8252 H   0  0  0  0  0  0
  -26.8115  -24.2388   20.2101 H   0  0  0  0  0  0
  -27.4820  -23.6070   21.6599 H   0  0  0  0  0  0
  -29.5103  -25.2834   21.2256 H   0  0  0  0  0  0
  -28.0400  -25.8055   21.9591 H   0  0  0  0  0  0
  -28.8830  -15.3370   21.1308 H   0  0  0  0  0  0
  -27.7763  -22.3827   19.5898 H   0  0  0  0  0  0
  1 25  1  0  0  0
  1 30  2  0  0  0
  1 84  1  0  0  0
  2  3  1  0  0  0
  2 25  1  0  0  0
  2 87  1  0  0  0
  2 88  1  0  0  0
  3  4  1  0  0  0
  3 89  1  0  0  0
  3 90  1  0  0  0
  4  5  1  0  0  0
  4 91  1  0  0  0
  4 92  1  0  0  0
  5  6  1  0  0  0
  5 26  1  0  0  0
  5 93  1  0  0  0
  6 25  1  0  0  0
  6 94  1  0  0  0
  6 95  1  0  0  0
  7  8  2  0  0  0
  7 26  1  0  0  0
  7 29  1  0  0  0
  8  9  1  0  0  0
  8 22  1  0  0  0
  9 10  1  0  0  0
  9 27  2  0  0  0
 10 11  2  0  0  0
 10 15  1  0  0  0
 11 12  1  0  0  0
 11 96  1  0  0  0
 12 13  2  0  0  0
 12 97  1  0  0  0
 13 14  1  0  0  0
 13 31  1  0  0  0
 14 15  2  0  0  0
 14 98  1  0  0  0
 15 99  1  0  0  0
 16 17  2  0  0  0
 16 21  1  0  0  0
 16 31  1  0  0  0
 17 18  1  0  0  0
 17100  1  0  0  0
 18 19  2  0  0  0
 18101  1  0  0  0
 19 20  1  0  0  0
 19 24  1  0  0  0
 20 21  2  0  0  0
 20102  1  0  0  0
 21 23  1  0  0  0
 22 28  1  0  0  0
 22 32  2  0  0  0
 26 27  1  0  0  0
 28103  1  0  0  0
 28104  1  0  0  0
 29105  1  0  0  0
 29106  1  0  0  0
 33 34  1  0  0  0
 33 66  1  0  0  0
 33 70  2  0  0  0
 34 36  1  0  0  0
 34 59  1  0  0  0
 34107  1  0  0  0
 35 44  2  0  0  0
 35 45  1  0  0  0
 35 68  1  0  0  0
 36 56  1  0  0  0
 36108  1  0  0  0
 37 39  1  0  0  0
 37 47  1  0  0  0
 37 66  1  0  0  0
 37109  1  0  0  0
 38 43  2  0  0  0
 38 46  1  0  0  0
 38 47  1  0  0  0
 39 64  1  0  0  0
 39 67  2  0  0  0
 40 52  1  0  0  0
 40 53  2  0  0  0
 40 58  1  0  0  0
 41110  1  0  0  0
 41111  1  0  0  0
 41112  1  0  0  0
 41 48  1  0  0  0
 42 43  1  0  0  0
 42 66  1  0  0  0
 42113  1  0  0  0
 42114  1  0  0  0
 43 44  1  0  0  0
 44115  1  0  0  0
 45 46  2  0  0  0
 45116  1  0  0  0
 46117  1  0  0  0
 47118  1  0  0  0
 47119  1  0  0  0
 48 56  1  0  0  0
 48 65  1  0  0  0
 48120  1  0  0  0
 49 50  1  0  0  0
 49 53  1  0  0  0
 49 64  1  0  0  0
 49121  1  0  0  0
 50 51  1  0  0  0
 50122  1  0  0  0
 50123  1  0  0  0
 51 52  1  0  0  0
 51124  1  0  0  0
 51125  1  0  0  0
 52126  1  0  0  0
 52127  1  0  0  0
 53 54  1  0  0  0
 54 55  2  0  0  0
 54128  1  0  0  0
 55 57  1  0  0  0
 55129  1  0  0  0
 56 69  2  0  0  0
 57 58  2  0  0  0
 57130  1  0  0  0
 58131  1  0  0  0
 59 60  1  0  0  0
 59 61  1  0  0  0
 59 62  1  0  0  0
 60132  1  0  0  0
 60133  1  0  0  0
 60134  1  0  0  0
 61135  1  0  0  0
 61136  1  0  0  0
 61137  1  0  0  0
 62138  1  0  0  0
 62139  1  0  0  0
 62140  1  0  0  0
 63 65  1  0  0  0
 63141  1  0  0  0
 63142  1  0  0  0
 63143  1  0  0  0
 64144  1  0  0  0
 65145  1  0  0  0
 68 83  1  0  0  0
 71 73  2  0  0  0
 71 75  1  0  0  0
 71146  1  0  0  0
 72 75  2  0  0  0
 72 76  1  0  0  0
 72147  1  0  0  0
 73 74  1  0  0  0
 73 78  1  0  0  0
 74 76  2  0  0  0
 74 77  1  0  0  0
 75 81  1  0  0  0
 76 86  1  0  0  0
 77 79  1  0  0  0
 77148  1  0  0  0
 77149  1  0  0  0
 78 85  1  0  0  0
 78150  1  0  0  0
 78151  1  0  0  0
 79 80  1  0  0  0
 79152  1  0  0  0
 79153  1  0  0  0
 80 85  1  0  0  0
 80154  1  0  0  0
 80155  1  0  0  0
 81 84  1  0  0  0
 81156  1  0  0  0
 81157  1  0  0  0
 82 83  1  0  0  0
 82158  1  0  0  0
 82159  1  0  0  0
 82 85  1  0  0  0
 83160  1  0  0  0
 83161  1  0  0  0
 84162  1  0  0  0
 85163  1  0  0  0
M  CHG  1  85   1
M  ISO  4   1 100  68 101  83 101  84 100
M  END
> <chiral flag>
0

> <version>
0

> <s_m_source_file>
/data/baiqing/PycharmProjects/Reinvent-master-3.2/result/LINK_invent/BTK/process_docking_weight1_custom_sum_contain_oxygen_bond_distance_aromatic_linkinvent_7_9_3/rearranged_h_0030.sdf

> <i_m_source_file_index>
54

> <r_mmod_Potential_Energy-OPLS-2005>
-98.9075393676758

> <r_mmod_Stretch_Energy-OPLS-2005>
64.1439819335938

> <r_mmod_Bend_Energy-OPLS-2005>
139.604614257812

> <r_mmod_Torsional_Energy-OPLS-2005>
253.773330688477

> <r_mmod_Improper_Torsional_Energy-OPLS-2005>
4.96092510223389

> <r_mmod_Van_der_Waal_Energy-OPLS-2005>
142.065475463867

> <r_mmod_Electrostatic_Energy-OPLS-2005>
-300.801666259766

> <r_mmod_Solvation_Energy-OPLS-2005>
-434.594573974609

> <b_mmod_Minimization_Converged-OPLS-2005>
0

> <r_mmod_RMS_Derivative-OPLS-2005>
2.34465837478638

$$$$
54
                    3D
 Structure written by MMmdl.
170179  0  0  1  0            999 V2000
  -30.7045  -14.5095   20.6084 C   0  0  0  0  0  0
  -30.4294  -12.3481   19.4341 C   0  0  0  0  0  0
  -29.5066  -12.5218   18.2119 C   0  0  0  0  0  0
  -28.0215  -12.3973   18.6080 C   0  0  0  0  0  0
  -27.6588  -13.2242   19.8709 C   0  0  2  0  0  0
  -28.6973  -13.0135   20.9931 C   0  0  0  0  0  0
  -25.2570  -13.8201   20.5695 C   0  0  0  0  0  0
  -24.1837  -13.0470   20.9180 C   0  0  0  0  0  0
  -24.6401  -11.6922   20.8745 C   0  0  0  0  0  0
  -23.9060  -10.4304   21.0425 C   0  0  0  0  0  0
  -24.3631   -9.4209   21.9193 C   0  0  0  0  0  0
  -23.6309   -8.2248   22.0728 C   0  0  0  0  0  0
  -22.4281   -8.0288   21.3530 C   0  0  0  0  0  0
  -21.9926   -9.0264   20.4641 C   0  0  0  0  0  0
  -22.7250  -10.2142   20.3054 C   0  0  0  0  0  0
  -21.6869   -6.0736   22.5275 C   0  0  0  0  0  0
  -21.4025   -6.5625   23.8209 C   0  0  0  0  0  0
  -21.3666   -5.6765   24.9166 C   0  0  0  0  0  0
  -21.6027   -4.3030   24.7212 C   0  0  0  0  0  0
  -21.8828   -3.8134   23.4337 C   0  0  0  0  0  0
  -21.9201   -4.6956   22.3401 C   0  0  0  0  0  0
  -22.7841  -13.5247   21.1843 C   0  0  0  0  0  0
  -22.1664   -4.2132   21.0976 F   0  0  0  0  0  0
  -21.5638   -3.4522   25.7733 F   0  0  0  0  0  0
  -30.0224  -13.3400   20.4412 N   0  0  0  0  0  0
  -26.3003  -12.9411   20.3325 N   0  0  0  0  0  0
  -25.9330  -11.6542   20.5758 N   0  0  0  0  0  0
  -22.0453  -12.8271   22.0404 N   0  0  0  0  0  0
  -25.4281  -15.1931   20.4074 N   0  0  0  0  0  0
  -31.8338  -14.6860   20.1400 O   0  0  0  0  0  0
  -21.6649   -6.8884   21.4238 O   0  0  0  0  0  0
  -22.3511  -14.5536   20.6644 O   0  0  0  0  0  0
  -24.6232  -31.8702   23.2032 C   0  0  0  0  0  0
  -25.9117  -32.4835   23.8350 C   0  0  1  0  0  0
  -27.2290  -27.3891   20.0901 C   0  0  0  0  0  0
  -25.5968  -33.8627   24.2314 N   0  0  0  0  0  0
  -23.4110  -30.4922   21.5492 C   0  0  2  0  0  0
  -24.8470  -28.9428   20.1191 C   0  0  0  0  0  0
  -22.7461  -29.4704   22.5015 C   0  0  0  0  0  0
  -18.0317  -28.1376   22.8501 C   0  0  0  0  0  0
  -24.1500  -36.7287   23.2640 C   0  0  0  0  0  0
  -25.9454  -30.8129   21.3654 C   0  0  0  0  0  0
  -26.0124  -29.4460   20.7088 C   0  0  0  0  0  0
  -27.2040  -28.6783   20.6874 C   0  0  0  0  0  0
  -26.0342  -26.9020   19.5125 C   0  0  0  0  0  0
  -24.8537  -27.6695   19.5229 C   0  0  0  0  0  0
  -23.6154  -29.8200   20.1675 C   0  0  0  0  0  0
  -25.4124  -36.3129   24.0360 C   0  0  1  0  0  0
  -20.5914  -28.3700   23.1304 C   0  0  2  0  0  0
  -20.6832  -26.9431   22.5418 C   0  0  0  0  0  0
  -19.5804  -26.6383   21.5232 C   0  0  0  0  0  0
  -18.1962  -26.7922   22.1607 C   0  0  0  0  0  0
  -19.1557  -28.8850   23.2908 C   0  0  0  0  0  0
  -18.9464  -30.1451   23.8938 C   0  0  0  0  0  0
  -17.6465  -30.6592   24.0546 C   0  0  0  0  0  0
  -25.9069  -34.9496   23.5134 C   0  0  0  0  0  0
  -16.5364  -29.9076   23.6331 C   0  0  0  0  0  0
  -16.7290  -28.6484   23.0388 C   0  0  0  0  0  0
  -26.4494  -31.6623   25.0694 C   0  0  0  0  0  0
  -25.3702  -31.3742   26.1406 C   0  0  0  0  0  0
  -27.0355  -30.3074   24.6097 C   0  0  0  0  0  0
  -27.6069  -32.4358   25.7445 C   0  0  0  0  0  0
  -27.5614  -37.1800   24.8472 C   0  0  0  0  0  0
  -21.4199  -29.3045   22.3679 N   0  0  0  0  0  0
  -26.4320  -37.3808   23.9422 N   0  0  0  0  0  0
  -24.6785  -31.0757   22.0948 N   0  0  0  0  0  0
  -23.4185  -28.8307   23.3147 O   0  0  0  0  0  0
  -28.4221  -26.6782   20.0787 O   0  0  0  0  0  0
  -26.5588  -34.8975   22.4672 O   0  0  0  0  0  0
  -23.5427  -32.1511   23.7399 O   0  0  0  0  0  0
  -31.3953  -20.2756   20.5923 C   0  0  0  0  0  0
  -29.2245  -18.6488   21.2081 C   0  0  0  0  0  0
  -30.1194  -20.8656   20.7174 C   0  0  0  0  0  0
  -31.6274  -18.9039   20.8700 C   0  0  0  0  0  0
  -30.5231  -18.0811   21.2565 C   0  0  0  0  0  0
  -29.9343  -22.2808   20.6618 C   0  0  0  0  0  0
  -28.6157  -22.8113   20.7728 C   0  0  0  0  0  0
  -29.0045  -20.0267   20.9480 C   0  0  0  0  0  0
  -27.5572  -21.8649   20.8360 C   0  0  0  0  0  0
  -31.1539  -23.1900   20.5508 C   0  0  0  0  0  0
  -26.0938  -22.2647   20.7729 C   0  0  0  0  0  0
  -34.6062  -20.0153   21.9191 C   0  0  0  0  0  0
  -33.0510  -18.3368   20.7253 C   0  0  0  0  0  0
  -28.3472  -24.3362   20.9549 C   0  0  0  0  0  0
  -30.7077  -16.6723   21.8805 C   0  0  0  0  0  0
  -34.2255  -19.3405   20.5921 C   0  0  0  0  0  0
  -28.4828  -25.2734   19.7197 C   0  0  0  0  0  0
  -27.7521  -20.5304   20.9536 N   0  0  0  0  0  0
  -30.0601  -15.4971   21.2622 N   0  0  0  0  0  0
  -31.4747  -12.4635   19.1373 H   0  0  0  0  0  0
  -30.3473  -11.3417   19.8440 H   0  0  0  0  0  0
  -29.7573  -11.7825   17.4488 H   0  0  0  0  0  0
  -29.6826  -13.5018   17.7645 H   0  0  0  0  0  0
  -27.8099  -11.3434   18.7810 H   0  0  0  0  0  0
  -27.3889  -12.6969   17.7704 H   0  0  0  0  0  0
  -27.6987  -14.2742   19.5797 H   0  0  0  0  0  0
  -28.6883  -11.9738   21.3214 H   0  0  0  0  0  0
  -28.4524  -13.6068   21.8733 H   0  0  0  0  0  0
  -25.2777   -9.5691   22.4760 H   0  0  0  0  0  0
  -24.0015   -7.4636   22.7427 H   0  0  0  0  0  0
  -21.0863   -8.8812   19.8958 H   0  0  0  0  0  0
  -22.3735  -10.9683   19.6156 H   0  0  0  0  0  0
  -21.2013   -7.6122   23.9728 H   0  0  0  0  0  0
  -21.1478   -6.0480   25.9075 H   0  0  0  0  0  0
  -22.0608   -2.7588   23.2846 H   0  0  0  0  0  0
  -22.4048  -11.9959   22.4869 H   0  0  0  0  0  0
  -21.1036  -13.1291   22.2516 H   0  0  0  0  0  0
  -24.6660  -15.8547   20.4984 H   0  0  0  0  0  0
  -26.2843  -15.6250   20.0866 H   0  0  0  0  0  0
  -26.7170  -32.5524   23.1093 H   0  0  0  0  0  0
  -25.0233  -33.9774   25.0544 H   0  0  0  0  0  0
  -22.7028  -31.3129   21.4082 H   0  0  0  0  0  0
  -23.3840  -35.9552   23.3282 H   0  0  0  0  0  0
  -24.3607  -36.8905   22.2061 H   0  0  0  0  0  0
  -23.7173  -37.6451   23.6646 H   0  0  0  0  0  0
  -26.0846  -31.5764   20.6011 H   0  0  0  0  0  0
  -26.8249  -30.8492   21.9982 H   0  0  0  0  0  0
  -28.1048  -29.0686   21.1406 H   0  0  0  0  0  0
  -25.9718  -25.9281   19.0506 H   0  0  0  0  0  0
  -23.9519  -27.2705   19.0783 H   0  0  0  0  0  0
  -23.7253  -30.5925   19.4042 H   0  0  0  0  0  0
  -22.7333  -29.2431   19.8802 H   0  0  0  0  0  0
  -25.1311  -36.2013   25.0859 H   0  0  0  0  0  0
  -21.0011  -28.3253   24.1423 H   0  0  0  0  0  0
  -20.5830  -26.2283   23.3593 H   0  0  0  0  0  0
  -21.6688  -26.7532   22.1150 H   0  0  0  0  0  0
  -19.6990  -25.6299   21.1256 H   0  0  0  0  0  0
  -19.6756  -27.3202   20.6762 H   0  0  0  0  0  0
  -17.4267  -26.6742   21.3958 H   0  0  0  0  0  0
  -18.0310  -26.0031   22.8963 H   0  0  0  0  0  0
  -19.7948  -30.7247   24.2331 H   0  0  0  0  0  0
  -17.5025  -31.6281   24.5115 H   0  0  0  0  0  0
  -15.5375  -30.2981   23.7649 H   0  0  0  0  0  0
  -15.8688  -28.0780   22.7140 H   0  0  0  0  0  0
  -24.5845  -30.7165   25.7656 H   0  0  0  0  0  0
  -24.8943  -32.2919   26.4886 H   0  0  0  0  0  0
  -25.7990  -30.8814   27.0149 H   0  0  0  0  0  0
  -26.2900  -29.6762   24.1232 H   0  0  0  0  0  0
  -27.4241  -29.7389   25.4565 H   0  0  0  0  0  0
  -27.8690  -30.4441   23.9192 H   0  0  0  0  0  0
  -27.2702  -33.3671   26.2035 H   0  0  0  0  0  0
  -28.3837  -32.6915   25.0205 H   0  0  0  0  0  0
  -28.0792  -31.8476   26.5337 H   0  0  0  0  0  0
  -28.2632  -38.0096   24.7580 H   0  0  0  0  0  0
  -28.1113  -36.2647   24.6246 H   0  0  0  0  0  0
  -27.2326  -37.1370   25.8864 H   0  0  0  0  0  0
  -20.9392  -29.8589   21.6735 H   0  0  0  0  0  0
  -26.0245  -38.2915   24.1370 H   0  0  0  0  0  0
  -32.2170  -20.9096   20.3093 H   0  0  0  0  0  0
  -28.3674  -18.0426   21.4648 H   0  0  0  0  0  0
  -30.9532  -24.2340   20.7701 H   0  0  0  0  0  0
  -31.5706  -23.1359   19.5451 H   0  0  0  0  0  0
  -31.9268  -22.8818   21.2555 H   0  0  0  0  0  0
  -25.9131  -22.8992   19.9053 H   0  0  0  0  0  0
  -25.7904  -22.8054   21.6699 H   0  0  0  0  0  0
  -25.4449  -21.3921   20.6679 H   0  0  0  0  0  0
  -35.3898  -20.7603   21.7690 H   0  0  0  0  0  0
  -34.9827  -19.2825   22.6348 H   0  0  0  0  0  0
  -33.7568  -20.5193   22.3773 H   0  0  0  0  0  0
  -33.0475  -17.6914   19.8457 H   0  0  0  0  0  0
  -33.2940  -17.7037   21.5750 H   0  0  0  0  0  0
  -29.0241  -24.6955   21.7302 H   0  0  0  0  0  0
  -27.3666  -24.4929   21.4020 H   0  0  0  0  0  0
  -30.2831  -16.7487   22.8828 H   0  0  0  0  0  0
  -31.7503  -16.4370   22.0769 H   0  0  0  0  0  0
  -35.1043  -18.7964   20.2455 H   0  0  0  0  0  0
  -34.0604  -20.0779   19.8096 H   0  0  0  0  0  0
  -27.8012  -24.9905   18.9206 H   0  0  0  0  0  0
  -29.4700  -25.1285   19.2784 H   0  0  0  0  0  0
  -29.1082  -15.3047   21.5402 H   0  0  0  0  0  0
  1 25  1  0  0  0
  1 30  2  0  0  0
  1 89  1  0  0  0
  2  3  1  0  0  0
  2 25  1  0  0  0
  2 90  1  0  0  0
  2 91  1  0  0  0
  3  4  1  0  0  0
  3 92  1  0  0  0
  3 93  1  0  0  0
  4  5  1  0  0  0
  4 94  1  0  0  0
  4 95  1  0  0  0
  5  6  1  0  0  0
  5 26  1  0  0  0
  5 96  1  0  0  0
  6 25  1  0  0  0
  6 97  1  0  0  0
  6 98  1  0  0  0
  7  8  2  0  0  0
  7 26  1  0  0  0
  7 29  1  0  0  0
  8  9  1  0  0  0
  8 22  1  0  0  0
  9 10  1  0  0  0
  9 27  2  0  0  0
 10 11  2  0  0  0
 10 15  1  0  0  0
 11 12  1  0  0  0
 11 99  1  0  0  0
 12 13  2  0  0  0
 12100  1  0  0  0
 13 14  1  0  0  0
 13 31  1  0  0  0
 14 15  2  0  0  0
 14101  1  0  0  0
 15102  1  0  0  0
 16 17  2  0  0  0
 16 21  1  0  0  0
 16 31  1  0  0  0
 17 18  1  0  0  0
 17103  1  0  0  0
 18 19  2  0  0  0
 18104  1  0  0  0
 19 20  1  0  0  0
 19 24  1  0  0  0
 20 21  2  0  0  0
 20105  1  0  0  0
 21 23  1  0  0  0
 22 28  1  0  0  0
 22 32  2  0  0  0
 26 27  1  0  0  0
 28106  1  0  0  0
 28107  1  0  0  0
 29108  1  0  0  0
 29109  1  0  0  0
 33 34  1  0  0  0
 33 66  1  0  0  0
 33 70  2  0  0  0
 34 36  1  0  0  0
 34 59  1  0  0  0
 34110  1  0  0  0
 35 44  2  0  0  0
 35 45  1  0  0  0
 35 68  1  0  0  0
 36 56  1  0  0  0
 36111  1  0  0  0
 37 39  1  0  0  0
 37 47  1  0  0  0
 37 66  1  0  0  0
 37112  1  0  0  0
 38 43  2  0  0  0
 38 46  1  0  0  0
 38 47  1  0  0  0
 39 64  1  0  0  0
 39 67  2  0  0  0
 40 52  1  0  0  0
 40 53  2  0  0  0
 40 58  1  0  0  0
 41113  1  0  0  0
 41114  1  0  0  0
 41115  1  0  0  0
 41 48  1  0  0  0
 42 43  1  0  0  0
 42 66  1  0  0  0
 42116  1  0  0  0
 42117  1  0  0  0
 43 44  1  0  0  0
 44118  1  0  0  0
 45 46  2  0  0  0
 45119  1  0  0  0
 46120  1  0  0  0
 47121  1  0  0  0
 47122  1  0  0  0
 48 56  1  0  0  0
 48 65  1  0  0  0
 48123  1  0  0  0
 49 50  1  0  0  0
 49 53  1  0  0  0
 49 64  1  0  0  0
 49124  1  0  0  0
 50 51  1  0  0  0
 50125  1  0  0  0
 50126  1  0  0  0
 51 52  1  0  0  0
 51127  1  0  0  0
 51128  1  0  0  0
 52129  1  0  0  0
 52130  1  0  0  0
 53 54  1  0  0  0
 54 55  2  0  0  0
 54131  1  0  0  0
 55 57  1  0  0  0
 55132  1  0  0  0
 56 69  2  0  0  0
 57 58  2  0  0  0
 57133  1  0  0  0
 58134  1  0  0  0
 59 60  1  0  0  0
 59 61  1  0  0  0
 59 62  1  0  0  0
 60135  1  0  0  0
 60136  1  0  0  0
 60137  1  0  0  0
 61138  1  0  0  0
 61139  1  0  0  0
 61140  1  0  0  0
 62141  1  0  0  0
 62142  1  0  0  0
 62143  1  0  0  0
 63 65  1  0  0  0
 63144  1  0  0  0
 63145  1  0  0  0
 63146  1  0  0  0
 64147  1  0  0  0
 65148  1  0  0  0
 68 87  1  0  0  0
 71 73  2  0  0  0
 71 74  1  0  0  0
 71149  1  0  0  0
 72 75  1  0  0  0
 72 78  2  0  0  0
 72150  1  0  0  0
 73 76  1  0  0  0
 73 78  1  0  0  0
 74 75  2  0  0  0
 74 83  1  0  0  0
 75 85  1  0  0  0
 76 77  2  0  0  0
 76 80  1  0  0  0
 77 79  1  0  0  0
 77 84  1  0  0  0
 78 88  1  0  0  0
 79 81  1  0  0  0
 79 88  2  0  0  0
 80151  1  0  0  0
 80152  1  0  0  0
 80153  1  0  0  0
 81154  1  0  0  0
 81155  1  0  0  0
 81156  1  0  0  0
 82 86  1  0  0  0
 82157  1  0  0  0
 82158  1  0  0  0
 82159  1  0  0  0
 83 86  1  0  0  0
 83160  1  0  0  0
 83161  1  0  0  0
 84 87  1  0  0  0
 84162  1  0  0  0
 84163  1  0  0  0
 85 89  1  0  0  0
 85164  1  0  0  0
 85165  1  0  0  0
 86166  1  0  0  0
 86167  1  0  0  0
 87168  1  0  0  0
 87169  1  0  0  0
 89170  1  0  0  0
M  ISO  4   1 100  68 101  87 101  89 100
M  END
> <chiral flag>
0

> <version>
0

> <s_m_source_file>
/data/baiqing/PycharmProjects/Reinvent-master-3.2/result/LINK_invent/BTK/process_docking_weight1_custom_sum_contain_oxygen_bond_distance_aromatic_linkinvent_7_9_3/rearranged_h_0030.sdf

> <i_m_source_file_index>
55

> <r_mmod_Potential_Energy-OPLS-2005>
-203.050430297852

> <r_mmod_Stretch_Energy-OPLS-2005>
53.4669532775879

> <r_mmod_Bend_Energy-OPLS-2005>
128.729217529297

> <r_mmod_Torsional_Energy-OPLS-2005>
214.858215332031

> <r_mmod_Improper_Torsional_Energy-OPLS-2005>
3.68040633201599

> <r_mmod_Van_der_Waal_Energy-OPLS-2005>
181.065185546875

> <r_mmod_Electrostatic_Energy-OPLS-2005>
-588.307189941406

> <r_mmod_Solvation_Energy-OPLS-2005>
-215.184463500977

> <b_mmod_Minimization_Converged-OPLS-2005>
0

> <r_mmod_RMS_Derivative-OPLS-2005>
5.23288297653198

$$$$
55
                    3D
 Structure written by MMmdl.
150158  0  0  1  0            999 V2000
  -30.5862  -14.8909   20.4480 C   0  0  0  0  0  0
  -30.4361  -12.5754   19.4481 C   0  0  0  0  0  0
  -29.4882  -12.4926   18.2236 C   0  0  0  0  0  0
  -28.0372  -12.2695   18.6739 C   0  0  0  0  0  0
  -27.6198  -13.2346   19.8119 C   0  0  2  0  0  0
  -28.6748  -13.2932   20.9403 C   0  0  0  0  0  0
  -25.2491  -13.8256   20.5773 C   0  0  0  0  0  0
  -24.1784  -13.0452   20.9224 C   0  0  0  0  0  0
  -24.6350  -11.6954   20.8780 C   0  0  0  0  0  0
  -23.9053  -10.4300   21.0425 C   0  0  0  0  0  0
  -24.3589   -9.4217   21.9196 C   0  0  0  0  0  0
  -23.6274   -8.2251   22.0778 C   0  0  0  0  0  0
  -22.4283   -8.0272   21.3567 C   0  0  0  0  0  0
  -21.9875   -9.0260   20.4677 C   0  0  0  0  0  0
  -22.7205  -10.2135   20.3073 C   0  0  0  0  0  0
  -21.6821   -6.0708   22.5290 C   0  0  0  0  0  0
  -21.4034   -6.5639   23.8220 C   0  0  0  0  0  0
  -21.3634   -5.6790   24.9172 C   0  0  0  0  0  0
  -21.6069   -4.3064   24.7230 C   0  0  0  0  0  0
  -21.8796   -3.8133   23.4352 C   0  0  0  0  0  0
  -21.9216   -4.6947   22.3400 C   0  0  0  0  0  0
  -22.7774  -13.5231   21.1871 C   0  0  0  0  0  0
  -22.1669   -4.2141   21.0965 F   0  0  0  0  0  0
  -21.5624   -3.4530   25.7729 F   0  0  0  0  0  0
  -29.9490  -13.6673   20.3316 N   0  0  0  0  0  0
  -26.2855  -12.9409   20.3192 N   0  0  0  0  0  0
  -25.9286  -11.6603   20.5781 N   0  0  0  0  0  0
  -22.0415  -12.8267   22.0429 N   0  0  0  0  0  0
  -25.4190  -15.1926   20.4278 N   0  0  0  0  0  0
  -31.8065  -14.9282   20.2683 O   0  0  0  0  0  0
  -21.6644   -6.8864   21.4264 O   0  0  0  0  0  0
  -22.3483  -14.5530   20.6678 O   0  0  0  0  0  0
  -24.6442  -31.8464   23.1899 C   0  0  0  0  0  0
  -25.9226  -32.4725   23.8299 C   0  0  1  0  0  0
  -27.2460  -27.1847   20.2006 C   0  0  0  0  0  0
  -25.6005  -33.8524   24.2266 N   0  0  0  0  0  0
  -23.4445  -30.4670   21.5330 C   0  0  2  0  0  0
  -24.9017  -28.8904   20.1257 C   0  0  0  0  0  0
  -22.7540  -29.4615   22.4929 C   0  0  0  0  0  0
  -18.0299  -28.1391   22.8502 C   0  0  0  0  0  0
  -24.1471  -36.7212   23.2635 C   0  0  0  0  0  0
  -25.9916  -30.7488   21.3696 C   0  0  0  0  0  0
  -26.0779  -29.3590   20.7285 C   0  0  0  0  0  0
  -27.2548  -28.5316   20.7306 C   0  0  0  0  0  0
  -26.0416  -26.7907   19.5742 C   0  0  0  0  0  0
  -24.8892  -27.6110   19.5435 C   0  0  0  0  0  0
  -23.6713  -29.7854   20.1578 C   0  0  0  0  0  0
  -25.4109  -36.3034   24.0345 C   0  0  1  0  0  0
  -20.5912  -28.3727   23.1227 C   0  0  2  0  0  0
  -20.6792  -26.9436   22.5406 C   0  0  0  0  0  0
  -19.5748  -26.6405   21.5199 C   0  0  0  0  0  0
  -18.1936  -26.7951   22.1608 C   0  0  0  0  0  0
  -19.1551  -28.8882   23.2866 C   0  0  0  0  0  0
  -18.9461  -30.1473   23.8901 C   0  0  0  0  0  0
  -17.6454  -30.6596   24.0574 C   0  0  0  0  0  0
  -25.9061  -34.9442   23.5100 C   0  0  0  0  0  0
  -16.5359  -29.9086   23.6317 C   0  0  0  0  0  0
  -16.7278  -28.6488   23.0381 C   0  0  0  0  0  0
  -26.4574  -31.6569   25.0722 C   0  0  0  0  0  0
  -25.3819  -31.3735   26.1465 C   0  0  0  0  0  0
  -27.0456  -30.2986   24.6250 C   0  0  0  0  0  0
  -27.6111  -32.4334   25.7523 C   0  0  0  0  0  0
  -27.5563  -37.1767   24.8485 C   0  0  0  0  0  0
  -21.4245  -29.3066   22.3616 N   0  0  0  0  0  0
  -26.4269  -37.3747   23.9447 N   0  0  0  0  0  0
  -24.7117  -31.0424   22.0864 N   0  0  0  0  0  0
  -23.4197  -28.8176   23.3097 O   0  0  0  0  0  0
  -28.3587  -26.2836   20.2435 O   0  0  0  0  0  0
  -26.5581  -34.8911   22.4643 O   0  0  0  0  0  0
  -23.5570  -32.1333   23.7175 O   0  0  0  0  0  0
  -30.7670  -21.4141   20.5734 C   0  0  0  0  0  0
  -28.6594  -19.6490   20.8028 C   0  0  0  0  0  0
  -29.4868  -22.0571   20.5370 C   0  0  0  0  0  0
  -29.9523  -19.0171   20.8057 C   0  0  0  0  0  0
  -28.4275  -21.0935   20.6682 C   0  0  0  0  0  0
  -30.9967  -19.9958   20.7090 C   0  0  0  0  0  0
  -29.4057  -23.6771   20.2554 C   0  0  0  0  0  0
  -30.2667  -17.4440   21.2129 C   0  0  0  0  0  0
  -28.2191  -24.7863   20.5958 C   0  0  0  0  0  0
  -29.8468  -16.0855   20.5916 N   0  0  0  0  0  0
  -26.7967  -21.6616   20.7066 Cl  0  0  0  0  0  0
  -32.6491  -19.4932   20.8229 Cl  0  0  0  0  0  0
  -31.4574  -12.7428   19.1002 H   0  0  0  0  0  0
  -30.4450  -11.6317   20.0010 H   0  0  0  0  0  0
  -29.7995  -11.6841   17.5580 H   0  0  0  0  0  0
  -29.5507  -13.4086   17.6292 H   0  0  0  0  0  0
  -27.9644  -11.2404   19.0265 H   0  0  0  0  0  0
  -27.3507  -12.3514   17.8275 H   0  0  0  0  0  0
  -27.5698  -14.2193   19.3503 H   0  0  0  0  0  0
  -28.7726  -12.3385   21.4608 H   0  0  0  0  0  0
  -28.3792  -14.0393   21.6796 H   0  0  0  0  0  0
  -25.2711   -9.5694   22.4786 H   0  0  0  0  0  0
  -23.9987   -7.4639   22.7474 H   0  0  0  0  0  0
  -21.0796   -8.8761   19.8963 H   0  0  0  0  0  0
  -22.3647  -10.9689   19.6184 H   0  0  0  0  0  0
  -21.2022   -7.6148   23.9718 H   0  0  0  0  0  0
  -21.1476   -6.0517   25.9083 H   0  0  0  0  0  0
  -22.0591   -2.7598   23.2846 H   0  0  0  0  0  0
  -22.4065  -11.9928   22.4815 H   0  0  0  0  0  0
  -21.1033  -13.1332   22.2671 H   0  0  0  0  0  0
  -24.6575  -15.8488   20.5634 H   0  0  0  0  0  0
  -26.2803  -15.6415   20.1503 H   0  0  0  0  0  0
  -26.7347  -32.5370   23.1084 H   0  0  0  0  0  0
  -25.0316  -33.9634   25.0522 H   0  0  0  0  0  0
  -22.7473  -31.2951   21.3767 H   0  0  0  0  0  0
  -23.3751  -35.9512   23.3289 H   0  0  0  0  0  0
  -24.3564  -36.8800   22.2042 H   0  0  0  0  0  0
  -23.7188  -37.6417   23.6614 H   0  0  0  0  0  0
  -26.1279  -31.5040   20.5939 H   0  0  0  0  0  0
  -26.8658  -30.8113   22.0026 H   0  0  0  0  0  0
  -28.1527  -28.8989   21.2100 H   0  0  0  0  0  0
  -25.9723  -25.8028   19.1363 H   0  0  0  0  0  0
  -23.9819  -27.2330   19.0855 H   0  0  0  0  0  0
  -23.8025  -30.5548   19.3948 H   0  0  0  0  0  0
  -22.7811  -29.2278   19.8556 H   0  0  0  0  0  0
  -25.1280  -36.1864   25.0829 H   0  0  0  0  0  0
  -21.0022  -28.3287   24.1337 H   0  0  0  0  0  0
  -20.5648  -26.2341   23.3630 H   0  0  0  0  0  0
  -21.6668  -26.7442   22.1195 H   0  0  0  0  0  0
  -19.6904  -25.6299   21.1275 H   0  0  0  0  0  0
  -19.6676  -27.3197   20.6716 H   0  0  0  0  0  0
  -17.4220  -26.6743   21.3983 H   0  0  0  0  0  0
  -18.0278  -26.0075   22.8955 H   0  0  0  0  0  0
  -19.7937  -30.7275   24.2293 H   0  0  0  0  0  0
  -17.5013  -31.6266   24.5191 H   0  0  0  0  0  0
  -15.5359  -30.2999   23.7640 H   0  0  0  0  0  0
  -15.8678  -28.0796   22.7126 H   0  0  0  0  0  0
  -24.6000  -30.7046   25.7833 H   0  0  0  0  0  0
  -24.9014  -32.2913   26.4861 H   0  0  0  0  0  0
  -25.8184  -30.8972   27.0261 H   0  0  0  0  0  0
  -26.3064  -29.6709   24.1254 H   0  0  0  0  0  0
  -27.4113  -29.7270   25.4793 H   0  0  0  0  0  0
  -27.8942  -30.4252   23.9529 H   0  0  0  0  0  0
  -27.2686  -33.3622   26.2088 H   0  0  0  0  0  0
  -28.3941  -32.6922   25.0388 H   0  0  0  0  0  0
  -28.0778  -31.8500   26.5465 H   0  0  0  0  0  0
  -28.2625  -38.0004   24.7517 H   0  0  0  0  0  0
  -28.1008  -36.2580   24.6334 H   0  0  0  0  0  0
  -27.2303  -37.1457   25.8879 H   0  0  0  0  0  0
  -20.9435  -29.8706   21.6746 H   0  0  0  0  0  0
  -26.0142  -38.2815   24.1411 H   0  0  0  0  0  0
  -31.6385  -22.0557   20.5146 H   0  0  0  0  0  0
  -27.7918  -19.0172   20.9576 H   0  0  0  0  0  0
  -29.5652  -23.7572   19.1788 H   0  0  0  0  0  0
  -30.3070  -24.0834   20.7246 H   0  0  0  0  0  0
  -29.7315  -17.3742   22.1578 H   0  0  0  0  0  0
  -31.3208  -17.3437   21.4834 H   0  0  0  0  0  0
  -27.2978  -24.4074   20.1677 H   0  0  0  0  0  0
  -28.0951  -24.7705   21.6817 H   0  0  0  0  0  0
  -28.8428  -15.9410   20.5439 H   0  0  0  0  0  0
  1 25  1  0  0  0
  1 30  2  0  0  0
  1 80  1  0  0  0
  2  3  1  0  0  0
  2 25  1  0  0  0
  2 83  1  0  0  0
  2 84  1  0  0  0
  3  4  1  0  0  0
  3 85  1  0  0  0
  3 86  1  0  0  0
  4  5  1  0  0  0
  4 87  1  0  0  0
  4 88  1  0  0  0
  5  6  1  0  0  0
  5 26  1  0  0  0
  5 89  1  0  0  0
  6 25  1  0  0  0
  6 90  1  0  0  0
  6 91  1  0  0  0
  7  8  2  0  0  0
  7 26  1  0  0  0
  7 29  1  0  0  0
  8  9  1  0  0  0
  8 22  1  0  0  0
  9 10  1  0  0  0
  9 27  2  0  0  0
 10 11  2  0  0  0
 10 15  1  0  0  0
 11 12  1  0  0  0
 11 92  1  0  0  0
 12 13  2  0  0  0
 12 93  1  0  0  0
 13 14  1  0  0  0
 13 31  1  0  0  0
 14 15  2  0  0  0
 14 94  1  0  0  0
 15 95  1  0  0  0
 16 17  2  0  0  0
 16 21  1  0  0  0
 16 31  1  0  0  0
 17 18  1  0  0  0
 17 96  1  0  0  0
 18 19  2  0  0  0
 18 97  1  0  0  0
 19 20  1  0  0  0
 19 24  1  0  0  0
 20 21  2  0  0  0
 20 98  1  0  0  0
 21 23  1  0  0  0
 22 28  1  0  0  0
 22 32  2  0  0  0
 26 27  1  0  0  0
 28 99  1  0  0  0
 28100  1  0  0  0
 29101  1  0  0  0
 29102  1  0  0  0
 33 34  1  0  0  0
 33 66  1  0  0  0
 33 70  2  0  0  0
 34 36  1  0  0  0
 34 59  1  0  0  0
 34103  1  0  0  0
 35 44  2  0  0  0
 35 45  1  0  0  0
 35 68  1  0  0  0
 36 56  1  0  0  0
 36104  1  0  0  0
 37 39  1  0  0  0
 37 47  1  0  0  0
 37 66  1  0  0  0
 37105  1  0  0  0
 38 43  2  0  0  0
 38 46  1  0  0  0
 38 47  1  0  0  0
 39 64  1  0  0  0
 39 67  2  0  0  0
 40 52  1  0  0  0
 40 53  2  0  0  0
 40 58  1  0  0  0
 41106  1  0  0  0
 41107  1  0  0  0
 41108  1  0  0  0
 41 48  1  0  0  0
 42 43  1  0  0  0
 42 66  1  0  0  0
 42109  1  0  0  0
 42110  1  0  0  0
 43 44  1  0  0  0
 44111  1  0  0  0
 45 46  2  0  0  0
 45112  1  0  0  0
 46113  1  0  0  0
 47114  1  0  0  0
 47115  1  0  0  0
 48 56  1  0  0  0
 48 65  1  0  0  0
 48116  1  0  0  0
 49 50  1  0  0  0
 49 53  1  0  0  0
 49 64  1  0  0  0
 49117  1  0  0  0
 50 51  1  0  0  0
 50118  1  0  0  0
 50119  1  0  0  0
 51 52  1  0  0  0
 51120  1  0  0  0
 51121  1  0  0  0
 52122  1  0  0  0
 52123  1  0  0  0
 53 54  1  0  0  0
 54 55  2  0  0  0
 54124  1  0  0  0
 55 57  1  0  0  0
 55125  1  0  0  0
 56 69  2  0  0  0
 57 58  2  0  0  0
 57126  1  0  0  0
 58127  1  0  0  0
 59 60  1  0  0  0
 59 61  1  0  0  0
 59 62  1  0  0  0
 60128  1  0  0  0
 60129  1  0  0  0
 60130  1  0  0  0
 61131  1  0  0  0
 61132  1  0  0  0
 61133  1  0  0  0
 62134  1  0  0  0
 62135  1  0  0  0
 62136  1  0  0  0
 63 65  1  0  0  0
 63137  1  0  0  0
 63138  1  0  0  0
 63139  1  0  0  0
 64140  1  0  0  0
 65141  1  0  0  0
 68 79  1  0  0  0
 71 73  2  0  0  0
 71 76  1  0  0  0
 71142  1  0  0  0
 72 74  1  0  0  0
 72 75  2  0  0  0
 72143  1  0  0  0
 73 75  1  0  0  0
 73 77  1  0  0  0
 74 76  2  0  0  0
 74 78  1  0  0  0
 75 81  1  0  0  0
 76 82  1  0  0  0
 77 79  1  0  0  0
 77144  1  0  0  0
 77145  1  0  0  0
 78 80  1  0  0  0
 78146  1  0  0  0
 78147  1  0  0  0
 79148  1  0  0  0
 79149  1  0  0  0
 80150  1  0  0  0
M  ISO  4   1 100  68 101  79 101  80 100
M  END
> <chiral flag>
0

> <version>
0

> <s_m_source_file>
/data/baiqing/PycharmProjects/Reinvent-master-3.2/result/LINK_invent/BTK/process_docking_weight1_custom_sum_contain_oxygen_bond_distance_aromatic_linkinvent_7_9_3/rearranged_h_0030.sdf

> <i_m_source_file_index>
56

> <r_mmod_Potential_Energy-OPLS-2005>
374.754852294922

> <r_mmod_Stretch_Energy-OPLS-2005>
199.72770690918

> <r_mmod_Bend_Energy-OPLS-2005>
256.817016601562

> <r_mmod_Torsional_Energy-OPLS-2005>
230.235488891602

> <r_mmod_Improper_Torsional_Energy-OPLS-2005>
6.81293201446533

> <r_mmod_Van_der_Waal_Energy-OPLS-2005>
129.319915771484

> <r_mmod_Electrostatic_Energy-OPLS-2005>
-391.130706787109

> <r_mmod_Solvation_Energy-OPLS-2005>
-215.869079589844

> <b_mmod_Minimization_Converged-OPLS-2005>
0

> <r_mmod_RMS_Derivative-OPLS-2005>
12.9325256347656

$$$$
56
                    3D
 Structure written by MMmdl.
156164  0  0  1  0            999 V2000
  -30.6924  -14.4408   20.6177 C   0  0  0  0  0  0
  -30.4302  -12.3021   19.4082 C   0  0  0  0  0  0
  -29.4936  -12.5158   18.2003 C   0  0  0  0  0  0
  -28.0143  -12.3738   18.6127 C   0  0  0  0  0  0
  -27.6662  -13.1981   19.8805 C   0  0  2  0  0  0
  -28.7046  -12.9345   20.9934 C   0  0  0  0  0  0
  -25.2608  -13.8145   20.5670 C   0  0  0  0  0  0
  -24.1846  -13.0436   20.9162 C   0  0  0  0  0  0
  -24.6389  -11.6899   20.8727 C   0  0  0  0  0  0
  -23.9053  -10.4291   21.0406 C   0  0  0  0  0  0
  -24.3609   -9.4208   21.9183 C   0  0  0  0  0  0
  -23.6287   -8.2243   22.0753 C   0  0  0  0  0  0
  -22.4267   -8.0281   21.3547 C   0  0  0  0  0  0
  -21.9903   -9.0253   20.4646 C   0  0  0  0  0  0
  -22.7228  -10.2133   20.3054 C   0  0  0  0  0  0
  -21.6850   -6.0737   22.5281 C   0  0  0  0  0  0
  -21.4013   -6.5640   23.8215 C   0  0  0  0  0  0
  -21.3659   -5.6791   24.9176 C   0  0  0  0  0  0
  -21.6043   -4.3054   24.7227 C   0  0  0  0  0  0
  -21.8820   -3.8148   23.4347 C   0  0  0  0  0  0
  -21.9191   -4.6965   22.3402 C   0  0  0  0  0  0
  -22.7872  -13.5244   21.1836 C   0  0  0  0  0  0
  -22.1659   -4.2152   21.0980 F   0  0  0  0  0  0
  -21.5630   -3.4537   25.7740 F   0  0  0  0  0  0
  -30.0417  -13.2567   20.4571 N   0  0  0  0  0  0
  -26.3040  -12.9297   20.3373 N   0  0  0  0  0  0
  -25.9311  -11.6464   20.5756 N   0  0  0  0  0  0
  -22.0510  -12.8238   22.0393 N   0  0  0  0  0  0
  -25.4362  -15.1861   20.4095 N   0  0  0  0  0  0
  -31.7831  -14.6822   20.0903 O   0  0  0  0  0  0
  -21.6634   -6.8878   21.4243 O   0  0  0  0  0  0
  -22.3561  -14.5558   20.6696 O   0  0  0  0  0  0
  -24.6128  -31.8696   23.2103 C   0  0  0  0  0  0
  -25.9027  -32.4830   23.8400 C   0  0  1  0  0  0
  -27.2391  -27.4528   20.0961 C   0  0  0  0  0  0
  -25.5893  -33.8627   24.2336 N   0  0  0  0  0  0
  -23.4004  -30.4904   21.5509 C   0  0  2  0  0  0
  -24.8490  -28.9514   20.1217 C   0  0  0  0  0  0
  -22.7398  -29.4658   22.5008 C   0  0  0  0  0  0
  -18.0263  -28.1363   22.8490 C   0  0  0  0  0  0
  -24.1490  -36.7321   23.2640 C   0  0  0  0  0  0
  -25.9263  -30.8384   21.3614 C   0  0  0  0  0  0
  -26.0064  -29.4705   20.7165 C   0  0  0  0  0  0
  -27.2071  -28.7266   20.7039 C   0  0  0  0  0  0
  -26.0702  -26.9384   19.5023 C   0  0  0  0  0  0
  -24.8733  -27.6818   19.5150 C   0  0  0  0  0  0
  -23.6100  -29.8174   20.1674 C   0  0  0  0  0  0
  -25.4106  -36.3118   24.0344 C   0  0  1  0  0  0
  -20.5851  -28.3653   23.1323 C   0  0  2  0  0  0
  -20.6760  -26.9394   22.5418 C   0  0  0  0  0  0
  -19.5743  -26.6380   21.5207 C   0  0  0  0  0  0
  -18.1918  -26.7910   22.1616 C   0  0  0  0  0  0
  -19.1512  -28.8824   23.2903 C   0  0  0  0  0  0
  -18.9447  -30.1431   23.8913 C   0  0  0  0  0  0
  -17.6453  -30.6579   24.0560 C   0  0  0  0  0  0
  -25.9032  -34.9482   23.5138 C   0  0  0  0  0  0
  -16.5342  -29.9083   23.6321 C   0  0  0  0  0  0
  -16.7254  -28.6494   23.0347 C   0  0  0  0  0  0
  -26.4462  -31.6598   25.0716 C   0  0  0  0  0  0
  -25.3732  -31.3698   26.1471 C   0  0  0  0  0  0
  -27.0290  -30.3050   24.6061 C   0  0  0  0  0  0
  -27.6044  -32.4315   25.7473 C   0  0  0  0  0  0
  -27.5581  -37.1813   24.8465 C   0  0  0  0  0  0
  -21.4127  -29.3026   22.3740 N   0  0  0  0  0  0
  -26.4298  -37.3797   23.9407 N   0  0  0  0  0  0
  -24.6646  -31.0807   22.0999 N   0  0  0  0  0  0
  -23.4173  -28.8207   23.3052 O   0  0  0  0  0  0
  -28.4035  -26.7285   20.0324 O   0  0  0  0  0  0
  -26.5595  -34.8933   22.4698 O   0  0  0  0  0  0
  -23.5324  -32.1442   23.7510 O   0  0  0  0  0  0
  -29.1535  -18.8090   22.4102 C   0  0  0  0  0  0
  -29.1446  -17.4079   22.2522 C   0  0  0  0  0  0
  -31.0717  -17.5558   20.7787 C   0  0  0  0  0  0
  -30.1303  -19.5980   21.7663 C   0  0  0  0  0  0
  -30.1068  -16.7598   21.4469 C   0  0  0  0  0  0
  -31.0832  -18.9602   20.9401 C   0  0  0  0  0  0
  -30.2058  -21.1004   22.0477 C   0  0  0  0  0  0
  -28.7420  -24.3438   20.5325 C   0  0  0  0  0  0
  -29.2947  -23.3592   21.5926 C   0  0  0  0  0  0
  -28.5936  -25.7811   21.0845 C   0  0  0  0  0  0
  -30.0153  -15.3360   21.3618 N   0  0  0  0  0  0
  -29.4104  -21.9503   21.1288 N   0  3  0  0  0  0
  -32.0279  -19.6969   20.3079 F   0  0  0  0  0  0
  -31.4721  -12.4185   19.1047 H   0  0  0  0  0  0
  -30.3439  -11.2814   19.7837 H   0  0  0  0  0  0
  -29.7300  -11.8019   17.4101 H   0  0  0  0  0  0
  -29.6610  -13.5069   17.7759 H   0  0  0  0  0  0
  -27.8206  -11.3161   18.7951 H   0  0  0  0  0  0
  -27.3639  -12.6621   17.7861 H   0  0  0  0  0  0
  -27.7237  -14.2519   19.6069 H   0  0  0  0  0  0
  -28.6790  -11.8841   21.2872 H   0  0  0  0  0  0
  -28.4513  -13.4833   21.9009 H   0  0  0  0  0  0
  -25.2759   -9.5681   22.4751 H   0  0  0  0  0  0
  -23.9998   -7.4633   22.7470 H   0  0  0  0  0  0
  -21.0834   -8.8772   19.8951 H   0  0  0  0  0  0
  -22.3693  -10.9671   19.6158 H   0  0  0  0  0  0
  -21.2005   -7.6149   23.9720 H   0  0  0  0  0  0
  -21.1479   -6.0521   25.9080 H   0  0  0  0  0  0
  -22.0600   -2.7611   23.2847 H   0  0  0  0  0  0
  -22.4116  -11.9887   22.4767 H   0  0  0  0  0  0
  -21.1134  -13.1276   22.2614 H   0  0  0  0  0  0
  -24.6738  -15.8462   20.5181 H   0  0  0  0  0  0
  -26.2968  -15.6226   20.1028 H   0  0  0  0  0  0
  -26.7105  -32.5556   23.1176 H   0  0  0  0  0  0
  -25.0050  -33.9789   25.0484 H   0  0  0  0  0  0
  -22.6883  -31.3061   21.4093 H   0  0  0  0  0  0
  -23.3747  -35.9662   23.3316 H   0  0  0  0  0  0
  -24.3586  -36.8917   22.2053 H   0  0  0  0  0  0
  -23.7247  -37.6533   23.6640 H   0  0  0  0  0  0
  -26.0322  -31.6011   20.5886 H   0  0  0  0  0  0
  -26.8166  -30.8972   21.9761 H   0  0  0  0  0  0
  -28.1058  -29.1275   21.1518 H   0  0  0  0  0  0
  -26.0914  -25.9691   19.0240 H   0  0  0  0  0  0
  -23.9835  -27.2768   19.0525 H   0  0  0  0  0  0
  -23.7178  -30.5897   19.4047 H   0  0  0  0  0  0
  -22.7350  -29.2347   19.8742 H   0  0  0  0  0  0
  -25.1279  -36.1995   25.0837 H   0  0  0  0  0  0
  -20.9932  -28.3223   24.1445 H   0  0  0  0  0  0
  -20.5663  -26.2261   23.3601 H   0  0  0  0  0  0
  -21.6633  -26.7445   22.1211 H   0  0  0  0  0  0
  -19.6916  -25.6295   21.1225 H   0  0  0  0  0  0
  -19.6690  -27.3203   20.6747 H   0  0  0  0  0  0
  -17.4190  -26.6657   21.4016 H   0  0  0  0  0  0
  -18.0323  -26.0040   22.9001 H   0  0  0  0  0  0
  -19.7932  -30.7227   24.2299 H   0  0  0  0  0  0
  -17.5018  -31.6264   24.5154 H   0  0  0  0  0  0
  -15.5346  -30.2994   23.7636 H   0  0  0  0  0  0
  -15.8650  -28.0823   22.7056 H   0  0  0  0  0  0
  -24.5903  -30.7045   25.7808 H   0  0  0  0  0  0
  -24.8925  -32.2853   26.4931 H   0  0  0  0  0  0
  -25.8094  -30.8859   27.0219 H   0  0  0  0  0  0
  -26.2825  -29.6815   24.1130 H   0  0  0  0  0  0
  -27.4089  -29.7276   25.4498 H   0  0  0  0  0  0
  -27.8645  -30.4381   23.9184 H   0  0  0  0  0  0
  -27.2664  -33.3604   26.2080 H   0  0  0  0  0  0
  -28.3833  -32.6893   25.0283 H   0  0  0  0  0  0
  -28.0731  -31.8418   26.5360 H   0  0  0  0  0  0
  -28.2606  -38.0105   24.7502 H   0  0  0  0  0  0
  -28.1069  -36.2632   24.6302 H   0  0  0  0  0  0
  -27.2296  -37.1474   25.8869 H   0  0  0  0  0  0
  -20.9289  -29.8749   21.6962 H   0  0  0  0  0  0
  -26.0196  -38.2880   24.1396 H   0  0  0  0  0  0
  -28.4199  -19.2703   23.0571 H   0  0  0  0  0  0
  -28.3903  -16.8321   22.7716 H   0  0  0  0  0  0
  -31.8235  -17.1162   20.1420 H   0  0  0  0  0  0
  -31.2486  -21.4209   22.0227 H   0  0  0  0  0  0
  -29.8682  -21.2678   23.0719 H   0  0  0  0  0  0
  -27.7763  -24.0013   20.1591 H   0  0  0  0  0  0
  -29.4175  -24.3606   19.6762 H   0  0  0  0  0  0
  -28.6628  -23.3834   22.4819 H   0  0  0  0  0  0
  -30.2800  -23.7076   21.9071 H   0  0  0  0  0  0
  -29.5048  -26.0693   21.6098 H   0  0  0  0  0  0
  -27.7907  -25.8189   21.8244 H   0  0  0  0  0  0
  -29.2054  -14.9353   21.8094 H   0  0  0  0  0  0
  -28.4876  -21.5575   21.0395 H   0  0  0  0  0  0
  -29.8489  -21.9260   20.2229 H   0  0  0  0  0  0
  1 25  1  0  0  0
  1 30  2  0  0  0
  1 81  1  0  0  0
  2  3  1  0  0  0
  2 25  1  0  0  0
  2 84  1  0  0  0
  2 85  1  0  0  0
  3  4  1  0  0  0
  3 86  1  0  0  0
  3 87  1  0  0  0
  4  5  1  0  0  0
  4 88  1  0  0  0
  4 89  1  0  0  0
  5  6  1  0  0  0
  5 26  1  0  0  0
  5 90  1  0  0  0
  6 25  1  0  0  0
  6 91  1  0  0  0
  6 92  1  0  0  0
  7  8  2  0  0  0
  7 26  1  0  0  0
  7 29  1  0  0  0
  8  9  1  0  0  0
  8 22  1  0  0  0
  9 10  1  0  0  0
  9 27  2  0  0  0
 10 11  2  0  0  0
 10 15  1  0  0  0
 11 12  1  0  0  0
 11 93  1  0  0  0
 12 13  2  0  0  0
 12 94  1  0  0  0
 13 14  1  0  0  0
 13 31  1  0  0  0
 14 15  2  0  0  0
 14 95  1  0  0  0
 15 96  1  0  0  0
 16 17  2  0  0  0
 16 21  1  0  0  0
 16 31  1  0  0  0
 17 18  1  0  0  0
 17 97  1  0  0  0
 18 19  2  0  0  0
 18 98  1  0  0  0
 19 20  1  0  0  0
 19 24  1  0  0  0
 20 21  2  0  0  0
 20 99  1  0  0  0
 21 23  1  0  0  0
 22 28  1  0  0  0
 22 32  2  0  0  0
 26 27  1  0  0  0
 28100  1  0  0  0
 28101  1  0  0  0
 29102  1  0  0  0
 29103  1  0  0  0
 33 34  1  0  0  0
 33 66  1  0  0  0
 33 70  2  0  0  0
 34 36  1  0  0  0
 34 59  1  0  0  0
 34104  1  0  0  0
 35 44  2  0  0  0
 35 45  1  0  0  0
 35 68  1  0  0  0
 36 56  1  0  0  0
 36105  1  0  0  0
 37 39  1  0  0  0
 37 47  1  0  0  0
 37 66  1  0  0  0
 37106  1  0  0  0
 38 43  2  0  0  0
 38 46  1  0  0  0
 38 47  1  0  0  0
 39 64  1  0  0  0
 39 67  2  0  0  0
 40 52  1  0  0  0
 40 53  2  0  0  0
 40 58  1  0  0  0
 41107  1  0  0  0
 41108  1  0  0  0
 41109  1  0  0  0
 41 48  1  0  0  0
 42 43  1  0  0  0
 42 66  1  0  0  0
 42110  1  0  0  0
 42111  1  0  0  0
 43 44  1  0  0  0
 44112  1  0  0  0
 45 46  2  0  0  0
 45113  1  0  0  0
 46114  1  0  0  0
 47115  1  0  0  0
 47116  1  0  0  0
 48 56  1  0  0  0
 48 65  1  0  0  0
 48117  1  0  0  0
 49 50  1  0  0  0
 49 53  1  0  0  0
 49 64  1  0  0  0
 49118  1  0  0  0
 50 51  1  0  0  0
 50119  1  0  0  0
 50120  1  0  0  0
 51 52  1  0  0  0
 51121  1  0  0  0
 51122  1  0  0  0
 52123  1  0  0  0
 52124  1  0  0  0
 53 54  1  0  0  0
 54 55  2  0  0  0
 54125  1  0  0  0
 55 57  1  0  0  0
 55126  1  0  0  0
 56 69  2  0  0  0
 57 58  2  0  0  0
 57127  1  0  0  0
 58128  1  0  0  0
 59 60  1  0  0  0
 59 61  1  0  0  0
 59 62  1  0  0  0
 60129  1  0  0  0
 60130  1  0  0  0
 60131  1  0  0  0
 61132  1  0  0  0
 61133  1  0  0  0
 61134  1  0  0  0
 62135  1  0  0  0
 62136  1  0  0  0
 62137  1  0  0  0
 63 65  1  0  0  0
 63138  1  0  0  0
 63139  1  0  0  0
 63140  1  0  0  0
 64141  1  0  0  0
 65142  1  0  0  0
 68 80  1  0  0  0
 71 72  2  0  0  0
 71 74  1  0  0  0
 71143  1  0  0  0
 72 75  1  0  0  0
 72144  1  0  0  0
 73 75  2  0  0  0
 73 76  1  0  0  0
 73145  1  0  0  0
 74 76  2  0  0  0
 74 77  1  0  0  0
 75 81  1  0  0  0
 76 83  1  0  0  0
 77 82  1  0  0  0
 77146  1  0  0  0
 77147  1  0  0  0
 78 79  1  0  0  0
 78 80  1  0  0  0
 78148  1  0  0  0
 78149  1  0  0  0
 79 82  1  0  0  0
 79150  1  0  0  0
 79151  1  0  0  0
 80152  1  0  0  0
 80153  1  0  0  0
 81154  1  0  0  0
 82155  1  0  0  0
 82156  1  0  0  0
M  CHG  1  82   1
M  ISO  4   1 100  68 101  80 101  81 100
M  END
> <chiral flag>
0

> <version>
0

> <s_m_source_file>
/data/baiqing/PycharmProjects/Reinvent-master-3.2/result/LINK_invent/BTK/process_docking_weight1_custom_sum_contain_oxygen_bond_distance_aromatic_linkinvent_7_9_3/rearranged_h_0030.sdf

> <i_m_source_file_index>
57

> <r_mmod_Potential_Energy-OPLS-2005>
-255.194854736328

> <r_mmod_Stretch_Energy-OPLS-2005>
34.9715194702148

> <r_mmod_Bend_Energy-OPLS-2005>
97.4803314208984

> <r_mmod_Torsional_Energy-OPLS-2005>
224.408020019531

> <r_mmod_Improper_Torsional_Energy-OPLS-2005>
2.72411298751831

> <r_mmod_Van_der_Waal_Energy-OPLS-2005>
149.064743041992

> <r_mmod_Electrostatic_Energy-OPLS-2005>
-299.412384033203

> <r_mmod_Solvation_Energy-OPLS-2005>
-472.936462402344

> <b_mmod_Minimization_Converged-OPLS-2005>
0

> <r_mmod_RMS_Derivative-OPLS-2005>
0.615435421466827

$$$$
57
                    3D
 Structure written by MMmdl.
175184  0  0  1  0            999 V2000
  -30.8437  -14.2543   20.7624 C   0  0  0  0  0  0
  -30.4043  -12.2814   19.3607 C   0  0  0  0  0  0
  -29.4660  -12.5416   18.1733 C   0  0  0  0  0  0
  -27.9983  -12.3840   18.6039 C   0  0  0  0  0  0
  -27.6656  -13.2039   19.8761 C   0  0  2  0  0  0
  -28.7045  -12.9518   20.9904 C   0  0  0  0  0  0
  -25.2604  -13.8165   20.5672 C   0  0  0  0  0  0
  -24.1846  -13.0445   20.9160 C   0  0  0  0  0  0
  -24.6391  -11.6909   20.8719 C   0  0  0  0  0  0
  -23.9054  -10.4296   21.0396 C   0  0  0  0  0  0
  -24.3605   -9.4216   21.9180 C   0  0  0  0  0  0
  -23.6287   -8.2249   22.0757 C   0  0  0  0  0  0
  -22.4272   -8.0281   21.3543 C   0  0  0  0  0  0
  -21.9904   -9.0248   20.4639 C   0  0  0  0  0  0
  -22.7228  -10.2131   20.3045 C   0  0  0  0  0  0
  -21.6851   -6.0736   22.5284 C   0  0  0  0  0  0
  -21.4011   -6.5637   23.8213 C   0  0  0  0  0  0
  -21.3658   -5.6791   24.9172 C   0  0  0  0  0  0
  -21.6043   -4.3054   24.7226 C   0  0  0  0  0  0
  -21.8819   -3.8148   23.4346 C   0  0  0  0  0  0
  -21.9190   -4.6965   22.3404 C   0  0  0  0  0  0
  -22.7868  -13.5246   21.1830 C   0  0  0  0  0  0
  -22.1662   -4.2148   21.0982 F   0  0  0  0  0  0
  -21.5626   -3.4541   25.7739 F   0  0  0  0  0  0
  -30.0562  -13.1985   20.4528 N   0  0  0  0  0  0
  -26.3043  -12.9337   20.3375 N   0  0  0  0  0  0
  -25.9318  -11.6492   20.5748 N   0  0  0  0  0  0
  -22.0500  -12.8232   22.0376 N   0  0  0  0  0  0
  -25.4338  -15.1884   20.4099 N   0  0  0  0  0  0
  -31.7564  -14.6676   20.0405 O   0  0  0  0  0  0
  -21.6637   -6.8876   21.4242 O   0  0  0  0  0  0
  -22.3561  -14.5566   20.6700 O   0  0  0  0  0  0
  -24.6089  -31.8724   23.2133 C   0  0  0  0  0  0
  -25.9007  -32.4853   23.8420 C   0  0  1  0  0  0
  -27.2509  -27.4991   20.0784 C   0  0  0  0  0  0
  -25.5889  -33.8647   24.2365 N   0  0  0  0  0  0
  -23.3935  -30.4925   21.5539 C   0  0  2  0  0  0
  -24.8431  -28.9604   20.1218 C   0  0  0  0  0  0
  -22.7356  -29.4686   22.5048 C   0  0  0  0  0  0
  -18.0254  -28.1371   22.8506 C   0  0  0  0  0  0
  -24.1479  -36.7314   23.2627 C   0  0  0  0  0  0
  -25.9129  -30.8571   21.3534 C   0  0  0  0  0  0
  -25.9971  -29.4924   20.7101 C   0  0  0  0  0  0
  -27.2041  -28.7675   20.6933 C   0  0  0  0  0  0
  -26.0786  -26.9564   19.5176 C   0  0  0  0  0  0
  -24.8742  -27.6862   19.5267 C   0  0  0  0  0  0
  -23.5993  -29.8169   20.1707 C   0  0  0  0  0  0
  -25.4092  -36.3130   24.0344 C   0  0  1  0  0  0
  -20.5834  -28.3649   23.1347 C   0  0  2  0  0  0
  -20.6747  -26.9399   22.5422 C   0  0  0  0  0  0
  -19.5729  -26.6391   21.5215 C   0  0  0  0  0  0
  -18.1901  -26.7923   22.1618 C   0  0  0  0  0  0
  -19.1501  -28.8828   23.2923 C   0  0  0  0  0  0
  -18.9436  -30.1435   23.8940 C   0  0  0  0  0  0
  -17.6439  -30.6591   24.0566 C   0  0  0  0  0  0
  -25.9037  -34.9494   23.5159 C   0  0  0  0  0  0
  -16.5331  -29.9089   23.6330 C   0  0  0  0  0  0
  -16.7246  -28.6492   23.0372 C   0  0  0  0  0  0
  -26.4467  -31.6591   25.0708 C   0  0  0  0  0  0
  -25.3764  -31.3621   26.1468 C   0  0  0  0  0  0
  -27.0299  -30.3062   24.5990 C   0  0  0  0  0  0
  -27.6059  -32.4282   25.7473 C   0  0  0  0  0  0
  -27.5609  -37.1758   24.8422 C   0  0  0  0  0  0
  -21.4094  -29.3031   22.3775 N   0  0  0  0  0  0
  -26.4258  -37.3841   23.9471 N   0  0  0  0  0  0
  -24.6567  -31.0866   22.1008 N   0  0  0  0  0  0
  -23.4148  -28.8248   23.3085 O   0  0  0  0  0  0
  -28.4003  -26.7554   20.0069 O   0  0  0  0  0  0
  -26.5604  -34.8941   22.4724 O   0  0  0  0  0  0
  -23.5299  -32.1443   23.7567 O   0  0  0  0  0  0
  -31.0303  -19.9587   23.3730 C   0  0  0  0  0  0
  -31.1121  -21.3432   23.1418 C   0  0  0  0  0  0
  -29.9976  -19.6551   21.1842 C   0  0  0  0  0  0
  -30.4610  -19.1143   22.4000 C   0  0  0  0  0  0
  -30.6246  -21.8951   21.9371 C   0  0  0  0  0  0
  -30.0761  -21.0414   20.9496 C   0  0  0  0  0  0
  -30.5420  -25.1273   19.0547 C   0  0  0  0  0  0
  -30.9621  -26.2884   21.3187 C   0  0  0  0  0  0
  -30.1798  -26.4989   18.4591 C   0  0  0  0  0  0
  -30.5778  -27.6265   20.6717 C   0  0  0  0  0  0
  -31.4748  -25.2453   20.2857 C   0  0  1  0  0  0
  -29.5718  -27.4177   19.5276 C   0  0  2  0  0  0
  -33.0673  -23.8115   21.5323 C   0  0  0  0  0  0
  -30.3637  -17.6269   22.6626 C   0  0  0  0  0  0
  -30.6334  -23.4041   21.7549 C   0  0  0  0  0  0
  -31.7027  -16.9282   22.3982 C   0  0  0  0  0  0
  -31.6981  -15.4400   22.7756 C   0  0  0  0  0  0
  -30.7148  -14.6592   22.0302 N   0  0  0  0  0  0
  -31.7349  -23.9025   20.8864 N   0  3  1  0  0  0
  -29.4912  -21.6684   19.4495 Cl  0  0  0  0  0  0
  -31.4453  -12.3838   19.0477 H   0  0  0  0  0  0
  -30.2997  -11.2519   19.7063 H   0  0  0  0  0  0
  -29.6918  -11.8541   17.3566 H   0  0  0  0  0  0
  -29.6305  -13.5476   17.7840 H   0  0  0  0  0  0
  -27.8134  -11.3244   18.7842 H   0  0  0  0  0  0
  -27.3353  -12.6737   17.7877 H   0  0  0  0  0  0
  -27.7235  -14.2573   19.6033 H   0  0  0  0  0  0
  -28.6455  -11.9205   21.3409 H   0  0  0  0  0  0
  -28.4607  -13.5746   21.8516 H   0  0  0  0  0  0
  -25.2749   -9.5696   22.4752 H   0  0  0  0  0  0
  -23.9994   -7.4646   22.7486 H   0  0  0  0  0  0
  -21.0833   -8.8755   19.8944 H   0  0  0  0  0  0
  -22.3684  -10.9661   19.6147 H   0  0  0  0  0  0
  -21.2006   -7.6145   23.9713 H   0  0  0  0  0  0
  -21.1475   -6.0523   25.9073 H   0  0  0  0  0  0
  -22.0597   -2.7610   23.2849 H   0  0  0  0  0  0
  -22.4096  -11.9871   22.4739 H   0  0  0  0  0  0
  -21.1119  -13.1263   22.2581 H   0  0  0  0  0  0
  -24.6722  -15.8483   20.5230 H   0  0  0  0  0  0
  -26.2976  -15.6261   20.1139 H   0  0  0  0  0  0
  -26.7092  -32.5591   23.1206 H   0  0  0  0  0  0
  -25.0052  -33.9820   25.0516 H   0  0  0  0  0  0
  -22.6804  -31.3070   21.4129 H   0  0  0  0  0  0
  -23.3799  -35.9578   23.3163 H   0  0  0  0  0  0
  -24.3625  -36.9057   22.2071 H   0  0  0  0  0  0
  -23.7127  -37.6437   23.6715 H   0  0  0  0  0  0
  -26.0031  -31.6185   20.5773 H   0  0  0  0  0  0
  -26.8095  -30.9276   21.9568 H   0  0  0  0  0  0
  -28.0891  -29.1879   21.1466 H   0  0  0  0  0  0
  -26.1075  -25.9802   19.0552 H   0  0  0  0  0  0
  -23.9849  -27.2644   19.0785 H   0  0  0  0  0  0
  -23.6939  -30.5856   19.4032 H   0  0  0  0  0  0
  -22.7286  -29.2240   19.8851 H   0  0  0  0  0  0
  -25.1239  -36.1993   25.0829 H   0  0  0  0  0  0
  -20.9908  -28.3212   24.1471 H   0  0  0  0  0  0
  -20.5647  -26.2267   23.3605 H   0  0  0  0  0  0
  -21.6625  -26.7453   22.1221 H   0  0  0  0  0  0
  -19.6886  -25.6300   21.1245 H   0  0  0  0  0  0
  -19.6674  -27.3217   20.6756 H   0  0  0  0  0  0
  -17.4171  -26.6687   21.4017 H   0  0  0  0  0  0
  -18.0298  -26.0055   22.9002 H   0  0  0  0  0  0
  -19.7910  -30.7234   24.2347 H   0  0  0  0  0  0
  -17.4994  -31.6282   24.5138 H   0  0  0  0  0  0
  -15.5334  -30.3007   23.7633 H   0  0  0  0  0  0
  -15.8637  -28.0817   22.7105 H   0  0  0  0  0  0
  -24.5962  -30.6952   25.7777 H   0  0  0  0  0  0
  -24.8934  -32.2743   26.4978 H   0  0  0  0  0  0
  -25.8158  -30.8742   27.0180 H   0  0  0  0  0  0
  -26.2803  -29.6815   24.1119 H   0  0  0  0  0  0
  -27.4204  -29.7292   25.4382 H   0  0  0  0  0  0
  -27.8571  -30.4431   23.9021 H   0  0  0  0  0  0
  -27.2721  -33.3599   26.2047 H   0  0  0  0  0  0
  -28.3887  -32.6799   25.0305 H   0  0  0  0  0  0
  -28.0698  -31.8389   26.5390 H   0  0  0  0  0  0
  -28.2450  -38.0232   24.7787 H   0  0  0  0  0  0
  -28.1284  -36.2799   24.5846 H   0  0  0  0  0  0
  -27.2379  -37.0906   25.8814 H   0  0  0  0  0  0
  -20.9249  -29.8755   21.7004 H   0  0  0  0  0  0
  -26.0137  -38.2870   24.1664 H   0  0  0  0  0  0
  -31.3983  -19.5479   24.3042 H   0  0  0  0  0  0
  -31.5344  -21.9807   23.9068 H   0  0  0  0  0  0
  -29.5726  -19.0103   20.4272 H   0  0  0  0  0  0
  -31.0137  -24.5140   18.2860 H   0  0  0  0  0  0
  -29.6173  -24.6150   19.3173 H   0  0  0  0  0  0
  -30.0760  -25.9321   21.8426 H   0  0  0  0  0  0
  -31.7183  -26.4646   22.0839 H   0  0  0  0  0  0
  -29.4729  -26.3729   17.6376 H   0  0  0  0  0  0
  -31.0672  -26.9664   18.0317 H   0  0  0  0  0  0
  -31.4705  -28.1204   20.2854 H   0  0  0  0  0  0
  -30.1669  -28.2955   21.4267 H   0  0  0  0  0  0
  -32.4231  -25.6234   19.8972 H   0  0  0  0  0  0
  -29.3354  -28.3802   19.0686 H   0  0  0  0  0  0
  -33.8602  -24.1003   20.8418 H   0  0  0  0  0  0
  -33.2852  -22.7938   21.8545 H   0  0  0  0  0  0
  -33.1305  -24.4620   22.4048 H   0  0  0  0  0  0
  -29.5768  -17.1953   22.0427 H   0  0  0  0  0  0
  -30.0567  -17.4724   23.6983 H   0  0  0  0  0  0
  -30.6940  -23.8816   22.7341 H   0  0  0  0  0  0
  -29.6599  -23.6876   21.3548 H   0  0  0  0  0  0
  -32.4855  -17.4225   22.9750 H   0  0  0  0  0  0
  -31.9820  -17.0521   21.3511 H   0  0  0  0  0  0
  -31.4871  -15.3309   23.8399 H   0  0  0  0  0  0
  -32.6919  -15.0163   22.6195 H   0  0  0  0  0  0
  -29.9794  -14.2167   22.5624 H   0  0  0  0  0  0
  -31.7788  -23.2669   20.1030 H   0  0  0  0  0  0
  1 25  1  0  0  0
  1 30  2  0  0  0
  1 88  1  0  0  0
  2  3  1  0  0  0
  2 25  1  0  0  0
  2 91  1  0  0  0
  2 92  1  0  0  0
  3  4  1  0  0  0
  3 93  1  0  0  0
  3 94  1  0  0  0
  4  5  1  0  0  0
  4 95  1  0  0  0
  4 96  1  0  0  0
  5  6  1  0  0  0
  5 26  1  0  0  0
  5 97  1  0  0  0
  6 25  1  0  0  0
  6 98  1  0  0  0
  6 99  1  0  0  0
  7  8  2  0  0  0
  7 26  1  0  0  0
  7 29  1  0  0  0
  8  9  1  0  0  0
  8 22  1  0  0  0
  9 10  1  0  0  0
  9 27  2  0  0  0
 10 11  2  0  0  0
 10 15  1  0  0  0
 11 12  1  0  0  0
 11100  1  0  0  0
 12 13  2  0  0  0
 12101  1  0  0  0
 13 14  1  0  0  0
 13 31  1  0  0  0
 14 15  2  0  0  0
 14102  1  0  0  0
 15103  1  0  0  0
 16 17  2  0  0  0
 16 21  1  0  0  0
 16 31  1  0  0  0
 17 18  1  0  0  0
 17104  1  0  0  0
 18 19  2  0  0  0
 18105  1  0  0  0
 19 20  1  0  0  0
 19 24  1  0  0  0
 20 21  2  0  0  0
 20106  1  0  0  0
 21 23  1  0  0  0
 22 28  1  0  0  0
 22 32  2  0  0  0
 26 27  1  0  0  0
 28107  1  0  0  0
 28108  1  0  0  0
 29109  1  0  0  0
 29110  1  0  0  0
 33 34  1  0  0  0
 33 66  1  0  0  0
 33 70  2  0  0  0
 34 36  1  0  0  0
 34 59  1  0  0  0
 34111  1  0  0  0
 35 44  2  0  0  0
 35 45  1  0  0  0
 35 68  1  0  0  0
 36 56  1  0  0  0
 36112  1  0  0  0
 37 39  1  0  0  0
 37 47  1  0  0  0
 37 66  1  0  0  0
 37113  1  0  0  0
 38 43  2  0  0  0
 38 46  1  0  0  0
 38 47  1  0  0  0
 39 64  1  0  0  0
 39 67  2  0  0  0
 40 52  1  0  0  0
 40 53  2  0  0  0
 40 58  1  0  0  0
 41114  1  0  0  0
 41115  1  0  0  0
 41116  1  0  0  0
 41 48  1  0  0  0
 42 43  1  0  0  0
 42 66  1  0  0  0
 42117  1  0  0  0
 42118  1  0  0  0
 43 44  1  0  0  0
 44119  1  0  0  0
 45 46  2  0  0  0
 45120  1  0  0  0
 46121  1  0  0  0
 47122  1  0  0  0
 47123  1  0  0  0
 48 56  1  0  0  0
 48 65  1  0  0  0
 48124  1  0  0  0
 49 50  1  0  0  0
 49 53  1  0  0  0
 49 64  1  0  0  0
 49125  1  0  0  0
 50 51  1  0  0  0
 50126  1  0  0  0
 50127  1  0  0  0
 51 52  1  0  0  0
 51128  1  0  0  0
 51129  1  0  0  0
 52130  1  0  0  0
 52131  1  0  0  0
 53 54  1  0  0  0
 54 55  2  0  0  0
 54132  1  0  0  0
 55 57  1  0  0  0
 55133  1  0  0  0
 56 69  2  0  0  0
 57 58  2  0  0  0
 57134  1  0  0  0
 58135  1  0  0  0
 59 60  1  0  0  0
 59 61  1  0  0  0
 59 62  1  0  0  0
 60136  1  0  0  0
 60137  1  0  0  0
 60138  1  0  0  0
 61139  1  0  0  0
 61140  1  0  0  0
 61141  1  0  0  0
 62142  1  0  0  0
 62143  1  0  0  0
 62144  1  0  0  0
 63 65  1  0  0  0
 63145  1  0  0  0
 63146  1  0  0  0
 63147  1  0  0  0
 64148  1  0  0  0
 65149  1  0  0  0
 68 82  1  0  0  0
 71 72  2  0  0  0
 71 74  1  0  0  0
 71150  1  0  0  0
 72 75  1  0  0  0
 72151  1  0  0  0
 73 74  2  0  0  0
 73 76  1  0  0  0
 73152  1  0  0  0
 74 84  1  0  0  0
 75 76  2  0  0  0
 75 85  1  0  0  0
 76 90  1  0  0  0
 77 79  1  0  0  0
 77153  1  0  0  0
 77154  1  0  0  0
 77 81  1  0  0  0
 78 80  1  0  0  0
 78 81  1  0  0  0
 78155  1  0  0  0
 78156  1  0  0  0
 79 82  1  0  0  0
 79157  1  0  0  0
 79158  1  0  0  0
 80 82  1  0  0  0
 80159  1  0  0  0
 80160  1  0  0  0
 81 89  1  0  0  0
 81161  1  0  0  0
 82162  1  0  0  0
 83163  1  0  0  0
 83164  1  0  0  0
 83165  1  0  0  0
 83 89  1  0  0  0
 84 86  1  0  0  0
 84166  1  0  0  0
 84167  1  0  0  0
 85 89  1  0  0  0
 85168  1  0  0  0
 85169  1  0  0  0
 86 87  1  0  0  0
 86170  1  0  0  0
 86171  1  0  0  0
 87 88  1  0  0  0
 87172  1  0  0  0
 87173  1  0  0  0
 88174  1  0  0  0
 89175  1  0  0  0
M  CHG  1  89   1
M  ISO  4   1 100  68 101  82 101  88 100
M  END
> <chiral flag>
0

> <version>
0

> <s_m_source_file>
/data/baiqing/PycharmProjects/Reinvent-master-3.2/result/LINK_invent/BTK/process_docking_weight1_custom_sum_contain_oxygen_bond_distance_aromatic_linkinvent_7_9_3/rearranged_h_0030.sdf

> <i_m_source_file_index>
58

> <r_mmod_Potential_Energy-OPLS-2005>
-191.189086914062

> <r_mmod_Stretch_Energy-OPLS-2005>
32.429874420166

> <r_mmod_Bend_Energy-OPLS-2005>
92.6725997924805

> <r_mmod_Torsional_Energy-OPLS-2005>
243.826431274414

> <r_mmod_Improper_Torsional_Energy-OPLS-2005>
5.5250768661499

> <r_mmod_Van_der_Waal_Energy-OPLS-2005>
154.269165039062

> <r_mmod_Electrostatic_Energy-OPLS-2005>
-320.276672363281

> <r_mmod_Solvation_Energy-OPLS-2005>
-408.012298583984

> <b_mmod_Minimization_Converged-OPLS-2005>
0

> <r_mmod_RMS_Derivative-OPLS-2005>
1.40748345851898

$$$$
58
                    3D
 Structure written by MMmdl.
153161  0  0  1  0            999 V2000
  -30.6292  -14.8729   20.4586 C   0  0  0  0  0  0
  -30.4377  -12.5484   19.4841 C   0  0  0  0  0  0
  -29.5196  -12.5127   18.2402 C   0  0  0  0  0  0
  -28.0533  -12.3029   18.6670 C   0  0  0  0  0  0
  -27.6347  -13.2450   19.8277 C   0  0  2  0  0  0
  -28.6817  -13.2913   20.9638 C   0  0  0  0  0  0
  -25.2518  -13.8224   20.5698 C   0  0  0  0  0  0
  -24.1819  -13.0449   20.9216 C   0  0  0  0  0  0
  -24.6437  -11.6932   20.8800 C   0  0  0  0  0  0
  -23.9097  -10.4305   21.0428 C   0  0  0  0  0  0
  -24.3636   -9.4212   21.9207 C   0  0  0  0  0  0
  -23.6297   -8.2255   22.0756 C   0  0  0  0  0  0
  -22.4293   -8.0312   21.3547 C   0  0  0  0  0  0
  -21.9944   -9.0285   20.4654 C   0  0  0  0  0  0
  -22.7268  -10.2153   20.3064 C   0  0  0  0  0  0
  -21.6861   -6.0765   22.5280 C   0  0  0  0  0  0
  -21.4006   -6.5652   23.8218 C   0  0  0  0  0  0
  -21.3658   -5.6790   24.9180 C   0  0  0  0  0  0
  -21.6040   -4.3055   24.7227 C   0  0  0  0  0  0
  -21.8815   -3.8148   23.4343 C   0  0  0  0  0  0
  -21.9182   -4.6977   22.3402 C   0  0  0  0  0  0
  -22.7826  -13.5235   21.1826 C   0  0  0  0  0  0
  -22.1664   -4.2184   21.0987 F   0  0  0  0  0  0
  -21.5646   -3.4525   25.7732 F   0  0  0  0  0  0
  -29.9698  -13.6555   20.3632 N   0  0  0  0  0  0
  -26.2943  -12.9451   20.3209 N   0  0  0  0  0  0
  -25.9379  -11.6587   20.5771 N   0  0  0  0  0  0
  -22.0465  -12.8267   22.0391 N   0  0  0  0  0  0
  -25.4146  -15.1936   20.4055 N   0  0  0  0  0  0
  -31.8348  -14.8900   20.1985 O   0  0  0  0  0  0
  -21.6632   -6.8933   21.4250 O   0  0  0  0  0  0
  -22.3524  -14.5536   20.6645 O   0  0  0  0  0  0
  -24.6385  -31.8482   23.1927 C   0  0  0  0  0  0
  -25.9178  -32.4722   23.8277 C   0  0  1  0  0  0
  -27.2196  -27.1899   20.1565 C   0  0  0  0  0  0
  -25.5989  -33.8529   24.2220 N   0  0  0  0  0  0
  -23.4350  -30.4725   21.5380 C   0  0  2  0  0  0
  -24.8848  -28.9055   20.1105 C   0  0  0  0  0  0
  -22.7519  -29.4570   22.4872 C   0  0  0  0  0  0
  -18.0296  -28.1381   22.8489 C   0  0  0  0  0  0
  -24.1485  -36.7247   23.2635 C   0  0  0  0  0  0
  -25.9861  -30.7435   21.3788 C   0  0  0  0  0  0
  -26.0605  -29.3562   20.7263 C   0  0  0  0  0  0
  -27.2280  -28.5159   20.7303 C   0  0  0  0  0  0
  -26.0182  -26.8228   19.5083 C   0  0  0  0  0  0
  -24.8752  -27.6487   19.4881 C   0  0  0  0  0  0
  -23.6585  -29.8039   20.1562 C   0  0  0  0  0  0
  -25.4128  -36.3036   24.0323 C   0  0  1  0  0  0
  -20.5903  -28.3707   23.1253 C   0  0  2  0  0  0
  -20.6779  -26.9418   22.5409 C   0  0  0  0  0  0
  -19.5756  -26.6395   21.5204 C   0  0  0  0  0  0
  -18.1929  -26.7928   22.1619 C   0  0  0  0  0  0
  -19.1551  -28.8871   23.2866 C   0  0  0  0  0  0
  -18.9475  -30.1464   23.8900 C   0  0  0  0  0  0
  -17.6471  -30.6586   24.0563 C   0  0  0  0  0  0
  -25.9084  -34.9419   23.5077 C   0  0  0  0  0  0
  -16.5363  -29.9078   23.6312 C   0  0  0  0  0  0
  -16.7287  -28.6486   23.0363 C   0  0  0  0  0  0
  -26.4535  -31.6569   25.0686 C   0  0  0  0  0  0
  -25.3748  -31.3755   26.1406 C   0  0  0  0  0  0
  -27.0406  -30.2984   24.6212 C   0  0  0  0  0  0
  -27.6081  -32.4300   25.7497 C   0  0  0  0  0  0
  -27.5569  -37.1789   24.8468 C   0  0  0  0  0  0
  -21.4216  -29.3047   22.3639 N   0  0  0  0  0  0
  -26.4268  -37.3768   23.9406 N   0  0  0  0  0  0
  -24.7053  -31.0410   22.0924 N   0  0  0  0  0  0
  -23.4198  -28.8113   23.2976 O   0  0  0  0  0  0
  -28.3055  -26.2593   20.2153 O   0  0  0  0  0  0
  -26.5633  -34.8905   22.4626 O   0  0  0  0  0  0
  -23.5534  -32.1333   23.7241 O   0  0  0  0  0  0
  -28.8948  -19.5660   20.0694 C   0  0  0  0  0  0
  -30.3960  -21.4910   21.3674 C   0  0  0  0  0  0
  -28.5872  -20.9917   19.9334 C   0  0  0  0  0  0
  -29.9995  -19.0356   20.8229 C   0  0  0  0  0  0
  -29.3486  -22.0374   20.5647 C   0  0  0  0  0  0
  -30.7197  -20.0918   21.4787 C   0  0  0  0  0  0
  -27.4244  -21.3910   19.0490 C   0  0  0  0  0  0
  -29.3242  -23.6616   20.3054 C   0  0  0  0  0  0
  -30.5838  -17.4957   20.8869 C   0  0  0  0  0  0
  -28.0781  -24.7384   20.2341 C   0  0  0  0  0  0
  -29.9433  -16.0908   20.6612 N   0  0  0  0  0  0
  -32.1239  -19.7146   22.4195 Cl  0  0  0  0  0  0
  -31.4763  -12.6853   19.1755 H   0  0  0  0  0  0
  -30.4045  -11.5957   20.0164 H   0  0  0  0  0  0
  -29.8275  -11.7168   17.5595 H   0  0  0  0  0  0
  -29.6186  -13.4410   17.6769 H   0  0  0  0  0  0
  -27.9526  -11.2643   18.9793 H   0  0  0  0  0  0
  -27.3853  -12.4271   17.8130 H   0  0  0  0  0  0
  -27.5922  -14.2385   19.3827 H   0  0  0  0  0  0
  -28.7561  -12.3378   21.4838 H   0  0  0  0  0  0
  -28.3926  -14.0336   21.7099 H   0  0  0  0  0  0
  -25.2792   -9.5665   22.4770 H   0  0  0  0  0  0
  -24.0001   -7.4652   22.7472 H   0  0  0  0  0  0
  -21.0879   -8.8798   19.8982 H   0  0  0  0  0  0
  -22.3743  -10.9684   19.6158 H   0  0  0  0  0  0
  -21.2001   -7.6155   23.9738 H   0  0  0  0  0  0
  -21.1476   -6.0523   25.9097 H   0  0  0  0  0  0
  -22.0585   -2.7611   23.2818 H   0  0  0  0  0  0
  -22.4068  -11.9939   22.4821 H   0  0  0  0  0  0
  -21.1083  -13.1296   22.2558 H   0  0  0  0  0  0
  -24.6287  -15.8312   20.4819 H   0  0  0  0  0  0
  -26.2466  -15.6376   20.0393 H   0  0  0  0  0  0
  -26.7251  -32.5359   23.1021 H   0  0  0  0  0  0
  -25.0160  -33.9648   25.0391 H   0  0  0  0  0  0
  -22.7326  -31.2956   21.3906 H   0  0  0  0  0  0
  -23.3763  -35.9555   23.3288 H   0  0  0  0  0  0
  -24.3561  -36.8877   22.2037 H   0  0  0  0  0  0
  -23.7212  -37.6448   23.6662 H   0  0  0  0  0  0
  -26.1260  -31.4978   20.6028 H   0  0  0  0  0  0
  -26.8624  -30.8049   22.0111 H   0  0  0  0  0  0
  -28.1237  -28.8594   21.2307 H   0  0  0  0  0  0
  -25.9367  -25.8658   19.0200 H   0  0  0  0  0  0
  -23.9763  -27.2970   18.9979 H   0  0  0  0  0  0
  -23.7915  -30.5816   19.4040 H   0  0  0  0  0  0
  -22.7722  -29.2480   19.8422 H   0  0  0  0  0  0
  -25.1310  -36.1859   25.0818 H   0  0  0  0  0  0
  -21.0012  -28.3283   24.1364 H   0  0  0  0  0  0
  -20.5656  -26.2301   23.3616 H   0  0  0  0  0  0
  -21.6636  -26.7399   22.1204 H   0  0  0  0  0  0
  -19.6883  -25.6306   21.1247 H   0  0  0  0  0  0
  -19.6688  -27.3194   20.6723 H   0  0  0  0  0  0
  -17.4188  -26.6688   21.4011 H   0  0  0  0  0  0
  -18.0319  -26.0070   22.9013 H   0  0  0  0  0  0
  -19.7972  -30.7277   24.2246 H   0  0  0  0  0  0
  -17.5040  -31.6264   24.5177 H   0  0  0  0  0  0
  -15.5365  -30.2989   23.7665 H   0  0  0  0  0  0
  -15.8678  -28.0823   22.7073 H   0  0  0  0  0  0
  -24.5938  -30.7087   25.7737 H   0  0  0  0  0  0
  -24.8929  -32.2943   26.4746 H   0  0  0  0  0  0
  -25.8047  -30.8990   27.0222 H   0  0  0  0  0  0
  -26.3005  -29.6714   24.1230 H   0  0  0  0  0  0
  -27.4096  -29.7267   25.4734 H   0  0  0  0  0  0
  -27.8868  -30.4260   23.9469 H   0  0  0  0  0  0
  -27.2702  -33.3622   26.2039 H   0  0  0  0  0  0
  -28.3953  -32.6818   25.0378 H   0  0  0  0  0  0
  -28.0694  -31.8437   26.5461 H   0  0  0  0  0  0
  -28.2607  -38.0068   24.7527 H   0  0  0  0  0  0
  -28.1053  -36.2615   24.6295 H   0  0  0  0  0  0
  -27.2293  -37.1438   25.8873 H   0  0  0  0  0  0
  -20.9368  -29.8775   21.6887 H   0  0  0  0  0  0
  -26.0145  -38.2832   24.1446 H   0  0  0  0  0  0
  -28.2902  -18.8563   19.5233 H   0  0  0  0  0  0
  -31.0387  -22.1901   21.8820 H   0  0  0  0  0  0
  -26.6376  -21.8579   19.6393 H   0  0  0  0  0  0
  -26.9932  -20.5280   18.5417 H   0  0  0  0  0  0
  -27.7478  -22.0980   18.2842 H   0  0  0  0  0  0
  -29.8524  -23.7698   19.3587 H   0  0  0  0  0  0
  -30.0177  -24.0790   21.0371 H   0  0  0  0  0  0
  -30.9792  -17.3876   21.8984 H   0  0  0  0  0  0
  -31.4771  -17.5225   20.2624 H   0  0  0  0  0  0
  -27.5151  -24.4736   19.3387 H   0  0  0  0  0  0
  -27.4140  -24.5349   21.0750 H   0  0  0  0  0  0
  -28.9445  -16.0303   20.7791 H   0  0  0  0  0  0
  1 25  1  0  0  0
  1 30  2  0  0  0
  1 81  1  0  0  0
  2  3  1  0  0  0
  2 25  1  0  0  0
  2 83  1  0  0  0
  2 84  1  0  0  0
  3  4  1  0  0  0
  3 85  1  0  0  0
  3 86  1  0  0  0
  4  5  1  0  0  0
  4 87  1  0  0  0
  4 88  1  0  0  0
  5  6  1  0  0  0
  5 26  1  0  0  0
  5 89  1  0  0  0
  6 25  1  0  0  0
  6 90  1  0  0  0
  6 91  1  0  0  0
  7  8  2  0  0  0
  7 26  1  0  0  0
  7 29  1  0  0  0
  8  9  1  0  0  0
  8 22  1  0  0  0
  9 10  1  0  0  0
  9 27  2  0  0  0
 10 11  2  0  0  0
 10 15  1  0  0  0
 11 12  1  0  0  0
 11 92  1  0  0  0
 12 13  2  0  0  0
 12 93  1  0  0  0
 13 14  1  0  0  0
 13 31  1  0  0  0
 14 15  2  0  0  0
 14 94  1  0  0  0
 15 95  1  0  0  0
 16 17  2  0  0  0
 16 21  1  0  0  0
 16 31  1  0  0  0
 17 18  1  0  0  0
 17 96  1  0  0  0
 18 19  2  0  0  0
 18 97  1  0  0  0
 19 20  1  0  0  0
 19 24  1  0  0  0
 20 21  2  0  0  0
 20 98  1  0  0  0
 21 23  1  0  0  0
 22 28  1  0  0  0
 22 32  2  0  0  0
 26 27  1  0  0  0
 28 99  1  0  0  0
 28100  1  0  0  0
 29101  1  0  0  0
 29102  1  0  0  0
 33 34  1  0  0  0
 33 66  1  0  0  0
 33 70  2  0  0  0
 34 36  1  0  0  0
 34 59  1  0  0  0
 34103  1  0  0  0
 35 44  2  0  0  0
 35 45  1  0  0  0
 35 68  1  0  0  0
 36 56  1  0  0  0
 36104  1  0  0  0
 37 39  1  0  0  0
 37 47  1  0  0  0
 37 66  1  0  0  0
 37105  1  0  0  0
 38 43  2  0  0  0
 38 46  1  0  0  0
 38 47  1  0  0  0
 39 64  1  0  0  0
 39 67  2  0  0  0
 40 52  1  0  0  0
 40 53  2  0  0  0
 40 58  1  0  0  0
 41106  1  0  0  0
 41107  1  0  0  0
 41108  1  0  0  0
 41 48  1  0  0  0
 42 43  1  0  0  0
 42 66  1  0  0  0
 42109  1  0  0  0
 42110  1  0  0  0
 43 44  1  0  0  0
 44111  1  0  0  0
 45 46  2  0  0  0
 45112  1  0  0  0
 46113  1  0  0  0
 47114  1  0  0  0
 47115  1  0  0  0
 48 56  1  0  0  0
 48 65  1  0  0  0
 48116  1  0  0  0
 49 50  1  0  0  0
 49 53  1  0  0  0
 49 64  1  0  0  0
 49117  1  0  0  0
 50 51  1  0  0  0
 50118  1  0  0  0
 50119  1  0  0  0
 51 52  1  0  0  0
 51120  1  0  0  0
 51121  1  0  0  0
 52122  1  0  0  0
 52123  1  0  0  0
 53 54  1  0  0  0
 54 55  2  0  0  0
 54124  1  0  0  0
 55 57  1  0  0  0
 55125  1  0  0  0
 56 69  2  0  0  0
 57 58  2  0  0  0
 57126  1  0  0  0
 58127  1  0  0  0
 59 60  1  0  0  0
 59 61  1  0  0  0
 59 62  1  0  0  0
 60128  1  0  0  0
 60129  1  0  0  0
 60130  1  0  0  0
 61131  1  0  0  0
 61132  1  0  0  0
 61133  1  0  0  0
 62134  1  0  0  0
 62135  1  0  0  0
 62136  1  0  0  0
 63 65  1  0  0  0
 63137  1  0  0  0
 63138  1  0  0  0
 63139  1  0  0  0
 64140  1  0  0  0
 65141  1  0  0  0
 68 80  1  0  0  0
 71 73  2  0  0  0
 71 74  1  0  0  0
 71142  1  0  0  0
 72 75  2  0  0  0
 72 76  1  0  0  0
 72143  1  0  0  0
 73 75  1  0  0  0
 73 77  1  0  0  0
 74 76  2  0  0  0
 74 79  1  0  0  0
 75 78  1  0  0  0
 76 82  1  0  0  0
 77144  1  0  0  0
 77145  1  0  0  0
 77146  1  0  0  0
 78 80  1  0  0  0
 78147  1  0  0  0
 78148  1  0  0  0
 79 81  1  0  0  0
 79149  1  0  0  0
 79150  1  0  0  0
 80151  1  0  0  0
 80152  1  0  0  0
 81153  1  0  0  0
M  ISO  4   1 100  68 101  80 101  81 100
M  END
> <chiral flag>
0

> <version>
0

> <s_m_source_file>
/data/baiqing/PycharmProjects/Reinvent-master-3.2/result/LINK_invent/BTK/process_docking_weight1_custom_sum_contain_oxygen_bond_distance_aromatic_linkinvent_7_9_3/rearranged_h_0030.sdf

> <i_m_source_file_index>
59

> <r_mmod_Potential_Energy-OPLS-2005>
353.121978759766

> <r_mmod_Stretch_Energy-OPLS-2005>
191.912536621094

> <r_mmod_Bend_Energy-OPLS-2005>
260.770263671875

> <r_mmod_Torsional_Energy-OPLS-2005>
210.929962158203

> <r_mmod_Improper_Torsional_Energy-OPLS-2005>
5.88522291183472

> <r_mmod_Van_der_Waal_Energy-OPLS-2005>
135.448059082031

> <r_mmod_Electrostatic_Energy-OPLS-2005>
-388.272583007812

> <r_mmod_Solvation_Energy-OPLS-2005>
-209.00700378418

> <b_mmod_Minimization_Converged-OPLS-2005>
0

> <r_mmod_RMS_Derivative-OPLS-2005>
5.37782526016235

$$$$
59
                    3D
 Structure written by MMmdl.
153161  0  0  1  0            999 V2000
  -30.5557  -14.9543   20.2489 C   0  0  0  0  0  0
  -30.4434  -12.5788   19.4612 C   0  0  0  0  0  0
  -29.5177  -12.5169   18.2262 C   0  0  0  0  0  0
  -28.0457  -12.3433   18.6498 C   0  0  0  0  0  0
  -27.6232  -13.2685   19.8197 C   0  0  2  0  0  0
  -28.6888  -13.3536   20.9360 C   0  0  0  0  0  0
  -25.2450  -13.8268   20.5745 C   0  0  0  0  0  0
  -24.1846  -13.0521   20.9294 C   0  0  0  0  0  0
  -24.6452  -11.6947   20.8770 C   0  0  0  0  0  0
  -23.9166  -10.4316   21.0414 C   0  0  0  0  0  0
  -24.3701   -9.4203   21.9193 C   0  0  0  0  0  0
  -23.6338   -8.2253   22.0758 C   0  0  0  0  0  0
  -22.4306   -8.0297   21.3551 C   0  0  0  0  0  0
  -21.9977   -9.0299   20.4656 C   0  0  0  0  0  0
  -22.7324  -10.2162   20.3067 C   0  0  0  0  0  0
  -21.6865   -6.0739   22.5258 C   0  0  0  0  0  0
  -21.4034   -6.5636   23.8206 C   0  0  0  0  0  0
  -21.3680   -5.6776   24.9164 C   0  0  0  0  0  0
  -21.6052   -4.3036   24.7202 C   0  0  0  0  0  0
  -21.8832   -3.8139   23.4317 C   0  0  0  0  0  0
  -21.9227   -4.6974   22.3377 C   0  0  0  0  0  0
  -22.7813  -13.5195   21.1947 C   0  0  0  0  0  0
  -22.1675   -4.2173   21.0950 F   0  0  0  0  0  0
  -21.5650   -3.4506   25.7712 F   0  0  0  0  0  0
  -29.9554  -13.7092   20.2834 N   0  0  0  0  0  0
  -26.2905  -12.9555   20.3248 N   0  0  0  0  0  0
  -25.9417  -11.6661   20.5804 N   0  0  0  0  0  0
  -22.0497  -12.8170   22.0444 N   0  0  0  0  0  0
  -25.4124  -15.2059   20.4135 N   0  0  0  0  0  0
  -31.7881  -14.9951   20.1834 O   0  0  0  0  0  0
  -21.6664   -6.8886   21.4223 O   0  0  0  0  0  0
  -22.3456  -14.5513   20.6774 O   0  0  0  0  0  0
  -24.6677  -31.8217   23.1714 C   0  0  0  0  0  0
  -25.9388  -32.4533   23.8086 C   0  0  1  0  0  0
  -27.1947  -27.0685   20.0378 C   0  0  0  0  0  0
  -25.6030  -33.8355   24.2021 N   0  0  0  0  0  0
  -23.4697  -30.4450   21.5270 C   0  0  2  0  0  0
  -24.8902  -28.8502   20.1049 C   0  0  0  0  0  0
  -22.7691  -29.4441   22.4832 C   0  0  0  0  0  0
  -18.0332  -28.1365   22.8493 C   0  0  0  0  0  0
  -24.1486  -36.7246   23.2657 C   0  0  0  0  0  0
  -26.0338  -30.6504   21.3809 C   0  0  0  0  0  0
  -26.0863  -29.2641   20.7062 C   0  0  0  0  0  0
  -27.2440  -28.3922   20.6441 C   0  0  0  0  0  0
  -25.9617  -26.7675   19.4130 C   0  0  0  0  0  0
  -24.8414  -27.6154   19.4478 C   0  0  0  0  0  0
  -23.6850  -29.7721   20.1503 C   0  0  0  0  0  0
  -25.4143  -36.2974   24.0300 C   0  0  1  0  0  0
  -20.5957  -28.3725   23.1200 C   0  0  2  0  0  0
  -20.6805  -26.9404   22.5404 C   0  0  0  0  0  0
  -19.5764  -26.6358   21.5217 C   0  0  0  0  0  0
  -18.1950  -26.7895   22.1633 C   0  0  0  0  0  0
  -19.1599  -28.8867   23.2826 C   0  0  0  0  0  0
  -18.9513  -30.1466   23.8850 C   0  0  0  0  0  0
  -17.6509  -30.6565   24.0565 C   0  0  0  0  0  0
  -25.9090  -34.9349   23.4977 C   0  0  0  0  0  0
  -16.5396  -29.9064   23.6328 C   0  0  0  0  0  0
  -16.7326  -28.6483   23.0351 C   0  0  0  0  0  0
  -26.4579  -31.6516   25.0636 C   0  0  0  0  0  0
  -25.3732  -31.3811   26.1337 C   0  0  0  0  0  0
  -27.0456  -30.2888   24.6347 C   0  0  0  0  0  0
  -27.6008  -32.4351   25.7483 C   0  0  0  0  0  0
  -27.5566  -37.1788   24.8466 C   0  0  0  0  0  0
  -21.4361  -29.3067   22.3598 N   0  0  0  0  0  0
  -26.4259  -37.3736   23.9393 N   0  0  0  0  0  0
  -24.7455  -30.9944   22.0807 N   0  0  0  0  0  0
  -23.4274  -28.7991   23.3027 O   0  0  0  0  0  0
  -28.2364  -26.0566   20.0431 O   0  0  0  0  0  0
  -26.5690  -34.8917   22.4551 O   0  0  0  0  0  0
  -23.5760  -32.1127   23.6888 O   0  0  0  0  0  0
  -28.2575  -18.7071   18.4492 C   0  0  0  0  0  0
  -29.2867  -18.9393   19.3937 C   0  0  0  0  0  0
  -27.7908  -21.1512   18.1446 C   0  0  0  0  0  0
  -28.7341  -21.5616   19.1512 C   0  0  0  0  0  0
  -27.5491  -19.7753   17.8429 C   0  0  0  0  0  0
  -29.5096  -20.3891   19.6915 C   0  0  0  0  0  0
  -27.0631  -22.1559   17.2499 C   0  0  0  0  0  0
  -29.0271  -23.2065   19.4336 C   0  0  0  0  0  0
  -30.1871  -17.6476   19.9466 C   0  0  0  0  0  0
  -27.9506  -24.5534   19.6572 C   0  0  0  0  0  0
  -29.7842  -16.1255   20.0282 N   0  0  0  0  0  0
  -26.3649  -19.3688   16.6367 Cl  0  0  0  0  0  0
  -30.8949  -20.7113   20.6842 Cl  0  0  0  0  0  0
  -31.4752  -12.7320   19.1379 H   0  0  0  0  0  0
  -30.4329  -11.6495   20.0353 H   0  0  0  0  0  0
  -29.8190  -11.6981   17.5723 H   0  0  0  0  0  0
  -29.6270  -13.4339   17.6453 H   0  0  0  0  0  0
  -27.9017  -11.3010   18.9352 H   0  0  0  0  0  0
  -27.3909  -12.5254   17.7946 H   0  0  0  0  0  0
  -27.5643  -14.2650   19.3853 H   0  0  0  0  0  0
  -28.7801  -12.4325   21.5143 H   0  0  0  0  0  0
  -28.4202  -14.1387   21.6435 H   0  0  0  0  0  0
  -25.2877   -9.5671   22.4735 H   0  0  0  0  0  0
  -24.0096   -7.4618   22.7417 H   0  0  0  0  0  0
  -21.0944   -8.8820   19.8912 H   0  0  0  0  0  0
  -22.3815  -10.9719   19.6162 H   0  0  0  0  0  0
  -21.1998   -7.6136   23.9725 H   0  0  0  0  0  0
  -21.1493   -6.0475   25.9069 H   0  0  0  0  0  0
  -22.0601   -2.7602   23.2789 H   0  0  0  0  0  0
  -22.4168  -11.9837   22.4839 H   0  0  0  0  0  0
  -21.1107  -13.1129   22.2708 H   0  0  0  0  0  0
  -24.6436  -15.8603   20.5149 H   0  0  0  0  0  0
  -26.2563  -15.6353   20.0616 H   0  0  0  0  0  0
  -26.7451  -32.5023   23.0777 H   0  0  0  0  0  0
  -25.0195  -33.9333   25.0185 H   0  0  0  0  0  0
  -22.7921  -31.2852   21.3684 H   0  0  0  0  0  0
  -23.3688  -35.9609   23.3280 H   0  0  0  0  0  0
  -24.3610  -36.8912   22.2076 H   0  0  0  0  0  0
  -23.7272  -37.6457   23.6707 H   0  0  0  0  0  0
  -26.2230  -31.3871   20.6010 H   0  0  0  0  0  0
  -26.9068  -30.6723   22.0257 H   0  0  0  0  0  0
  -28.1830  -28.6927   21.0842 H   0  0  0  0  0  0
  -25.7989  -25.8462   18.8749 H   0  0  0  0  0  0
  -23.9333  -27.3004   18.9503 H   0  0  0  0  0  0
  -23.8468  -30.5350   19.3883 H   0  0  0  0  0  0
  -22.7873  -29.2367   19.8378 H   0  0  0  0  0  0
  -25.1314  -36.1749   25.0779 H   0  0  0  0  0  0
  -21.0055  -28.3296   24.1318 H   0  0  0  0  0  0
  -20.5655  -26.2350   23.3659 H   0  0  0  0  0  0
  -21.6661  -26.7338   22.1219 H   0  0  0  0  0  0
  -19.6888  -25.6265   21.1250 H   0  0  0  0  0  0
  -19.6646  -27.3175   20.6747 H   0  0  0  0  0  0
  -17.4217  -26.6679   21.4027 H   0  0  0  0  0  0
  -18.0308  -26.0021   22.9016 H   0  0  0  0  0  0
  -19.8010  -30.7294   24.2168 H   0  0  0  0  0  0
  -17.5078  -31.6247   24.5174 H   0  0  0  0  0  0
  -15.5400  -30.2958   23.7661 H   0  0  0  0  0  0
  -15.8741  -28.0811   22.7029 H   0  0  0  0  0  0
  -24.5846  -30.7195   25.7728 H   0  0  0  0  0  0
  -24.9003  -32.3041   26.4692 H   0  0  0  0  0  0
  -25.7994  -30.9050   27.0176 H   0  0  0  0  0  0
  -26.3100  -29.6585   24.1329 H   0  0  0  0  0  0
  -27.3986  -29.7221   25.4971 H   0  0  0  0  0  0
  -27.9030  -30.4071   23.9724 H   0  0  0  0  0  0
  -27.2469  -33.3664   26.1936 H   0  0  0  0  0  0
  -28.3904  -32.6924   25.0403 H   0  0  0  0  0  0
  -28.0574  -31.8584   26.5542 H   0  0  0  0  0  0
  -28.2556  -38.0115   24.7515 H   0  0  0  0  0  0
  -28.1067  -36.2625   24.6234 H   0  0  0  0  0  0
  -27.2299  -37.1428   25.8883 H   0  0  0  0  0  0
  -20.9609  -29.8927   21.6881 H   0  0  0  0  0  0
  -26.0079  -38.2752   24.1429 H   0  0  0  0  0  0
  -28.0160  -17.7126   18.1008 H   0  0  0  0  0  0
  -27.0643  -23.1496   17.6578 H   0  0  0  0  0  0
  -26.0040  -21.8960   17.1333 H   0  0  0  0  0  0
  -27.5481  -22.2047   16.2622 H   0  0  0  0  0  0
  -29.5646  -23.4822   18.5262 H   0  0  0  0  0  0
  -29.8129  -23.2626   20.1813 H   0  0  0  0  0  0
  -30.5270  -17.8968   20.9560 H   0  0  0  0  0  0
  -31.1084  -17.6607   19.3611 H   0  0  0  0  0  0
  -27.1021  -24.2011   20.2615 H   0  0  0  0  0  0
  -27.5573  -24.8032   18.6734 H   0  0  0  0  0  0
  -28.8067  -15.9336   19.8823 H   0  0  0  0  0  0
  1 25  1  0  0  0
  1 30  2  0  0  0
  1 81  1  0  0  0
  2  3  1  0  0  0
  2 25  1  0  0  0
  2 84  1  0  0  0
  2 85  1  0  0  0
  3  4  1  0  0  0
  3 86  1  0  0  0
  3 87  1  0  0  0
  4  5  1  0  0  0
  4 88  1  0  0  0
  4 89  1  0  0  0
  5  6  1  0  0  0
  5 26  1  0  0  0
  5 90  1  0  0  0
  6 25  1  0  0  0
  6 91  1  0  0  0
  6 92  1  0  0  0
  7  8  2  0  0  0
  7 26  1  0  0  0
  7 29  1  0  0  0
  8  9  1  0  0  0
  8 22  1  0  0  0
  9 10  1  0  0  0
  9 27  2  0  0  0
 10 11  2  0  0  0
 10 15  1  0  0  0
 11 12  1  0  0  0
 11 93  1  0  0  0
 12 13  2  0  0  0
 12 94  1  0  0  0
 13 14  1  0  0  0
 13 31  1  0  0  0
 14 15  2  0  0  0
 14 95  1  0  0  0
 15 96  1  0  0  0
 16 17  2  0  0  0
 16 21  1  0  0  0
 16 31  1  0  0  0
 17 18  1  0  0  0
 17 97  1  0  0  0
 18 19  2  0  0  0
 18 98  1  0  0  0
 19 20  1  0  0  0
 19 24  1  0  0  0
 20 21  2  0  0  0
 20 99  1  0  0  0
 21 23  1  0  0  0
 22 28  1  0  0  0
 22 32  2  0  0  0
 26 27  1  0  0  0
 28100  1  0  0  0
 28101  1  0  0  0
 29102  1  0  0  0
 29103  1  0  0  0
 33 34  1  0  0  0
 33 66  1  0  0  0
 33 70  2  0  0  0
 34 36  1  0  0  0
 34 59  1  0  0  0
 34104  1  0  0  0
 35 44  2  0  0  0
 35 45  1  0  0  0
 35 68  1  0  0  0
 36 56  1  0  0  0
 36105  1  0  0  0
 37 39  1  0  0  0
 37 47  1  0  0  0
 37 66  1  0  0  0
 37106  1  0  0  0
 38 43  2  0  0  0
 38 46  1  0  0  0
 38 47  1  0  0  0
 39 64  1  0  0  0
 39 67  2  0  0  0
 40 52  1  0  0  0
 40 53  2  0  0  0
 40 58  1  0  0  0
 41107  1  0  0  0
 41108  1  0  0  0
 41109  1  0  0  0
 41 48  1  0  0  0
 42 43  1  0  0  0
 42 66  1  0  0  0
 42110  1  0  0  0
 42111  1  0  0  0
 43 44  1  0  0  0
 44112  1  0  0  0
 45 46  2  0  0  0
 45113  1  0  0  0
 46114  1  0  0  0
 47115  1  0  0  0
 47116  1  0  0  0
 48 56  1  0  0  0
 48 65  1  0  0  0
 48117  1  0  0  0
 49 50  1  0  0  0
 49 53  1  0  0  0
 49 64  1  0  0  0
 49118  1  0  0  0
 50 51  1  0  0  0
 50119  1  0  0  0
 50120  1  0  0  0
 51 52  1  0  0  0
 51121  1  0  0  0
 51122  1  0  0  0
 52123  1  0  0  0
 52124  1  0  0  0
 53 54  1  0  0  0
 54 55  2  0  0  0
 54125  1  0  0  0
 55 57  1  0  0  0
 55126  1  0  0  0
 56 69  2  0  0  0
 57 58  2  0  0  0
 57127  1  0  0  0
 58128  1  0  0  0
 59 60  1  0  0  0
 59 61  1  0  0  0
 59 62  1  0  0  0
 60129  1  0  0  0
 60130  1  0  0  0
 60131  1  0  0  0
 61132  1  0  0  0
 61133  1  0  0  0
 61134  1  0  0  0
 62135  1  0  0  0
 62136  1  0  0  0
 62137  1  0  0  0
 63 65  1  0  0  0
 63138  1  0  0  0
 63139  1  0  0  0
 63140  1  0  0  0
 64141  1  0  0  0
 65142  1  0  0  0
 68 80  1  0  0  0
 71 72  2  0  0  0
 71 75  1  0  0  0
 71143  1  0  0  0
 72 76  1  0  0  0
 72 79  1  0  0  0
 73 74  1  0  0  0
 73 75  2  0  0  0
 73 77  1  0  0  0
 74 76  2  0  0  0
 74 78  1  0  0  0
 75 82  1  0  0  0
 76 83  1  0  0  0
 77144  1  0  0  0
 77145  1  0  0  0
 77146  1  0  0  0
 78 80  1  0  0  0
 78147  1  0  0  0
 78148  1  0  0  0
 79 81  1  0  0  0
 79149  1  0  0  0
 79150  1  0  0  0
 80151  1  0  0  0
 80152  1  0  0  0
 81153  1  0  0  0
M  ISO  4   1 100  68 101  80 101  81 100
M  END
> <chiral flag>
0

> <version>
0

> <s_m_source_file>
/data/baiqing/PycharmProjects/Reinvent-master-3.2/result/LINK_invent/BTK/process_docking_weight1_custom_sum_contain_oxygen_bond_distance_aromatic_linkinvent_7_9_3/rearranged_h_0030.sdf

> <i_m_source_file_index>
60

> <r_mmod_Potential_Energy-OPLS-2005>
601.663208007812

> <r_mmod_Stretch_Energy-OPLS-2005>
316.693817138672

> <r_mmod_Bend_Energy-OPLS-2005>
277.251037597656

> <r_mmod_Torsional_Energy-OPLS-2005>
219.224960327148

> <r_mmod_Improper_Torsional_Energy-OPLS-2005>
7.7110652923584

> <r_mmod_Van_der_Waal_Energy-OPLS-2005>
141.763916015625

> <r_mmod_Electrostatic_Energy-OPLS-2005>
-395.534301757812

> <r_mmod_Solvation_Energy-OPLS-2005>
-213.114700317383

> <b_mmod_Minimization_Converged-OPLS-2005>
0

> <r_mmod_RMS_Derivative-OPLS-2005>
14.3717193603516

$$$$
60
                    3D
 Structure written by MMmdl.
171180  0  0  1  0            999 V2000
  -30.8814  -14.2060   20.7856 C   0  0  0  0  0  0
  -30.4032  -12.2789   19.3466 C   0  0  0  0  0  0
  -29.4598  -12.5442   18.1669 C   0  0  0  0  0  0
  -27.9968  -12.3804   18.6063 C   0  0  0  0  0  0
  -27.6678  -13.2046   19.8769 C   0  0  2  0  0  0
  -28.7119  -12.9635   20.9918 C   0  0  0  0  0  0
  -25.2615  -13.8170   20.5680 C   0  0  0  0  0  0
  -24.1855  -13.0444   20.9166 C   0  0  0  0  0  0
  -24.6404  -11.6913   20.8732 C   0  0  0  0  0  0
  -23.9068  -10.4296   21.0399 C   0  0  0  0  0  0
  -24.3619   -9.4213   21.9179 C   0  0  0  0  0  0
  -23.6294   -8.2251   22.0752 C   0  0  0  0  0  0
  -22.4277   -8.0282   21.3543 C   0  0  0  0  0  0
  -21.9913   -9.0261   20.4643 C   0  0  0  0  0  0
  -22.7241  -10.2137   20.3050 C   0  0  0  0  0  0
  -21.6854   -6.0738   22.5279 C   0  0  0  0  0  0
  -21.4017   -6.5641   23.8213 C   0  0  0  0  0  0
  -21.3657   -5.6794   24.9176 C   0  0  0  0  0  0
  -21.6044   -4.3055   24.7229 C   0  0  0  0  0  0
  -21.8819   -3.8148   23.4349 C   0  0  0  0  0  0
  -21.9192   -4.6963   22.3406 C   0  0  0  0  0  0
  -22.7873  -13.5242   21.1828 C   0  0  0  0  0  0
  -22.1661   -4.2148   21.0982 F   0  0  0  0  0  0
  -21.5630   -3.4540   25.7744 F   0  0  0  0  0  0
  -30.0641  -13.1853   20.4487 N   0  0  0  0  0  0
  -26.3064  -12.9340   20.3405 N   0  0  0  0  0  0
  -25.9336  -11.6496   20.5777 N   0  0  0  0  0  0
  -22.0514  -12.8232   22.0382 N   0  0  0  0  0  0
  -25.4331  -15.1884   20.4071 N   0  0  0  0  0  0
  -31.7246  -14.6980   20.0289 O   0  0  0  0  0  0
  -21.6637   -6.8881   21.4238 O   0  0  0  0  0  0
  -22.3556  -14.5547   20.6676 O   0  0  0  0  0  0
  -24.6105  -31.8714   23.2137 C   0  0  0  0  0  0
  -25.9023  -32.4836   23.8423 C   0  0  1  0  0  0
  -27.2397  -27.4921   20.0715 C   0  0  0  0  0  0
  -25.5913  -33.8636   24.2367 N   0  0  0  0  0  0
  -23.3964  -30.4937   21.5534 C   0  0  2  0  0  0
  -24.8430  -28.9695   20.1101 C   0  0  0  0  0  0
  -22.7398  -29.4657   22.5010 C   0  0  0  0  0  0
  -18.0269  -28.1361   22.8486 C   0  0  0  0  0  0
  -24.1495  -36.7307   23.2635 C   0  0  0  0  0  0
  -25.9196  -30.8541   21.3570 C   0  0  0  0  0  0
  -26.0010  -29.4949   20.6984 C   0  0  0  0  0  0
  -27.2051  -28.7618   20.6786 C   0  0  0  0  0  0
  -26.0705  -26.9683   19.4801 C   0  0  0  0  0  0
  -24.8701  -27.7027   19.5000 C   0  0  0  0  0  0
  -23.6001  -29.8275   20.1666 C   0  0  0  0  0  0
  -25.4112  -36.3122   24.0349 C   0  0  1  0  0  0
  -20.5858  -28.3649   23.1332 C   0  0  2  0  0  0
  -20.6759  -26.9390   22.5418 C   0  0  0  0  0  0
  -19.5742  -26.6374   21.5209 C   0  0  0  0  0  0
  -18.1915  -26.7907   22.1614 C   0  0  0  0  0  0
  -19.1515  -28.8821   23.2905 C   0  0  0  0  0  0
  -18.9445  -30.1426   23.8920 C   0  0  0  0  0  0
  -17.6453  -30.6575   24.0556 C   0  0  0  0  0  0
  -25.9040  -34.9485   23.5147 C   0  0  0  0  0  0
  -16.5347  -29.9076   23.6311 C   0  0  0  0  0  0
  -16.7260  -28.6486   23.0341 C   0  0  0  0  0  0
  -26.4472  -31.6592   25.0722 C   0  0  0  0  0  0
  -25.3761  -31.3689   26.1489 C   0  0  0  0  0  0
  -27.0281  -30.3040   24.6040 C   0  0  0  0  0  0
  -27.6056  -32.4290   25.7492 C   0  0  0  0  0  0
  -27.5590  -37.1811   24.8461 C   0  0  0  0  0  0
  -21.4133  -29.3021   22.3748 N   0  0  0  0  0  0
  -26.4299  -37.3802   23.9412 N   0  0  0  0  0  0
  -24.6602  -31.0850   22.1011 N   0  0  0  0  0  0
  -23.4187  -28.8194   23.3034 O   0  0  0  0  0  0
  -28.3848  -26.7411   20.1179 O   0  0  0  0  0  0
  -26.5572  -34.8933   22.4689 O   0  0  0  0  0  0
  -23.5311  -32.1442   23.7565 O   0  0  0  0  0  0
  -29.3433  -21.0352   23.8068 C   0  0  0  0  0  0
  -26.9192  -21.4242   25.1118 C   0  0  0  0  0  0
  -28.8731  -20.0334   24.6879 C   0  0  0  0  0  0
  -27.6423  -20.2402   25.3561 C   0  0  0  0  0  0
  -28.5673  -22.1885   23.5802 C   0  0  0  0  0  0
  -29.1166  -24.6453   23.1743 C   0  0  0  0  0  0
  -28.0278  -23.1896   21.3314 C   0  0  0  0  0  0
  -29.3594  -25.7343   22.1135 C   0  0  0  0  0  0
  -28.3182  -24.3113   20.3232 C   0  0  0  0  0  0
  -28.9757  -23.2351   22.5525 C   0  0  2  0  0  0
  -28.2648  -25.6629   21.0421 C   0  0  2  0  0  0
  -30.7602  -16.9092   23.9033 C   0  0  0  0  0  0
  -31.9091  -16.5124   22.9694 C   0  0  0  0  0  0
  -30.6122  -18.4289   23.9613 C   0  0  0  0  0  0
  -32.0623  -14.9953   22.8207 C   0  0  0  0  0  0
  -27.3951  -22.3384   24.2393 N   0  3  0  0  0  0
  -29.5762  -18.8356   24.8995 N   0  0  0  0  0  0
  -30.9357  -14.3958   22.1085 N   0  0  0  0  0  0
  -27.0095  -19.0560   26.4490 Cl  0  0  0  0  0  0
  -31.4421  -12.3875   19.0265 H   0  0  0  0  0  0
  -30.3038  -11.2464   19.6874 H   0  0  0  0  0  0
  -29.6819  -11.8612   17.3457 H   0  0  0  0  0  0
  -29.6209  -13.5524   17.7818 H   0  0  0  0  0  0
  -27.8177  -11.3203   18.7922 H   0  0  0  0  0  0
  -27.3277  -12.6634   17.7924 H   0  0  0  0  0  0
  -27.7243  -14.2569   19.5965 H   0  0  0  0  0  0
  -28.6436  -11.9419   21.3691 H   0  0  0  0  0  0
  -28.4907  -13.6191   21.8353 H   0  0  0  0  0  0
  -25.2766   -9.5691   22.4750 H   0  0  0  0  0  0
  -24.0004   -7.4647   22.7475 H   0  0  0  0  0  0
  -21.0845   -8.8777   19.8953 H   0  0  0  0  0  0
  -22.3698  -10.9675   19.6160 H   0  0  0  0  0  0
  -21.2009   -7.6147   23.9717 H   0  0  0  0  0  0
  -21.1478   -6.0523   25.9080 H   0  0  0  0  0  0
  -22.0598   -2.7609   23.2853 H   0  0  0  0  0  0
  -22.4124  -11.9892   22.4773 H   0  0  0  0  0  0
  -21.1130  -13.1255   22.2583 H   0  0  0  0  0  0
  -24.6712  -15.8488   20.5183 H   0  0  0  0  0  0
  -26.2975  -15.6259   20.1114 H   0  0  0  0  0  0
  -26.7098  -32.5572   23.1199 H   0  0  0  0  0  0
  -25.0128  -33.9811   25.0558 H   0  0  0  0  0  0
  -22.6822  -31.3086   21.4180 H   0  0  0  0  0  0
  -23.3764  -35.9629   23.3288 H   0  0  0  0  0  0
  -24.3608  -36.8913   22.2052 H   0  0  0  0  0  0
  -23.7237  -37.6510   23.6644 H   0  0  0  0  0  0
  -26.0245  -31.6255   20.5928 H   0  0  0  0  0  0
  -26.8104  -30.9076   21.9711 H   0  0  0  0  0  0
  -28.0990  -29.1556   21.1415 H   0  0  0  0  0  0
  -26.0851  -25.9922   19.0173 H   0  0  0  0  0  0
  -23.9796  -27.2891   19.0472 H   0  0  0  0  0  0
  -23.6990  -30.6051   19.4077 H   0  0  0  0  0  0
  -22.7262  -29.2418   19.8750 H   0  0  0  0  0  0
  -25.1278  -36.2002   25.0841 H   0  0  0  0  0  0
  -20.9950  -28.3208   24.1456 H   0  0  0  0  0  0
  -20.5664  -26.2254   23.3594 H   0  0  0  0  0  0
  -21.6632  -26.7431   22.1221 H   0  0  0  0  0  0
  -19.6916  -25.6292   21.1222 H   0  0  0  0  0  0
  -19.6689  -27.3189   20.6741 H   0  0  0  0  0  0
  -17.4191  -26.6654   21.4004 H   0  0  0  0  0  0
  -18.0311  -26.0046   22.9004 H   0  0  0  0  0  0
  -19.7924  -30.7219   24.2316 H   0  0  0  0  0  0
  -17.5010  -31.6263   24.5140 H   0  0  0  0  0  0
  -15.5347  -30.2985   23.7621 H   0  0  0  0  0  0
  -15.8655  -28.0815   22.7054 H   0  0  0  0  0  0
  -24.5925  -30.7033   25.7849 H   0  0  0  0  0  0
  -24.8966  -32.2842   26.4967 H   0  0  0  0  0  0
  -25.8145  -30.8858   27.0232 H   0  0  0  0  0  0
  -26.2805  -29.6833   24.1085 H   0  0  0  0  0  0
  -27.4054  -29.7239   25.4470 H   0  0  0  0  0  0
  -27.8643  -30.4355   23.9166 H   0  0  0  0  0  0
  -27.2682  -33.3565   26.2128 H   0  0  0  0  0  0
  -28.3859  -32.6883   25.0325 H   0  0  0  0  0  0
  -28.0734  -31.8373   26.5370 H   0  0  0  0  0  0
  -28.2597  -38.0119   24.7543 H   0  0  0  0  0  0
  -28.1103  -36.2658   24.6248 H   0  0  0  0  0  0
  -27.2317  -37.1411   25.8866 H   0  0  0  0  0  0
  -20.9294  -29.8759   21.6985 H   0  0  0  0  0  0
  -26.0191  -38.2876   24.1431 H   0  0  0  0  0  0
  -30.2778  -20.9282   23.2799 H   0  0  0  0  0  0
  -25.9700  -21.6512   25.5734 H   0  0  0  0  0  0
  -28.2126  -24.9068   23.7246 H   0  0  0  0  0  0
  -29.9260  -24.6487   23.9049 H   0  0  0  0  0  0
  -28.1000  -22.2199   20.8352 H   0  0  0  0  0  0
  -26.9912  -23.2816   21.6589 H   0  0  0  0  0  0
  -30.3417  -25.6105   21.6554 H   0  0  0  0  0  0
  -29.3588  -26.7176   22.5855 H   0  0  0  0  0  0
  -27.5844  -24.2780   19.5178 H   0  0  0  0  0  0
  -29.2956  -24.1669   19.8610 H   0  0  0  0  0  0
  -29.9657  -22.9615   22.1850 H   0  0  0  0  0  0
  -27.3087  -25.7163   21.5726 H   0  0  0  0  0  0
  -30.9454  -16.5070   24.9007 H   0  0  0  0  0  0
  -29.8263  -16.4670   23.5535 H   0  0  0  0  0  0
  -32.8407  -16.9254   23.3581 H   0  0  0  0  0  0
  -31.7694  -16.9646   21.9858 H   0  0  0  0  0  0
  -30.3821  -18.7792   22.9543 H   0  0  0  0  0  0
  -31.5580  -18.8880   24.2569 H   0  0  0  0  0  0
  -32.1450  -14.5286   23.8034 H   0  0  0  0  0  0
  -32.9976  -14.7681   22.3039 H   0  0  0  0  0  0
  -26.8317  -23.1723   24.0671 H   0  0  0  0  0  0
  -29.0645  -18.1178   25.4032 H   0  0  0  0  0  0
  -30.2649  -13.8797   22.6598 H   0  0  0  0  0  0
  1 25  1  0  0  0
  1 30  2  0  0  0
  1 88  1  0  0  0
  2  3  1  0  0  0
  2 25  1  0  0  0
  2 90  1  0  0  0
  2 91  1  0  0  0
  3  4  1  0  0  0
  3 92  1  0  0  0
  3 93  1  0  0  0
  4  5  1  0  0  0
  4 94  1  0  0  0
  4 95  1  0  0  0
  5  6  1  0  0  0
  5 26  1  0  0  0
  5 96  1  0  0  0
  6 25  1  0  0  0
  6 97  1  0  0  0
  6 98  1  0  0  0
  7  8  2  0  0  0
  7 26  1  0  0  0
  7 29  1  0  0  0
  8  9  1  0  0  0
  8 22  1  0  0  0
  9 10  1  0  0  0
  9 27  2  0  0  0
 10 11  2  0  0  0
 10 15  1  0  0  0
 11 12  1  0  0  0
 11 99  1  0  0  0
 12 13  2  0  0  0
 12100  1  0  0  0
 13 14  1  0  0  0
 13 31  1  0  0  0
 14 15  2  0  0  0
 14101  1  0  0  0
 15102  1  0  0  0
 16 17  2  0  0  0
 16 21  1  0  0  0
 16 31  1  0  0  0
 17 18  1  0  0  0
 17103  1  0  0  0
 18 19  2  0  0  0
 18104  1  0  0  0
 19 20  1  0  0  0
 19 24  1  0  0  0
 20 21  2  0  0  0
 20105  1  0  0  0
 21 23  1  0  0  0
 22 28  1  0  0  0
 22 32  2  0  0  0
 26 27  1  0  0  0
 28106  1  0  0  0
 28107  1  0  0  0
 29108  1  0  0  0
 29109  1  0  0  0
 33 34  1  0  0  0
 33 66  1  0  0  0
 33 70  2  0  0  0
 34 36  1  0  0  0
 34 59  1  0  0  0
 34110  1  0  0  0
 35 44  2  0  0  0
 35 45  1  0  0  0
 35 68  1  0  0  0
 36 56  1  0  0  0
 36111  1  0  0  0
 37 39  1  0  0  0
 37 47  1  0  0  0
 37 66  1  0  0  0
 37112  1  0  0  0
 38 43  2  0  0  0
 38 46  1  0  0  0
 38 47  1  0  0  0
 39 64  1  0  0  0
 39 67  2  0  0  0
 40 52  1  0  0  0
 40 53  2  0  0  0
 40 58  1  0  0  0
 41113  1  0  0  0
 41114  1  0  0  0
 41115  1  0  0  0
 41 48  1  0  0  0
 42 43  1  0  0  0
 42 66  1  0  0  0
 42116  1  0  0  0
 42117  1  0  0  0
 43 44  1  0  0  0
 44118  1  0  0  0
 45 46  2  0  0  0
 45119  1  0  0  0
 46120  1  0  0  0
 47121  1  0  0  0
 47122  1  0  0  0
 48 56  1  0  0  0
 48 65  1  0  0  0
 48123  1  0  0  0
 49 50  1  0  0  0
 49 53  1  0  0  0
 49 64  1  0  0  0
 49124  1  0  0  0
 50 51  1  0  0  0
 50125  1  0  0  0
 50126  1  0  0  0
 51 52  1  0  0  0
 51127  1  0  0  0
 51128  1  0  0  0
 52129  1  0  0  0
 52130  1  0  0  0
 53 54  1  0  0  0
 54 55  2  0  0  0
 54131  1  0  0  0
 55 57  1  0  0  0
 55132  1  0  0  0
 56 69  2  0  0  0
 57 58  2  0  0  0
 57133  1  0  0  0
 58134  1  0  0  0
 59 60  1  0  0  0
 59 61  1  0  0  0
 59 62  1  0  0  0
 60135  1  0  0  0
 60136  1  0  0  0
 60137  1  0  0  0
 61138  1  0  0  0
 61139  1  0  0  0
 61140  1  0  0  0
 62141  1  0  0  0
 62142  1  0  0  0
 62143  1  0  0  0
 63 65  1  0  0  0
 63144  1  0  0  0
 63145  1  0  0  0
 63146  1  0  0  0
 64147  1  0  0  0
 65148  1  0  0  0
 68 81  1  0  0  0
 71 73  2  0  0  0
 71 75  1  0  0  0
 71149  1  0  0  0
 72 74  2  0  0  0
 72 86  1  0  0  0
 72150  1  0  0  0
 73 74  1  0  0  0
 73 87  1  0  0  0
 74 89  1  0  0  0
 75 86  2  0  0  0
 75 80  1  0  0  0
 76 78  1  0  0  0
 76 80  1  0  0  0
 76151  1  0  0  0
 76152  1  0  0  0
 77 79  1  0  0  0
 77 80  1  0  0  0
 77153  1  0  0  0
 77154  1  0  0  0
 78 81  1  0  0  0
 78155  1  0  0  0
 78156  1  0  0  0
 79 81  1  0  0  0
 79157  1  0  0  0
 79158  1  0  0  0
 80159  1  0  0  0
 81160  1  0  0  0
 82 83  1  0  0  0
 82 84  1  0  0  0
 82161  1  0  0  0
 82162  1  0  0  0
 83 85  1  0  0  0
 83163  1  0  0  0
 83164  1  0  0  0
 84 87  1  0  0  0
 84165  1  0  0  0
 84166  1  0  0  0
 85 88  1  0  0  0
 85167  1  0  0  0
 85168  1  0  0  0
 86169  1  0  0  0
 87170  1  0  0  0
 88171  1  0  0  0
M  CHG  1  86   1
M  ISO  4   1 100  68 101  81 101  88 100
M  END
> <chiral flag>
0

> <version>
0

> <s_m_source_file>
/data/baiqing/PycharmProjects/Reinvent-master-3.2/result/LINK_invent/BTK/process_docking_weight1_custom_sum_contain_oxygen_bond_distance_aromatic_linkinvent_7_9_3/rearranged_h_0030.sdf

> <i_m_source_file_index>
61

> <r_mmod_Potential_Energy-OPLS-2005>
-165.983306884766

> <r_mmod_Stretch_Energy-OPLS-2005>
31.0202369689941

> <r_mmod_Bend_Energy-OPLS-2005>
93.4911804199219

> <r_mmod_Torsional_Energy-OPLS-2005>
237.560653686523

> <r_mmod_Improper_Torsional_Energy-OPLS-2005>
10.7789211273193

> <r_mmod_Van_der_Waal_Energy-OPLS-2005>
160.618026733398

> <r_mmod_Electrostatic_Energy-OPLS-2005>
-276.640411376953

> <r_mmod_Solvation_Energy-OPLS-2005>
-436.084503173828

> <b_mmod_Minimization_Converged-OPLS-2005>
0

> <r_mmod_RMS_Derivative-OPLS-2005>
1.50694561004639

$$$$
61
                    3D
 Structure written by MMmdl.
151159  0  0  1  0            999 V2000
  -30.3548  -15.3092   20.4870 C   0  0  0  0  0  0
  -30.4318  -12.8527   19.5408 C   0  0  0  0  0  0
  -29.5464  -12.5813   18.2971 C   0  0  0  0  0  0
  -28.0993  -12.2719   18.7230 C   0  0  0  0  0  0
  -27.5975  -13.2646   19.8026 C   0  0  2  0  0  0
  -28.6078  -13.4573   20.9506 C   0  0  0  0  0  0
  -25.2332  -13.8221   20.5687 C   0  0  0  0  0  0
  -24.1666  -13.0422   20.9271 C   0  0  0  0  0  0
  -24.6322  -11.6927   20.8754 C   0  0  0  0  0  0
  -23.9007  -10.4279   21.0391 C   0  0  0  0  0  0
  -24.3557   -9.4221   21.9171 C   0  0  0  0  0  0
  -23.6265   -8.2247   22.0760 C   0  0  0  0  0  0
  -22.4245   -8.0262   21.3576 C   0  0  0  0  0  0
  -21.9850   -9.0220   20.4677 C   0  0  0  0  0  0
  -22.7171  -10.2115   20.3073 C   0  0  0  0  0  0
  -21.6864   -6.0678   22.5259 C   0  0  0  0  0  0
  -21.3989   -6.5603   23.8171 C   0  0  0  0  0  0
  -21.3645   -5.6788   24.9164 C   0  0  0  0  0  0
  -21.6034   -4.3037   24.7229 C   0  0  0  0  0  0
  -21.8821   -3.8111   23.4355 C   0  0  0  0  0  0
  -21.9188   -4.6906   22.3397 C   0  0  0  0  0  0
  -22.7692  -13.5231   21.1904 C   0  0  0  0  0  0
  -22.1677   -4.2097   21.0978 F   0  0  0  0  0  0
  -21.5634   -3.4510   25.7723 F   0  0  0  0  0  0
  -29.8279  -13.9917   20.3419 N   0  0  0  0  0  0
  -26.2689  -12.9457   20.3033 N   0  0  0  0  0  0
  -25.9225  -11.6574   20.5585 N   0  0  0  0  0  0
  -22.0297  -12.8211   22.0458 N   0  0  0  0  0  0
  -25.4086  -15.1938   20.4178 N   0  0  0  0  0  0
  -31.5837  -15.3298   20.2903 O   0  0  0  0  0  0
  -21.6684   -6.8821   21.4231 O   0  0  0  0  0  0
  -22.3377  -14.5509   20.6748 O   0  0  0  0  0  0
  -24.6634  -31.8222   23.1667 C   0  0  0  0  0  0
  -25.9303  -32.4608   23.8143 C   0  0  1  0  0  0
  -27.1890  -26.8798   20.2299 C   0  0  0  0  0  0
  -25.5922  -33.8409   24.2028 N   0  0  0  0  0  0
  -23.4779  -30.4320   21.5187 C   0  0  2  0  0  0
  -24.9292  -28.8109   20.1160 C   0  0  0  0  0  0
  -22.7682  -29.4377   22.4758 C   0  0  0  0  0  0
  -18.0306  -28.1388   22.8493 C   0  0  0  0  0  0
  -24.1460  -36.7205   23.2644 C   0  0  0  0  0  0
  -26.0468  -30.6211   21.3959 C   0  0  0  0  0  0
  -26.1158  -29.2044   20.7460 C   0  0  0  0  0  0
  -27.2447  -28.2604   20.7730 C   0  0  0  0  0  0
  -25.9814  -26.6508   19.5324 C   0  0  0  0  0  0
  -24.8912  -27.5581   19.4835 C   0  0  0  0  0  0
  -23.7198  -29.7442   20.1481 C   0  0  0  0  0  0
  -25.4110  -36.2967   24.0294 C   0  0  1  0  0  0
  -20.5944  -28.3711   23.1207 C   0  0  2  0  0  0
  -20.6773  -26.9380   22.5412 C   0  0  0  0  0  0
  -19.5717  -26.6358   21.5239 C   0  0  0  0  0  0
  -18.1918  -26.7927   22.1662 C   0  0  0  0  0  0
  -19.1578  -28.8873   23.2839 C   0  0  0  0  0  0
  -18.9481  -30.1494   23.8850 C   0  0  0  0  0  0
  -17.6473  -30.6594   24.0552 C   0  0  0  0  0  0
  -25.9094  -34.9364   23.4998 C   0  0  0  0  0  0
  -16.5366  -29.9072   23.6337 C   0  0  0  0  0  0
  -16.7296  -28.6475   23.0378 C   0  0  0  0  0  0
  -26.4518  -31.6572   25.0684 C   0  0  0  0  0  0
  -25.3622  -31.3885   26.1332 C   0  0  0  0  0  0
  -27.0370  -30.2924   24.6429 C   0  0  0  0  0  0
  -27.5995  -32.4379   25.7497 C   0  0  0  0  0  0
  -27.5542  -37.1763   24.8459 C   0  0  0  0  0  0
  -21.4329  -29.3014   22.3571 N   0  0  0  0  0  0
  -26.4251  -37.3723   23.9424 N   0  0  0  0  0  0
  -24.7511  -30.9869   22.0818 N   0  0  0  0  0  0
  -23.4237  -28.7948   23.2983 O   0  0  0  0  0  0
  -28.1531  -25.7392   20.3602 O   0  0  0  0  0  0
  -26.5704  -34.8905   22.4593 O   0  0  0  0  0  0
  -23.5698  -32.1171   23.6753 O   0  0  0  0  0  0
  -30.2733  -17.6825   22.5052 C   0  0  0  0  0  0
  -29.5836  -19.8099   22.5953 C   0  0  0  0  0  0
  -30.1536  -18.8152   23.3422 C   0  0  0  0  0  0
  -29.6773  -17.8925   21.2857 C   0  0  0  0  0  0
  -30.5699  -18.8649   24.8033 C   0  0  0  0  0  0
  -28.7183  -22.5455   20.7358 C   0  0  0  0  0  0
  -28.4965  -20.7318   20.5096 C   0  0  0  0  0  0
  -27.8776  -24.0946   20.2204 C   0  0  0  0  0  0
  -29.2495  -19.4308   21.2899 N   0  0  0  0  0  0
  -29.5476  -16.5746   20.5813 N   0  0  0  0  0  0
  -31.4485  -13.0860   19.2203 H   0  0  0  0  0  0
  -30.5182  -11.9474   20.1460 H   0  0  0  0  0  0
  -29.9518  -11.7560   17.7074 H   0  0  0  0  0  0
  -29.5632  -13.4573   17.6471 H   0  0  0  0  0  0
  -28.0890  -11.2609   19.1341 H   0  0  0  0  0  0
  -27.4364  -12.2592   17.8572 H   0  0  0  0  0  0
  -27.5066  -14.2203   19.2845 H   0  0  0  0  0  0
  -28.7913  -12.5376   21.5011 H   0  0  0  0  0  0
  -28.2277  -14.1877   21.6641 H   0  0  0  0  0  0
  -25.2682   -9.5696   22.4745 H   0  0  0  0  0  0
  -23.9938   -7.4623   22.7462 H   0  0  0  0  0  0
  -21.0769   -8.8753   19.9001 H   0  0  0  0  0  0
  -22.3597  -10.9654   19.6194 H   0  0  0  0  0  0
  -21.1991   -7.6100   23.9669 H   0  0  0  0  0  0
  -21.1485   -6.0505   25.9070 H   0  0  0  0  0  0
  -22.0613   -2.7561   23.2869 H   0  0  0  0  0  0
  -22.3930  -11.9925   22.4931 H   0  0  0  0  0  0
  -21.0941  -13.1278   22.2659 H   0  0  0  0  0  0
  -24.6509  -15.8543   20.5370 H   0  0  0  0  0  0
  -26.2576  -15.6258   20.0711 H   0  0  0  0  0  0
  -26.7352  -32.5131   23.0853 H   0  0  0  0  0  0
  -25.0001  -33.9487   25.0126 H   0  0  0  0  0  0
  -22.7895  -31.2634   21.3466 H   0  0  0  0  0  0
  -23.3749  -35.9516   23.3299 H   0  0  0  0  0  0
  -24.3532  -36.8872   22.2060 H   0  0  0  0  0  0
  -23.7218  -37.6395   23.6704 H   0  0  0  0  0  0
  -26.2142  -31.3579   20.6105 H   0  0  0  0  0  0
  -26.9159  -30.6979   22.0364 H   0  0  0  0  0  0
  -28.1419  -28.5549   21.3010 H   0  0  0  0  0  0
  -25.8350  -25.6862   19.0638 H   0  0  0  0  0  0
  -23.9841  -27.2503   18.9834 H   0  0  0  0  0  0
  -23.8736  -30.5097   19.3872 H   0  0  0  0  0  0
  -22.8299  -29.2001   19.8290 H   0  0  0  0  0  0
  -25.1321  -36.1753   25.0793 H   0  0  0  0  0  0
  -21.0041  -28.3310   24.1333 H   0  0  0  0  0  0
  -20.5643  -26.2310   23.3663 H   0  0  0  0  0  0
  -21.6632  -26.7335   22.1227 H   0  0  0  0  0  0
  -19.6860  -25.6258   21.1284 H   0  0  0  0  0  0
  -19.6676  -27.3165   20.6769 H   0  0  0  0  0  0
  -17.4191  -26.6695   21.4078 H   0  0  0  0  0  0
  -18.0301  -26.0087   22.9055 H   0  0  0  0  0  0
  -19.7958  -30.7331   24.2196 H   0  0  0  0  0  0
  -17.5006  -31.6280   24.5140 H   0  0  0  0  0  0
  -15.5352  -30.2944   23.7695 H   0  0  0  0  0  0
  -15.8701  -28.0789   22.7113 H   0  0  0  0  0  0
  -24.5812  -30.7213   25.7670 H   0  0  0  0  0  0
  -24.8780  -32.3099   26.4557 H   0  0  0  0  0  0
  -25.7819  -30.9205   27.0235 H   0  0  0  0  0  0
  -26.2998  -29.6659   24.1383 H   0  0  0  0  0  0
  -27.3809  -29.7277   25.5100 H   0  0  0  0  0  0
  -27.8990  -30.4108   23.9875 H   0  0  0  0  0  0
  -27.2553  -33.3720   26.1964 H   0  0  0  0  0  0
  -28.3872  -32.6897   25.0383 H   0  0  0  0  0  0
  -28.0573  -31.8577   26.5527 H   0  0  0  0  0  0
  -28.2555  -38.0049   24.7491 H   0  0  0  0  0  0
  -28.1031  -36.2590   24.6299 H   0  0  0  0  0  0
  -27.2249  -37.1425   25.8852 H   0  0  0  0  0  0
  -20.9544  -29.8731   21.6760 H   0  0  0  0  0  0
  -26.0086  -38.2772   24.1493 H   0  0  0  0  0  0
  -30.6884  -16.7402   22.8437 H   0  0  0  0  0  0
  -29.3482  -20.8154   22.9289 H   0  0  0  0  0  0
  -29.9102  -19.5023   25.3887 H   0  0  0  0  0  0
  -31.5915  -19.2284   24.9256 H   0  0  0  0  0  0
  -30.5314  -17.8734   25.2617 H   0  0  0  0  0  0
  -29.7501  -22.6949   20.4214 H   0  0  0  0  0  0
  -28.7587  -22.6665   21.8164 H   0  0  0  0  0  0
  -28.5168  -20.5071   19.4471 H   0  0  0  0  0  0
  -27.4465  -20.5875   20.7669 H   0  0  0  0  0  0
  -27.7290  -23.9730   19.1454 H   0  0  0  0  0  0
  -26.8669  -23.9932   20.6207 H   0  0  0  0  0  0
  -28.5713  -16.3755   20.3979 H   0  0  0  0  0  0
  1 25  1  0  0  0
  1 30  2  0  0  0
  1 80  1  0  0  0
  2  3  1  0  0  0
  2 25  1  0  0  0
  2 81  1  0  0  0
  2 82  1  0  0  0
  3  4  1  0  0  0
  3 83  1  0  0  0
  3 84  1  0  0  0
  4  5  1  0  0  0
  4 85  1  0  0  0
  4 86  1  0  0  0
  5  6  1  0  0  0
  5 26  1  0  0  0
  5 87  1  0  0  0
  6 25  1  0  0  0
  6 88  1  0  0  0
  6 89  1  0  0  0
  7  8  2  0  0  0
  7 26  1  0  0  0
  7 29  1  0  0  0
  8  9  1  0  0  0
  8 22  1  0  0  0
  9 10  1  0  0  0
  9 27  2  0  0  0
 10 11  2  0  0  0
 10 15  1  0  0  0
 11 12  1  0  0  0
 11 90  1  0  0  0
 12 13  2  0  0  0
 12 91  1  0  0  0
 13 14  1  0  0  0
 13 31  1  0  0  0
 14 15  2  0  0  0
 14 92  1  0  0  0
 15 93  1  0  0  0
 16 17  2  0  0  0
 16 21  1  0  0  0
 16 31  1  0  0  0
 17 18  1  0  0  0
 17 94  1  0  0  0
 18 19  2  0  0  0
 18 95  1  0  0  0
 19 20  1  0  0  0
 19 24  1  0  0  0
 20 21  2  0  0  0
 20 96  1  0  0  0
 21 23  1  0  0  0
 22 28  1  0  0  0
 22 32  2  0  0  0
 26 27  1  0  0  0
 28 97  1  0  0  0
 28 98  1  0  0  0
 29 99  1  0  0  0
 29100  1  0  0  0
 33 34  1  0  0  0
 33 66  1  0  0  0
 33 70  2  0  0  0
 34 36  1  0  0  0
 34 59  1  0  0  0
 34101  1  0  0  0
 35 44  2  0  0  0
 35 45  1  0  0  0
 35 68  1  0  0  0
 36 56  1  0  0  0
 36102  1  0  0  0
 37 39  1  0  0  0
 37 47  1  0  0  0
 37 66  1  0  0  0
 37103  1  0  0  0
 38 43  2  0  0  0
 38 46  1  0  0  0
 38 47  1  0  0  0
 39 64  1  0  0  0
 39 67  2  0  0  0
 40 52  1  0  0  0
 40 53  2  0  0  0
 40 58  1  0  0  0
 41104  1  0  0  0
 41105  1  0  0  0
 41106  1  0  0  0
 41 48  1  0  0  0
 42 43  1  0  0  0
 42 66  1  0  0  0
 42107  1  0  0  0
 42108  1  0  0  0
 43 44  1  0  0  0
 44109  1  0  0  0
 45 46  2  0  0  0
 45110  1  0  0  0
 46111  1  0  0  0
 47112  1  0  0  0
 47113  1  0  0  0
 48 56  1  0  0  0
 48 65  1  0  0  0
 48114  1  0  0  0
 49 50  1  0  0  0
 49 53  1  0  0  0
 49 64  1  0  0  0
 49115  1  0  0  0
 50 51  1  0  0  0
 50116  1  0  0  0
 50117  1  0  0  0
 51 52  1  0  0  0
 51118  1  0  0  0
 51119  1  0  0  0
 52120  1  0  0  0
 52121  1  0  0  0
 53 54  1  0  0  0
 54 55  2  0  0  0
 54122  1  0  0  0
 55 57  1  0  0  0
 55123  1  0  0  0
 56 69  2  0  0  0
 57 58  2  0  0  0
 57124  1  0  0  0
 58125  1  0  0  0
 59 60  1  0  0  0
 59 61  1  0  0  0
 59 62  1  0  0  0
 60126  1  0  0  0
 60127  1  0  0  0
 60128  1  0  0  0
 61129  1  0  0  0
 61130  1  0  0  0
 61131  1  0  0  0
 62132  1  0  0  0
 62133  1  0  0  0
 62134  1  0  0  0
 63 65  1  0  0  0
 63135  1  0  0  0
 63136  1  0  0  0
 63137  1  0  0  0
 64138  1  0  0  0
 65139  1  0  0  0
 68 78  1  0  0  0
 71 73  1  0  0  0
 71 74  2  0  0  0
 71140  1  0  0  0
 72 73  2  0  0  0
 72 79  1  0  0  0
 72141  1  0  0  0
 73 75  1  0  0  0
 74 79  1  0  0  0
 74 80  1  0  0  0
 75142  1  0  0  0
 75143  1  0  0  0
 75144  1  0  0  0
 76 77  1  0  0  0
 76 78  1  0  0  0
 76145  1  0  0  0
 76146  1  0  0  0
 77 79  1  0  0  0
 77147  1  0  0  0
 77148  1  0  0  0
 78149  1  0  0  0
 78150  1  0  0  0
 80151  1  0  0  0
M  ISO  4   1 100  68 101  78 101  80 100
M  END
> <chiral flag>
0

> <version>
0

> <s_m_source_file>
/data/baiqing/PycharmProjects/Reinvent-master-3.2/result/LINK_invent/BTK/process_docking_weight1_custom_sum_contain_oxygen_bond_distance_aromatic_linkinvent_7_9_3/rearranged_h_0030.sdf

> <i_m_source_file_index>
62

> <r_mmod_Potential_Energy-OPLS-2005>
1564.95495605469

> <r_mmod_Stretch_Energy-OPLS-2005>
702.902526855469

> <r_mmod_Bend_Energy-OPLS-2005>
537.784484863281

> <r_mmod_Torsional_Energy-OPLS-2005>
250.744537353516

> <r_mmod_Improper_Torsional_Energy-OPLS-2005>
9.80963230133057

> <r_mmod_Van_der_Waal_Energy-OPLS-2005>
107.848701477051

> <r_mmod_Electrostatic_Energy-OPLS-2005>
-361.867828369141

> <r_mmod_Solvation_Energy-OPLS-2005>
-220.019073486328

> <b_mmod_Minimization_Converged-OPLS-2005>
0

> <r_mmod_RMS_Derivative-OPLS-2005>
7.80851888656616

$$$$
62
                    3D
 Structure written by MMmdl.
157166  0  0  1  0            999 V2000
  -30.6012  -14.7137   20.4702 C   0  0  0  0  0  0
  -30.4228  -12.4519   19.4338 C   0  0  0  0  0  0
  -29.4861  -12.5458   18.2078 C   0  0  0  0  0  0
  -28.0135  -12.3716   18.6188 C   0  0  0  0  0  0
  -27.6374  -13.2320   19.8504 C   0  0  2  0  0  0
  -28.6867  -13.1349   20.9797 C   0  0  0  0  0  0
  -25.2478  -13.8220   20.5551 C   0  0  0  0  0  0
  -24.1804  -13.0495   20.9205 C   0  0  0  0  0  0
  -24.6363  -11.6945   20.8745 C   0  0  0  0  0  0
  -23.9041  -10.4309   21.0385 C   0  0  0  0  0  0
  -24.3624   -9.4220   21.9137 C   0  0  0  0  0  0
  -23.6315   -8.2259   22.0736 C   0  0  0  0  0  0
  -22.4322   -8.0274   21.3509 C   0  0  0  0  0  0
  -21.9943   -9.0244   20.4641 C   0  0  0  0  0  0
  -22.7227  -10.2147   20.3008 C   0  0  0  0  0  0
  -21.6875   -6.0727   22.5263 C   0  0  0  0  0  0
  -21.4001   -6.5621   23.8186 C   0  0  0  0  0  0
  -21.3669   -5.6799   24.9163 C   0  0  0  0  0  0
  -21.6054   -4.3041   24.7223 C   0  0  0  0  0  0
  -21.8818   -3.8138   23.4324 C   0  0  0  0  0  0
  -21.9195   -4.6949   22.3390 C   0  0  0  0  0  0
  -22.7794  -13.5208   21.1854 C   0  0  0  0  0  0
  -22.1649   -4.2105   21.0971 F   0  0  0  0  0  0
  -21.5659   -3.4538   25.7729 F   0  0  0  0  0  0
  -29.9879  -13.4824   20.4045 N   0  0  0  0  0  0
  -26.2898  -12.9406   20.3249 N   0  0  0  0  0  0
  -25.9293  -11.6547   20.5799 N   0  0  0  0  0  0
  -22.0441  -12.8219   22.0431 N   0  0  0  0  0  0
  -25.4249  -15.1941   20.3737 N   0  0  0  0  0  0
  -31.7733  -14.8441   20.1074 O   0  0  0  0  0  0
  -21.6683   -6.8872   21.4222 O   0  0  0  0  0  0
  -22.3422  -14.5473   20.6623 O   0  0  0  0  0  0
  -24.6280  -31.8567   23.2008 C   0  0  0  0  0  0
  -25.9114  -32.4775   23.8362 C   0  0  1  0  0  0
  -27.2076  -27.2832   20.1235 C   0  0  0  0  0  0
  -25.5920  -33.8569   24.2274 N   0  0  0  0  0  0
  -23.4216  -30.4805   21.5440 C   0  0  2  0  0  0
  -24.8657  -28.9303   20.1080 C   0  0  0  0  0  0
  -22.7489  -29.4605   22.4927 C   0  0  0  0  0  0
  -18.0294  -28.1382   22.8488 C   0  0  0  0  0  0
  -24.1482  -36.7313   23.2640 C   0  0  0  0  0  0
  -25.9624  -30.7829   21.3683 C   0  0  0  0  0  0
  -26.0356  -29.4029   20.7167 C   0  0  0  0  0  0
  -27.2083  -28.5893   20.7181 C   0  0  0  0  0  0
  -26.0141  -26.8610   19.5035 C   0  0  0  0  0  0
  -24.8606  -27.6678   19.4921 C   0  0  0  0  0  0
  -23.6357  -29.8143   20.1581 C   0  0  0  0  0  0
  -25.4098  -36.3083   24.0324 C   0  0  1  0  0  0
  -20.5893  -28.3682   23.1288 C   0  0  2  0  0  0
  -20.6775  -26.9401   22.5420 C   0  0  0  0  0  0
  -19.5754  -26.6378   21.5219 C   0  0  0  0  0  0
  -18.1934  -26.7928   22.1627 C   0  0  0  0  0  0
  -19.1545  -28.8849   23.2886 C   0  0  0  0  0  0
  -18.9462  -30.1449   23.8904 C   0  0  0  0  0  0
  -17.6462  -30.6588   24.0542 C   0  0  0  0  0  0
  -25.9048  -34.9442   23.5111 C   0  0  0  0  0  0
  -16.5352  -29.9081   23.6310 C   0  0  0  0  0  0
  -16.7281  -28.6492   23.0346 C   0  0  0  0  0  0
  -26.4491  -31.6587   25.0740 C   0  0  0  0  0  0
  -25.3722  -31.3734   26.1478 C   0  0  0  0  0  0
  -27.0318  -30.3012   24.6174 C   0  0  0  0  0  0
  -27.6074  -32.4296   25.7523 C   0  0  0  0  0  0
  -27.5575  -37.1807   24.8450 C   0  0  0  0  0  0
  -21.4192  -29.3033   22.3691 N   0  0  0  0  0  0
  -26.4280  -37.3774   23.9422 N   0  0  0  0  0  0
  -24.6912  -31.0567   22.0953 N   0  0  0  0  0  0
  -23.4219  -28.8143   23.3013 O   0  0  0  0  0  0
  -28.3274  -26.4346   20.1954 O   0  0  0  0  0  0
  -26.5613  -34.8928   22.4682 O   0  0  0  0  0  0
  -23.5444  -32.1368   23.7342 O   0  0  0  0  0  0
  -30.8123  -20.3548   20.4864 C   0  0  0  0  0  0
  -30.2890  -22.7567   20.3302 C   0  0  0  0  0  0
  -28.9043  -22.4872   20.3872 C   0  0  0  0  0  0
  -29.4509  -19.9955   20.5664 C   0  0  0  0  0  0
  -31.2305  -21.6990   20.3995 C   0  0  0  0  0  0
  -28.5032  -21.0978   20.5414 C   0  0  0  0  0  0
  -30.7246  -24.2114   20.1841 C   0  0  0  0  0  0
  -27.9298  -23.7429   20.3372 C   0  0  0  0  0  0
  -29.8722  -24.9301   19.1296 C   0  0  0  0  0  0
  -28.4054  -25.0810   19.5675 C   0  0  2  0  0  0
  -29.0682  -18.4543   20.7330 C   0  0  0  0  0  0
  -30.1546  -17.2804   20.4529 C   0  0  0  0  0  0
  -29.8110  -15.8177   20.7219 N   0  0  0  0  0  0
  -32.9284  -22.0171   20.3706 Cl  0  0  0  0  0  0
  -26.8235  -20.7476   20.7444 Cl  0  0  0  0  0  0
  -31.4506  -12.6014   19.0974 H   0  0  0  0  0  0
  -30.3974  -11.4557   19.8797 H   0  0  0  0  0  0
  -29.7642  -11.8002   17.4640 H   0  0  0  0  0  0
  -29.6041  -13.5209   17.7252 H   0  0  0  0  0  0
  -27.8551  -11.3183   18.8400 H   0  0  0  0  0  0
  -27.3576  -12.6101   17.7781 H   0  0  0  0  0  0
  -27.6458  -14.2626   19.4991 H   0  0  0  0  0  0
  -28.7117  -12.1355   21.4126 H   0  0  0  0  0  0
  -28.4246  -13.8138   21.7913 H   0  0  0  0  0  0
  -25.2758   -9.5696   22.4712 H   0  0  0  0  0  0
  -24.0040   -7.4635   22.7427 H   0  0  0  0  0  0
  -21.0872   -8.8713   19.8949 H   0  0  0  0  0  0
  -22.3641  -10.9665   19.6107 H   0  0  0  0  0  0
  -21.1980   -7.6136   23.9641 H   0  0  0  0  0  0
  -21.1502   -6.0556   25.9061 H   0  0  0  0  0  0
  -22.0605   -2.7587   23.2851 H   0  0  0  0  0  0
  -22.4142  -11.9964   22.4931 H   0  0  0  0  0  0
  -21.0962  -13.1091   22.2512 H   0  0  0  0  0  0
  -24.6602  -15.8615   20.4109 H   0  0  0  0  0  0
  -26.2614  -15.5803   19.9543 H   0  0  0  0  0  0
  -26.7200  -32.5427   23.1135 H   0  0  0  0  0  0
  -25.0006  -33.9695   25.0381 H   0  0  0  0  0  0
  -22.7175  -31.3027   21.4019 H   0  0  0  0  0  0
  -23.3731  -35.9660   23.3265 H   0  0  0  0  0  0
  -24.3583  -36.8967   22.2061 H   0  0  0  0  0  0
  -23.7244  -37.6513   23.6678 H   0  0  0  0  0  0
  -26.0808  -31.5388   20.5914 H   0  0  0  0  0  0
  -26.8496  -30.8469   21.9865 H   0  0  0  0  0  0
  -28.1049  -28.9419   21.2111 H   0  0  0  0  0  0
  -25.9333  -25.8819   19.0526 H   0  0  0  0  0  0
  -23.9631  -27.2939   19.0221 H   0  0  0  0  0  0
  -23.7575  -30.5922   19.4036 H   0  0  0  0  0  0
  -22.7531  -29.2494   19.8505 H   0  0  0  0  0  0
  -25.1281  -36.1932   25.0814 H   0  0  0  0  0  0
  -20.9992  -28.3246   24.1405 H   0  0  0  0  0  0
  -20.5684  -26.2277   23.3608 H   0  0  0  0  0  0
  -21.6633  -26.7437   22.1192 H   0  0  0  0  0  0
  -19.6901  -25.6292   21.1235 H   0  0  0  0  0  0
  -19.6695  -27.3184   20.6740 H   0  0  0  0  0  0
  -17.4204  -26.6689   21.4020 H   0  0  0  0  0  0
  -18.0327  -26.0074   22.9025 H   0  0  0  0  0  0
  -19.7937  -30.7258   24.2288 H   0  0  0  0  0  0
  -17.5012  -31.6267   24.5149 H   0  0  0  0  0  0
  -15.5348  -30.2983   23.7634 H   0  0  0  0  0  0
  -15.8677  -28.0809   22.7059 H   0  0  0  0  0  0
  -24.5893  -30.7080   25.7828 H   0  0  0  0  0  0
  -24.8910  -32.2886   26.4934 H   0  0  0  0  0  0
  -25.8051  -30.8906   27.0249 H   0  0  0  0  0  0
  -26.2871  -29.6796   24.1183 H   0  0  0  0  0  0
  -27.4001  -29.7261   25.4688 H   0  0  0  0  0  0
  -27.8759  -30.4337   23.9399 H   0  0  0  0  0  0
  -27.2707  -33.3583   26.2161 H   0  0  0  0  0  0
  -28.3877  -32.6861   25.0336 H   0  0  0  0  0  0
  -28.0752  -31.8352   26.5393 H   0  0  0  0  0  0
  -28.2574  -38.0123   24.7500 H   0  0  0  0  0  0
  -28.1081  -36.2645   24.6246 H   0  0  0  0  0  0
  -27.2295  -37.1424   25.8855 H   0  0  0  0  0  0
  -20.9383  -29.8770   21.6899 H   0  0  0  0  0  0
  -26.0147  -38.2850   24.1424 H   0  0  0  0  0  0
  -31.5731  -19.5884   20.5097 H   0  0  0  0  0  0
  -31.7673  -24.2984   19.8928 H   0  0  0  0  0  0
  -30.6277  -24.7014   21.1562 H   0  0  0  0  0  0
  -27.6839  -24.0000   21.3668 H   0  0  0  0  0  0
  -26.9889  -23.4172   19.8958 H   0  0  0  0  0  0
  -29.9243  -24.3601   18.1974 H   0  0  0  0  0  0
  -30.3006  -25.9064   18.8979 H   0  0  0  0  0  0
  -27.8630  -25.1171   18.6226 H   0  0  0  0  0  0
  -28.2122  -18.2864   20.0767 H   0  0  0  0  0  0
  -28.6951  -18.3386   21.7512 H   0  0  0  0  0  0
  -31.0617  -17.4844   21.0182 H   0  0  0  0  0  0
  -30.4502  -17.3546   19.4064 H   0  0  0  0  0  0
  -28.8767  -15.6182   21.0535 H   0  0  0  0  0  0
  1 25  1  0  0  0
  1 30  2  0  0  0
  1 83  1  0  0  0
  2  3  1  0  0  0
  2 25  1  0  0  0
  2 86  1  0  0  0
  2 87  1  0  0  0
  3  4  1  0  0  0
  3 88  1  0  0  0
  3 89  1  0  0  0
  4  5  1  0  0  0
  4 90  1  0  0  0
  4 91  1  0  0  0
  5  6  1  0  0  0
  5 26  1  0  0  0
  5 92  1  0  0  0
  6 25  1  0  0  0
  6 93  1  0  0  0
  6 94  1  0  0  0
  7  8  2  0  0  0
  7 26  1  0  0  0
  7 29  1  0  0  0
  8  9  1  0  0  0
  8 22  1  0  0  0
  9 10  1  0  0  0
  9 27  2  0  0  0
 10 11  2  0  0  0
 10 15  1  0  0  0
 11 12  1  0  0  0
 11 95  1  0  0  0
 12 13  2  0  0  0
 12 96  1  0  0  0
 13 14  1  0  0  0
 13 31  1  0  0  0
 14 15  2  0  0  0
 14 97  1  0  0  0
 15 98  1  0  0  0
 16 17  2  0  0  0
 16 21  1  0  0  0
 16 31  1  0  0  0
 17 18  1  0  0  0
 17 99  1  0  0  0
 18 19  2  0  0  0
 18100  1  0  0  0
 19 20  1  0  0  0
 19 24  1  0  0  0
 20 21  2  0  0  0
 20101  1  0  0  0
 21 23  1  0  0  0
 22 28  1  0  0  0
 22 32  2  0  0  0
 26 27  1  0  0  0
 28102  1  0  0  0
 28103  1  0  0  0
 29104  1  0  0  0
 29105  1  0  0  0
 33 34  1  0  0  0
 33 66  1  0  0  0
 33 70  2  0  0  0
 34 36  1  0  0  0
 34 59  1  0  0  0
 34106  1  0  0  0
 35 44  2  0  0  0
 35 45  1  0  0  0
 35 68  1  0  0  0
 36 56  1  0  0  0
 36107  1  0  0  0
 37 39  1  0  0  0
 37 47  1  0  0  0
 37 66  1  0  0  0
 37108  1  0  0  0
 38 43  2  0  0  0
 38 46  1  0  0  0
 38 47  1  0  0  0
 39 64  1  0  0  0
 39 67  2  0  0  0
 40 52  1  0  0  0
 40 53  2  0  0  0
 40 58  1  0  0  0
 41109  1  0  0  0
 41110  1  0  0  0
 41111  1  0  0  0
 41 48  1  0  0  0
 42 43  1  0  0  0
 42 66  1  0  0  0
 42112  1  0  0  0
 42113  1  0  0  0
 43 44  1  0  0  0
 44114  1  0  0  0
 45 46  2  0  0  0
 45115  1  0  0  0
 46116  1  0  0  0
 47117  1  0  0  0
 47118  1  0  0  0
 48 56  1  0  0  0
 48 65  1  0  0  0
 48119  1  0  0  0
 49 50  1  0  0  0
 49 53  1  0  0  0
 49 64  1  0  0  0
 49120  1  0  0  0
 50 51  1  0  0  0
 50121  1  0  0  0
 50122  1  0  0  0
 51 52  1  0  0  0
 51123  1  0  0  0
 51124  1  0  0  0
 52125  1  0  0  0
 52126  1  0  0  0
 53 54  1  0  0  0
 54 55  2  0  0  0
 54127  1  0  0  0
 55 57  1  0  0  0
 55128  1  0  0  0
 56 69  2  0  0  0
 57 58  2  0  0  0
 57129  1  0  0  0
 58130  1  0  0  0
 59 60  1  0  0  0
 59 61  1  0  0  0
 59 62  1  0  0  0
 60131  1  0  0  0
 60132  1  0  0  0
 60133  1  0  0  0
 61134  1  0  0  0
 61135  1  0  0  0
 61136  1  0  0  0
 62137  1  0  0  0
 62138  1  0  0  0
 62139  1  0  0  0
 63 65  1  0  0  0
 63140  1  0  0  0
 63141  1  0  0  0
 63142  1  0  0  0
 64143  1  0  0  0
 65144  1  0  0  0
 68 80  1  0  0  0
 71 74  2  0  0  0
 71 75  1  0  0  0
 71145  1  0  0  0
 72 73  1  0  0  0
 72 75  2  0  0  0
 72 77  1  0  0  0
 73 76  2  0  0  0
 73 78  1  0  0  0
 74 76  1  0  0  0
 74 81  1  0  0  0
 75 84  1  0  0  0
 76 85  1  0  0  0
 77 79  1  0  0  0
 77146  1  0  0  0
 77147  1  0  0  0
 78 80  1  0  0  0
 78148  1  0  0  0
 78149  1  0  0  0
 79 80  1  0  0  0
 79150  1  0  0  0
 79151  1  0  0  0
 80152  1  0  0  0
 81 82  1  0  0  0
 81153  1  0  0  0
 81154  1  0  0  0
 82 83  1  0  0  0
 82155  1  0  0  0
 82156  1  0  0  0
 83157  1  0  0  0
M  ISO  4   1 100  68 101  80 101  83 100
M  END
> <chiral flag>
0

> <version>
0

> <s_m_source_file>
/data/baiqing/PycharmProjects/Reinvent-master-3.2/result/LINK_invent/BTK/process_docking_weight1_custom_sum_contain_oxygen_bond_distance_aromatic_linkinvent_7_9_3/rearranged_h_0030.sdf

> <i_m_source_file_index>
63

> <r_mmod_Potential_Energy-OPLS-2005>
109.743194580078

> <r_mmod_Stretch_Energy-OPLS-2005>
112.558471679688

> <r_mmod_Bend_Energy-OPLS-2005>
158.244781494141

> <r_mmod_Torsional_Energy-OPLS-2005>
214.958999633789

> <r_mmod_Improper_Torsional_Energy-OPLS-2005>
6.23931312561035

> <r_mmod_Van_der_Waal_Energy-OPLS-2005>
144.686508178711

> <r_mmod_Electrostatic_Energy-OPLS-2005>
-389.641082763672

> <r_mmod_Solvation_Energy-OPLS-2005>
-208.209823608398

> <b_mmod_Minimization_Converged-OPLS-2005>
0

> <r_mmod_RMS_Derivative-OPLS-2005>
6.46314668655396

$$$$
63
                    3D
 Structure written by MMmdl.
161169  0  0  1  0            999 V2000
  -30.7391  -14.4064   20.6268 C   0  0  0  0  0  0
  -30.4139  -12.2947   19.3999 C   0  0  0  0  0  0
  -29.4817  -12.5115   18.1917 C   0  0  0  0  0  0
  -28.0059  -12.3761   18.6129 C   0  0  0  0  0  0
  -27.6628  -13.2049   19.8802 C   0  0  2  0  0  0
  -28.7032  -12.9582   20.9959 C   0  0  0  0  0  0
  -25.2558  -13.8160   20.5643 C   0  0  0  0  0  0
  -24.1807  -13.0427   20.9146 C   0  0  0  0  0  0
  -24.6370  -11.6903   20.8704 C   0  0  0  0  0  0
  -23.9042  -10.4277   21.0368 C   0  0  0  0  0  0
  -24.3602   -9.4195   21.9146 C   0  0  0  0  0  0
  -23.6275   -8.2230   22.0730 C   0  0  0  0  0  0
  -22.4259   -8.0261   21.3519 C   0  0  0  0  0  0
  -21.9884   -9.0230   20.4621 C   0  0  0  0  0  0
  -22.7215  -10.2109   20.3023 C   0  0  0  0  0  0
  -21.6856   -6.0712   22.5268 C   0  0  0  0  0  0
  -21.4027   -6.5627   23.8198 C   0  0  0  0  0  0
  -21.3647   -5.6783   24.9162 C   0  0  0  0  0  0
  -21.6042   -4.3050   24.7223 C   0  0  0  0  0  0
  -21.8822   -3.8131   23.4354 C   0  0  0  0  0  0
  -21.9188   -4.6936   22.3402 C   0  0  0  0  0  0
  -22.7826  -13.5216   21.1830 C   0  0  0  0  0  0
  -22.1645   -4.2114   21.0977 F   0  0  0  0  0  0
  -21.5625   -3.4539   25.7737 F   0  0  0  0  0  0
  -30.0397  -13.2556   20.4482 N   0  0  0  0  0  0
  -26.3011  -12.9334   20.3386 N   0  0  0  0  0  0
  -25.9300  -11.6491   20.5772 N   0  0  0  0  0  0
  -22.0516  -12.8200   22.0429 N   0  0  0  0  0  0
  -25.4260  -15.1873   20.4030 N   0  0  0  0  0  0
  -31.8110  -14.6422   20.0627 O   0  0  0  0  0  0
  -21.6646   -6.8845   21.4217 O   0  0  0  0  0  0
  -22.3476  -14.5504   20.6672 O   0  0  0  0  0  0
  -24.6121  -31.8707   23.2124 C   0  0  0  0  0  0
  -25.9023  -32.4839   23.8414 C   0  0  1  0  0  0
  -27.2351  -27.4692   20.0806 C   0  0  0  0  0  0
  -25.5888  -33.8638   24.2339 N   0  0  0  0  0  0
  -23.3998  -30.4946   21.5517 C   0  0  2  0  0  0
  -24.8460  -28.9604   20.1188 C   0  0  0  0  0  0
  -22.7401  -29.4673   22.4993 C   0  0  0  0  0  0
  -18.0274  -28.1390   22.8493 C   0  0  0  0  0  0
  -24.1483  -36.7327   23.2636 C   0  0  0  0  0  0
  -25.9255  -30.8431   21.3619 C   0  0  0  0  0  0
  -26.0040  -29.4776   20.7143 C   0  0  0  0  0  0
  -27.2032  -28.7343   20.7025 C   0  0  0  0  0  0
  -26.0620  -26.9477   19.5001 C   0  0  0  0  0  0
  -24.8659  -27.6898   19.5156 C   0  0  0  0  0  0
  -23.6089  -29.8274   20.1662 C   0  0  0  0  0  0
  -25.4103  -36.3123   24.0339 C   0  0  1  0  0  0
  -20.5861  -28.3674   23.1326 C   0  0  2  0  0  0
  -20.6765  -26.9410   22.5428 C   0  0  0  0  0  0
  -19.5745  -26.6393   21.5223 C   0  0  0  0  0  0
  -18.1921  -26.7938   22.1626 C   0  0  0  0  0  0
  -19.1521  -28.8847   23.2907 C   0  0  0  0  0  0
  -18.9450  -30.1452   23.8923 C   0  0  0  0  0  0
  -17.6453  -30.6593   24.0576 C   0  0  0  0  0  0
  -25.9029  -34.9486   23.5138 C   0  0  0  0  0  0
  -16.5344  -29.9103   23.6320 C   0  0  0  0  0  0
  -16.7263  -28.6521   23.0335 C   0  0  0  0  0  0
  -26.4463  -31.6613   25.0733 C   0  0  0  0  0  0
  -25.3743  -31.3715   26.1491 C   0  0  0  0  0  0
  -27.0278  -30.3059   24.6080 C   0  0  0  0  0  0
  -27.6042  -32.4337   25.7491 C   0  0  0  0  0  0
  -27.5587  -37.1811   24.8459 C   0  0  0  0  0  0
  -21.4131  -29.3040   22.3730 N   0  0  0  0  0  0
  -26.4292  -37.3808   23.9414 N   0  0  0  0  0  0
  -24.6642  -31.0831   22.1011 N   0  0  0  0  0  0
  -23.4180  -28.8214   23.3031 O   0  0  0  0  0  0
  -28.3887  -26.7318   20.0463 O   0  0  0  0  0  0
  -26.5592  -34.8934   22.4696 O   0  0  0  0  0  0
  -23.5323  -32.1439   23.7536 O   0  0  0  0  0  0
  -29.8609  -23.1046   19.0225 C   0  0  0  0  0  0
  -28.0573  -24.1528   17.8092 C   0  0  0  0  0  0
  -29.2776  -24.2734   18.4992 C   0  0  0  0  0  0
  -29.2194  -21.8648   18.8336 C   0  0  0  0  0  0
  -28.0007  -21.8529   18.1169 C   0  0  0  0  0  0
  -30.0044  -25.6120   18.6256 C   0  0  0  0  0  0
  -29.8884  -20.5837   19.3378 C   0  0  0  0  0  0
  -29.8462  -17.7610   21.0095 C   0  0  0  0  0  0
  -30.6651  -16.6585   21.7153 C   0  0  0  0  0  0
  -30.3624  -19.1775   21.3524 C   0  0  0  0  0  0
  -29.1042  -26.8445   18.8231 C   0  0  0  0  0  0
  -27.4309  -22.9747   17.6267 N   0  0  0  0  0  0
  -30.1584  -15.3146   21.4232 N   0  0  0  0  0  0
  -29.5616  -20.2696   20.7487 N   0  3  0  0  0  0
  -27.1648  -20.3679   17.8284 Cl  0  0  0  0  0  0
  -31.4566  -12.3921   19.0925 H   0  0  0  0  0  0
  -30.3123  -11.2770   19.7805 H   0  0  0  0  0  0
  -29.7130  -11.7860   17.4101 H   0  0  0  0  0  0
  -29.6519  -13.4956   17.7534 H   0  0  0  0  0  0
  -27.8137  -11.3201   18.8043 H   0  0  0  0  0  0
  -27.3516  -12.6573   17.7871 H   0  0  0  0  0  0
  -27.7172  -14.2589   19.6040 H   0  0  0  0  0  0
  -28.6708  -11.9172   21.3190 H   0  0  0  0  0  0
  -28.4553  -13.5401   21.8849 H   0  0  0  0  0  0
  -25.2753   -9.5682   22.4705 H   0  0  0  0  0  0
  -23.9984   -7.4628   22.7456 H   0  0  0  0  0  0
  -21.0816   -8.8745   19.8929 H   0  0  0  0  0  0
  -22.3671  -10.9628   19.6119 H   0  0  0  0  0  0
  -21.2046   -7.6141   23.9693 H   0  0  0  0  0  0
  -21.1457   -6.0518   25.9060 H   0  0  0  0  0  0
  -22.0623   -2.7595   23.2870 H   0  0  0  0  0  0
  -22.4202  -11.9909   22.4833 H   0  0  0  0  0  0
  -21.1096  -13.1118   22.2611 H   0  0  0  0  0  0
  -24.6602  -15.8427   20.5143 H   0  0  0  0  0  0
  -26.2830  -15.6279   20.0931 H   0  0  0  0  0  0
  -26.7100  -32.5565   23.1190 H   0  0  0  0  0  0
  -25.0046  -33.9808   25.0489 H   0  0  0  0  0  0
  -22.6880  -31.3109   21.4133 H   0  0  0  0  0  0
  -23.3745  -35.9661   23.3300 H   0  0  0  0  0  0
  -24.3583  -36.8940   22.2051 H   0  0  0  0  0  0
  -23.7234  -37.6534   23.6648 H   0  0  0  0  0  0
  -26.0309  -31.6066   20.5902 H   0  0  0  0  0  0
  -26.8164  -30.9016   21.9752 H   0  0  0  0  0  0
  -28.1004  -29.1293   21.1579 H   0  0  0  0  0  0
  -26.0727  -25.9712   19.0381 H   0  0  0  0  0  0
  -23.9716  -27.2813   19.0650 H   0  0  0  0  0  0
  -23.7248  -30.6038   19.4087 H   0  0  0  0  0  0
  -22.7324  -29.2517   19.8644 H   0  0  0  0  0  0
  -25.1276  -36.1994   25.0834 H   0  0  0  0  0  0
  -20.9955  -28.3245   24.1444 H   0  0  0  0  0  0
  -20.5679  -26.2284   23.3614 H   0  0  0  0  0  0
  -21.6636  -26.7463   22.1216 H   0  0  0  0  0  0
  -19.6908  -25.6307   21.1244 H   0  0  0  0  0  0
  -19.6689  -27.3212   20.6760 H   0  0  0  0  0  0
  -17.4195  -26.6692   21.4021 H   0  0  0  0  0  0
  -18.0310  -26.0079   22.9020 H   0  0  0  0  0  0
  -19.7925  -30.7261   24.2303 H   0  0  0  0  0  0
  -17.5010  -31.6272   24.5183 H   0  0  0  0  0  0
  -15.5346  -30.3018   23.7632 H   0  0  0  0  0  0
  -15.8660  -28.0863   22.7020 H   0  0  0  0  0  0
  -24.5916  -30.7053   25.7846 H   0  0  0  0  0  0
  -24.8931  -32.2867   26.4952 H   0  0  0  0  0  0
  -25.8115  -30.8892   27.0241 H   0  0  0  0  0  0
  -26.2802  -29.6844   24.1134 H   0  0  0  0  0  0
  -27.4054  -29.7276   25.4522 H   0  0  0  0  0  0
  -27.8640  -30.4387   23.9209 H   0  0  0  0  0  0
  -27.2651  -33.3622   26.2097 H   0  0  0  0  0  0
  -28.3829  -32.6925   25.0305 H   0  0  0  0  0  0
  -28.0728  -31.8447   26.5381 H   0  0  0  0  0  0
  -28.2593  -38.0120   24.7534 H   0  0  0  0  0  0
  -28.1091  -36.2655   24.6243 H   0  0  0  0  0  0
  -27.2312  -37.1417   25.8862 H   0  0  0  0  0  0
  -20.9290  -29.8770   21.6959 H   0  0  0  0  0  0
  -26.0183  -38.2886   24.1434 H   0  0  0  0  0  0
  -30.8065  -23.1530   19.5438 H   0  0  0  0  0  0
  -27.5706  -25.0106   17.3681 H   0  0  0  0  0  0
  -30.6086  -25.7495   17.7274 H   0  0  0  0  0  0
  -30.7096  -25.5586   19.4557 H   0  0  0  0  0  0
  -30.9677  -20.7124   19.2447 H   0  0  0  0  0  0
  -29.6418  -19.7393   18.6940 H   0  0  0  0  0  0
  -28.7971  -17.6757   21.2980 H   0  0  0  0  0  0
  -29.8852  -17.6065   19.9311 H   0  0  0  0  0  0
  -30.6240  -16.8042   22.7949 H   0  0  0  0  0  0
  -31.7196  -16.7452   21.4456 H   0  0  0  0  0  0
  -30.3353  -19.3122   22.4342 H   0  0  0  0  0  0
  -31.4097  -19.2789   21.0630 H   0  0  0  0  0  0
  -28.4397  -26.9750   17.9675 H   0  0  0  0  0  0
  -29.7210  -27.7424   18.8673 H   0  0  0  0  0  0
  -29.2878  -15.0421   21.8549 H   0  0  0  0  0  0
  -28.5833  -20.0548   20.8496 H   0  0  0  0  0  0
  -29.7434  -21.0942   21.2990 H   0  0  0  0  0  0
  1 25  1  0  0  0
  1 30  2  0  0  0
  1 83  1  0  0  0
  2  3  1  0  0  0
  2 25  1  0  0  0
  2 86  1  0  0  0
  2 87  1  0  0  0
  3  4  1  0  0  0
  3 88  1  0  0  0
  3 89  1  0  0  0
  4  5  1  0  0  0
  4 90  1  0  0  0
  4 91  1  0  0  0
  5  6  1  0  0  0
  5 26  1  0  0  0
  5 92  1  0  0  0
  6 25  1  0  0  0
  6 93  1  0  0  0
  6 94  1  0  0  0
  7  8  2  0  0  0
  7 26  1  0  0  0
  7 29  1  0  0  0
  8  9  1  0  0  0
  8 22  1  0  0  0
  9 10  1  0  0  0
  9 27  2  0  0  0
 10 11  2  0  0  0
 10 15  1  0  0  0
 11 12  1  0  0  0
 11 95  1  0  0  0
 12 13  2  0  0  0
 12 96  1  0  0  0
 13 14  1  0  0  0
 13 31  1  0  0  0
 14 15  2  0  0  0
 14 97  1  0  0  0
 15 98  1  0  0  0
 16 17  2  0  0  0
 16 21  1  0  0  0
 16 31  1  0  0  0
 17 18  1  0  0  0
 17 99  1  0  0  0
 18 19  2  0  0  0
 18100  1  0  0  0
 19 20  1  0  0  0
 19 24  1  0  0  0
 20 21  2  0  0  0
 20101  1  0  0  0
 21 23  1  0  0  0
 22 28  1  0  0  0
 22 32  2  0  0  0
 26 27  1  0  0  0
 28102  1  0  0  0
 28103  1  0  0  0
 29104  1  0  0  0
 29105  1  0  0  0
 33 34  1  0  0  0
 33 66  1  0  0  0
 33 70  2  0  0  0
 34 36  1  0  0  0
 34 59  1  0  0  0
 34106  1  0  0  0
 35 44  2  0  0  0
 35 45  1  0  0  0
 35 68  1  0  0  0
 36 56  1  0  0  0
 36107  1  0  0  0
 37 39  1  0  0  0
 37 47  1  0  0  0
 37 66  1  0  0  0
 37108  1  0  0  0
 38 43  2  0  0  0
 38 46  1  0  0  0
 38 47  1  0  0  0
 39 64  1  0  0  0
 39 67  2  0  0  0
 40 52  1  0  0  0
 40 53  2  0  0  0
 40 58  1  0  0  0
 41109  1  0  0  0
 41110  1  0  0  0
 41111  1  0  0  0
 41 48  1  0  0  0
 42 43  1  0  0  0
 42 66  1  0  0  0
 42112  1  0  0  0
 42113  1  0  0  0
 43 44  1  0  0  0
 44114  1  0  0  0
 45 46  2  0  0  0
 45115  1  0  0  0
 46116  1  0  0  0
 47117  1  0  0  0
 47118  1  0  0  0
 48 56  1  0  0  0
 48 65  1  0  0  0
 48119  1  0  0  0
 49 50  1  0  0  0
 49 53  1  0  0  0
 49 64  1  0  0  0
 49120  1  0  0  0
 50 51  1  0  0  0
 50121  1  0  0  0
 50122  1  0  0  0
 51 52  1  0  0  0
 51123  1  0  0  0
 51124  1  0  0  0
 52125  1  0  0  0
 52126  1  0  0  0
 53 54  1  0  0  0
 54 55  2  0  0  0
 54127  1  0  0  0
 55 57  1  0  0  0
 55128  1  0  0  0
 56 69  2  0  0  0
 57 58  2  0  0  0
 57129  1  0  0  0
 58130  1  0  0  0
 59 60  1  0  0  0
 59 61  1  0  0  0
 59 62  1  0  0  0
 60131  1  0  0  0
 60132  1  0  0  0
 60133  1  0  0  0
 61134  1  0  0  0
 61135  1  0  0  0
 61136  1  0  0  0
 62137  1  0  0  0
 62138  1  0  0  0
 62139  1  0  0  0
 63 65  1  0  0  0
 63140  1  0  0  0
 63141  1  0  0  0
 63142  1  0  0  0
 64143  1  0  0  0
 65144  1  0  0  0
 68 81  1  0  0  0
 71 73  2  0  0  0
 71 74  1  0  0  0
 71145  1  0  0  0
 72 73  1  0  0  0
 72 82  2  0  0  0
 72146  1  0  0  0
 73 76  1  0  0  0
 74 75  2  0  0  0
 74 77  1  0  0  0
 75 82  1  0  0  0
 75 85  1  0  0  0
 76 81  1  0  0  0
 76147  1  0  0  0
 76148  1  0  0  0
 77 84  1  0  0  0
 77149  1  0  0  0
 77150  1  0  0  0
 78 79  1  0  0  0
 78 80  1  0  0  0
 78151  1  0  0  0
 78152  1  0  0  0
 79 83  1  0  0  0
 79153  1  0  0  0
 79154  1  0  0  0
 80 84  1  0  0  0
 80155  1  0  0  0
 80156  1  0  0  0
 81157  1  0  0  0
 81158  1  0  0  0
 83159  1  0  0  0
 84160  1  0  0  0
 84161  1  0  0  0
M  CHG  1  84   1
M  ISO  4   1 100  68 101  81 101  83 100
M  END
> <chiral flag>
0

> <version>
0

> <s_m_source_file>
/data/baiqing/PycharmProjects/Reinvent-master-3.2/result/LINK_invent/BTK/process_docking_weight1_custom_sum_contain_oxygen_bond_distance_aromatic_linkinvent_7_9_3/rearranged_h_0030.sdf

> <i_m_source_file_index>
64

> <r_mmod_Potential_Energy-OPLS-2005>
-424.39599609375

> <r_mmod_Stretch_Energy-OPLS-2005>
32.219539642334

> <r_mmod_Bend_Energy-OPLS-2005>
88.2148284912109

> <r_mmod_Torsional_Energy-OPLS-2005>
206.773086547852

> <r_mmod_Improper_Torsional_Energy-OPLS-2005>
2.15124154090881

> <r_mmod_Van_der_Waal_Energy-OPLS-2005>
149.334518432617

> <r_mmod_Electrostatic_Energy-OPLS-2005>
-422.280029296875

> <r_mmod_Solvation_Energy-OPLS-2005>
-488.254333496094

> <b_mmod_Minimization_Converged-OPLS-2005>
0

> <r_mmod_RMS_Derivative-OPLS-2005>
2.00898313522339

$$$$
64
                    3D
 Structure written by MMmdl.
153161  0  0  1  0            999 V2000
  -30.5543  -14.9342   20.3999 C   0  0  0  0  0  0
  -30.4402  -12.5688   19.5015 C   0  0  0  0  0  0
  -29.5227  -12.5258   18.2574 C   0  0  0  0  0  0
  -28.0487  -12.3333   18.6616 C   0  0  0  0  0  0
  -27.6303  -13.2556   19.8343 C   0  0  2  0  0  0
  -28.6760  -13.2739   20.9708 C   0  0  0  0  0  0
  -25.2450  -13.8208   20.5708 C   0  0  0  0  0  0
  -24.1794  -13.0452   20.9250 C   0  0  0  0  0  0
  -24.6400  -11.6915   20.8743 C   0  0  0  0  0  0
  -23.9065  -10.4296   21.0400 C   0  0  0  0  0  0
  -24.3631   -9.4209   21.9170 C   0  0  0  0  0  0
  -23.6317   -8.2240   22.0729 C   0  0  0  0  0  0
  -22.4283   -8.0293   21.3557 C   0  0  0  0  0  0
  -21.9938   -9.0237   20.4633 C   0  0  0  0  0  0
  -22.7241  -10.2115   20.3049 C   0  0  0  0  0  0
  -21.6881   -6.0747   22.5270 C   0  0  0  0  0  0
  -21.4015   -6.5642   23.8198 C   0  0  0  0  0  0
  -21.3676   -5.6803   24.9171 C   0  0  0  0  0  0
  -21.6067   -4.3063   24.7232 C   0  0  0  0  0  0
  -21.8818   -3.8150   23.4345 C   0  0  0  0  0  0
  -21.9185   -4.6972   22.3397 C   0  0  0  0  0  0
  -22.7788  -13.5171   21.1885 C   0  0  0  0  0  0
  -22.1676   -4.2152   21.0981 F   0  0  0  0  0  0
  -21.5617   -3.4539   25.7737 F   0  0  0  0  0  0
  -29.9586  -13.6743   20.3775 N   0  0  0  0  0  0
  -26.2888  -12.9464   20.3208 N   0  0  0  0  0  0
  -25.9343  -11.6579   20.5727 N   0  0  0  0  0  0
  -22.0485  -12.8180   22.0441 N   0  0  0  0  0  0
  -25.4104  -15.1951   20.4066 N   0  0  0  0  0  0
  -31.7570  -14.9916   20.1243 O   0  0  0  0  0  0
  -21.6671   -6.8884   21.4229 O   0  0  0  0  0  0
  -22.3476  -14.5470   20.6704 O   0  0  0  0  0  0
  -24.6511  -31.8375   23.1853 C   0  0  0  0  0  0
  -25.9216  -32.4680   23.8261 C   0  0  1  0  0  0
  -27.2347  -27.1055   20.1562 C   0  0  0  0  0  0
  -25.5930  -33.8482   24.2160 N   0  0  0  0  0  0
  -23.4572  -30.4555   21.5292 C   0  0  2  0  0  0
  -24.9110  -28.8671   20.1211 C   0  0  0  0  0  0
  -22.7586  -29.4493   22.4825 C   0  0  0  0  0  0
  -18.0314  -28.1382   22.8453 C   0  0  0  0  0  0
  -24.1439  -36.7230   23.2644 C   0  0  0  0  0  0
  -26.0178  -30.6970   21.3942 C   0  0  0  0  0  0
  -26.0921  -29.3068   20.7358 C   0  0  0  0  0  0
  -27.2562  -28.4430   20.7321 C   0  0  0  0  0  0
  -26.0234  -26.7730   19.5094 C   0  0  0  0  0  0
  -24.8908  -27.6111   19.4960 C   0  0  0  0  0  0
  -23.6911  -29.7750   20.1552 C   0  0  0  0  0  0
  -25.4096  -36.3031   24.0322 C   0  0  1  0  0  0
  -20.5927  -28.3712   23.1229 C   0  0  2  0  0  0
  -20.6773  -26.9406   22.5424 C   0  0  0  0  0  0
  -19.5756  -26.6350   21.5219 C   0  0  0  0  0  0
  -18.1934  -26.7909   22.1624 C   0  0  0  0  0  0
  -19.1569  -28.8866   23.2817 C   0  0  0  0  0  0
  -18.9471  -30.1423   23.8874 C   0  0  0  0  0  0
  -17.6489  -30.6570   24.0555 C   0  0  0  0  0  0
  -25.9053  -34.9417   23.5062 C   0  0  0  0  0  0
  -16.5369  -29.9078   23.6369 C   0  0  0  0  0  0
  -16.7310  -28.6505   23.0381 C   0  0  0  0  0  0
  -26.4524  -31.6609   25.0744 C   0  0  0  0  0  0
  -25.3675  -31.3839   26.1414 C   0  0  0  0  0  0
  -27.0407  -30.2998   24.6382 C   0  0  0  0  0  0
  -27.6037  -32.4398   25.7520 C   0  0  0  0  0  0
  -27.5555  -37.1749   24.8472 C   0  0  0  0  0  0
  -21.4265  -29.3029   22.3549 N   0  0  0  0  0  0
  -26.4265  -37.3760   23.9423 N   0  0  0  0  0  0
  -24.7275  -31.0182   22.0912 N   0  0  0  0  0  0
  -23.4185  -28.8023   23.2993 O   0  0  0  0  0  0
  -28.2932  -26.1128   20.1879 O   0  0  0  0  0  0
  -26.5674  -34.8936   22.4638 O   0  0  0  0  0  0
  -23.5639  -32.1261   23.7066 O   0  0  0  0  0  0
  -29.4504  -20.4190   20.1302 C   0  0  0  0  0  0
  -28.6512  -18.9180   21.8605 C   0  0  0  0  0  0
  -29.3660  -19.0202   20.6581 C   0  0  0  0  0  0
  -28.9210  -21.6567   20.7831 C   0  0  0  0  0  0
  -28.3424  -21.3822   22.0582 C   0  0  0  0  0  0
  -28.1561  -20.0506   22.5396 C   0  0  0  0  0  0
  -27.9990  -22.5400   22.9800 C   0  0  0  0  0  0
  -29.1106  -23.2504   20.2931 C   0  0  0  0  0  0
  -30.0467  -17.6280   20.0655 C   0  0  0  0  0  0
  -28.0135  -24.5701   20.3413 C   0  0  0  0  0  0
  -29.7768  -16.1232   20.5026 N   0  0  0  0  0  0
  -27.3300  -19.7393   24.0304 Cl  0  0  0  0  0  0
  -31.4735  -12.7096   19.1917 H   0  0  0  0  0  0
  -30.4262  -11.6152   20.0311 H   0  0  0  0  0  0
  -29.8262  -11.7236   17.5817 H   0  0  0  0  0  0
  -29.6355  -13.4566   17.6991 H   0  0  0  0  0  0
  -27.9101  -11.2869   18.9391 H   0  0  0  0  0  0
  -27.4013  -12.5136   17.8025 H   0  0  0  0  0  0
  -27.5960  -14.2626   19.4162 H   0  0  0  0  0  0
  -28.7478  -12.2975   21.4524 H   0  0  0  0  0  0
  -28.3830  -13.9811   21.7487 H   0  0  0  0  0  0
  -25.2772   -9.5693   22.4757 H   0  0  0  0  0  0
  -24.0041   -7.4629   22.7438 H   0  0  0  0  0  0
  -21.0883   -8.8752   19.8934 H   0  0  0  0  0  0
  -22.3707  -10.9661   19.6175 H   0  0  0  0  0  0
  -21.2027   -7.6152   23.9707 H   0  0  0  0  0  0
  -21.1507   -6.0536   25.9078 H   0  0  0  0  0  0
  -22.0583   -2.7603   23.2838 H   0  0  0  0  0  0
  -22.4188  -11.9897   22.4885 H   0  0  0  0  0  0
  -21.1081  -13.1123   22.2596 H   0  0  0  0  0  0
  -24.6254  -15.8346   20.4836 H   0  0  0  0  0  0
  -26.2359  -15.6276   20.0129 H   0  0  0  0  0  0
  -26.7249  -32.5238   23.0962 H   0  0  0  0  0  0
  -25.0030  -33.9540   25.0298 H   0  0  0  0  0  0
  -22.7671  -31.2845   21.3670 H   0  0  0  0  0  0
  -23.3751  -35.9492   23.3314 H   0  0  0  0  0  0
  -24.3540  -36.8869   22.2052 H   0  0  0  0  0  0
  -23.7138  -37.6400   23.6715 H   0  0  0  0  0  0
  -26.1828  -31.4380   20.6144 H   0  0  0  0  0  0
  -26.8860  -30.7462   22.0410 H   0  0  0  0  0  0
  -28.1597  -28.7867   21.2210 H   0  0  0  0  0  0
  -25.9165  -25.8181   19.0215 H   0  0  0  0  0  0
  -23.9857  -27.2554   19.0213 H   0  0  0  0  0  0
  -23.8427  -30.5444   19.3987 H   0  0  0  0  0  0
  -22.8062  -29.2182   19.8433 H   0  0  0  0  0  0
  -25.1271  -36.1860   25.0825 H   0  0  0  0  0  0
  -21.0020  -28.3287   24.1350 H   0  0  0  0  0  0
  -20.5638  -26.2298   23.3626 H   0  0  0  0  0  0
  -21.6620  -26.7343   22.1211 H   0  0  0  0  0  0
  -19.6892  -25.6251   21.1251 H   0  0  0  0  0  0
  -19.6715  -27.3130   20.6738 H   0  0  0  0  0  0
  -17.4191  -26.6660   21.4031 H   0  0  0  0  0  0
  -18.0320  -26.0040   22.9033 H   0  0  0  0  0  0
  -19.7943  -30.7221   24.2251 H   0  0  0  0  0  0
  -17.5066  -31.6276   24.5068 H   0  0  0  0  0  0
  -15.5363  -30.2994   23.7705 H   0  0  0  0  0  0
  -15.8699  -28.0820   22.7184 H   0  0  0  0  0  0
  -24.5809  -30.7262   25.7744 H   0  0  0  0  0  0
  -24.8912  -32.3028   26.4822 H   0  0  0  0  0  0
  -25.7871  -30.9011   27.0238 H   0  0  0  0  0  0
  -26.3055  -29.6691   24.1356 H   0  0  0  0  0  0
  -27.3974  -29.7346   25.5016 H   0  0  0  0  0  0
  -27.9004  -30.4267   23.9763 H   0  0  0  0  0  0
  -27.2648  -33.3781   26.1961 H   0  0  0  0  0  0
  -28.3924  -32.6821   25.0366 H   0  0  0  0  0  0
  -28.0624  -31.8594   26.5548 H   0  0  0  0  0  0
  -28.2561  -38.0062   24.7575 H   0  0  0  0  0  0
  -28.1047  -36.2592   24.6233 H   0  0  0  0  0  0
  -27.2278  -37.1342   25.8877 H   0  0  0  0  0  0
  -20.9493  -29.8800   21.6762 H   0  0  0  0  0  0
  -26.0126  -38.2800   24.1537 H   0  0  0  0  0  0
  -29.9904  -20.5556   19.2000 H   0  0  0  0  0  0
  -28.5154  -17.9442   22.3092 H   0  0  0  0  0  0
  -27.8053  -22.2479   24.0075 H   0  0  0  0  0  0
  -27.1010  -23.0464   22.6420 H   0  0  0  0  0  0
  -28.8436  -23.2285   23.0382 H   0  0  0  0  0  0
  -29.4823  -23.1857   19.2717 H   0  0  0  0  0  0
  -29.9760  -23.5817   20.8647 H   0  0  0  0  0  0
  -31.1289  -17.7697   20.1273 H   0  0  0  0  0  0
  -29.8160  -17.6401   18.9993 H   0  0  0  0  0  0
  -27.5176  -24.5699   21.3038 H   0  0  0  0  0  0
  -27.2320  -24.2897   19.6372 H   0  0  0  0  0  0
  -28.8097  -15.9250   20.7058 H   0  0  0  0  0  0
  1 25  1  0  0  0
  1 30  2  0  0  0
  1 81  1  0  0  0
  2  3  1  0  0  0
  2 25  1  0  0  0
  2 83  1  0  0  0
  2 84  1  0  0  0
  3  4  1  0  0  0
  3 85  1  0  0  0
  3 86  1  0  0  0
  4  5  1  0  0  0
  4 87  1  0  0  0
  4 88  1  0  0  0
  5  6  1  0  0  0
  5 26  1  0  0  0
  5 89  1  0  0  0
  6 25  1  0  0  0
  6 90  1  0  0  0
  6 91  1  0  0  0
  7  8  2  0  0  0
  7 26  1  0  0  0
  7 29  1  0  0  0
  8  9  1  0  0  0
  8 22  1  0  0  0
  9 10  1  0  0  0
  9 27  2  0  0  0
 10 11  2  0  0  0
 10 15  1  0  0  0
 11 12  1  0  0  0
 11 92  1  0  0  0
 12 13  2  0  0  0
 12 93  1  0  0  0
 13 14  1  0  0  0
 13 31  1  0  0  0
 14 15  2  0  0  0
 14 94  1  0  0  0
 15 95  1  0  0  0
 16 17  2  0  0  0
 16 21  1  0  0  0
 16 31  1  0  0  0
 17 18  1  0  0  0
 17 96  1  0  0  0
 18 19  2  0  0  0
 18 97  1  0  0  0
 19 20  1  0  0  0
 19 24  1  0  0  0
 20 21  2  0  0  0
 20 98  1  0  0  0
 21 23  1  0  0  0
 22 28  1  0  0  0
 22 32  2  0  0  0
 26 27  1  0  0  0
 28 99  1  0  0  0
 28100  1  0  0  0
 29101  1  0  0  0
 29102  1  0  0  0
 33 34  1  0  0  0
 33 66  1  0  0  0
 33 70  2  0  0  0
 34 36  1  0  0  0
 34 59  1  0  0  0
 34103  1  0  0  0
 35 44  2  0  0  0
 35 45  1  0  0  0
 35 68  1  0  0  0
 36 56  1  0  0  0
 36104  1  0  0  0
 37 39  1  0  0  0
 37 47  1  0  0  0
 37 66  1  0  0  0
 37105  1  0  0  0
 38 43  2  0  0  0
 38 46  1  0  0  0
 38 47  1  0  0  0
 39 64  1  0  0  0
 39 67  2  0  0  0
 40 52  1  0  0  0
 40 53  2  0  0  0
 40 58  1  0  0  0
 41106  1  0  0  0
 41107  1  0  0  0
 41108  1  0  0  0
 41 48  1  0  0  0
 42 43  1  0  0  0
 42 66  1  0  0  0
 42109  1  0  0  0
 42110  1  0  0  0
 43 44  1  0  0  0
 44111  1  0  0  0
 45 46  2  0  0  0
 45112  1  0  0  0
 46113  1  0  0  0
 47114  1  0  0  0
 47115  1  0  0  0
 48 56  1  0  0  0
 48 65  1  0  0  0
 48116  1  0  0  0
 49 50  1  0  0  0
 49 53  1  0  0  0
 49 64  1  0  0  0
 49117  1  0  0  0
 50 51  1  0  0  0
 50118  1  0  0  0
 50119  1  0  0  0
 51 52  1  0  0  0
 51120  1  0  0  0
 51121  1  0  0  0
 52122  1  0  0  0
 52123  1  0  0  0
 53 54  1  0  0  0
 54 55  2  0  0  0
 54124  1  0  0  0
 55 57  1  0  0  0
 55125  1  0  0  0
 56 69  2  0  0  0
 57 58  2  0  0  0
 57126  1  0  0  0
 58127  1  0  0  0
 59 60  1  0  0  0
 59 61  1  0  0  0
 59 62  1  0  0  0
 60128  1  0  0  0
 60129  1  0  0  0
 60130  1  0  0  0
 61131  1  0  0  0
 61132  1  0  0  0
 61133  1  0  0  0
 62134  1  0  0  0
 62135  1  0  0  0
 62136  1  0  0  0
 63 65  1  0  0  0
 63137  1  0  0  0
 63138  1  0  0  0
 63139  1  0  0  0
 64140  1  0  0  0
 65141  1  0  0  0
 68 80  1  0  0  0
 71 73  2  0  0  0
 71 74  1  0  0  0
 71142  1  0  0  0
 72 73  1  0  0  0
 72 76  2  0  0  0
 72143  1  0  0  0
 73 79  1  0  0  0
 74 75  2  0  0  0
 74 78  1  0  0  0
 75 76  1  0  0  0
 75 77  1  0  0  0
 76 82  1  0  0  0
 77144  1  0  0  0
 77145  1  0  0  0
 77146  1  0  0  0
 78 80  1  0  0  0
 78147  1  0  0  0
 78148  1  0  0  0
 79 81  1  0  0  0
 79149  1  0  0  0
 79150  1  0  0  0
 80151  1  0  0  0
 80152  1  0  0  0
 81153  1  0  0  0
M  ISO  4   1 100  68 101  80 101  81 100
M  END
> <chiral flag>
0

> <version>
0

> <s_m_source_file>
/data/baiqing/PycharmProjects/Reinvent-master-3.2/result/LINK_invent/BTK/process_docking_weight1_custom_sum_contain_oxygen_bond_distance_aromatic_linkinvent_7_9_3/rearranged_h_0030.sdf

> <i_m_source_file_index>
65

> <r_mmod_Potential_Energy-OPLS-2005>
506.781982421875

> <r_mmod_Stretch_Energy-OPLS-2005>
294.247985839844

> <r_mmod_Bend_Energy-OPLS-2005>
263.129699707031

> <r_mmod_Torsional_Energy-OPLS-2005>
216.806045532227

> <r_mmod_Improper_Torsional_Energy-OPLS-2005>
7.14227724075317

> <r_mmod_Van_der_Waal_Energy-OPLS-2005>
137.734756469727

> <r_mmod_Electrostatic_Energy-OPLS-2005>
-401.149810791016

> <r_mmod_Solvation_Energy-OPLS-2005>
-209.635650634766

> <b_mmod_Minimization_Converged-OPLS-2005>
0

> <r_mmod_RMS_Derivative-OPLS-2005>
6.05747890472412

$$$$
65
                    3D
 Structure written by MMmdl.
178187  0  0  1  0            999 V2000
  -30.7725  -14.4032   20.6506 C   0  0  0  0  0  0
  -30.4169  -12.2929   19.4086 C   0  0  0  0  0  0
  -29.4995  -12.5015   18.1892 C   0  0  0  0  0  0
  -28.0218  -12.3547   18.6031 C   0  0  0  0  0  0
  -27.6607  -13.2008   19.8530 C   0  0  2  0  0  0
  -28.6967  -12.9874   20.9776 C   0  0  0  0  0  0
  -25.2588  -13.8108   20.5580 C   0  0  0  0  0  0
  -24.1822  -13.0465   20.9097 C   0  0  0  0  0  0
  -24.6334  -11.6910   20.8638 C   0  0  0  0  0  0
  -23.9012  -10.4310   21.0394 C   0  0  0  0  0  0
  -24.3600   -9.4205   21.9141 C   0  0  0  0  0  0
  -23.6283   -8.2239   22.0712 C   0  0  0  0  0  0
  -22.4266   -8.0265   21.3507 C   0  0  0  0  0  0
  -21.9899   -9.0232   20.4600 C   0  0  0  0  0  0
  -22.7213  -10.2120   20.3015 C   0  0  0  0  0  0
  -21.6818   -6.0736   22.5280 C   0  0  0  0  0  0
  -21.4016   -6.5630   23.8219 C   0  0  0  0  0  0
  -21.3673   -5.6773   24.9161 C   0  0  0  0  0  0
  -21.6031   -4.3027   24.7203 C   0  0  0  0  0  0
  -21.8817   -3.8129   23.4314 C   0  0  0  0  0  0
  -21.9192   -4.6970   22.3389 C   0  0  0  0  0  0
  -22.7847  -13.5254   21.1789 C   0  0  0  0  0  0
  -22.1635   -4.2165   21.0960 F   0  0  0  0  0  0
  -21.5671   -3.4511   25.7713 F   0  0  0  0  0  0
  -30.0408  -13.2750   20.4411 N   0  0  0  0  0  0
  -26.3004  -12.9274   20.3169 N   0  0  0  0  0  0
  -25.9247  -11.6451   20.5576 N   0  0  0  0  0  0
  -22.0462  -12.8304   22.0364 N   0  0  0  0  0  0
  -25.4366  -15.1820   20.4071 N   0  0  0  0  0  0
  -31.8350  -14.6405   20.0692 O   0  0  0  0  0  0
  -21.6588   -6.8881   21.4235 O   0  0  0  0  0  0
  -22.3582  -14.5572   20.6609 O   0  0  0  0  0  0
  -24.6121  -31.8699   23.2120 C   0  0  0  0  0  0
  -25.9042  -32.4838   23.8396 C   0  0  1  0  0  0
  -27.2308  -27.4702   20.0953 C   0  0  0  0  0  0
  -25.5943  -33.8627   24.2387 N   0  0  0  0  0  0
  -23.4032  -30.4901   21.5489 C   0  0  2  0  0  0
  -24.8550  -28.9704   20.1082 C   0  0  0  0  0  0
  -22.7453  -29.4623   22.4962 C   0  0  0  0  0  0
  -18.0273  -28.1367   22.8473 C   0  0  0  0  0  0
  -24.1522  -36.7283   23.2623 C   0  0  0  0  0  0
  -25.9271  -30.8507   21.3602 C   0  0  0  0  0  0
  -26.0117  -29.4879   20.7056 C   0  0  0  0  0  0
  -27.2092  -28.7434   20.7015 C   0  0  0  0  0  0
  -26.0687  -26.9651   19.4784 C   0  0  0  0  0  0
  -24.8749  -27.7050   19.4911 C   0  0  0  0  0  0
  -23.6155  -29.8291   20.1600 C   0  0  0  0  0  0
  -25.4130  -36.3064   24.0339 C   0  0  1  0  0  0
  -20.5852  -28.3679   23.1280 C   0  0  2  0  0  0
  -20.6772  -26.9417   22.5410 C   0  0  0  0  0  0
  -19.5756  -26.6375   21.5217 C   0  0  0  0  0  0
  -18.1948  -26.7928   22.1629 C   0  0  0  0  0  0
  -19.1507  -28.8845   23.2886 C   0  0  0  0  0  0
  -18.9420  -30.1431   23.8935 C   0  0  0  0  0  0
  -17.6420  -30.6593   24.0518 C   0  0  0  0  0  0
  -25.9049  -34.9443   23.5133 C   0  0  0  0  0  0
  -16.5310  -29.9093   23.6251 C   0  0  0  0  0  0
  -16.7252  -28.6469   23.0334 C   0  0  0  0  0  0
  -26.4504  -31.6555   25.0678 C   0  0  0  0  0  0
  -25.3799  -31.3685   26.1453 C   0  0  0  0  0  0
  -27.0308  -30.2992   24.5990 C   0  0  0  0  0  0
  -27.6090  -32.4264   25.7458 C   0  0  0  0  0  0
  -27.5584  -37.1801   24.8483 C   0  0  0  0  0  0
  -21.4182  -29.3035   22.3714 N   0  0  0  0  0  0
  -26.4298  -37.3740   23.9414 N   0  0  0  0  0  0
  -24.6652  -31.0845   22.0995 N   0  0  0  0  0  0
  -23.4202  -28.8194   23.3011 O   0  0  0  0  0  0
  -28.3188  -26.6450   20.1947 O   0  0  0  0  0  0
  -26.5536  -34.8863   22.4664 O   0  0  0  0  0  0
  -23.5312  -32.1461   23.7509 O   0  0  0  0  0  0
  -30.1072  -19.5121   22.1903 C   0  0  0  0  0  0
  -32.5301  -19.5406   22.3468 C   0  0  0  0  0  0
  -30.0184  -20.7293   22.9085 C   0  0  0  0  0  0
  -31.2165  -21.3530   23.3586 C   0  0  0  0  0  0
  -31.3436  -18.9120   21.9127 C   0  0  0  0  0  0
  -32.4732  -20.7543   23.0653 C   0  0  0  0  0  0
  -31.1863  -22.6541   24.1690 C   0  0  0  0  0  0
  -29.8134  -23.2907   24.3950 C   0  0  0  0  0  0
  -28.7442  -22.8633   23.3698 C   0  0  1  0  0  0
  -28.6392  -21.3051   23.2649 C   0  0  0  0  0  0
  -33.7770  -21.3813   23.5477 C   0  0  0  0  0  0
  -27.5620  -20.9227   22.2040 C   0  0  0  0  0  0
  -28.2460  -20.6463   24.6058 C   0  0  0  0  0  0
  -31.3299  -17.5646   21.1983 C   0  0  0  0  0  0
  -27.2132  -25.4934   22.1348 C   0  0  0  0  0  0
  -30.9690  -16.4101   22.1678 C   0  0  0  0  0  0
  -27.3138  -24.9532   23.5758 C   0  0  0  0  0  0
  -28.5054  -26.1120   21.5194 C   0  0  0  0  0  0
  -30.2899  -15.2515   21.5688 N   0  0  0  0  0  0
  -27.4286  -23.4764   23.6723 N   0  3  0  0  0  0
  -31.4701  -12.3586   19.1268 H   0  0  0  0  0  0
  -30.2883  -11.2831   19.8001 H   0  0  0  0  0  0
  -29.7418  -11.7737   17.4119 H   0  0  0  0  0  0
  -29.6597  -13.4842   17.7467 H   0  0  0  0  0  0
  -27.8373  -11.2958   18.8023 H   0  0  0  0  0  0
  -27.3736  -12.6247   17.7673 H   0  0  0  0  0  0
  -27.7075  -14.2411   19.5335 H   0  0  0  0  0  0
  -28.6648  -11.9510   21.3081 H   0  0  0  0  0  0
  -28.4382  -13.5794   21.8554 H   0  0  0  0  0  0
  -25.2765   -9.5642   22.4689 H   0  0  0  0  0  0
  -23.9981   -7.4609   22.7398 H   0  0  0  0  0  0
  -21.0845   -8.8716   19.8883 H   0  0  0  0  0  0
  -22.3674  -10.9625   19.6102 H   0  0  0  0  0  0
  -21.1998   -7.6143   23.9721 H   0  0  0  0  0  0
  -21.1495   -6.0491   25.9067 H   0  0  0  0  0  0
  -22.0590   -2.7598   23.2777 H   0  0  0  0  0  0
  -22.4103  -12.0092   22.4949 H   0  0  0  0  0  0
  -21.0998  -13.1190   22.2381 H   0  0  0  0  0  0
  -24.6785  -15.8491   20.5104 H   0  0  0  0  0  0
  -26.3093  -15.5984   20.1067 H   0  0  0  0  0  0
  -26.7136  -32.5572   23.1172 H   0  0  0  0  0  0
  -25.0206  -33.9865   25.0596 H   0  0  0  0  0  0
  -22.6823  -31.2972   21.4074 H   0  0  0  0  0  0
  -23.3747  -35.9642   23.3314 H   0  0  0  0  0  0
  -24.3609  -36.8842   22.2013 H   0  0  0  0  0  0
  -23.7314  -37.6519   23.6627 H   0  0  0  0  0  0
  -26.0314  -31.6164   20.5916 H   0  0  0  0  0  0
  -26.8131  -30.9129   21.9748 H   0  0  0  0  0  0
  -28.0967  -29.1163   21.1944 H   0  0  0  0  0  0
  -26.0756  -25.9699   19.0540 H   0  0  0  0  0  0
  -23.9792  -27.2998   19.0429 H   0  0  0  0  0  0
  -23.7284  -30.6016   19.3978 H   0  0  0  0  0  0
  -22.7423  -29.2463   19.8672 H   0  0  0  0  0  0
  -25.1309  -36.1868   25.0821 H   0  0  0  0  0  0
  -20.9921  -28.3204   24.1392 H   0  0  0  0  0  0
  -20.5707  -26.2339   23.3642 H   0  0  0  0  0  0
  -21.6652  -26.7541   22.1164 H   0  0  0  0  0  0
  -19.6954  -25.6305   21.1207 H   0  0  0  0  0  0
  -19.6676  -27.3161   20.6719 H   0  0  0  0  0  0
  -17.4244  -26.6703   21.4007 H   0  0  0  0  0  0
  -18.0363  -26.0103   22.9052 H   0  0  0  0  0  0
  -19.7904  -30.7200   24.2396 H   0  0  0  0  0  0
  -17.4986  -31.6289   24.5103 H   0  0  0  0  0  0
  -15.5305  -30.2995   23.7647 H   0  0  0  0  0  0
  -15.8651  -28.0788   22.7056 H   0  0  0  0  0  0
  -24.5978  -30.7032   25.7813 H   0  0  0  0  0  0
  -24.8995  -32.2860   26.4862 H   0  0  0  0  0  0
  -25.8145  -30.8878   27.0228 H   0  0  0  0  0  0
  -26.2827  -29.6781   24.1070 H   0  0  0  0  0  0
  -27.4139  -29.7187   25.4392 H   0  0  0  0  0  0
  -27.8642  -30.4335   23.9094 H   0  0  0  0  0  0
  -27.2732  -33.3542   26.2120 H   0  0  0  0  0  0
  -28.3882  -32.6881   25.0288 H   0  0  0  0  0  0
  -28.0834  -31.8354   26.5309 H   0  0  0  0  0  0
  -28.2619  -38.0071   24.7446 H   0  0  0  0  0  0
  -28.1073  -36.2593   24.6426 H   0  0  0  0  0  0
  -27.2319  -37.1578   25.8894 H   0  0  0  0  0  0
  -20.9427  -29.8766   21.6904 H   0  0  0  0  0  0
  -26.0173  -38.2817   24.1353 H   0  0  0  0  0  0
  -29.2285  -18.9767   21.8700 H   0  0  0  0  0  0
  -33.4879  -19.0740   22.1507 H   0  0  0  0  0  0
  -31.8168  -23.3880   23.6686 H   0  0  0  0  0  0
  -31.6386  -22.4709   25.1461 H   0  0  0  0  0  0
  -29.9444  -24.3718   24.4182 H   0  0  0  0  0  0
  -29.4702  -23.0257   25.3952 H   0  0  0  0  0  0
  -29.0612  -23.2360   22.3936 H   0  0  0  0  0  0
  -34.6308  -21.0187   22.9700 H   0  0  0  0  0  0
  -33.9484  -21.1366   24.5991 H   0  0  0  0  0  0
  -33.7789  -22.4665   23.4452 H   0  0  0  0  0  0
  -27.8593  -21.1997   21.1881 H   0  0  0  0  0  0
  -26.5897  -21.3718   22.4112 H   0  0  0  0  0  0
  -27.3671  -19.8486   22.1981 H   0  0  0  0  0  0
  -28.9683  -20.8526   25.3938 H   0  0  0  0  0  0
  -28.2116  -19.5578   24.5182 H   0  0  0  0  0  0
  -27.2689  -20.9711   24.9601 H   0  0  0  0  0  0
  -32.3061  -17.4008   20.7393 H   0  0  0  0  0  0
  -30.6096  -17.6157   20.3759 H   0  0  0  0  0  0
  -26.4471  -26.2694   22.1814 H   0  0  0  0  0  0
  -26.8107  -24.7350   21.4655 H   0  0  0  0  0  0
  -31.8616  -16.0895   22.7042 H   0  0  0  0  0  0
  -30.2858  -16.7763   22.9347 H   0  0  0  0  0  0
  -26.3710  -25.1897   24.0718 H   0  0  0  0  0  0
  -28.0785  -25.4648   24.1597 H   0  0  0  0  0  0
  -29.2746  -25.3459   21.4430 H   0  0  0  0  0  0
  -28.9096  -26.8903   22.1690 H   0  0  0  0  0  0
  -29.3907  -15.0170   21.9629 H   0  0  0  0  0  0
  -27.1542  -23.2131   24.6071 H   0  0  0  0  0  0
  -26.7566  -23.0658   23.0452 H   0  0  0  0  0  0
  1 25  1  0  0  0
  1 30  2  0  0  0
  1 89  1  0  0  0
  2  3  1  0  0  0
  2 25  1  0  0  0
  2 91  1  0  0  0
  2 92  1  0  0  0
  3  4  1  0  0  0
  3 93  1  0  0  0
  3 94  1  0  0  0
  4  5  1  0  0  0
  4 95  1  0  0  0
  4 96  1  0  0  0
  5  6  1  0  0  0
  5 26  1  0  0  0
  5 97  1  0  0  0
  6 25  1  0  0  0
  6 98  1  0  0  0
  6 99  1  0  0  0
  7  8  2  0  0  0
  7 26  1  0  0  0
  7 29  1  0  0  0
  8  9  1  0  0  0
  8 22  1  0  0  0
  9 10  1  0  0  0
  9 27  2  0  0  0
 10 11  2  0  0  0
 10 15  1  0  0  0
 11 12  1  0  0  0
 11100  1  0  0  0
 12 13  2  0  0  0
 12101  1  0  0  0
 13 14  1  0  0  0
 13 31  1  0  0  0
 14 15  2  0  0  0
 14102  1  0  0  0
 15103  1  0  0  0
 16 17  2  0  0  0
 16 21  1  0  0  0
 16 31  1  0  0  0
 17 18  1  0  0  0
 17104  1  0  0  0
 18 19  2  0  0  0
 18105  1  0  0  0
 19 20  1  0  0  0
 19 24  1  0  0  0
 20 21  2  0  0  0
 20106  1  0  0  0
 21 23  1  0  0  0
 22 28  1  0  0  0
 22 32  2  0  0  0
 26 27  1  0  0  0
 28107  1  0  0  0
 28108  1  0  0  0
 29109  1  0  0  0
 29110  1  0  0  0
 33 34  1  0  0  0
 33 66  1  0  0  0
 33 70  2  0  0  0
 34 36  1  0  0  0
 34 59  1  0  0  0
 34111  1  0  0  0
 35 44  2  0  0  0
 35 45  1  0  0  0
 35 68  1  0  0  0
 36 56  1  0  0  0
 36112  1  0  0  0
 37 39  1  0  0  0
 37 47  1  0  0  0
 37 66  1  0  0  0
 37113  1  0  0  0
 38 43  2  0  0  0
 38 46  1  0  0  0
 38 47  1  0  0  0
 39 64  1  0  0  0
 39 67  2  0  0  0
 40 52  1  0  0  0
 40 53  2  0  0  0
 40 58  1  0  0  0
 41114  1  0  0  0
 41115  1  0  0  0
 41116  1  0  0  0
 41 48  1  0  0  0
 42 43  1  0  0  0
 42 66  1  0  0  0
 42117  1  0  0  0
 42118  1  0  0  0
 43 44  1  0  0  0
 44119  1  0  0  0
 45 46  2  0  0  0
 45120  1  0  0  0
 46121  1  0  0  0
 47122  1  0  0  0
 47123  1  0  0  0
 48 56  1  0  0  0
 48 65  1  0  0  0
 48124  1  0  0  0
 49 50  1  0  0  0
 49 53  1  0  0  0
 49 64  1  0  0  0
 49125  1  0  0  0
 50 51  1  0  0  0
 50126  1  0  0  0
 50127  1  0  0  0
 51 52  1  0  0  0
 51128  1  0  0  0
 51129  1  0  0  0
 52130  1  0  0  0
 52131  1  0  0  0
 53 54  1  0  0  0
 54 55  2  0  0  0
 54132  1  0  0  0
 55 57  1  0  0  0
 55133  1  0  0  0
 56 69  2  0  0  0
 57 58  2  0  0  0
 57134  1  0  0  0
 58135  1  0  0  0
 59 60  1  0  0  0
 59 61  1  0  0  0
 59 62  1  0  0  0
 60136  1  0  0  0
 60137  1  0  0  0
 60138  1  0  0  0
 61139  1  0  0  0
 61140  1  0  0  0
 61141  1  0  0  0
 62142  1  0  0  0
 62143  1  0  0  0
 62144  1  0  0  0
 63 65  1  0  0  0
 63145  1  0  0  0
 63146  1  0  0  0
 63147  1  0  0  0
 64148  1  0  0  0
 65149  1  0  0  0
 68 88  1  0  0  0
 71 73  2  0  0  0
 71 75  1  0  0  0
 71150  1  0  0  0
 72 75  2  0  0  0
 72 76  1  0  0  0
 72151  1  0  0  0
 73 74  1  0  0  0
 73 80  1  0  0  0
 74 76  2  0  0  0
 74 77  1  0  0  0
 75 84  1  0  0  0
 76 81  1  0  0  0
 77 78  1  0  0  0
 77152  1  0  0  0
 77153  1  0  0  0
 78 79  1  0  0  0
 78154  1  0  0  0
 78155  1  0  0  0
 79 80  1  0  0  0
 79 90  1  0  0  0
 79156  1  0  0  0
 80 82  1  0  0  0
 80 83  1  0  0  0
 81157  1  0  0  0
 81158  1  0  0  0
 81159  1  0  0  0
 82160  1  0  0  0
 82161  1  0  0  0
 82162  1  0  0  0
 83163  1  0  0  0
 83164  1  0  0  0
 83165  1  0  0  0
 84 86  1  0  0  0
 84166  1  0  0  0
 84167  1  0  0  0
 85 87  1  0  0  0
 85 88  1  0  0  0
 85168  1  0  0  0
 85169  1  0  0  0
 86 89  1  0  0  0
 86170  1  0  0  0
 86171  1  0  0  0
 87 90  1  0  0  0
 87172  1  0  0  0
 87173  1  0  0  0
 88174  1  0  0  0
 88175  1  0  0  0
 89176  1  0  0  0
 90177  1  0  0  0
 90178  1  0  0  0
M  CHG  1  90   1
M  ISO  4   1 100  68 101  88 101  89 100
M  END
> <chiral flag>
0

> <version>
0

> <s_m_source_file>
/data/baiqing/PycharmProjects/Reinvent-master-3.2/result/LINK_invent/BTK/process_docking_weight1_custom_sum_contain_oxygen_bond_distance_aromatic_linkinvent_7_9_3/rearranged_h_0030.sdf

> <i_m_source_file_index>
66

> <r_mmod_Potential_Energy-OPLS-2005>
-203.128768920898

> <r_mmod_Stretch_Energy-OPLS-2005>
41.7041244506836

> <r_mmod_Bend_Energy-OPLS-2005>
114.63631439209

> <r_mmod_Torsional_Energy-OPLS-2005>
268.455596923828

> <r_mmod_Improper_Torsional_Energy-OPLS-2005>
2.46199774742126

> <r_mmod_Van_der_Waal_Energy-OPLS-2005>
167.992752075195

> <r_mmod_Electrostatic_Energy-OPLS-2005>
-361.931854248047

> <r_mmod_Solvation_Energy-OPLS-2005>
-449.585205078125

> <b_mmod_Minimization_Converged-OPLS-2005>
0

> <r_mmod_RMS_Derivative-OPLS-2005>
7.66206169128418

$$$$
66
                    3D
 Structure written by MMmdl.
153161  0  0  1  0            999 V2000
  -30.7156  -14.5043   20.5815 C   0  0  0  0  0  0
  -30.4187  -12.3378   19.4278 C   0  0  0  0  0  0
  -29.4925  -12.5133   18.2079 C   0  0  0  0  0  0
  -28.0156  -12.3667   18.6214 C   0  0  0  0  0  0
  -27.6565  -13.2157   19.8703 C   0  0  2  0  0  0
  -28.6999  -13.0285   20.9942 C   0  0  0  0  0  0
  -25.2558  -13.8179   20.5684 C   0  0  0  0  0  0
  -24.1825  -13.0441   20.9172 C   0  0  0  0  0  0
  -24.6393  -11.6912   20.8735 C   0  0  0  0  0  0
  -23.9065  -10.4291   21.0406 C   0  0  0  0  0  0
  -24.3613   -9.4204   21.9183 C   0  0  0  0  0  0
  -23.6286   -8.2242   22.0755 C   0  0  0  0  0  0
  -22.4268   -8.0279   21.3545 C   0  0  0  0  0  0
  -21.9904   -9.0258   20.4656 C   0  0  0  0  0  0
  -22.7238  -10.2133   20.3063 C   0  0  0  0  0  0
  -21.6858   -6.0724   22.5280 C   0  0  0  0  0  0
  -21.4021   -6.5634   23.8208 C   0  0  0  0  0  0
  -21.3666   -5.6790   24.9171 C   0  0  0  0  0  0
  -21.6040   -4.3050   24.7225 C   0  0  0  0  0  0
  -21.8816   -3.8137   23.4350 C   0  0  0  0  0  0
  -21.9193   -4.6950   22.3403 C   0  0  0  0  0  0
  -22.7847  -13.5229   21.1829 C   0  0  0  0  0  0
  -22.1659   -4.2136   21.0980 F   0  0  0  0  0  0
  -21.5630   -3.4537   25.7736 F   0  0  0  0  0  0
  -30.0257  -13.3379   20.4350 N   0  0  0  0  0  0
  -26.2999  -12.9372   20.3357 N   0  0  0  0  0  0
  -25.9320  -11.6518   20.5756 N   0  0  0  0  0  0
  -22.0501  -12.8239   22.0408 N   0  0  0  0  0  0
  -25.4256  -15.1897   20.4085 N   0  0  0  0  0  0
  -31.8399  -14.6667   20.1003 O   0  0  0  0  0  0
  -21.6645   -6.8868   21.4242 O   0  0  0  0  0  0
  -22.3531  -14.5534   20.6670 O   0  0  0  0  0  0
  -24.6187  -31.8662   23.2093 C   0  0  0  0  0  0
  -25.9071  -32.4814   23.8392 C   0  0  1  0  0  0
  -27.2302  -27.3960   20.0896 C   0  0  0  0  0  0
  -25.5921  -33.8613   24.2323 N   0  0  0  0  0  0
  -23.4087  -30.4915   21.5508 C   0  0  2  0  0  0
  -24.8543  -28.9594   20.1126 C   0  0  0  0  0  0
  -22.7431  -29.4650   22.4973 C   0  0  0  0  0  0
  -18.0271  -28.1378   22.8500 C   0  0  0  0  0  0
  -24.1482  -36.7288   23.2640 C   0  0  0  0  0  0
  -25.9445  -30.8182   21.3722 C   0  0  0  0  0  0
  -26.0188  -29.4527   20.7123 C   0  0  0  0  0  0
  -27.2094  -28.6805   20.6962 C   0  0  0  0  0  0
  -26.0393  -26.9380   19.4738 C   0  0  0  0  0  0
  -24.8613  -27.7028   19.4906 C   0  0  0  0  0  0
  -23.6187  -29.8293   20.1649 C   0  0  0  0  0  0
  -25.4107  -36.3100   24.0339 C   0  0  1  0  0  0
  -20.5869  -28.3669   23.1307 C   0  0  2  0  0  0
  -20.6759  -26.9400   22.5417 C   0  0  0  0  0  0
  -19.5733  -26.6387   21.5215 C   0  0  0  0  0  0
  -18.1914  -26.7928   22.1631 C   0  0  0  0  0  0
  -19.1527  -28.8838   23.2903 C   0  0  0  0  0  0
  -18.9453  -30.1444   23.8913 C   0  0  0  0  0  0
  -17.6456  -30.6590   24.0562 C   0  0  0  0  0  0
  -25.9043  -34.9472   23.5128 C   0  0  0  0  0  0
  -16.5345  -29.9089   23.6338 C   0  0  0  0  0  0
  -16.7259  -28.6502   23.0364 C   0  0  0  0  0  0
  -26.4491  -31.6603   25.0731 C   0  0  0  0  0  0
  -25.3755  -31.3713   26.1479 C   0  0  0  0  0  0
  -27.0339  -30.3044   24.6142 C   0  0  0  0  0  0
  -27.6063  -32.4336   25.7490 C   0  0  0  0  0  0
  -27.5576  -37.1799   24.8467 C   0  0  0  0  0  0
  -21.4153  -29.3037   22.3709 N   0  0  0  0  0  0
  -26.4289  -37.3792   23.9413 N   0  0  0  0  0  0
  -24.6753  -31.0733   22.1013 N   0  0  0  0  0  0
  -23.4190  -28.8191   23.3023 O   0  0  0  0  0  0
  -28.3813  -26.6139   20.1161 O   0  0  0  0  0  0
  -26.5598  -34.8924   22.4689 O   0  0  0  0  0  0
  -23.5371  -32.1431   23.7466 O   0  0  0  0  0  0
  -30.6830  -19.3782   21.3831 C   0  0  0  0  0  0
  -30.1776  -18.1329   21.0840 C   0  0  0  0  0  0
  -29.1407  -18.4858   20.1684 C   0  0  0  0  0  0
  -30.6895  -16.7950   21.6506 C   0  0  0  0  0  0
  -29.0802  -22.7497   20.2621 C   0  0  0  0  0  0
  -29.3976  -24.2824   20.3257 C   0  0  0  0  0  0
  -30.2604  -21.8094   20.6547 C   0  0  0  0  0  0
  -28.2119  -25.1898   19.8924 C   0  0  0  0  0  0
  -29.0237  -19.7897   19.9207 N   0  0  0  0  0  0
  -29.9815  -20.3583   20.6904 N   0  0  0  0  0  0
  -30.0792  -15.5165   21.2120 N   0  0  0  0  0  0
  -28.0915  -17.3576   19.3926 Cl  0  0  0  0  0  0
  -31.4625  -12.4357   19.1251 H   0  0  0  0  0  0
  -30.3240  -11.3343   19.8429 H   0  0  0  0  0  0
  -29.7396  -11.7817   17.4386 H   0  0  0  0  0  0
  -29.6516  -13.4947   17.7583 H   0  0  0  0  0  0
  -27.8323  -11.3105   18.8240 H   0  0  0  0  0  0
  -27.3648  -12.6328   17.7882 H   0  0  0  0  0  0
  -27.6912  -14.2604   19.5613 H   0  0  0  0  0  0
  -28.6853  -12.0004   21.3596 H   0  0  0  0  0  0
  -28.4528  -13.6493   21.8555 H   0  0  0  0  0  0
  -25.2759   -9.5677   22.4750 H   0  0  0  0  0  0
  -24.0000   -7.4633   22.7467 H   0  0  0  0  0  0
  -21.0840   -8.8782   19.8956 H   0  0  0  0  0  0
  -22.3709  -10.9670   19.6164 H   0  0  0  0  0  0
  -21.2026   -7.6142   23.9709 H   0  0  0  0  0  0
  -21.1493   -6.0519   25.9070 H   0  0  0  0  0  0
  -22.0591   -2.7600   23.2855 H   0  0  0  0  0  0
  -22.4133  -11.9923   22.4827 H   0  0  0  0  0  0
  -21.1115  -13.1258   22.2603 H   0  0  0  0  0  0
  -24.6530  -15.8392   20.5064 H   0  0  0  0  0  0
  -26.2727  -15.6312   20.0729 H   0  0  0  0  0  0
  -26.7139  -32.5511   23.1146 H   0  0  0  0  0  0
  -25.0085  -33.9772   25.0478 H   0  0  0  0  0  0
  -22.6990  -31.3100   21.4127 H   0  0  0  0  0  0
  -23.3753  -35.9611   23.3324 H   0  0  0  0  0  0
  -24.3566  -36.8880   22.2049 H   0  0  0  0  0  0
  -23.7228  -37.6495   23.6641 H   0  0  0  0  0  0
  -26.0715  -31.5879   20.6096 H   0  0  0  0  0  0
  -26.8262  -30.8623   21.9996 H   0  0  0  0  0  0
  -28.1060  -29.0576   21.1684 H   0  0  0  0  0  0
  -25.9893  -25.9839   18.9714 H   0  0  0  0  0  0
  -23.9668  -27.3199   19.0193 H   0  0  0  0  0  0
  -23.7296  -30.6065   19.4076 H   0  0  0  0  0  0
  -22.7419  -29.2520   19.8670 H   0  0  0  0  0  0
  -25.1289  -36.1960   25.0832 H   0  0  0  0  0  0
  -20.9964  -28.3238   24.1427 H   0  0  0  0  0  0
  -20.5655  -26.2277   23.3609 H   0  0  0  0  0  0
  -21.6627  -26.7432   22.1211 H   0  0  0  0  0  0
  -19.6890  -25.6305   21.1230 H   0  0  0  0  0  0
  -19.6670  -27.3210   20.6757 H   0  0  0  0  0  0
  -17.4183  -26.6682   21.4034 H   0  0  0  0  0  0
  -18.0310  -26.0064   22.9021 H   0  0  0  0  0  0
  -19.7926  -30.7253   24.2294 H   0  0  0  0  0  0
  -17.5011  -31.6270   24.5156 H   0  0  0  0  0  0
  -15.5346  -30.2992   23.7651 H   0  0  0  0  0  0
  -15.8659  -28.0815   22.7088 H   0  0  0  0  0  0
  -24.5900  -30.7102   25.7797 H   0  0  0  0  0  0
  -24.8979  -32.2874   26.4968 H   0  0  0  0  0  0
  -25.8099  -30.8831   27.0212 H   0  0  0  0  0  0
  -26.2900  -29.6796   24.1182 H   0  0  0  0  0  0
  -27.4087  -29.7295   25.4620 H   0  0  0  0  0  0
  -27.8747  -30.4358   23.9325 H   0  0  0  0  0  0
  -27.2672  -33.3612   26.2116 H   0  0  0  0  0  0
  -28.3838  -32.6948   25.0298 H   0  0  0  0  0  0
  -28.0779  -31.8441   26.5364 H   0  0  0  0  0  0
  -28.2606  -38.0085   24.7523 H   0  0  0  0  0  0
  -28.1063  -36.2626   24.6290 H   0  0  0  0  0  0
  -27.2294  -37.1440   25.8868 H   0  0  0  0  0  0
  -20.9314  -29.8763   21.6932 H   0  0  0  0  0  0
  -26.0177  -38.2863   24.1437 H   0  0  0  0  0  0
  -31.5038  -19.6494   22.0328 H   0  0  0  0  0  0
  -30.5773  -16.8072   22.7360 H   0  0  0  0  0  0
  -31.7701  -16.7428   21.5063 H   0  0  0  0  0  0
  -28.7498  -22.4953   19.2545 H   0  0  0  0  0  0
  -28.2361  -22.5382   20.9192 H   0  0  0  0  0  0
  -29.6835  -24.5432   21.3449 H   0  0  0  0  0  0
  -30.2608  -24.5042   19.6978 H   0  0  0  0  0  0
  -30.6288  -22.0932   21.6410 H   0  0  0  0  0  0
  -31.0937  -21.9649   19.9684 H   0  0  0  0  0  0
  -27.3350  -24.8456   20.4426 H   0  0  0  0  0  0
  -28.0168  -25.0183   18.8319 H   0  0  0  0  0  0
  -29.1455  -15.3197   21.5394 H   0  0  0  0  0  0
  1 25  1  0  0  0
  1 30  2  0  0  0
  1 81  1  0  0  0
  2  3  1  0  0  0
  2 25  1  0  0  0
  2 83  1  0  0  0
  2 84  1  0  0  0
  3  4  1  0  0  0
  3 85  1  0  0  0
  3 86  1  0  0  0
  4  5  1  0  0  0
  4 87  1  0  0  0
  4 88  1  0  0  0
  5  6  1  0  0  0
  5 26  1  0  0  0
  5 89  1  0  0  0
  6 25  1  0  0  0
  6 90  1  0  0  0
  6 91  1  0  0  0
  7  8  2  0  0  0
  7 26  1  0  0  0
  7 29  1  0  0  0
  8  9  1  0  0  0
  8 22  1  0  0  0
  9 10  1  0  0  0
  9 27  2  0  0  0
 10 11  2  0  0  0
 10 15  1  0  0  0
 11 12  1  0  0  0
 11 92  1  0  0  0
 12 13  2  0  0  0
 12 93  1  0  0  0
 13 14  1  0  0  0
 13 31  1  0  0  0
 14 15  2  0  0  0
 14 94  1  0  0  0
 15 95  1  0  0  0
 16 17  2  0  0  0
 16 21  1  0  0  0
 16 31  1  0  0  0
 17 18  1  0  0  0
 17 96  1  0  0  0
 18 19  2  0  0  0
 18 97  1  0  0  0
 19 20  1  0  0  0
 19 24  1  0  0  0
 20 21  2  0  0  0
 20 98  1  0  0  0
 21 23  1  0  0  0
 22 28  1  0  0  0
 22 32  2  0  0  0
 26 27  1  0  0  0
 28 99  1  0  0  0
 28100  1  0  0  0
 29101  1  0  0  0
 29102  1  0  0  0
 33 34  1  0  0  0
 33 66  1  0  0  0
 33 70  2  0  0  0
 34 36  1  0  0  0
 34 59  1  0  0  0
 34103  1  0  0  0
 35 44  2  0  0  0
 35 45  1  0  0  0
 35 68  1  0  0  0
 36 56  1  0  0  0
 36104  1  0  0  0
 37 39  1  0  0  0
 37 47  1  0  0  0
 37 66  1  0  0  0
 37105  1  0  0  0
 38 43  2  0  0  0
 38 46  1  0  0  0
 38 47  1  0  0  0
 39 64  1  0  0  0
 39 67  2  0  0  0
 40 52  1  0  0  0
 40 53  2  0  0  0
 40 58  1  0  0  0
 41106  1  0  0  0
 41107  1  0  0  0
 41108  1  0  0  0
 41 48  1  0  0  0
 42 43  1  0  0  0
 42 66  1  0  0  0
 42109  1  0  0  0
 42110  1  0  0  0
 43 44  1  0  0  0
 44111  1  0  0  0
 45 46  2  0  0  0
 45112  1  0  0  0
 46113  1  0  0  0
 47114  1  0  0  0
 47115  1  0  0  0
 48 56  1  0  0  0
 48 65  1  0  0  0
 48116  1  0  0  0
 49 50  1  0  0  0
 49 53  1  0  0  0
 49 64  1  0  0  0
 49117  1  0  0  0
 50 51  1  0  0  0
 50118  1  0  0  0
 50119  1  0  0  0
 51 52  1  0  0  0
 51120  1  0  0  0
 51121  1  0  0  0
 52122  1  0  0  0
 52123  1  0  0  0
 53 54  1  0  0  0
 54 55  2  0  0  0
 54124  1  0  0  0
 55 57  1  0  0  0
 55125  1  0  0  0
 56 69  2  0  0  0
 57 58  2  0  0  0
 57126  1  0  0  0
 58127  1  0  0  0
 59 60  1  0  0  0
 59 61  1  0  0  0
 59 62  1  0  0  0
 60128  1  0  0  0
 60129  1  0  0  0
 60130  1  0  0  0
 61131  1  0  0  0
 61132  1  0  0  0
 61133  1  0  0  0
 62134  1  0  0  0
 62135  1  0  0  0
 62136  1  0  0  0
 63 65  1  0  0  0
 63137  1  0  0  0
 63138  1  0  0  0
 63139  1  0  0  0
 64140  1  0  0  0
 65141  1  0  0  0
 68 78  1  0  0  0
 71 72  2  0  0  0
 71 80  1  0  0  0
 71142  1  0  0  0
 72 73  1  0  0  0
 72 74  1  0  0  0
 73 79  2  0  0  0
 73 82  1  0  0  0
 74 81  1  0  0  0
 74143  1  0  0  0
 74144  1  0  0  0
 75 76  1  0  0  0
 75 77  1  0  0  0
 75145  1  0  0  0
 75146  1  0  0  0
 76 78  1  0  0  0
 76147  1  0  0  0
 76148  1  0  0  0
 77 80  1  0  0  0
 77149  1  0  0  0
 77150  1  0  0  0
 78151  1  0  0  0
 78152  1  0  0  0
 79 80  1  0  0  0
 81153  1  0  0  0
M  ISO  4   1 100  68 101  78 101  81 100
M  END
> <chiral flag>
0

> <version>
0

> <s_m_source_file>
/data/baiqing/PycharmProjects/Reinvent-master-3.2/result/LINK_invent/BTK/process_docking_weight1_custom_sum_contain_oxygen_bond_distance_aromatic_linkinvent_7_9_3/rearranged_h_0030.sdf

> <i_m_source_file_index>
67

> <r_mmod_Potential_Energy-OPLS-2005>
-79.797004699707

> <r_mmod_Stretch_Energy-OPLS-2005>
44.2151565551758

> <r_mmod_Bend_Energy-OPLS-2005>
112.921737670898

> <r_mmod_Torsional_Energy-OPLS-2005>
194.774017333984

> <r_mmod_Improper_Torsional_Energy-OPLS-2005>
2.67663383483887

> <r_mmod_Van_der_Waal_Energy-OPLS-2005>
126.469696044922

> <r_mmod_Electrostatic_Energy-OPLS-2005>
-365.498504638672

> <r_mmod_Solvation_Energy-OPLS-2005>
-214.326232910156

> <b_mmod_Minimization_Converged-OPLS-2005>
0

> <r_mmod_RMS_Derivative-OPLS-2005>
1.52277195453644

$$$$
67
                    3D
 Structure written by MMmdl.
159167  0  0  1  0            999 V2000
  -30.4884  -14.9918   20.4571 C   0  0  0  0  0  0
  -30.4548  -12.6315   19.5155 C   0  0  0  0  0  0
  -29.5341  -12.5447   18.2748 C   0  0  0  0  0  0
  -28.0600  -12.3347   18.6752 C   0  0  0  0  0  0
  -27.6316  -13.2534   19.8496 C   0  0  2  0  0  0
  -28.6672  -13.2589   20.9920 C   0  0  0  0  0  0
  -25.2447  -13.8248   20.5714 C   0  0  0  0  0  0
  -24.1770  -13.0472   20.9235 C   0  0  0  0  0  0
  -24.6419  -11.6963   20.8775 C   0  0  0  0  0  0
  -23.9106  -10.4305   21.0411 C   0  0  0  0  0  0
  -24.3643   -9.4202   21.9193 C   0  0  0  0  0  0
  -23.6309   -8.2232   22.0743 C   0  0  0  0  0  0
  -22.4285   -8.0290   21.3535 C   0  0  0  0  0  0
  -21.9931   -9.0271   20.4620 C   0  0  0  0  0  0
  -22.7279  -10.2150   20.3044 C   0  0  0  0  0  0
  -21.6856   -6.0743   22.5281 C   0  0  0  0  0  0
  -21.3996   -6.5635   23.8211 C   0  0  0  0  0  0
  -21.3656   -5.6786   24.9167 C   0  0  0  0  0  0
  -21.6043   -4.3044   24.7217 C   0  0  0  0  0  0
  -21.8835   -3.8155   23.4328 C   0  0  0  0  0  0
  -21.9188   -4.6972   22.3393 C   0  0  0  0  0  0
  -22.7773  -13.5217   21.1870 C   0  0  0  0  0  0
  -22.1661   -4.2157   21.0962 F   0  0  0  0  0  0
  -21.5639   -3.4527   25.7723 F   0  0  0  0  0  0
  -29.9385  -13.7079   20.4152 N   0  0  0  0  0  0
  -26.2880  -12.9475   20.3256 N   0  0  0  0  0  0
  -25.9336  -11.6619   20.5743 N   0  0  0  0  0  0
  -22.0417  -12.8197   22.0421 N   0  0  0  0  0  0
  -25.4200  -15.1956   20.4134 N   0  0  0  0  0  0
  -31.6698  -15.0946   20.1057 O   0  0  0  0  0  0
  -21.6637   -6.8901   21.4241 O   0  0  0  0  0  0
  -22.3438  -14.5517   20.6692 O   0  0  0  0  0  0
  -24.6472  -31.8450   23.1777 C   0  0  0  0  0  0
  -25.9233  -32.4691   23.8173 C   0  0  1  0  0  0
  -27.1897  -27.0752   20.2055 C   0  0  0  0  0  0
  -25.5980  -33.8482   24.2145 N   0  0  0  0  0  0
  -23.4491  -30.4672   21.5292 C   0  0  2  0  0  0
  -24.8891  -28.8731   20.1149 C   0  0  0  0  0  0
  -22.7576  -29.4579   22.4840 C   0  0  0  0  0  0
  -18.0329  -28.1425   22.8546 C   0  0  0  0  0  0
  -24.1443  -36.7160   23.2669 C   0  0  0  0  0  0
  -26.0087  -30.7001   21.3813 C   0  0  0  0  0  0
  -26.0665  -29.3023   20.7409 C   0  0  0  0  0  0
  -27.2248  -28.4252   20.7532 C   0  0  0  0  0  0
  -25.9928  -26.7564   19.5333 C   0  0  0  0  0  0
  -24.8703  -27.6182   19.4902 C   0  0  0  0  0  0
  -23.6717  -29.7915   20.1500 C   0  0  0  0  0  0
  -25.4080  -36.2981   24.0327 C   0  0  1  0  0  0
  -20.5939  -28.3692   23.1258 C   0  0  2  0  0  0
  -20.6807  -26.9398   22.5424 C   0  0  0  0  0  0
  -19.5722  -26.6376   21.5285 C   0  0  0  0  0  0
  -18.1897  -26.7988   22.1674 C   0  0  0  0  0  0
  -19.1596  -28.8885   23.2916 C   0  0  0  0  0  0
  -18.9522  -30.1516   23.8873 C   0  0  0  0  0  0
  -17.6496  -30.6622   24.0575 C   0  0  0  0  0  0
  -25.9053  -34.9379   23.5035 C   0  0  0  0  0  0
  -16.5387  -29.9121   23.6365 C   0  0  0  0  0  0
  -16.7307  -28.6563   23.0370 C   0  0  0  0  0  0
  -26.4536  -31.6560   25.0633 C   0  0  0  0  0  0
  -25.3720  -31.3769   26.1337 C   0  0  0  0  0  0
  -27.0417  -30.2958   24.6250 C   0  0  0  0  0  0
  -27.6052  -32.4346   25.7452 C   0  0  0  0  0  0
  -27.5515  -37.1739   24.8510 C   0  0  0  0  0  0
  -21.4264  -29.3011   22.3620 N   0  0  0  0  0  0
  -26.4203  -37.3738   23.9481 N   0  0  0  0  0  0
  -24.7223  -31.0319   22.0801 N   0  0  0  0  0  0
  -23.4246  -28.8198   23.3013 O   0  0  0  0  0  0
  -28.2509  -26.0898   20.1512 O   0  0  0  0  0  0
  -26.5669  -34.8950   22.4629 O   0  0  0  0  0  0
  -23.5572  -32.1235   23.7043 O   0  0  0  0  0  0
  -26.8083  -22.8478   20.1187 C   0  0  0  0  0  0
  -28.1147  -23.1434   20.5440 C   0  0  0  0  0  0
  -26.3086  -21.5297   19.9891 C   0  0  0  0  0  0
  -28.9319  -21.9028   20.8213 C   0  0  0  0  0  0
  -28.4808  -20.4775   20.6462 C   0  0  0  0  0  0
  -27.1281  -20.3774   20.2030 C   0  0  0  0  0  0
  -30.3234  -22.1221   21.3818 C   0  0  0  0  0  0
  -23.9220  -22.0909   20.7443 C   0  0  0  0  0  0
  -24.8096  -21.4051   19.6866 C   0  0  0  0  0  0
  -29.1801  -19.0300   21.1568 C   0  0  0  0  0  0
  -28.3885  -24.7424   20.9609 C   0  0  0  0  0  0
  -29.7565  -17.6900   20.2761 C   0  0  0  0  0  0
  -29.6788  -16.1486   20.6983 N   0  0  0  0  0  0
  -26.4421  -18.7939   20.0182 Cl  0  0  0  0  0  0
  -31.4723  -12.8432   19.1820 H   0  0  0  0  0  0
  -30.5138  -11.6809   20.0465 H   0  0  0  0  0  0
  -29.8584  -11.7391   17.6132 H   0  0  0  0  0  0
  -29.6187  -13.4678   17.7013 H   0  0  0  0  0  0
  -27.9304  -11.2890   18.9569 H   0  0  0  0  0  0
  -27.4089  -12.4995   17.8130 H   0  0  0  0  0  0
  -27.5995  -14.2599   19.4354 H   0  0  0  0  0  0
  -28.7674  -12.2651   21.4319 H   0  0  0  0  0  0
  -28.3548  -13.9248   21.7975 H   0  0  0  0  0  0
  -25.2793   -9.5650   22.4764 H   0  0  0  0  0  0
  -24.0010   -7.4600   22.7443 H   0  0  0  0  0  0
  -21.0880   -8.8808   19.8905 H   0  0  0  0  0  0
  -22.3778  -10.9686   19.6131 H   0  0  0  0  0  0
  -21.1979   -7.6146   23.9722 H   0  0  0  0  0  0
  -21.1459   -6.0501   25.9073 H   0  0  0  0  0  0
  -22.0622   -2.7615   23.2826 H   0  0  0  0  0  0
  -22.4044  -11.9883   22.4829 H   0  0  0  0  0  0
  -21.1013  -13.1181   22.2610 H   0  0  0  0  0  0
  -24.6701  -15.8666   20.5355 H   0  0  0  0  0  0
  -26.2728  -15.6231   20.0787 H   0  0  0  0  0  0
  -26.7262  -32.5286   23.0860 H   0  0  0  0  0  0
  -25.0163  -33.9581   25.0320 H   0  0  0  0  0  0
  -22.7499  -31.2931   21.3769 H   0  0  0  0  0  0
  -23.3745  -35.9454   23.3363 H   0  0  0  0  0  0
  -24.3497  -36.8744   22.2080 H   0  0  0  0  0  0
  -23.7147  -37.6340   23.6656 H   0  0  0  0  0  0
  -26.1686  -31.4371   20.5903 H   0  0  0  0  0  0
  -26.8801  -30.7518   22.0203 H   0  0  0  0  0  0
  -28.1301  -28.7765   21.2223 H   0  0  0  0  0  0
  -25.9071  -25.7960   19.0422 H   0  0  0  0  0  0
  -23.9738  -27.2965   18.9760 H   0  0  0  0  0  0
  -23.8055  -30.5626   19.3898 H   0  0  0  0  0  0
  -22.7782  -29.2393   19.8505 H   0  0  0  0  0  0
  -25.1285  -36.1725   25.0799 H   0  0  0  0  0  0
  -21.0077  -28.3272   24.1356 H   0  0  0  0  0  0
  -20.5715  -26.2303   23.3652 H   0  0  0  0  0  0
  -21.6671  -26.7392   22.1187 H   0  0  0  0  0  0
  -19.6809  -25.6291   21.1260 H   0  0  0  0  0  0
  -19.6668  -27.3280   20.6892 H   0  0  0  0  0  0
  -17.4211  -26.6847   21.4048 H   0  0  0  0  0  0
  -18.0192  -26.0182   22.9081 H   0  0  0  0  0  0
  -19.7981  -30.7408   24.2170 H   0  0  0  0  0  0
  -17.5041  -31.6304   24.5170 H   0  0  0  0  0  0
  -15.5386  -30.2986   23.7724 H   0  0  0  0  0  0
  -15.8727  -28.0867   22.7026 H   0  0  0  0  0  0
  -24.6038  -30.6949   25.7706 H   0  0  0  0  0  0
  -24.8785  -32.2945   26.4508 H   0  0  0  0  0  0
  -25.8038  -30.9183   27.0233 H   0  0  0  0  0  0
  -26.3036  -29.6672   24.1275 H   0  0  0  0  0  0
  -27.4063  -29.7273   25.4805 H   0  0  0  0  0  0
  -27.8891  -30.4222   23.9532 H   0  0  0  0  0  0
  -27.2641  -33.3755   26.1766 H   0  0  0  0  0  0
  -28.3982  -32.6724   25.0357 H   0  0  0  0  0  0
  -28.0524  -31.8628   26.5583 H   0  0  0  0  0  0
  -28.2582  -38.0010   24.7612 H   0  0  0  0  0  0
  -28.0954  -36.2553   24.6241 H   0  0  0  0  0  0
  -27.2266  -37.1299   25.8930 H   0  0  0  0  0  0
  -20.9425  -29.8630   21.6772 H   0  0  0  0  0  0
  -26.0027  -38.2752   24.1592 H   0  0  0  0  0  0
  -26.1244  -23.6692   19.9786 H   0  0  0  0  0  0
  -30.9615  -22.5872   20.6283 H   0  0  0  0  0  0
  -30.8129  -21.2079   21.7023 H   0  0  0  0  0  0
  -30.2740  -22.7769   22.2455 H   0  0  0  0  0  0
  -23.9919  -23.1794   20.7055 H   0  0  0  0  0  0
  -24.1833  -21.7727   21.7519 H   0  0  0  0  0  0
  -22.8716  -21.8302   20.6037 H   0  0  0  0  0  0
  -24.4843  -20.3712   19.5996 H   0  0  0  0  0  0
  -24.6164  -21.8498   18.7099 H   0  0  0  0  0  0
  -28.4293  -18.6138   21.8294 H   0  0  0  0  0  0
  -29.9670  -19.2789   21.8633 H   0  0  0  0  0  0
  -29.4288  -24.7524   21.2740 H   0  0  0  0  0  0
  -27.8317  -24.8849   21.8889 H   0  0  0  0  0  0
  -30.8121  -17.8859   20.0753 H   0  0  0  0  0  0
  -29.2803  -17.7332   19.2980 H   0  0  0  0  0  0
  -28.7684  -15.8984   21.0532 H   0  0  0  0  0  0
  1 25  1  0  0  0
  1 30  2  0  0  0
  1 83  1  0  0  0
  2  3  1  0  0  0
  2 25  1  0  0  0
  2 85  1  0  0  0
  2 86  1  0  0  0
  3  4  1  0  0  0
  3 87  1  0  0  0
  3 88  1  0  0  0
  4  5  1  0  0  0
  4 89  1  0  0  0
  4 90  1  0  0  0
  5  6  1  0  0  0
  5 26  1  0  0  0
  5 91  1  0  0  0
  6 25  1  0  0  0
  6 92  1  0  0  0
  6 93  1  0  0  0
  7  8  2  0  0  0
  7 26  1  0  0  0
  7 29  1  0  0  0
  8  9  1  0  0  0
  8 22  1  0  0  0
  9 10  1  0  0  0
  9 27  2  0  0  0
 10 11  2  0  0  0
 10 15  1  0  0  0
 11 12  1  0  0  0
 11 94  1  0  0  0
 12 13  2  0  0  0
 12 95  1  0  0  0
 13 14  1  0  0  0
 13 31  1  0  0  0
 14 15  2  0  0  0
 14 96  1  0  0  0
 15 97  1  0  0  0
 16 17  2  0  0  0
 16 21  1  0  0  0
 16 31  1  0  0  0
 17 18  1  0  0  0
 17 98  1  0  0  0
 18 19  2  0  0  0
 18 99  1  0  0  0
 19 20  1  0  0  0
 19 24  1  0  0  0
 20 21  2  0  0  0
 20100  1  0  0  0
 21 23  1  0  0  0
 22 28  1  0  0  0
 22 32  2  0  0  0
 26 27  1  0  0  0
 28101  1  0  0  0
 28102  1  0  0  0
 29103  1  0  0  0
 29104  1  0  0  0
 33 34  1  0  0  0
 33 66  1  0  0  0
 33 70  2  0  0  0
 34 36  1  0  0  0
 34 59  1  0  0  0
 34105  1  0  0  0
 35 44  2  0  0  0
 35 45  1  0  0  0
 35 68  1  0  0  0
 36 56  1  0  0  0
 36106  1  0  0  0
 37 39  1  0  0  0
 37 47  1  0  0  0
 37 66  1  0  0  0
 37107  1  0  0  0
 38 43  2  0  0  0
 38 46  1  0  0  0
 38 47  1  0  0  0
 39 64  1  0  0  0
 39 67  2  0  0  0
 40 52  1  0  0  0
 40 53  2  0  0  0
 40 58  1  0  0  0
 41108  1  0  0  0
 41109  1  0  0  0
 41110  1  0  0  0
 41 48  1  0  0  0
 42 43  1  0  0  0
 42 66  1  0  0  0
 42111  1  0  0  0
 42112  1  0  0  0
 43 44  1  0  0  0
 44113  1  0  0  0
 45 46  2  0  0  0
 45114  1  0  0  0
 46115  1  0  0  0
 47116  1  0  0  0
 47117  1  0  0  0
 48 56  1  0  0  0
 48 65  1  0  0  0
 48118  1  0  0  0
 49 50  1  0  0  0
 49 53  1  0  0  0
 49 64  1  0  0  0
 49119  1  0  0  0
 50 51  1  0  0  0
 50120  1  0  0  0
 50121  1  0  0  0
 51 52  1  0  0  0
 51122  1  0  0  0
 51123  1  0  0  0
 52124  1  0  0  0
 52125  1  0  0  0
 53 54  1  0  0  0
 54 55  2  0  0  0
 54126  1  0  0  0
 55 57  1  0  0  0
 55127  1  0  0  0
 56 69  2  0  0  0
 57 58  2  0  0  0
 57128  1  0  0  0
 58129  1  0  0  0
 59 60  1  0  0  0
 59 61  1  0  0  0
 59 62  1  0  0  0
 60130  1  0  0  0
 60131  1  0  0  0
 60132  1  0  0  0
 61133  1  0  0  0
 61134  1  0  0  0
 61135  1  0  0  0
 62136  1  0  0  0
 62137  1  0  0  0
 62138  1  0  0  0
 63 65  1  0  0  0
 63139  1  0  0  0
 63140  1  0  0  0
 63141  1  0  0  0
 64142  1  0  0  0
 65143  1  0  0  0
 68 81  1  0  0  0
 71 72  2  0  0  0
 71 73  1  0  0  0
 71144  1  0  0  0
 72 74  1  0  0  0
 72 81  1  0  0  0
 73 76  2  0  0  0
 73 79  1  0  0  0
 74 75  2  0  0  0
 74 77  1  0  0  0
 75 76  1  0  0  0
 75 80  1  0  0  0
 76 84  1  0  0  0
 77145  1  0  0  0
 77146  1  0  0  0
 77147  1  0  0  0
 78 79  1  0  0  0
 78148  1  0  0  0
 78149  1  0  0  0
 78150  1  0  0  0
 79151  1  0  0  0
 79152  1  0  0  0
 80 82  1  0  0  0
 80153  1  0  0  0
 80154  1  0  0  0
 81155  1  0  0  0
 81156  1  0  0  0
 82 83  1  0  0  0
 82157  1  0  0  0
 82158  1  0  0  0
 83159  1  0  0  0
M  ISO  4   1 100  68 101  81 101  83 100
M  END
> <chiral flag>
0

> <version>
0

> <s_m_source_file>
/data/baiqing/PycharmProjects/Reinvent-master-3.2/result/LINK_invent/BTK/process_docking_weight1_custom_sum_contain_oxygen_bond_distance_aromatic_linkinvent_7_9_3/rearranged_h_0030.sdf

> <i_m_source_file_index>
68

> <r_mmod_Potential_Energy-OPLS-2005>
697.628051757812

> <r_mmod_Stretch_Energy-OPLS-2005>
320.198577880859

> <r_mmod_Bend_Energy-OPLS-2005>
317.795501708984

> <r_mmod_Torsional_Energy-OPLS-2005>
262.000091552734

> <r_mmod_Improper_Torsional_Energy-OPLS-2005>
9.55290222167969

> <r_mmod_Van_der_Waal_Energy-OPLS-2005>
128.40998840332

> <r_mmod_Electrostatic_Energy-OPLS-2005>
-368.458526611328

> <r_mmod_Solvation_Energy-OPLS-2005>
-200.797912597656

> <b_mmod_Minimization_Converged-OPLS-2005>
0

> <r_mmod_RMS_Derivative-OPLS-2005>
6.90732860565186

$$$$
68
                    3D
 Structure written by MMmdl.
175184  0  0  1  0            999 V2000
  -30.5860  -14.8660   20.4282 C   0  0  0  0  0  0
  -30.4288  -12.5356   19.4868 C   0  0  0  0  0  0
  -29.5106  -12.5150   18.2455 C   0  0  0  0  0  0
  -28.0417  -12.3193   18.6641 C   0  0  0  0  0  0
  -27.6291  -13.2453   19.8389 C   0  0  2  0  0  0
  -28.6732  -13.2519   20.9747 C   0  0  0  0  0  0
  -25.2454  -13.8222   20.5711 C   0  0  0  0  0  0
  -24.1769  -13.0444   20.9230 C   0  0  0  0  0  0
  -24.6385  -11.6928   20.8770 C   0  0  0  0  0  0
  -23.9079  -10.4296   21.0416 C   0  0  0  0  0  0
  -24.3627   -9.4207   21.9191 C   0  0  0  0  0  0
  -23.6305   -8.2244   22.0756 C   0  0  0  0  0  0
  -22.4287   -8.0286   21.3545 C   0  0  0  0  0  0
  -21.9923   -9.0257   20.4648 C   0  0  0  0  0  0
  -22.7253  -10.2135   20.3062 C   0  0  0  0  0  0
  -21.6853   -6.0742   22.5286 C   0  0  0  0  0  0
  -21.4010   -6.5644   23.8217 C   0  0  0  0  0  0
  -21.3656   -5.6795   24.9178 C   0  0  0  0  0  0
  -21.6043   -4.3060   24.7227 C   0  0  0  0  0  0
  -21.8818   -3.8153   23.4347 C   0  0  0  0  0  0
  -21.9192   -4.6972   22.3406 C   0  0  0  0  0  0
  -22.7787  -13.5213   21.1892 C   0  0  0  0  0  0
  -22.1662   -4.2157   21.0983 F   0  0  0  0  0  0
  -21.5627   -3.4542   25.7738 F   0  0  0  0  0  0
  -29.9554  -13.6325   20.3725 N   0  0  0  0  0  0
  -26.2874  -12.9448   20.3255 N   0  0  0  0  0  0
  -25.9317  -11.6580   20.5754 N   0  0  0  0  0  0
  -22.0446  -12.8188   22.0444 N   0  0  0  0  0  0
  -25.4121  -15.1951   20.4135 N   0  0  0  0  0  0
  -31.7928  -14.9048   20.1716 O   0  0  0  0  0  0
  -21.6644   -6.8884   21.4245 O   0  0  0  0  0  0
  -22.3467  -14.5520   20.6746 O   0  0  0  0  0  0
  -24.6373  -31.8472   23.1891 C   0  0  0  0  0  0
  -25.9169  -32.4713   23.8266 C   0  0  1  0  0  0
  -27.2201  -27.1830   20.1579 C   0  0  0  0  0  0
  -25.5947  -33.8516   24.2195 N   0  0  0  0  0  0
  -23.4375  -30.4654   21.5333 C   0  0  2  0  0  0
  -24.8848  -28.8868   20.1175 C   0  0  0  0  0  0
  -22.7522  -29.4570   22.4880 C   0  0  0  0  0  0
  -18.0294  -28.1406   22.8479 C   0  0  0  0  0  0
  -24.1481  -36.7242   23.2649 C   0  0  0  0  0  0
  -25.9871  -30.7377   21.3761 C   0  0  0  0  0  0
  -26.0593  -29.3494   20.7247 C   0  0  0  0  0  0
  -27.2306  -28.5148   20.7194 C   0  0  0  0  0  0
  -26.0199  -26.7927   19.5309 C   0  0  0  0  0  0
  -24.8744  -27.6199   19.5074 C   0  0  0  0  0  0
  -23.6608  -29.7865   20.1548 C   0  0  0  0  0  0
  -25.4112  -36.3037   24.0326 C   0  0  1  0  0  0
  -20.5899  -28.3722   23.1251 C   0  0  2  0  0  0
  -20.6780  -26.9430   22.5411 C   0  0  0  0  0  0
  -19.5760  -26.6384   21.5216 C   0  0  0  0  0  0
  -18.1935  -26.7948   22.1615 C   0  0  0  0  0  0
  -19.1549  -28.8879   23.2863 C   0  0  0  0  0  0
  -18.9477  -30.1477   23.8890 C   0  0  0  0  0  0
  -17.6480  -30.6607   24.0568 C   0  0  0  0  0  0
  -25.9062  -34.9419   23.5062 C   0  0  0  0  0  0
  -16.5368  -29.9104   23.6350 C   0  0  0  0  0  0
  -16.7281  -28.6523   23.0361 C   0  0  0  0  0  0
  -26.4512  -31.6578   25.0695 C   0  0  0  0  0  0
  -25.3718  -31.3759   26.1410 C   0  0  0  0  0  0
  -27.0373  -30.2984   24.6237 C   0  0  0  0  0  0
  -27.6041  -32.4347   25.7482 C   0  0  0  0  0  0
  -27.5564  -37.1778   24.8471 C   0  0  0  0  0  0
  -21.4220  -29.3059   22.3626 N   0  0  0  0  0  0
  -26.4272  -37.3752   23.9424 N   0  0  0  0  0  0
  -24.7070  -31.0375   22.0891 N   0  0  0  0  0  0
  -23.4188  -28.8126   23.3015 O   0  0  0  0  0  0
  -28.3290  -26.2876   20.1565 O   0  0  0  0  0  0
  -26.5641  -34.8921   22.4634 O   0  0  0  0  0  0
  -23.5506  -32.1316   23.7150 O   0  0  0  0  0  0
  -30.6775  -20.0724   20.0180 C   0  0  0  0  0  0
  -28.4753  -19.4989   20.6118 C   0  0  0  0  0  0
  -30.3066  -21.4541   19.8336 C   0  0  0  0  0  0
  -28.9729  -21.9555   20.0167 C   0  0  0  0  0  0
  -29.8018  -19.0049   20.3824 C   0  0  0  0  0  0
  -28.0766  -20.8980   20.4407 C   0  0  0  0  0  0
  -31.4064  -22.3660   19.3011 C   0  0  0  0  0  0
  -30.9587  -23.7554   18.8124 C   0  0  0  0  0  0
  -28.5572  -23.4750   19.5015 C   0  0  2  0  0  0
  -29.5060  -23.8245   18.2981 C   0  0  0  0  0  0
  -29.2675  -25.2209   17.6781 C   0  0  0  0  0  0
  -29.2937  -22.8358   17.1182 C   0  0  0  0  0  0
  -23.3205  -20.6636   18.6621 C   0  0  0  0  0  0
  -26.6172  -21.2289   20.7042 C   0  0  0  0  0  0
  -30.4536  -17.5094   20.5733 C   0  0  0  0  0  0
  -28.2720  -24.7849   20.5019 C   0  0  0  0  0  0
  -24.2232  -21.0819   19.8278 C   0  0  0  0  0  0
  -25.7127  -20.8846   19.5114 C   0  0  0  0  0  0
  -29.8608  -16.0703   20.5620 N   0  0  0  0  0  0
  -31.4665  -12.6712   19.1775 H   0  0  0  0  0  0
  -30.3973  -11.5789   20.0108 H   0  0  0  0  0  0
  -29.8145  -11.7213   17.5619 H   0  0  0  0  0  0
  -29.6134  -13.4516   17.6953 H   0  0  0  0  0  0
  -27.9225  -11.2760   18.9585 H   0  0  0  0  0  0
  -27.3793  -12.4708   17.8110 H   0  0  0  0  0  0
  -27.5994  -14.2526   19.4228 H   0  0  0  0  0  0
  -28.7408  -12.2743   21.4536 H   0  0  0  0  0  0
  -28.3899  -13.9616   21.7539 H   0  0  0  0  0  0
  -25.2770   -9.5685   22.4768 H   0  0  0  0  0  0
  -24.0016   -7.4631   22.7468 H   0  0  0  0  0  0
  -21.0855   -8.8777   19.8947 H   0  0  0  0  0  0
  -22.3714  -10.9679   19.6173 H   0  0  0  0  0  0
  -21.2000   -7.6151   23.9726 H   0  0  0  0  0  0
  -21.1475   -6.0524   25.9082 H   0  0  0  0  0  0
  -22.0597   -2.7616   23.2846 H   0  0  0  0  0  0
  -22.4071  -11.9846   22.4813 H   0  0  0  0  0  0
  -21.1062  -13.1199   22.2671 H   0  0  0  0  0  0
  -24.6406  -15.8446   20.5204 H   0  0  0  0  0  0
  -26.2549  -15.6363   20.0694 H   0  0  0  0  0  0
  -26.7227  -32.5342   23.0993 H   0  0  0  0  0  0
  -25.0131  -33.9641   25.0368 H   0  0  0  0  0  0
  -22.7394  -31.2907   21.3770 H   0  0  0  0  0  0
  -23.3763  -35.9558   23.3306 H   0  0  0  0  0  0
  -24.3555  -36.8862   22.2061 H   0  0  0  0  0  0
  -23.7212  -37.6430   23.6678 H   0  0  0  0  0  0
  -26.1312  -31.4916   20.6007 H   0  0  0  0  0  0
  -26.8627  -30.7917   22.0120 H   0  0  0  0  0  0
  -28.1357  -28.8707   21.1906 H   0  0  0  0  0  0
  -25.9640  -25.8216   19.0599 H   0  0  0  0  0  0
  -23.9744  -27.2588   19.0286 H   0  0  0  0  0  0
  -23.7950  -30.5570   19.3945 H   0  0  0  0  0  0
  -22.7770  -29.2251   19.8468 H   0  0  0  0  0  0
  -25.1295  -36.1865   25.0819 H   0  0  0  0  0  0
  -20.9995  -28.3317   24.1371 H   0  0  0  0  0  0
  -20.5670  -26.2342   23.3626 H   0  0  0  0  0  0
  -21.6648  -26.7442   22.1218 H   0  0  0  0  0  0
  -19.6926  -25.6288   21.1266 H   0  0  0  0  0  0
  -19.6711  -27.3185   20.6739 H   0  0  0  0  0  0
  -17.4208  -26.6712   21.4011 H   0  0  0  0  0  0
  -18.0317  -26.0084   22.9001 H   0  0  0  0  0  0
  -19.7963  -30.7283   24.2256 H   0  0  0  0  0  0
  -17.5049  -31.6295   24.5165 H   0  0  0  0  0  0
  -15.5377  -30.3014   23.7690 H   0  0  0  0  0  0
  -15.8671  -28.0846   22.7092 H   0  0  0  0  0  0
  -24.5938  -30.7046   25.7757 H   0  0  0  0  0  0
  -24.8871  -32.2939   26.4747 H   0  0  0  0  0  0
  -25.8030  -30.9025   27.0242 H   0  0  0  0  0  0
  -26.2982  -29.6721   24.1234 H   0  0  0  0  0  0
  -27.3999  -29.7260   25.4786 H   0  0  0  0  0  0
  -27.8871  -30.4239   23.9525 H   0  0  0  0  0  0
  -27.2637  -33.3685   26.1971 H   0  0  0  0  0  0
  -28.3900  -32.6845   25.0340 H   0  0  0  0  0  0
  -28.0657  -31.8535   26.5474 H   0  0  0  0  0  0
  -28.2585  -38.0073   24.7509 H   0  0  0  0  0  0
  -28.1050  -36.2598   24.6299 H   0  0  0  0  0  0
  -27.2285  -37.1422   25.8878 H   0  0  0  0  0  0
  -20.9419  -29.8763   21.6805 H   0  0  0  0  0  0
  -26.0134  -38.2816   24.1453 H   0  0  0  0  0  0
  -31.7122  -19.8128   19.8400 H   0  0  0  0  0  0
  -27.7268  -18.7857   20.9300 H   0  0  0  0  0  0
  -31.8711  -21.8478   18.4606 H   0  0  0  0  0  0
  -32.1877  -22.4700   20.0551 H   0  0  0  0  0  0
  -31.6596  -24.1103   18.0552 H   0  0  0  0  0  0
  -31.0574  -24.4540   19.6450 H   0  0  0  0  0  0
  -27.5830  -23.3272   19.0355 H   0  0  0  0  0  0
  -29.6980  -26.0206   18.2777 H   0  0  0  0  0  0
  -28.2056  -25.4247   17.5353 H   0  0  0  0  0  0
  -29.7478  -25.3142   16.7032 H   0  0  0  0  0  0
  -29.4296  -21.7896   17.3863 H   0  0  0  0  0  0
  -29.9895  -23.0365   16.3029 H   0  0  0  0  0  0
  -28.2860  -22.9226   16.7096 H   0  0  0  0  0  0
  -22.2679  -20.7861   18.9204 H   0  0  0  0  0  0
  -23.4753  -19.6164   18.3986 H   0  0  0  0  0  0
  -23.5178  -21.2646   17.7739 H   0  0  0  0  0  0
  -26.5114  -22.2801   20.9692 H   0  0  0  0  0  0
  -26.2937  -20.6723   21.5851 H   0  0  0  0  0  0
  -30.9966  -17.5708   21.5170 H   0  0  0  0  0  0
  -31.2426  -17.4752   19.8201 H   0  0  0  0  0  0
  -29.0266  -24.7011   21.2837 H   0  0  0  0  0  0
  -27.3327  -24.6056   21.0250 H   0  0  0  0  0  0
  -23.9570  -20.4992   20.7115 H   0  0  0  0  0  0
  -24.0332  -22.1261   20.0807 H   0  0  0  0  0  0
  -25.8798  -19.8456   19.2232 H   0  0  0  0  0  0
  -25.9945  -21.4914   18.6503 H   0  0  0  0  0  0
  -28.8652  -15.9883   20.6986 H   0  0  0  0  0  0
  1 25  1  0  0  0
  1 30  2  0  0  0
  1 89  1  0  0  0
  2  3  1  0  0  0
  2 25  1  0  0  0
  2 90  1  0  0  0
  2 91  1  0  0  0
  3  4  1  0  0  0
  3 92  1  0  0  0
  3 93  1  0  0  0
  4  5  1  0  0  0
  4 94  1  0  0  0
  4 95  1  0  0  0
  5  6  1  0  0  0
  5 26  1  0  0  0
  5 96  1  0  0  0
  6 25  1  0  0  0
  6 97  1  0  0  0
  6 98  1  0  0  0
  7  8  2  0  0  0
  7 26  1  0  0  0
  7 29  1  0  0  0
  8  9  1  0  0  0
  8 22  1  0  0  0
  9 10  1  0  0  0
  9 27  2  0  0  0
 10 11  2  0  0  0
 10 15  1  0  0  0
 11 12  1  0  0  0
 11 99  1  0  0  0
 12 13  2  0  0  0
 12100  1  0  0  0
 13 14  1  0  0  0
 13 31  1  0  0  0
 14 15  2  0  0  0
 14101  1  0  0  0
 15102  1  0  0  0
 16 17  2  0  0  0
 16 21  1  0  0  0
 16 31  1  0  0  0
 17 18  1  0  0  0
 17103  1  0  0  0
 18 19  2  0  0  0
 18104  1  0  0  0
 19 20  1  0  0  0
 19 24  1  0  0  0
 20 21  2  0  0  0
 20105  1  0  0  0
 21 23  1  0  0  0
 22 28  1  0  0  0
 22 32  2  0  0  0
 26 27  1  0  0  0
 28106  1  0  0  0
 28107  1  0  0  0
 29108  1  0  0  0
 29109  1  0  0  0
 33 34  1  0  0  0
 33 66  1  0  0  0
 33 70  2  0  0  0
 34 36  1  0  0  0
 34 59  1  0  0  0
 34110  1  0  0  0
 35 44  2  0  0  0
 35 45  1  0  0  0
 35 68  1  0  0  0
 36 56  1  0  0  0
 36111  1  0  0  0
 37 39  1  0  0  0
 37 47  1  0  0  0
 37 66  1  0  0  0
 37112  1  0  0  0
 38 43  2  0  0  0
 38 46  1  0  0  0
 38 47  1  0  0  0
 39 64  1  0  0  0
 39 67  2  0  0  0
 40 52  1  0  0  0
 40 53  2  0  0  0
 40 58  1  0  0  0
 41113  1  0  0  0
 41114  1  0  0  0
 41115  1  0  0  0
 41 48  1  0  0  0
 42 43  1  0  0  0
 42 66  1  0  0  0
 42116  1  0  0  0
 42117  1  0  0  0
 43 44  1  0  0  0
 44118  1  0  0  0
 45 46  2  0  0  0
 45119  1  0  0  0
 46120  1  0  0  0
 47121  1  0  0  0
 47122  1  0  0  0
 48 56  1  0  0  0
 48 65  1  0  0  0
 48123  1  0  0  0
 49 50  1  0  0  0
 49 53  1  0  0  0
 49 64  1  0  0  0
 49124  1  0  0  0
 50 51  1  0  0  0
 50125  1  0  0  0
 50126  1  0  0  0
 51 52  1  0  0  0
 51127  1  0  0  0
 51128  1  0  0  0
 52129  1  0  0  0
 52130  1  0  0  0
 53 54  1  0  0  0
 54 55  2  0  0  0
 54131  1  0  0  0
 55 57  1  0  0  0
 55132  1  0  0  0
 56 69  2  0  0  0
 57 58  2  0  0  0
 57133  1  0  0  0
 58134  1  0  0  0
 59 60  1  0  0  0
 59 61  1  0  0  0
 59 62  1  0  0  0
 60135  1  0  0  0
 60136  1  0  0  0
 60137  1  0  0  0
 61138  1  0  0  0
 61139  1  0  0  0
 61140  1  0  0  0
 62141  1  0  0  0
 62142  1  0  0  0
 62143  1  0  0  0
 63 65  1  0  0  0
 63144  1  0  0  0
 63145  1  0  0  0
 63146  1  0  0  0
 64147  1  0  0  0
 65148  1  0  0  0
 68 86  1  0  0  0
 71 73  2  0  0  0
 71 75  1  0  0  0
 71149  1  0  0  0
 72 75  2  0  0  0
 72 76  1  0  0  0
 72150  1  0  0  0
 73 74  1  0  0  0
 73 77  1  0  0  0
 74 76  2  0  0  0
 74 79  1  0  0  0
 75 85  1  0  0  0
 76 84  1  0  0  0
 77 78  1  0  0  0
 77151  1  0  0  0
 77152  1  0  0  0
 78 80  1  0  0  0
 78153  1  0  0  0
 78154  1  0  0  0
 79 80  1  0  0  0
 79 86  1  0  0  0
 79155  1  0  0  0
 80 81  1  0  0  0
 80 82  1  0  0  0
 81156  1  0  0  0
 81157  1  0  0  0
 81158  1  0  0  0
 82159  1  0  0  0
 82160  1  0  0  0
 82161  1  0  0  0
 83 87  1  0  0  0
 83162  1  0  0  0
 83163  1  0  0  0
 83164  1  0  0  0
 84 88  1  0  0  0
 84165  1  0  0  0
 84166  1  0  0  0
 85 89  1  0  0  0
 85167  1  0  0  0
 85168  1  0  0  0
 86169  1  0  0  0
 86170  1  0  0  0
 87 88  1  0  0  0
 87171  1  0  0  0
 87172  1  0  0  0
 88173  1  0  0  0
 88174  1  0  0  0
 89175  1  0  0  0
M  ISO  4   1 100  68 101  86 101  89 100
M  END
> <chiral flag>
0

> <version>
0

> <s_m_source_file>
/data/baiqing/PycharmProjects/Reinvent-master-3.2/result/LINK_invent/BTK/process_docking_weight1_custom_sum_contain_oxygen_bond_distance_aromatic_linkinvent_7_9_3/rearranged_h_0030.sdf

> <i_m_source_file_index>
69

> <r_mmod_Potential_Energy-OPLS-2005>
445.676910400391

> <r_mmod_Stretch_Energy-OPLS-2005>
205.265319824219

> <r_mmod_Bend_Energy-OPLS-2005>
283.035583496094

> <r_mmod_Torsional_Energy-OPLS-2005>
253.357437133789

> <r_mmod_Improper_Torsional_Energy-OPLS-2005>
6.44164419174194

> <r_mmod_Van_der_Waal_Energy-OPLS-2005>
138.595809936523

> <r_mmod_Electrostatic_Energy-OPLS-2005>
-386.082244873047

> <r_mmod_Solvation_Energy-OPLS-2005>
-194.083953857422

> <b_mmod_Minimization_Converged-OPLS-2005>
0

> <r_mmod_RMS_Derivative-OPLS-2005>
1.1234028339386

$$$$
69
                    3D
 Structure written by MMmdl.
157166  0  0  1  0            999 V2000
  -30.6239  -14.6851   20.4659 C   0  0  0  0  0  0
  -30.4324  -12.4169   19.4599 C   0  0  0  0  0  0
  -29.5057  -12.4988   18.2268 C   0  0  0  0  0  0
  -28.0305  -12.3312   18.6421 C   0  0  0  0  0  0
  -27.6447  -13.2233   19.8522 C   0  0  2  0  0  0
  -28.6908  -13.1289   20.9847 C   0  0  0  0  0  0
  -25.2525  -13.8183   20.5689 C   0  0  0  0  0  0
  -24.1809  -13.0441   20.9208 C   0  0  0  0  0  0
  -24.6388  -11.6914   20.8753 C   0  0  0  0  0  0
  -23.9064  -10.4293   21.0410 C   0  0  0  0  0  0
  -24.3616   -9.4208   21.9186 C   0  0  0  0  0  0
  -23.6292   -8.2244   22.0756 C   0  0  0  0  0  0
  -22.4274   -8.0281   21.3546 C   0  0  0  0  0  0
  -21.9908   -9.0256   20.4649 C   0  0  0  0  0  0
  -22.7237  -10.2134   20.3060 C   0  0  0  0  0  0
  -21.6853   -6.0735   22.5280 C   0  0  0  0  0  0
  -21.4011   -6.5639   23.8213 C   0  0  0  0  0  0
  -21.3660   -5.6793   24.9175 C   0  0  0  0  0  0
  -21.6046   -4.3056   24.7226 C   0  0  0  0  0  0
  -21.8819   -3.8146   23.4347 C   0  0  0  0  0  0
  -21.9191   -4.6963   22.3402 C   0  0  0  0  0  0
  -22.7830  -13.5227   21.1865 C   0  0  0  0  0  0
  -22.1661   -4.2148   21.0981 F   0  0  0  0  0  0
  -21.5630   -3.4540   25.7739 F   0  0  0  0  0  0
  -29.9969  -13.4661   20.4054 N   0  0  0  0  0  0
  -26.2948  -12.9377   20.3283 N   0  0  0  0  0  0
  -25.9316  -11.6527   20.5756 N   0  0  0  0  0  0
  -22.0472  -12.8222   22.0421 N   0  0  0  0  0  0
  -25.4213  -15.1908   20.4092 N   0  0  0  0  0  0
  -31.8143  -14.7960   20.1609 O   0  0  0  0  0  0
  -21.6640   -6.8878   21.4243 O   0  0  0  0  0  0
  -22.3519  -14.5534   20.6708 O   0  0  0  0  0  0
  -24.6270  -31.8577   23.2007 C   0  0  0  0  0  0
  -25.9115  -32.4765   23.8337 C   0  0  1  0  0  0
  -27.2197  -27.3005   20.1332 C   0  0  0  0  0  0
  -25.5925  -33.8567   24.2263 N   0  0  0  0  0  0
  -23.4213  -30.4805   21.5434 C   0  0  2  0  0  0
  -24.8679  -28.9291   20.1137 C   0  0  0  0  0  0
  -22.7472  -29.4618   22.4931 C   0  0  0  0  0  0
  -18.0284  -28.1393   22.8486 C   0  0  0  0  0  0
  -24.1487  -36.7288   23.2639 C   0  0  0  0  0  0
  -25.9628  -30.7848   21.3726 C   0  0  0  0  0  0
  -26.0373  -29.4088   20.7189 C   0  0  0  0  0  0
  -27.2189  -28.6077   20.7145 C   0  0  0  0  0  0
  -26.0322  -26.8765   19.5001 C   0  0  0  0  0  0
  -24.8680  -27.6691   19.4941 C   0  0  0  0  0  0
  -23.6369  -29.8124   20.1598 C   0  0  0  0  0  0
  -25.4113  -36.3076   24.0327 C   0  0  1  0  0  0
  -20.5883  -28.3695   23.1284 C   0  0  2  0  0  0
  -20.6777  -26.9419   22.5413 C   0  0  0  0  0  0
  -19.5754  -26.6392   21.5213 C   0  0  0  0  0  0
  -18.1932  -26.7934   22.1626 C   0  0  0  0  0  0
  -19.1536  -28.8860   23.2880 C   0  0  0  0  0  0
  -18.9461  -30.1462   23.8897 C   0  0  0  0  0  0
  -17.6462  -30.6594   24.0566 C   0  0  0  0  0  0
  -25.9052  -34.9445   23.5096 C   0  0  0  0  0  0
  -16.5353  -29.9095   23.6332 C   0  0  0  0  0  0
  -16.7271  -28.6515   23.0347 C   0  0  0  0  0  0
  -26.4493  -31.6582   25.0715 C   0  0  0  0  0  0
  -25.3724  -31.3729   26.1440 C   0  0  0  0  0  0
  -27.0337  -30.3002   24.6184 C   0  0  0  0  0  0
  -27.6045  -32.4318   25.7496 C   0  0  0  0  0  0
  -27.5575  -37.1799   24.8466 C   0  0  0  0  0  0
  -21.4184  -29.3046   22.3674 N   0  0  0  0  0  0
  -26.4288  -37.3775   23.9410 N   0  0  0  0  0  0
  -24.6895  -31.0579   22.0962 N   0  0  0  0  0  0
  -23.4186  -28.8161   23.3022 O   0  0  0  0  0  0
  -28.3305  -26.4421   20.1452 O   0  0  0  0  0  0
  -26.5623  -34.8917   22.4665 O   0  0  0  0  0  0
  -23.5432  -32.1379   23.7329 O   0  0  0  0  0  0
  -30.1822  -20.1191   22.1017 C   0  0  0  0  0  0
  -29.5152  -19.9584   20.8765 C   0  0  0  0  0  0
  -30.0875  -22.5768   21.9576 C   0  0  0  0  0  0
  -29.3565  -22.5110   20.7333 C   0  0  0  0  0  0
  -30.4604  -21.3879   22.6368 C   0  0  0  0  0  0
  -29.0884  -21.1765   20.2115 C   0  0  0  0  0  0
  -29.9860  -17.9278   19.2113 C   0  0  0  0  0  0
  -29.2592  -18.4815   20.4077 C   0  0  1  0  0  0
  -30.2409  -17.2334   20.5354 C   0  0  1  0  0  0
  -30.5173  -23.9117   22.5632 C   0  0  0  0  0  0
  -29.0233  -23.8642   19.9544 C   0  0  0  0  0  0
  -28.1425  -25.0372   20.6111 C   0  0  0  0  0  0
  -29.8358  -15.8034   20.6298 N   0  0  0  0  0  0
  -31.2853  -21.4434   24.1564 Cl  0  0  0  0  0  0
  -28.2341  -21.0099   18.7184 Cl  0  0  0  0  0  0
  -31.4738  -12.5383   19.1561 H   0  0  0  0  0  0
  -30.3694  -11.4335   19.9290 H   0  0  0  0  0  0
  -29.7776  -11.7339   17.4983 H   0  0  0  0  0  0
  -29.6390  -13.4595   17.7265 H   0  0  0  0  0  0
  -27.8782  -11.2814   18.8952 H   0  0  0  0  0  0
  -27.3731  -12.5367   17.7963 H   0  0  0  0  0  0
  -27.6473  -14.2487   19.4828 H   0  0  0  0  0  0
  -28.7132  -12.1243   21.4093 H   0  0  0  0  0  0
  -28.4381  -13.8016   21.8058 H   0  0  0  0  0  0
  -25.2759   -9.5686   22.4764 H   0  0  0  0  0  0
  -24.0001   -7.4634   22.7475 H   0  0  0  0  0  0
  -21.0840   -8.8775   19.8954 H   0  0  0  0  0  0
  -22.3694  -10.9676   19.6172 H   0  0  0  0  0  0
  -21.2003   -7.6147   23.9716 H   0  0  0  0  0  0
  -21.1483   -6.0522   25.9079 H   0  0  0  0  0  0
  -22.0596   -2.7609   23.2848 H   0  0  0  0  0  0
  -22.4085  -11.9883   22.4814 H   0  0  0  0  0  0
  -21.1091  -13.1251   22.2626 H   0  0  0  0  0  0
  -24.6497  -15.8401   20.5179 H   0  0  0  0  0  0
  -26.2580  -15.6310   20.0502 H   0  0  0  0  0  0
  -26.7186  -32.5430   23.1085 H   0  0  0  0  0  0
  -25.0074  -33.9709   25.0410 H   0  0  0  0  0  0
  -22.7162  -31.3016   21.3985 H   0  0  0  0  0  0
  -23.3745  -35.9624   23.3303 H   0  0  0  0  0  0
  -24.3575  -36.8907   22.2054 H   0  0  0  0  0  0
  -23.7245  -37.6492   23.6661 H   0  0  0  0  0  0
  -26.0929  -31.5457   20.6012 H   0  0  0  0  0  0
  -26.8443  -30.8362   22.0000 H   0  0  0  0  0  0
  -28.1177  -28.9728   21.1915 H   0  0  0  0  0  0
  -25.9949  -25.9137   19.0109 H   0  0  0  0  0  0
  -23.9731  -27.2981   19.0131 H   0  0  0  0  0  0
  -23.7576  -30.5871   19.4016 H   0  0  0  0  0  0
  -22.7559  -29.2429   19.8576 H   0  0  0  0  0  0
  -25.1295  -36.1920   25.0821 H   0  0  0  0  0  0
  -20.9979  -28.3276   24.1402 H   0  0  0  0  0  0
  -20.5686  -26.2305   23.3612 H   0  0  0  0  0  0
  -21.6646  -26.7458   22.1204 H   0  0  0  0  0  0
  -19.6922  -25.6303   21.1243 H   0  0  0  0  0  0
  -19.6695  -27.3202   20.6743 H   0  0  0  0  0  0
  -17.4203  -26.6670   21.4029 H   0  0  0  0  0  0
  -18.0341  -26.0079   22.9028 H   0  0  0  0  0  0
  -19.7936  -30.7280   24.2264 H   0  0  0  0  0  0
  -17.5018  -31.6272   24.5168 H   0  0  0  0  0  0
  -15.5355  -30.3002   23.7657 H   0  0  0  0  0  0
  -15.8668  -28.0842   22.7059 H   0  0  0  0  0  0
  -24.5899  -30.7075   25.7774 H   0  0  0  0  0  0
  -24.8917  -32.2902   26.4850 H   0  0  0  0  0  0
  -25.8047  -30.8919   27.0223 H   0  0  0  0  0  0
  -26.2913  -29.6742   24.1219 H   0  0  0  0  0  0
  -27.4038  -29.7267   25.4692 H   0  0  0  0  0  0
  -27.8779  -30.4276   23.9404 H   0  0  0  0  0  0
  -27.2644  -33.3617   26.2064 H   0  0  0  0  0  0
  -28.3867  -32.6877   25.0339 H   0  0  0  0  0  0
  -28.0696  -31.8448   26.5423 H   0  0  0  0  0  0
  -28.2596  -38.0092   24.7509 H   0  0  0  0  0  0
  -28.1066  -36.2623   24.6298 H   0  0  0  0  0  0
  -27.2291  -37.1460   25.8869 H   0  0  0  0  0  0
  -20.9360  -29.8760   21.6877 H   0  0  0  0  0  0
  -26.0160  -38.2847   24.1411 H   0  0  0  0  0  0
  -30.4925  -19.2441   22.6538 H   0  0  0  0  0  0
  -30.8050  -18.5158   18.8016 H   0  0  0  0  0  0
  -29.3883  -17.4007   18.4699 H   0  0  0  0  0  0
  -28.1931  -18.2723   20.4730 H   0  0  0  0  0  0
  -31.1990  -17.4573   21.0025 H   0  0  0  0  0  0
  -29.7925  -24.2397   23.3090 H   0  0  0  0  0  0
  -30.6376  -24.7002   21.8240 H   0  0  0  0  0  0
  -31.4872  -23.8363   23.0537 H   0  0  0  0  0  0
  -28.5771  -23.6276   18.9899 H   0  0  0  0  0  0
  -29.9894  -24.2936   19.6892 H   0  0  0  0  0  0
  -28.3408  -25.0805   21.6795 H   0  0  0  0  0  0
  -27.0985  -24.7308   20.5613 H   0  0  0  0  0  0
  -28.8631  -15.6244   20.8277 H   0  0  0  0  0  0
  1 25  1  0  0  0
  1 30  2  0  0  0
  1 83  1  0  0  0
  2  3  1  0  0  0
  2 25  1  0  0  0
  2 86  1  0  0  0
  2 87  1  0  0  0
  3  4  1  0  0  0
  3 88  1  0  0  0
  3 89  1  0  0  0
  4  5  1  0  0  0
  4 90  1  0  0  0
  4 91  1  0  0  0
  5  6  1  0  0  0
  5 26  1  0  0  0
  5 92  1  0  0  0
  6 25  1  0  0  0
  6 93  1  0  0  0
  6 94  1  0  0  0
  7  8  2  0  0  0
  7 26  1  0  0  0
  7 29  1  0  0  0
  8  9  1  0  0  0
  8 22  1  0  0  0
  9 10  1  0  0  0
  9 27  2  0  0  0
 10 11  2  0  0  0
 10 15  1  0  0  0
 11 12  1  0  0  0
 11 95  1  0  0  0
 12 13  2  0  0  0
 12 96  1  0  0  0
 13 14  1  0  0  0
 13 31  1  0  0  0
 14 15  2  0  0  0
 14 97  1  0  0  0
 15 98  1  0  0  0
 16 17  2  0  0  0
 16 21  1  0  0  0
 16 31  1  0  0  0
 17 18  1  0  0  0
 17 99  1  0  0  0
 18 19  2  0  0  0
 18100  1  0  0  0
 19 20  1  0  0  0
 19 24  1  0  0  0
 20 21  2  0  0  0
 20101  1  0  0  0
 21 23  1  0  0  0
 22 28  1  0  0  0
 22 32  2  0  0  0
 26 27  1  0  0  0
 28102  1  0  0  0
 28103  1  0  0  0
 29104  1  0  0  0
 29105  1  0  0  0
 33 34  1  0  0  0
 33 66  1  0  0  0
 33 70  2  0  0  0
 34 36  1  0  0  0
 34 59  1  0  0  0
 34106  1  0  0  0
 35 44  2  0  0  0
 35 45  1  0  0  0
 35 68  1  0  0  0
 36 56  1  0  0  0
 36107  1  0  0  0
 37 39  1  0  0  0
 37 47  1  0  0  0
 37 66  1  0  0  0
 37108  1  0  0  0
 38 43  2  0  0  0
 38 46  1  0  0  0
 38 47  1  0  0  0
 39 64  1  0  0  0
 39 67  2  0  0  0
 40 52  1  0  0  0
 40 53  2  0  0  0
 40 58  1  0  0  0
 41109  1  0  0  0
 41110  1  0  0  0
 41111  1  0  0  0
 41 48  1  0  0  0
 42 43  1  0  0  0
 42 66  1  0  0  0
 42112  1  0  0  0
 42113  1  0  0  0
 43 44  1  0  0  0
 44114  1  0  0  0
 45 46  2  0  0  0
 45115  1  0  0  0
 46116  1  0  0  0
 47117  1  0  0  0
 47118  1  0  0  0
 48 56  1  0  0  0
 48 65  1  0  0  0
 48119  1  0  0  0
 49 50  1  0  0  0
 49 53  1  0  0  0
 49 64  1  0  0  0
 49120  1  0  0  0
 50 51  1  0  0  0
 50121  1  0  0  0
 50122  1  0  0  0
 51 52  1  0  0  0
 51123  1  0  0  0
 51124  1  0  0  0
 52125  1  0  0  0
 52126  1  0  0  0
 53 54  1  0  0  0
 54 55  2  0  0  0
 54127  1  0  0  0
 55 57  1  0  0  0
 55128  1  0  0  0
 56 69  2  0  0  0
 57 58  2  0  0  0
 57129  1  0  0  0
 58130  1  0  0  0
 59 60  1  0  0  0
 59 61  1  0  0  0
 59 62  1  0  0  0
 60131  1  0  0  0
 60132  1  0  0  0
 60133  1  0  0  0
 61134  1  0  0  0
 61135  1  0  0  0
 61136  1  0  0  0
 62137  1  0  0  0
 62138  1  0  0  0
 62139  1  0  0  0
 63 65  1  0  0  0
 63140  1  0  0  0
 63141  1  0  0  0
 63142  1  0  0  0
 64143  1  0  0  0
 65144  1  0  0  0
 68 82  1  0  0  0
 71 72  2  0  0  0
 71 75  1  0  0  0
 71145  1  0  0  0
 72 76  1  0  0  0
 72 78  1  0  0  0
 73 74  1  0  0  0
 73 75  2  0  0  0
 73 80  1  0  0  0
 74 76  2  0  0  0
 74 81  1  0  0  0
 75 84  1  0  0  0
 76 85  1  0  0  0
 77 78  1  0  0  0
 77 79  1  0  0  0
 77146  1  0  0  0
 77147  1  0  0  0
 78 79  1  0  0  0
 78148  1  0  0  0
 79 83  1  0  0  0
 79149  1  0  0  0
 80150  1  0  0  0
 80151  1  0  0  0
 80152  1  0  0  0
 81 82  1  0  0  0
 81153  1  0  0  0
 81154  1  0  0  0
 82155  1  0  0  0
 82156  1  0  0  0
 83157  1  0  0  0
M  ISO  4   1 100  68 101  82 101  83 100
M  END
> <chiral flag>
0

> <version>
0

> <s_m_source_file>
/data/baiqing/PycharmProjects/Reinvent-master-3.2/result/LINK_invent/BTK/process_docking_weight1_custom_sum_contain_oxygen_bond_distance_aromatic_linkinvent_7_9_3/rearranged_h_0030.sdf

> <i_m_source_file_index>
70

> <r_mmod_Potential_Energy-OPLS-2005>
149.846343994141

> <r_mmod_Stretch_Energy-OPLS-2005>
104.023429870605

> <r_mmod_Bend_Energy-OPLS-2005>
137.269683837891

> <r_mmod_Torsional_Energy-OPLS-2005>
283.744873046875

> <r_mmod_Improper_Torsional_Energy-OPLS-2005>
6.20117950439453

> <r_mmod_Van_der_Waal_Energy-OPLS-2005>
140.964477539062

> <r_mmod_Electrostatic_Energy-OPLS-2005>
-377.438110351562

> <r_mmod_Solvation_Energy-OPLS-2005>
-206.818069458008

> <b_mmod_Minimization_Converged-OPLS-2005>
0

> <r_mmod_RMS_Derivative-OPLS-2005>
0.71051949262619

$$$$
70
                    3D
 Structure written by MMmdl.
149156  0  0  1  0            999 V2000
  -30.4616  -15.1887   20.3745 C   0  0  0  0  0  0
  -30.4382  -12.7500   19.5342 C   0  0  0  0  0  0
  -29.5334  -12.5739   18.2888 C   0  0  0  0  0  0
  -28.0769  -12.3126   18.7080 C   0  0  0  0  0  0
  -27.6179  -13.2713   19.8345 C   0  0  2  0  0  0
  -28.6515  -13.4104   20.9739 C   0  0  0  0  0  0
  -25.2416  -13.8252   20.5744 C   0  0  0  0  0  0
  -24.1758  -13.0443   20.9248 C   0  0  0  0  0  0
  -24.6407  -11.6934   20.8763 C   0  0  0  0  0  0
  -23.9093  -10.4293   21.0410 C   0  0  0  0  0  0
  -24.3631   -9.4207   21.9191 C   0  0  0  0  0  0
  -23.6304   -8.2242   22.0750 C   0  0  0  0  0  0
  -22.4291   -8.0284   21.3537 C   0  0  0  0  0  0
  -21.9931   -9.0256   20.4639 C   0  0  0  0  0  0
  -22.7263  -10.2135   20.3058 C   0  0  0  0  0  0
  -21.6861   -6.0737   22.5268 C   0  0  0  0  0  0
  -21.4017   -6.5635   23.8202 C   0  0  0  0  0  0
  -21.3666   -5.6788   24.9166 C   0  0  0  0  0  0
  -21.6054   -4.3050   24.7215 C   0  0  0  0  0  0
  -21.8821   -3.8142   23.4334 C   0  0  0  0  0  0
  -21.9198   -4.6963   22.3392 C   0  0  0  0  0  0
  -22.7774  -13.5193   21.1900 C   0  0  0  0  0  0
  -22.1665   -4.2145   21.0971 F   0  0  0  0  0  0
  -21.5640   -3.4538   25.7732 F   0  0  0  0  0  0
  -29.9004  -13.8876   20.3620 N   0  0  0  0  0  0
  -26.2844  -12.9516   20.3255 N   0  0  0  0  0  0
  -25.9348  -11.6624   20.5736 N   0  0  0  0  0  0
  -22.0438  -12.8170   22.0460 N   0  0  0  0  0  0
  -25.4096  -15.1979   20.4147 N   0  0  0  0  0  0
  -31.6666  -15.2130   20.0903 O   0  0  0  0  0  0
  -21.6659   -6.8882   21.4228 O   0  0  0  0  0  0
  -22.3450  -14.5504   20.6759 O   0  0  0  0  0  0
  -24.6584  -31.8281   23.1732 C   0  0  0  0  0  0
  -25.9288  -32.4613   23.8181 C   0  0  1  0  0  0
  -27.2196  -26.9710   20.1714 C   0  0  0  0  0  0
  -25.5966  -33.8427   24.2096 N   0  0  0  0  0  0
  -23.4713  -30.4405   21.5212 C   0  0  2  0  0  0
  -24.9224  -28.8346   20.1077 C   0  0  0  0  0  0
  -22.7650  -29.4466   22.4796 C   0  0  0  0  0  0
  -18.0309  -28.1395   22.8456 C   0  0  0  0  0  0
  -24.1497  -36.7230   23.2648 C   0  0  0  0  0  0
  -26.0367  -30.6461   21.3971 C   0  0  0  0  0  0
  -26.1020  -29.2395   20.7429 C   0  0  0  0  0  0
  -27.2411  -28.3257   20.7562 C   0  0  0  0  0  0
  -26.0149  -26.7114   19.4799 C   0  0  0  0  0  0
  -24.9017  -27.5896   19.4581 C   0  0  0  0  0  0
  -23.7058  -29.7559   20.1457 C   0  0  0  0  0  0
  -25.4136  -36.3000   24.0307 C   0  0  1  0  0  0
  -20.5934  -28.3744   23.1186 C   0  0  2  0  0  0
  -20.6787  -26.9430   22.5395 C   0  0  0  0  0  0
  -19.5767  -26.6369   21.5203 C   0  0  0  0  0  0
  -18.1950  -26.7927   22.1610 C   0  0  0  0  0  0
  -19.1572  -28.8888   23.2813 C   0  0  0  0  0  0
  -18.9486  -30.1473   23.8851 C   0  0  0  0  0  0
  -17.6482  -30.6589   24.0551 C   0  0  0  0  0  0
  -25.9092  -34.9371   23.5025 C   0  0  0  0  0  0
  -16.5369  -29.9079   23.6337 C   0  0  0  0  0  0
  -16.7293  -28.6498   23.0360 C   0  0  0  0  0  0
  -26.4544  -31.6537   25.0690 C   0  0  0  0  0  0
  -25.3674  -31.3766   26.1345 C   0  0  0  0  0  0
  -27.0433  -30.2907   24.6399 C   0  0  0  0  0  0
  -27.6056  -32.4323   25.7484 C   0  0  0  0  0  0
  -27.5581  -37.1777   24.8467 C   0  0  0  0  0  0
  -21.4324  -29.3055   22.3554 N   0  0  0  0  0  0
  -26.4289  -37.3728   23.9408 N   0  0  0  0  0  0
  -24.7437  -30.9980   22.0843 N   0  0  0  0  0  0
  -23.4216  -28.8033   23.3023 O   0  0  0  0  0  0
  -28.2396  -25.9032   20.2958 O   0  0  0  0  0  0
  -26.5713  -34.8896   22.4627 O   0  0  0  0  0  0
  -23.5658  -32.1229   23.6840 O   0  0  0  0  0  0
  -27.5017  -22.5377   21.6527 C   0  0  0  0  0  0
  -29.1342  -19.5377   20.6561 C   0  0  0  0  0  0
  -29.0336  -21.1800   19.9607 C   0  0  0  0  0  0
  -29.8710  -18.0252   20.0713 C   0  0  0  0  0  0
  -28.2033  -24.3326   19.8476 C   0  0  0  0  0  0
  -28.6151  -22.7826   20.6281 C   0  0  1  0  0  0
  -29.6893  -16.4352   20.5003 N   0  0  0  0  0  0
  -31.4644  -12.9332   19.2137 H   0  0  0  0  0  0
  -30.4765  -11.8294   20.1192 H   0  0  0  0  0  0
  -29.8956  -11.7575   17.6637 H   0  0  0  0  0  0
  -29.5798  -13.4769   17.6773 H   0  0  0  0  0  0
  -28.0138  -11.2804   19.0540 H   0  0  0  0  0  0
  -27.4113  -12.3889   17.8473 H   0  0  0  0  0  0
  -27.5461  -14.2484   19.3558 H   0  0  0  0  0  0
  -28.7953  -12.4686   21.5048 H   0  0  0  0  0  0
  -28.3049  -14.1352   21.7127 H   0  0  0  0  0  0
  -25.2763   -9.5690   22.4783 H   0  0  0  0  0  0
  -24.0015   -7.4629   22.7463 H   0  0  0  0  0  0
  -21.0868   -8.8771   19.8928 H   0  0  0  0  0  0
  -22.3713  -10.9682   19.6176 H   0  0  0  0  0  0
  -21.2002   -7.6140   23.9695 H   0  0  0  0  0  0
  -21.1499   -6.0526   25.9068 H   0  0  0  0  0  0
  -22.0600   -2.7605   23.2836 H   0  0  0  0  0  0
  -22.4057  -11.9817   22.4822 H   0  0  0  0  0  0
  -21.1045  -13.1166   22.2661 H   0  0  0  0  0  0
  -24.6466  -15.8576   20.5223 H   0  0  0  0  0  0
  -26.2571  -15.6279   20.0681 H   0  0  0  0  0  0
  -26.7360  -32.5159   23.0901 H   0  0  0  0  0  0
  -25.0059  -33.9514   25.0207 H   0  0  0  0  0  0
  -22.7823  -31.2706   21.3533 H   0  0  0  0  0  0
  -23.3772  -35.9545   23.3279 H   0  0  0  0  0  0
  -24.3577  -36.8900   22.2068 H   0  0  0  0  0  0
  -23.7229  -37.6405   23.6707 H   0  0  0  0  0  0
  -26.2109  -31.3845   20.6136 H   0  0  0  0  0  0
  -26.9008  -30.7041   22.0478 H   0  0  0  0  0  0
  -28.1309  -28.6281   21.2893 H   0  0  0  0  0  0
  -25.8868  -25.7656   18.9776 H   0  0  0  0  0  0
  -24.0045  -27.2755   18.9424 H   0  0  0  0  0  0
  -23.8540  -30.5235   19.3852 H   0  0  0  0  0  0
  -22.8163  -29.2055   19.8338 H   0  0  0  0  0  0
  -25.1326  -36.1819   25.0796 H   0  0  0  0  0  0
  -21.0020  -28.3345   24.1312 H   0  0  0  0  0  0
  -20.5649  -26.2378   23.3637 H   0  0  0  0  0  0
  -21.6657  -26.7395   22.1226 H   0  0  0  0  0  0
  -19.6941  -25.6273   21.1264 H   0  0  0  0  0  0
  -19.6707  -27.3149   20.6708 H   0  0  0  0  0  0
  -17.4224  -26.6652   21.4014 H   0  0  0  0  0  0
  -18.0361  -26.0069   22.9007 H   0  0  0  0  0  0
  -19.7960  -30.7295   24.2217 H   0  0  0  0  0  0
  -17.5031  -31.6265   24.5162 H   0  0  0  0  0  0
  -15.5372  -30.2972   23.7682 H   0  0  0  0  0  0
  -15.8687  -28.0798   22.7114 H   0  0  0  0  0  0
  -24.5882  -30.7092   25.7644 H   0  0  0  0  0  0
  -24.8826  -32.2949   26.4659 H   0  0  0  0  0  0
  -25.7899  -30.9002   27.0199 H   0  0  0  0  0  0
  -26.3085  -29.6586   24.1406 H   0  0  0  0  0  0
  -27.3976  -29.7268   25.5041 H   0  0  0  0  0  0
  -27.9019  -30.4093   23.9789 H   0  0  0  0  0  0
  -27.2653  -33.3665   26.1954 H   0  0  0  0  0  0
  -28.3917  -32.6811   25.0346 H   0  0  0  0  0  0
  -28.0666  -31.8515   26.5481 H   0  0  0  0  0  0
  -28.2590  -38.0088   24.7527 H   0  0  0  0  0  0
  -28.1090  -36.2616   24.6277 H   0  0  0  0  0  0
  -27.2298  -37.1405   25.8871 H   0  0  0  0  0  0
  -20.9574  -29.8781   21.6714 H   0  0  0  0  0  0
  -26.0151  -38.2796   24.1395 H   0  0  0  0  0  0
  -27.7616  -21.7340   22.3415 H   0  0  0  0  0  0
  -26.5694  -22.2635   21.1575 H   0  0  0  0  0  0
  -27.3131  -23.4337   22.2470 H   0  0  0  0  0  0
  -28.0990  -19.2766   20.8779 H   0  0  0  0  0  0
  -29.5760  -19.6826   21.6419 H   0  0  0  0  0  0
  -28.3674  -21.0615   19.1051 H   0  0  0  0  0  0
  -30.0084  -21.3365   19.4968 H   0  0  0  0  0  0
  -30.9484  -18.1952   20.0977 H   0  0  0  0  0  0
  -29.6420  -18.0077   19.0058 H   0  0  0  0  0  0
  -27.2138  -24.1644   19.4270 H   0  0  0  0  0  0
  -28.8419  -24.3465   18.9639 H   0  0  0  0  0  0
  -29.5011  -23.0310   21.2130 H   0  0  0  0  0  0
  -28.7411  -16.2297   20.7823 H   0  0  0  0  0  0
  1 25  1  0  0  0
  1 30  2  0  0  0
  1 77  1  0  0  0
  2  3  1  0  0  0
  2 25  1  0  0  0
  2 78  1  0  0  0
  2 79  1  0  0  0
  3  4  1  0  0  0
  3 80  1  0  0  0
  3 81  1  0  0  0
  4  5  1  0  0  0
  4 82  1  0  0  0
  4 83  1  0  0  0
  5  6  1  0  0  0
  5 26  1  0  0  0
  5 84  1  0  0  0
  6 25  1  0  0  0
  6 85  1  0  0  0
  6 86  1  0  0  0
  7  8  2  0  0  0
  7 26  1  0  0  0
  7 29  1  0  0  0
  8  9  1  0  0  0
  8 22  1  0  0  0
  9 10  1  0  0  0
  9 27  2  0  0  0
 10 11  2  0  0  0
 10 15  1  0  0  0
 11 12  1  0  0  0
 11 87  1  0  0  0
 12 13  2  0  0  0
 12 88  1  0  0  0
 13 14  1  0  0  0
 13 31  1  0  0  0
 14 15  2  0  0  0
 14 89  1  0  0  0
 15 90  1  0  0  0
 16 17  2  0  0  0
 16 21  1  0  0  0
 16 31  1  0  0  0
 17 18  1  0  0  0
 17 91  1  0  0  0
 18 19  2  0  0  0
 18 92  1  0  0  0
 19 20  1  0  0  0
 19 24  1  0  0  0
 20 21  2  0  0  0
 20 93  1  0  0  0
 21 23  1  0  0  0
 22 28  1  0  0  0
 22 32  2  0  0  0
 26 27  1  0  0  0
 28 94  1  0  0  0
 28 95  1  0  0  0
 29 96  1  0  0  0
 29 97  1  0  0  0
 33 34  1  0  0  0
 33 66  1  0  0  0
 33 70  2  0  0  0
 34 36  1  0  0  0
 34 59  1  0  0  0
 34 98  1  0  0  0
 35 44  2  0  0  0
 35 45  1  0  0  0
 35 68  1  0  0  0
 36 56  1  0  0  0
 36 99  1  0  0  0
 37 39  1  0  0  0
 37 47  1  0  0  0
 37 66  1  0  0  0
 37100  1  0  0  0
 38 43  2  0  0  0
 38 46  1  0  0  0
 38 47  1  0  0  0
 39 64  1  0  0  0
 39 67  2  0  0  0
 40 52  1  0  0  0
 40 53  2  0  0  0
 40 58  1  0  0  0
 41101  1  0  0  0
 41102  1  0  0  0
 41103  1  0  0  0
 41 48  1  0  0  0
 42 43  1  0  0  0
 42 66  1  0  0  0
 42104  1  0  0  0
 42105  1  0  0  0
 43 44  1  0  0  0
 44106  1  0  0  0
 45 46  2  0  0  0
 45107  1  0  0  0
 46108  1  0  0  0
 47109  1  0  0  0
 47110  1  0  0  0
 48 56  1  0  0  0
 48 65  1  0  0  0
 48111  1  0  0  0
 49 50  1  0  0  0
 49 53  1  0  0  0
 49 64  1  0  0  0
 49112  1  0  0  0
 50 51  1  0  0  0
 50113  1  0  0  0
 50114  1  0  0  0
 51 52  1  0  0  0
 51115  1  0  0  0
 51116  1  0  0  0
 52117  1  0  0  0
 52118  1  0  0  0
 53 54  1  0  0  0
 54 55  2  0  0  0
 54119  1  0  0  0
 55 57  1  0  0  0
 55120  1  0  0  0
 56 69  2  0  0  0
 57 58  2  0  0  0
 57121  1  0  0  0
 58122  1  0  0  0
 59 60  1  0  0  0
 59 61  1  0  0  0
 59 62  1  0  0  0
 60123  1  0  0  0
 60124  1  0  0  0
 60125  1  0  0  0
 61126  1  0  0  0
 61127  1  0  0  0
 61128  1  0  0  0
 62129  1  0  0  0
 62130  1  0  0  0
 62131  1  0  0  0
 63 65  1  0  0  0
 63132  1  0  0  0
 63133  1  0  0  0
 63134  1  0  0  0
 64135  1  0  0  0
 65136  1  0  0  0
 68 75  1  0  0  0
 71137  1  0  0  0
 71138  1  0  0  0
 71139  1  0  0  0
 71 76  1  0  0  0
 72 73  1  0  0  0
 72 74  1  0  0  0
 72140  1  0  0  0
 72141  1  0  0  0
 73 76  1  0  0  0
 73142  1  0  0  0
 73143  1  0  0  0
 74 77  1  0  0  0
 74144  1  0  0  0
 74145  1  0  0  0
 75 76  1  0  0  0
 75146  1  0  0  0
 75147  1  0  0  0
 76148  1  0  0  0
 77149  1  0  0  0
M  ISO  4   1 100  68 101  75 101  77 100
M  END
> <chiral flag>
0

> <version>
0

> <s_m_source_file>
/data/baiqing/PycharmProjects/Reinvent-master-3.2/result/LINK_invent/BTK/process_docking_weight1_custom_sum_contain_oxygen_bond_distance_aromatic_linkinvent_7_9_3/rearranged_h_0030.sdf

> <i_m_source_file_index>
71

> <r_mmod_Potential_Energy-OPLS-2005>
1130.95324707031

> <r_mmod_Stretch_Energy-OPLS-2005>
556.40869140625

> <r_mmod_Bend_Energy-OPLS-2005>
417.841278076172

> <r_mmod_Torsional_Energy-OPLS-2005>
216.842102050781

> <r_mmod_Improper_Torsional_Energy-OPLS-2005>
4.61299324035645

> <r_mmod_Van_der_Waal_Energy-OPLS-2005>
109.094375610352

> <r_mmod_Electrostatic_Energy-OPLS-2005>
-352.706268310547

> <r_mmod_Solvation_Energy-OPLS-2005>
-208.096649169922

> <b_mmod_Minimization_Converged-OPLS-2005>
0

> <r_mmod_RMS_Derivative-OPLS-2005>
1.63280653953552

$$$$
71
                    3D
 Structure written by MMmdl.
166175  0  0  1  0            999 V2000
  -30.7492  -14.3713   20.6058 C   0  0  0  0  0  0
  -30.4125  -12.2569   19.4087 C   0  0  0  0  0  0
  -29.4853  -12.5006   18.2013 C   0  0  0  0  0  0
  -28.0058  -12.3807   18.6138 C   0  0  0  0  0  0
  -27.6680  -13.2028   19.8864 C   0  0  2  0  0  0
  -28.7073  -12.9457   21.0019 C   0  0  0  0  0  0
  -25.2622  -13.8162   20.5700 C   0  0  0  0  0  0
  -24.1850  -13.0447   20.9187 C   0  0  0  0  0  0
  -24.6393  -11.6914   20.8743 C   0  0  0  0  0  0
  -23.9056  -10.4304   21.0413 C   0  0  0  0  0  0
  -24.3609   -9.4221   21.9191 C   0  0  0  0  0  0
  -23.6289   -8.2253   22.0754 C   0  0  0  0  0  0
  -22.4274   -8.0291   21.3538 C   0  0  0  0  0  0
  -21.9918   -9.0263   20.4633 C   0  0  0  0  0  0
  -22.7241  -10.2147   20.3054 C   0  0  0  0  0  0
  -21.6853   -6.0746   22.5275 C   0  0  0  0  0  0
  -21.4013   -6.5649   23.8209 C   0  0  0  0  0  0
  -21.3658   -5.6803   24.9173 C   0  0  0  0  0  0
  -21.6044   -4.3063   24.7222 C   0  0  0  0  0  0
  -21.8820   -3.8156   23.4342 C   0  0  0  0  0  0
  -21.9198   -4.6975   22.3401 C   0  0  0  0  0  0
  -22.7876  -13.5257   21.1834 C   0  0  0  0  0  0
  -22.1668   -4.2165   21.0975 F   0  0  0  0  0  0
  -21.5630   -3.4540   25.7729 F   0  0  0  0  0  0
  -30.0489  -13.2205   20.4563 N   0  0  0  0  0  0
  -26.3051  -12.9324   20.3423 N   0  0  0  0  0  0
  -25.9321  -11.6486   20.5793 N   0  0  0  0  0  0
  -22.0507  -12.8231   22.0367 N   0  0  0  0  0  0
  -25.4373  -15.1865   20.4078 N   0  0  0  0  0  0
  -31.8366  -14.5823   20.0599 O   0  0  0  0  0  0
  -21.6632   -6.8892   21.4235 O   0  0  0  0  0  0
  -22.3574  -14.5572   20.6699 O   0  0  0  0  0  0
  -24.6083  -31.8714   23.2119 C   0  0  0  0  0  0
  -25.8984  -32.4855   23.8427 C   0  0  1  0  0  0
  -27.2541  -27.4924   20.0964 C   0  0  0  0  0  0
  -25.5859  -33.8651   24.2366 N   0  0  0  0  0  0
  -23.3963  -30.4895   21.5516 C   0  0  2  0  0  0
  -24.8479  -28.9610   20.1145 C   0  0  0  0  0  0
  -22.7388  -29.4661   22.5037 C   0  0  0  0  0  0
  -18.0259  -28.1355   22.8499 C   0  0  0  0  0  0
  -24.1481  -36.7322   23.2634 C   0  0  0  0  0  0
  -25.9136  -30.8586   21.3504 C   0  0  0  0  0  0
  -25.9984  -29.4929   20.7091 C   0  0  0  0  0  0
  -27.2035  -28.7665   20.7018 C   0  0  0  0  0  0
  -26.0979  -26.9715   19.4819 C   0  0  0  0  0  0
  -24.8903  -27.6978   19.4947 C   0  0  0  0  0  0
  -23.5997  -29.8113   20.1681 C   0  0  0  0  0  0
  -25.4099  -36.3137   24.0342 C   0  0  1  0  0  0
  -20.5847  -28.3642   23.1325 C   0  0  2  0  0  0
  -20.6752  -26.9389   22.5394 C   0  0  0  0  0  0
  -19.5725  -26.6403   21.5185 C   0  0  0  0  0  0
  -18.1903  -26.7913   22.1611 C   0  0  0  0  0  0
  -19.1513  -28.8812   23.2913 C   0  0  0  0  0  0
  -18.9439  -30.1410   23.8937 C   0  0  0  0  0  0
  -17.6444  -30.6568   24.0562 C   0  0  0  0  0  0
  -25.9013  -34.9496   23.5158 C   0  0  0  0  0  0
  -16.5332  -29.9070   23.6313 C   0  0  0  0  0  0
  -16.7252  -28.6476   23.0359 C   0  0  0  0  0  0
  -26.4445  -31.6608   25.0719 C   0  0  0  0  0  0
  -25.3729  -31.3624   26.1473 C   0  0  0  0  0  0
  -27.0276  -30.3095   24.5982 C   0  0  0  0  0  0
  -27.6061  -32.4300   25.7452 C   0  0  0  0  0  0
  -27.5583  -37.1810   24.8465 C   0  0  0  0  0  0
  -21.4120  -29.3026   22.3762 N   0  0  0  0  0  0
  -26.4299  -37.3808   23.9403 N   0  0  0  0  0  0
  -24.6582  -31.0856   22.0992 N   0  0  0  0  0  0
  -23.4174  -28.8204   23.3068 O   0  0  0  0  0  0
  -28.3980  -26.7324   20.0879 O   0  0  0  0  0  0
  -26.5580  -34.8937   22.4721 O   0  0  0  0  0  0
  -23.5292  -32.1446   23.7541 O   0  0  0  0  0  0
  -28.8732  -21.7850   19.7681 C   0  0  0  0  0  0
  -28.6689  -19.7618   21.7014 C   0  0  0  0  0  0
  -28.9412  -22.1303   21.1390 C   0  0  0  0  0  0
  -28.6760  -19.4216   20.3345 C   0  0  0  0  0  0
  -28.7545  -20.4430   19.3672 C   0  0  0  0  0  0
  -28.8040  -21.1030   22.1070 C   0  0  0  0  0  0
  -27.8530  -24.3333   21.7937 C   0  0  0  0  0  0
  -30.1011  -24.3702   20.6126 C   0  0  0  0  0  0
  -28.1169  -25.7557   22.3175 C   0  0  0  0  0  0
  -30.3526  -25.7931   21.1322 C   0  0  0  0  0  0
  -29.1756  -23.5799   21.5660 C   0  0  2  0  0  0
  -29.0332  -26.5506   21.3586 C   0  0  1  0  0  0
  -28.6786  -17.9654   19.9086 C   0  0  0  0  0  0
  -30.1112  -17.4031   19.9009 C   0  0  0  0  0  0
  -30.5403  -16.7431   21.2305 C   0  0  0  0  0  0
  -30.1245  -15.3430   21.2805 N   0  0  0  0  0  0
  -28.7511  -20.1395   18.0469 F   0  0  0  0  0  0
  -28.8124  -21.4426   23.8022 Cl  0  0  0  0  0  0
  -31.4575  -12.3388   19.1041 H   0  0  0  0  0  0
  -30.2950  -11.2394   19.7856 H   0  0  0  0  0  0
  -29.7076  -11.7868   17.4066 H   0  0  0  0  0  0
  -29.6712  -13.4918   17.7848 H   0  0  0  0  0  0
  -27.7951  -11.3245   18.7877 H   0  0  0  0  0  0
  -27.3603  -12.6884   17.7902 H   0  0  0  0  0  0
  -27.7278  -14.2567   19.6136 H   0  0  0  0  0  0
  -28.6585  -11.9055   21.3293 H   0  0  0  0  0  0
  -28.4766  -13.5373   21.8889 H   0  0  0  0  0  0
  -25.2755   -9.5704   22.4767 H   0  0  0  0  0  0
  -24.0002   -7.4649   22.7479 H   0  0  0  0  0  0
  -21.0859   -8.8781   19.8928 H   0  0  0  0  0  0
  -22.3705  -10.9688   19.6161 H   0  0  0  0  0  0
  -21.1997   -7.6155   23.9720 H   0  0  0  0  0  0
  -21.1481   -6.0527   25.9079 H   0  0  0  0  0  0
  -22.0601   -2.7619   23.2831 H   0  0  0  0  0  0
  -22.4122  -11.9873   22.4719 H   0  0  0  0  0  0
  -21.1117  -13.1240   22.2557 H   0  0  0  0  0  0
  -24.6754  -15.8478   20.5103 H   0  0  0  0  0  0
  -26.2904  -15.6136   20.0714 H   0  0  0  0  0  0
  -26.7071  -32.5611   23.1223 H   0  0  0  0  0  0
  -25.0025  -33.9834   25.0526 H   0  0  0  0  0  0
  -22.6831  -31.3046   21.4095 H   0  0  0  0  0  0
  -23.3760  -35.9639   23.3283 H   0  0  0  0  0  0
  -24.3593  -36.8936   22.2051 H   0  0  0  0  0  0
  -23.7206  -37.6512   23.6661 H   0  0  0  0  0  0
  -25.9999  -31.6179   20.5714 H   0  0  0  0  0  0
  -26.8106  -30.9336   21.9533 H   0  0  0  0  0  0
  -28.0876  -29.1972   21.1492 H   0  0  0  0  0  0
  -26.1329  -26.0007   19.0086 H   0  0  0  0  0  0
  -24.0106  -27.2835   19.0217 H   0  0  0  0  0  0
  -23.6846  -30.5800   19.3985 H   0  0  0  0  0  0
  -22.7321  -29.2098   19.8908 H   0  0  0  0  0  0
  -25.1267  -36.2029   25.0834 H   0  0  0  0  0  0
  -20.9935  -28.3197   24.1449 H   0  0  0  0  0  0
  -20.5641  -26.2238   23.3566 H   0  0  0  0  0  0
  -21.6618  -26.7435   22.1175 H   0  0  0  0  0  0
  -19.6876  -25.6332   21.1167 H   0  0  0  0  0  0
  -19.6658  -27.3253   20.6742 H   0  0  0  0  0  0
  -17.4167  -26.6676   21.4015 H   0  0  0  0  0  0
  -18.0295  -26.0044   22.8993 H   0  0  0  0  0  0
  -19.7918  -30.7192   24.2365 H   0  0  0  0  0  0
  -17.5004  -31.6259   24.5144 H   0  0  0  0  0  0
  -15.5329  -30.2976   23.7629 H   0  0  0  0  0  0
  -15.8651  -28.0792   22.7082 H   0  0  0  0  0  0
  -24.5922  -30.6971   25.7761 H   0  0  0  0  0  0
  -24.8885  -32.2727   26.5020 H   0  0  0  0  0  0
  -25.8097  -30.8718   27.0179 H   0  0  0  0  0  0
  -26.2778  -29.6846   24.1120 H   0  0  0  0  0  0
  -27.4198  -29.7331   25.4361 H   0  0  0  0  0  0
  -27.8535  -30.4472   23.8999 H   0  0  0  0  0  0
  -27.2752  -33.3613   26.2059 H   0  0  0  0  0  0
  -28.3846  -32.6818   25.0237 H   0  0  0  0  0  0
  -28.0766  -31.8387   26.5321 H   0  0  0  0  0  0
  -28.2591  -38.0121   24.7557 H   0  0  0  0  0  0
  -28.1086  -36.2653   24.6255 H   0  0  0  0  0  0
  -27.2300  -37.1404   25.8867 H   0  0  0  0  0  0
  -20.9276  -29.8775   21.7009 H   0  0  0  0  0  0
  -26.0200  -38.2882   24.1435 H   0  0  0  0  0  0
  -28.9398  -22.5336   18.9954 H   0  0  0  0  0  0
  -28.5917  -18.9896   22.4525 H   0  0  0  0  0  0
  -27.2860  -24.3822   20.8634 H   0  0  0  0  0  0
  -27.2304  -23.7932   22.5073 H   0  0  0  0  0  0
  -31.0531  -23.8486   20.5018 H   0  0  0  0  0  0
  -29.6672  -24.4502   19.6168 H   0  0  0  0  0  0
  -28.5899  -25.6942   23.2983 H   0  0  0  0  0  0
  -27.1730  -26.2765   22.4821 H   0  0  0  0  0  0
  -30.9858  -26.3399   20.4323 H   0  0  0  0  0  0
  -30.9064  -25.7444   22.0708 H   0  0  0  0  0  0
  -29.7053  -23.5518   22.5182 H   0  0  0  0  0  0
  -29.2848  -27.5096   21.8112 H   0  0  0  0  0  0
  -28.2515  -17.8896   18.9081 H   0  0  0  0  0  0
  -28.0270  -17.3755   20.5555 H   0  0  0  0  0  0
  -30.8151  -18.1938   19.6352 H   0  0  0  0  0  0
  -30.2000  -16.6802   19.0880 H   0  0  0  0  0  0
  -30.1348  -17.2783   22.0893 H   0  0  0  0  0  0
  -31.6257  -16.8013   21.3342 H   0  0  0  0  0  0
  -29.2511  -15.1134   21.7313 H   0  0  0  0  0  0
  1 25  1  0  0  0
  1 30  2  0  0  0
  1 86  1  0  0  0
  2  3  1  0  0  0
  2 25  1  0  0  0
  2 89  1  0  0  0
  2 90  1  0  0  0
  3  4  1  0  0  0
  3 91  1  0  0  0
  3 92  1  0  0  0
  4  5  1  0  0  0
  4 93  1  0  0  0
  4 94  1  0  0  0
  5  6  1  0  0  0
  5 26  1  0  0  0
  5 95  1  0  0  0
  6 25  1  0  0  0
  6 96  1  0  0  0
  6 97  1  0  0  0
  7  8  2  0  0  0
  7 26  1  0  0  0
  7 29  1  0  0  0
  8  9  1  0  0  0
  8 22  1  0  0  0
  9 10  1  0  0  0
  9 27  2  0  0  0
 10 11  2  0  0  0
 10 15  1  0  0  0
 11 12  1  0  0  0
 11 98  1  0  0  0
 12 13  2  0  0  0
 12 99  1  0  0  0
 13 14  1  0  0  0
 13 31  1  0  0  0
 14 15  2  0  0  0
 14100  1  0  0  0
 15101  1  0  0  0
 16 17  2  0  0  0
 16 21  1  0  0  0
 16 31  1  0  0  0
 17 18  1  0  0  0
 17102  1  0  0  0
 18 19  2  0  0  0
 18103  1  0  0  0
 19 20  1  0  0  0
 19 24  1  0  0  0
 20 21  2  0  0  0
 20104  1  0  0  0
 21 23  1  0  0  0
 22 28  1  0  0  0
 22 32  2  0  0  0
 26 27  1  0  0  0
 28105  1  0  0  0
 28106  1  0  0  0
 29107  1  0  0  0
 29108  1  0  0  0
 33 34  1  0  0  0
 33 66  1  0  0  0
 33 70  2  0  0  0
 34 36  1  0  0  0
 34 59  1  0  0  0
 34109  1  0  0  0
 35 44  2  0  0  0
 35 45  1  0  0  0
 35 68  1  0  0  0
 36 56  1  0  0  0
 36110  1  0  0  0
 37 39  1  0  0  0
 37 47  1  0  0  0
 37 66  1  0  0  0
 37111  1  0  0  0
 38 43  2  0  0  0
 38 46  1  0  0  0
 38 47  1  0  0  0
 39 64  1  0  0  0
 39 67  2  0  0  0
 40 52  1  0  0  0
 40 53  2  0  0  0
 40 58  1  0  0  0
 41112  1  0  0  0
 41113  1  0  0  0
 41114  1  0  0  0
 41 48  1  0  0  0
 42 43  1  0  0  0
 42 66  1  0  0  0
 42115  1  0  0  0
 42116  1  0  0  0
 43 44  1  0  0  0
 44117  1  0  0  0
 45 46  2  0  0  0
 45118  1  0  0  0
 46119  1  0  0  0
 47120  1  0  0  0
 47121  1  0  0  0
 48 56  1  0  0  0
 48 65  1  0  0  0
 48122  1  0  0  0
 49 50  1  0  0  0
 49 53  1  0  0  0
 49 64  1  0  0  0
 49123  1  0  0  0
 50 51  1  0  0  0
 50124  1  0  0  0
 50125  1  0  0  0
 51 52  1  0  0  0
 51126  1  0  0  0
 51127  1  0  0  0
 52128  1  0  0  0
 52129  1  0  0  0
 53 54  1  0  0  0
 54 55  2  0  0  0
 54130  1  0  0  0
 55 57  1  0  0  0
 55131  1  0  0  0
 56 69  2  0  0  0
 57 58  2  0  0  0
 57132  1  0  0  0
 58133  1  0  0  0
 59 60  1  0  0  0
 59 61  1  0  0  0
 59 62  1  0  0  0
 60134  1  0  0  0
 60135  1  0  0  0
 60136  1  0  0  0
 61137  1  0  0  0
 61138  1  0  0  0
 61139  1  0  0  0
 62140  1  0  0  0
 62141  1  0  0  0
 62142  1  0  0  0
 63 65  1  0  0  0
 63143  1  0  0  0
 63144  1  0  0  0
 63145  1  0  0  0
 64146  1  0  0  0
 65147  1  0  0  0
 68 82  1  0  0  0
 71 73  2  0  0  0
 71 75  1  0  0  0
 71148  1  0  0  0
 72 74  1  0  0  0
 72 76  2  0  0  0
 72149  1  0  0  0
 73 76  1  0  0  0
 73 81  1  0  0  0
 74 75  2  0  0  0
 74 83  1  0  0  0
 75 87  1  0  0  0
 76 88  1  0  0  0
 77 79  1  0  0  0
 77 81  1  0  0  0
 77150  1  0  0  0
 77151  1  0  0  0
 78 80  1  0  0  0
 78 81  1  0  0  0
 78152  1  0  0  0
 78153  1  0  0  0
 79 82  1  0  0  0
 79154  1  0  0  0
 79155  1  0  0  0
 80 82  1  0  0  0
 80156  1  0  0  0
 80157  1  0  0  0
 81158  1  0  0  0
 82159  1  0  0  0
 83 84  1  0  0  0
 83160  1  0  0  0
 83161  1  0  0  0
 84 85  1  0  0  0
 84162  1  0  0  0
 84163  1  0  0  0
 85 86  1  0  0  0
 85164  1  0  0  0
 85165  1  0  0  0
 86166  1  0  0  0
M  ISO  4   1 100  68 101  82 101  86 100
M  END
> <chiral flag>
0

> <version>
0

> <s_m_source_file>
/data/baiqing/PycharmProjects/Reinvent-master-3.2/result/LINK_invent/BTK/process_docking_weight1_custom_sum_contain_oxygen_bond_distance_aromatic_linkinvent_7_9_3/rearranged_h_0030.sdf

> <i_m_source_file_index>
72

> <r_mmod_Potential_Energy-OPLS-2005>
-46.5407333374023

> <r_mmod_Stretch_Energy-OPLS-2005>
32.4576759338379

> <r_mmod_Bend_Energy-OPLS-2005>
88.7235412597656

> <r_mmod_Torsional_Energy-OPLS-2005>
245.020248413086

> <r_mmod_Improper_Torsional_Energy-OPLS-2005>
3.52814292907715

> <r_mmod_Van_der_Waal_Energy-OPLS-2005>
159.252563476562

> <r_mmod_Electrostatic_Energy-OPLS-2005>
-384.921936035156

> <r_mmod_Solvation_Energy-OPLS-2005>
-197.831726074219

> <b_mmod_Minimization_Converged-OPLS-2005>
0

> <r_mmod_RMS_Derivative-OPLS-2005>
1.97380828857422

$$$$
72
                    3D
 Structure written by MMmdl.
158166  0  0  1  0            999 V2000
  -30.7048  -14.4701   20.6061 C   0  0  0  0  0  0
  -30.4246  -12.3233   19.4089 C   0  0  0  0  0  0
  -29.4897  -12.5128   18.1976 C   0  0  0  0  0  0
  -28.0127  -12.3668   18.6151 C   0  0  0  0  0  0
  -27.6603  -13.2063   19.8720 C   0  0  2  0  0  0
  -28.7021  -12.9823   20.9891 C   0  0  0  0  0  0
  -25.2587  -13.8164   20.5677 C   0  0  0  0  0  0
  -24.1838  -13.0441   20.9177 C   0  0  0  0  0  0
  -24.6391  -11.6908   20.8737 C   0  0  0  0  0  0
  -23.9057  -10.4293   21.0410 C   0  0  0  0  0  0
  -24.3611   -9.4209   21.9185 C   0  0  0  0  0  0
  -23.6288   -8.2244   22.0754 C   0  0  0  0  0  0
  -22.4272   -8.0281   21.3541 C   0  0  0  0  0  0
  -21.9906   -9.0257   20.4645 C   0  0  0  0  0  0
  -22.7233  -10.2135   20.3056 C   0  0  0  0  0  0
  -21.6852   -6.0736   22.5278 C   0  0  0  0  0  0
  -21.4014   -6.5640   23.8211 C   0  0  0  0  0  0
  -21.3657   -5.6793   24.9174 C   0  0  0  0  0  0
  -21.6048   -4.3056   24.7224 C   0  0  0  0  0  0
  -21.8819   -3.8147   23.4345 C   0  0  0  0  0  0
  -21.9193   -4.6964   22.3401 C   0  0  0  0  0  0
  -22.7867  -13.5244   21.1846 C   0  0  0  0  0  0
  -22.1663   -4.2152   21.0976 F   0  0  0  0  0  0
  -21.5627   -3.4538   25.7735 F   0  0  0  0  0  0
  -30.0294  -13.3008   20.4353 N   0  0  0  0  0  0
  -26.3018  -12.9327   20.3355 N   0  0  0  0  0  0
  -25.9313  -11.6487   20.5757 N   0  0  0  0  0  0
  -22.0503  -12.8233   22.0396 N   0  0  0  0  0  0
  -25.4326  -15.1878   20.4079 N   0  0  0  0  0  0
  -31.8199  -14.6767   20.1196 O   0  0  0  0  0  0
  -21.6638   -6.8878   21.4240 O   0  0  0  0  0  0
  -22.3556  -14.5553   20.6700 O   0  0  0  0  0  0
  -24.6168  -31.8681   23.2086 C   0  0  0  0  0  0
  -25.9058  -32.4820   23.8392 C   0  0  1  0  0  0
  -27.2310  -27.4093   20.1068 C   0  0  0  0  0  0
  -25.5913  -33.8618   24.2333 N   0  0  0  0  0  0
  -23.4052  -30.4895   21.5502 C   0  0  2  0  0  0
  -24.8507  -28.9484   20.1226 C   0  0  0  0  0  0
  -22.7416  -29.4652   22.4990 C   0  0  0  0  0  0
  -18.0271  -28.1361   22.8488 C   0  0  0  0  0  0
  -24.1491  -36.7306   23.2638 C   0  0  0  0  0  0
  -25.9356  -30.8240   21.3677 C   0  0  0  0  0  0
  -26.0117  -29.4540   20.7203 C   0  0  0  0  0  0
  -27.2058  -28.6925   20.7080 C   0  0  0  0  0  0
  -26.0564  -26.9325   19.4887 C   0  0  0  0  0  0
  -24.8685  -27.6871   19.5037 C   0  0  0  0  0  0
  -23.6153  -29.8198   20.1665 C   0  0  0  0  0  0
  -25.4113  -36.3110   24.0333 C   0  0  1  0  0  0
  -20.5862  -28.3661   23.1309 C   0  0  2  0  0  0
  -20.6763  -26.9395   22.5410 C   0  0  0  0  0  0
  -19.5742  -26.6377   21.5199 C   0  0  0  0  0  0
  -18.1919  -26.7906   22.1611 C   0  0  0  0  0  0
  -19.1519  -28.8823   23.2897 C   0  0  0  0  0  0
  -18.9458  -30.1428   23.8910 C   0  0  0  0  0  0
  -17.6459  -30.6577   24.0553 C   0  0  0  0  0  0
  -25.9038  -34.9474   23.5130 C   0  0  0  0  0  0
  -16.5348  -29.9079   23.6319 C   0  0  0  0  0  0
  -16.7262  -28.6486   23.0347 C   0  0  0  0  0  0
  -26.4482  -31.6599   25.0722 C   0  0  0  0  0  0
  -25.3752  -31.3703   26.1474 C   0  0  0  0  0  0
  -27.0324  -30.3044   24.6099 C   0  0  0  0  0  0
  -27.6054  -32.4320   25.7490 C   0  0  0  0  0  0
  -27.5589  -37.1811   24.8467 C   0  0  0  0  0  0
  -21.4142  -29.3037   22.3730 N   0  0  0  0  0  0
  -26.4305  -37.3786   23.9399 N   0  0  0  0  0  0
  -24.6708  -31.0751   22.1003 N   0  0  0  0  0  0
  -23.4187  -28.8201   23.3040 O   0  0  0  0  0  0
  -28.4051  -26.6828   20.0513 O   0  0  0  0  0  0
  -26.5594  -34.8931   22.4687 O   0  0  0  0  0  0
  -23.5352  -32.1449   23.7462 O   0  0  0  0  0  0
  -28.0618  -20.7696   21.6575 C   0  0  0  0  0  0
  -27.7697  -22.1354   21.4455 C   0  0  0  0  0  0
  -28.7610  -20.0317   20.6807 C   0  0  0  0  0  0
  -28.2275  -22.7561   20.2595 C   0  0  0  0  0  0
  -29.1946  -20.7421   19.5369 C   0  0  0  0  0  0
  -26.9394  -22.8800   22.4802 C   0  0  0  0  0  0
  -28.9292  -18.5051   20.8581 C   0  0  0  0  0  0
  -27.8331  -24.1905   19.8465 C   0  0  0  0  0  0
  -30.3814  -17.9642   20.9220 C   0  0  0  0  0  0
  -30.6076  -16.6945   21.7932 C   0  0  0  0  0  0
  -28.4495  -25.3675   20.6583 C   0  0  0  0  0  0
  -28.9504  -22.0629   19.3511 N   0  0  0  0  0  0
  -30.0463  -15.4300   21.2850 N   0  0  0  0  0  0
  -30.0252  -19.9307   18.2604 Cl  0  0  0  0  0  0
  -31.4656  -12.4369   19.1018 H   0  0  0  0  0  0
  -30.3402  -11.3103   19.8048 H   0  0  0  0  0  0
  -29.7306  -11.7884   17.4185 H   0  0  0  0  0  0
  -29.6499  -13.4988   17.7570 H   0  0  0  0  0  0
  -27.8280  -11.3103   18.8135 H   0  0  0  0  0  0
  -27.3584  -12.6387   17.7860 H   0  0  0  0  0  0
  -27.7060  -14.2554   19.5774 H   0  0  0  0  0  0
  -28.6856  -11.9424   21.3189 H   0  0  0  0  0  0
  -28.4561  -13.5682   21.8750 H   0  0  0  0  0  0
  -25.2759   -9.5686   22.4758 H   0  0  0  0  0  0
  -24.0001   -7.4635   22.7473 H   0  0  0  0  0  0
  -21.0841   -8.8778   19.8948 H   0  0  0  0  0  0
  -22.3699  -10.9676   19.6165 H   0  0  0  0  0  0
  -21.2007   -7.6151   23.9716 H   0  0  0  0  0  0
  -21.1480   -6.0523   25.9076 H   0  0  0  0  0  0
  -22.0601   -2.7613   23.2844 H   0  0  0  0  0  0
  -22.4110  -11.9884   22.4774 H   0  0  0  0  0  0
  -21.1123  -13.1264   22.2601 H   0  0  0  0  0  0
  -24.6679  -15.8457   20.5112 H   0  0  0  0  0  0
  -26.2864  -15.6216   20.0807 H   0  0  0  0  0  0
  -26.7133  -32.5526   23.1159 H   0  0  0  0  0  0
  -25.0094  -33.9784   25.0502 H   0  0  0  0  0  0
  -22.6943  -31.3068   21.4095 H   0  0  0  0  0  0
  -23.3751  -35.9647   23.3310 H   0  0  0  0  0  0
  -24.3593  -36.8909   22.2054 H   0  0  0  0  0  0
  -23.7255  -37.6514   23.6649 H   0  0  0  0  0  0
  -26.0492  -31.5878   20.5979 H   0  0  0  0  0  0
  -26.8225  -30.8792   21.9867 H   0  0  0  0  0  0
  -28.1061  -29.0855   21.1599 H   0  0  0  0  0  0
  -26.0507  -25.9967   18.9551 H   0  0  0  0  0  0
  -23.9818  -27.2995   19.0210 H   0  0  0  0  0  0
  -23.7284  -30.5935   19.4058 H   0  0  0  0  0  0
  -22.7385  -29.2415   19.8693 H   0  0  0  0  0  0
  -25.1292  -36.1972   25.0827 H   0  0  0  0  0  0
  -20.9951  -28.3235   24.1430 H   0  0  0  0  0  0
  -20.5650  -26.2278   23.3606 H   0  0  0  0  0  0
  -21.6640  -26.7442   22.1207 H   0  0  0  0  0  0
  -19.6909  -25.6286   21.1230 H   0  0  0  0  0  0
  -19.6669  -27.3190   20.6726 H   0  0  0  0  0  0
  -17.4184  -26.6651   21.4010 H   0  0  0  0  0  0
  -18.0315  -26.0040   22.9000 H   0  0  0  0  0  0
  -19.7942  -30.7223   24.2293 H   0  0  0  0  0  0
  -17.5024  -31.6259   24.5157 H   0  0  0  0  0  0
  -15.5347  -30.2988   23.7634 H   0  0  0  0  0  0
  -15.8656  -28.0814   22.7062 H   0  0  0  0  0  0
  -24.5930  -30.7042   25.7813 H   0  0  0  0  0  0
  -24.8938  -32.2856   26.4930 H   0  0  0  0  0  0
  -25.8118  -30.8878   27.0231 H   0  0  0  0  0  0
  -26.2871  -29.6786   24.1176 H   0  0  0  0  0  0
  -27.4119  -29.7291   25.4552 H   0  0  0  0  0  0
  -27.8694  -30.4345   23.9235 H   0  0  0  0  0  0
  -27.2675  -33.3622   26.2068 H   0  0  0  0  0  0
  -28.3873  -32.6875   25.0324 H   0  0  0  0  0  0
  -28.0707  -31.8438   26.5409 H   0  0  0  0  0  0
  -28.2610  -38.0107   24.7519 H   0  0  0  0  0  0
  -28.1086  -36.2641   24.6295 H   0  0  0  0  0  0
  -27.2301  -37.1454   25.8869 H   0  0  0  0  0  0
  -20.9299  -29.8797   21.6988 H   0  0  0  0  0  0
  -26.0198  -38.2867   24.1393 H   0  0  0  0  0  0
  -27.7033  -20.2764   22.5503 H   0  0  0  0  0  0
  -26.3927  -22.1836   23.1171 H   0  0  0  0  0  0
  -26.2025  -23.5354   22.0161 H   0  0  0  0  0  0
  -27.5824  -23.4814   23.1229 H   0  0  0  0  0  0
  -28.3903  -17.9987   20.0561 H   0  0  0  0  0  0
  -28.4150  -18.2165   21.7762 H   0  0  0  0  0  0
  -26.7472  -24.2360   19.8914 H   0  0  0  0  0  0
  -28.0901  -24.3277   18.7962 H   0  0  0  0  0  0
  -31.0036  -18.7466   21.3594 H   0  0  0  0  0  0
  -30.7777  -17.8046   19.9190 H   0  0  0  0  0  0
  -30.1910  -16.8672   22.7864 H   0  0  0  0  0  0
  -31.6800  -16.5658   21.9546 H   0  0  0  0  0  0
  -29.5088  -25.1512   20.7996 H   0  0  0  0  0  0
  -28.0221  -25.4106   21.6602 H   0  0  0  0  0  0
  -29.1214  -15.1805   21.6047 H   0  0  0  0  0  0
  1 25  1  0  0  0
  1 30  2  0  0  0
  1 83  1  0  0  0
  2  3  1  0  0  0
  2 25  1  0  0  0
  2 85  1  0  0  0
  2 86  1  0  0  0
  3  4  1  0  0  0
  3 87  1  0  0  0
  3 88  1  0  0  0
  4  5  1  0  0  0
  4 89  1  0  0  0
  4 90  1  0  0  0
  5  6  1  0  0  0
  5 26  1  0  0  0
  5 91  1  0  0  0
  6 25  1  0  0  0
  6 92  1  0  0  0
  6 93  1  0  0  0
  7  8  2  0  0  0
  7 26  1  0  0  0
  7 29  1  0  0  0
  8  9  1  0  0  0
  8 22  1  0  0  0
  9 10  1  0  0  0
  9 27  2  0  0  0
 10 11  2  0  0  0
 10 15  1  0  0  0
 11 12  1  0  0  0
 11 94  1  0  0  0
 12 13  2  0  0  0
 12 95  1  0  0  0
 13 14  1  0  0  0
 13 31  1  0  0  0
 14 15  2  0  0  0
 14 96  1  0  0  0
 15 97  1  0  0  0
 16 17  2  0  0  0
 16 21  1  0  0  0
 16 31  1  0  0  0
 17 18  1  0  0  0
 17 98  1  0  0  0
 18 19  2  0  0  0
 18 99  1  0  0  0
 19 20  1  0  0  0
 19 24  1  0  0  0
 20 21  2  0  0  0
 20100  1  0  0  0
 21 23  1  0  0  0
 22 28  1  0  0  0
 22 32  2  0  0  0
 26 27  1  0  0  0
 28101  1  0  0  0
 28102  1  0  0  0
 29103  1  0  0  0
 29104  1  0  0  0
 33 34  1  0  0  0
 33 66  1  0  0  0
 33 70  2  0  0  0
 34 36  1  0  0  0
 34 59  1  0  0  0
 34105  1  0  0  0
 35 44  2  0  0  0
 35 45  1  0  0  0
 35 68  1  0  0  0
 36 56  1  0  0  0
 36106  1  0  0  0
 37 39  1  0  0  0
 37 47  1  0  0  0
 37 66  1  0  0  0
 37107  1  0  0  0
 38 43  2  0  0  0
 38 46  1  0  0  0
 38 47  1  0  0  0
 39 64  1  0  0  0
 39 67  2  0  0  0
 40 52  1  0  0  0
 40 53  2  0  0  0
 40 58  1  0  0  0
 41108  1  0  0  0
 41109  1  0  0  0
 41110  1  0  0  0
 41 48  1  0  0  0
 42 43  1  0  0  0
 42 66  1  0  0  0
 42111  1  0  0  0
 42112  1  0  0  0
 43 44  1  0  0  0
 44113  1  0  0  0
 45 46  2  0  0  0
 45114  1  0  0  0
 46115  1  0  0  0
 47116  1  0  0  0
 47117  1  0  0  0
 48 56  1  0  0  0
 48 65  1  0  0  0
 48118  1  0  0  0
 49 50  1  0  0  0
 49 53  1  0  0  0
 49 64  1  0  0  0
 49119  1  0  0  0
 50 51  1  0  0  0
 50120  1  0  0  0
 50121  1  0  0  0
 51 52  1  0  0  0
 51122  1  0  0  0
 51123  1  0  0  0
 52124  1  0  0  0
 52125  1  0  0  0
 53 54  1  0  0  0
 54 55  2  0  0  0
 54126  1  0  0  0
 55 57  1  0  0  0
 55127  1  0  0  0
 56 69  2  0  0  0
 57 58  2  0  0  0
 57128  1  0  0  0
 58129  1  0  0  0
 59 60  1  0  0  0
 59 61  1  0  0  0
 59 62  1  0  0  0
 60130  1  0  0  0
 60131  1  0  0  0
 60132  1  0  0  0
 61133  1  0  0  0
 61134  1  0  0  0
 61135  1  0  0  0
 62136  1  0  0  0
 62137  1  0  0  0
 62138  1  0  0  0
 63 65  1  0  0  0
 63139  1  0  0  0
 63140  1  0  0  0
 63141  1  0  0  0
 64142  1  0  0  0
 65143  1  0  0  0
 68 81  1  0  0  0
 71 72  2  0  0  0
 71 73  1  0  0  0
 71144  1  0  0  0
 72 74  1  0  0  0
 72 76  1  0  0  0
 73 75  2  0  0  0
 73 77  1  0  0  0
 74 78  1  0  0  0
 74 82  2  0  0  0
 75 82  1  0  0  0
 75 84  1  0  0  0
 76145  1  0  0  0
 76146  1  0  0  0
 76147  1  0  0  0
 77 79  1  0  0  0
 77148  1  0  0  0
 77149  1  0  0  0
 78 81  1  0  0  0
 78150  1  0  0  0
 78151  1  0  0  0
 79 80  1  0  0  0
 79152  1  0  0  0
 79153  1  0  0  0
 80 83  1  0  0  0
 80154  1  0  0  0
 80155  1  0  0  0
 81156  1  0  0  0
 81157  1  0  0  0
 83158  1  0  0  0
M  ISO  4   1 100  68 101  81 101  83 100
M  END
> <chiral flag>
0

> <version>
0

> <s_m_source_file>
/data/baiqing/PycharmProjects/Reinvent-master-3.2/result/LINK_invent/BTK/process_docking_weight1_custom_sum_contain_oxygen_bond_distance_aromatic_linkinvent_7_9_3/rearranged_h_0030.sdf

> <i_m_source_file_index>
73

> <r_mmod_Potential_Energy-OPLS-2005>
-185.633453369141

> <r_mmod_Stretch_Energy-OPLS-2005>
41.3161201477051

> <r_mmod_Bend_Energy-OPLS-2005>
110.73267364502

> <r_mmod_Torsional_Energy-OPLS-2005>
219.516204833984

> <r_mmod_Improper_Torsional_Energy-OPLS-2005>
3.17957758903503

> <r_mmod_Van_der_Waal_Energy-OPLS-2005>
147.547561645508

> <r_mmod_Electrostatic_Energy-OPLS-2005>
-502.433197021484

> <r_mmod_Solvation_Energy-OPLS-2005>
-218.079727172852

> <b_mmod_Minimization_Converged-OPLS-2005>
0

> <r_mmod_RMS_Derivative-OPLS-2005>
1.2512903213501

$$$$
73
                    3D
 Structure written by MMmdl.
177185  0  0  1  0            999 V2000
  -30.7263  -14.6409   20.3526 C   0  0  0  0  0  0
  -30.4217  -12.3960   19.3977 C   0  0  0  0  0  0
  -29.4565  -12.4182   18.1961 C   0  0  0  0  0  0
  -27.9999  -12.2596   18.6610 C   0  0  0  0  0  0
  -27.6348  -13.2111   19.8303 C   0  0  2  0  0  0
  -28.7129  -13.1811   20.9349 C   0  0  0  0  0  0
  -25.2530  -13.8173   20.5719 C   0  0  0  0  0  0
  -24.1813  -13.0461   20.9250 C   0  0  0  0  0  0
  -24.6379  -11.6916   20.8814 C   0  0  0  0  0  0
  -23.9074  -10.4304   21.0442 C   0  0  0  0  0  0
  -24.3624   -9.4198   21.9193 C   0  0  0  0  0  0
  -23.6294   -8.2243   22.0757 C   0  0  0  0  0  0
  -22.4283   -8.0280   21.3548 C   0  0  0  0  0  0
  -21.9935   -9.0265   20.4665 C   0  0  0  0  0  0
  -22.7264  -10.2145   20.3070 C   0  0  0  0  0  0
  -21.6843   -6.0738   22.5282 C   0  0  0  0  0  0
  -21.3992   -6.5644   23.8214 C   0  0  0  0  0  0
  -21.3686   -5.6806   24.9185 C   0  0  0  0  0  0
  -21.6062   -4.3068   24.7236 C   0  0  0  0  0  0
  -21.8815   -3.8154   23.4355 C   0  0  0  0  0  0
  -21.9187   -4.6971   22.3406 C   0  0  0  0  0  0
  -22.7830  -13.5240   21.1896 C   0  0  0  0  0  0
  -22.1633   -4.2150   21.0980 F   0  0  0  0  0  0
  -21.5677   -3.4558   25.7755 F   0  0  0  0  0  0
  -29.9986  -13.4847   20.2904 N   0  0  0  0  0  0
  -26.2938  -12.9351   20.3349 N   0  0  0  0  0  0
  -25.9302  -11.6524   20.5881 N   0  0  0  0  0  0
  -22.0452  -12.8236   22.0439 N   0  0  0  0  0  0
  -25.4257  -15.1895   20.4050 N   0  0  0  0  0  0
  -31.9498  -14.5761   20.4420 O   0  0  0  0  0  0
  -21.6637   -6.8876   21.4237 O   0  0  0  0  0  0
  -22.3523  -14.5533   20.6716 O   0  0  0  0  0  0
  -24.6252  -31.8624   23.2079 C   0  0  0  0  0  0
  -25.9116  -32.4812   23.8362 C   0  0  1  0  0  0
  -27.2044  -27.3395   20.0994 C   0  0  0  0  0  0
  -25.5947  -33.8613   24.2299 N   0  0  0  0  0  0
  -23.4136  -30.4905   21.5499 C   0  0  2  0  0  0
  -24.8551  -28.9574   20.1087 C   0  0  0  0  0  0
  -22.7446  -29.4648   22.4933 C   0  0  0  0  0  0
  -18.0283  -28.1400   22.8467 C   0  0  0  0  0  0
  -24.1488  -36.7301   23.2630 C   0  0  0  0  0  0
  -25.9564  -30.7992   21.3731 C   0  0  0  0  0  0
  -26.0282  -29.4315   20.7112 C   0  0  0  0  0  0
  -27.2103  -28.6349   20.6943 C   0  0  0  0  0  0
  -26.0080  -26.9199   19.4705 C   0  0  0  0  0  0
  -24.8448  -27.7061   19.4818 C   0  0  0  0  0  0
  -23.6248  -29.8364   20.1615 C   0  0  0  0  0  0
  -25.4113  -36.3108   24.0314 C   0  0  1  0  0  0
  -20.5873  -28.3696   23.1293 C   0  0  2  0  0  0
  -20.6788  -26.9423   22.5415 C   0  0  0  0  0  0
  -19.5765  -26.6388   21.5221 C   0  0  0  0  0  0
  -18.1937  -26.7936   22.1617 C   0  0  0  0  0  0
  -19.1536  -28.8858   23.2871 C   0  0  0  0  0  0
  -18.9464  -30.1461   23.8874 C   0  0  0  0  0  0
  -17.6469  -30.6593   24.0571 C   0  0  0  0  0  0
  -25.9060  -34.9479   23.5106 C   0  0  0  0  0  0
  -16.5357  -29.9093   23.6352 C   0  0  0  0  0  0
  -16.7274  -28.6517   23.0347 C   0  0  0  0  0  0
  -26.4487  -31.6615   25.0726 C   0  0  0  0  0  0
  -25.3732  -31.3756   26.1471 C   0  0  0  0  0  0
  -27.0326  -30.3041   24.6175 C   0  0  0  0  0  0
  -27.6040  -32.4348   25.7521 C   0  0  0  0  0  0
  -27.5572  -37.1816   24.8452 C   0  0  0  0  0  0
  -21.4162  -29.3048   22.3687 N   0  0  0  0  0  0
  -26.4280  -37.3810   23.9404 N   0  0  0  0  0  0
  -24.6839  -31.0656   22.1021 N   0  0  0  0  0  0
  -23.4187  -28.8196   23.3004 O   0  0  0  0  0  0
  -28.3061  -26.4766   20.1495 O   0  0  0  0  0  0
  -26.5598  -34.8926   22.4656 O   0  0  0  0  0  0
  -23.5428  -32.1422   23.7421 O   0  0  0  0  0  0
  -28.6500  -22.6686   21.1903 C   0  0  0  0  0  0
  -25.7679  -19.6546   19.3276 C   0  0  0  0  0  0
  -25.3197  -19.8406   20.7881 C   0  0  0  0  0  0
  -27.1929  -19.0703   19.2047 C   0  0  0  0  0  0
  -26.3349  -20.6810   21.5945 C   0  0  0  0  0  0
  -27.9221  -18.9591   20.5656 C   0  0  2  0  0  0
  -27.8483  -20.3637   21.3089 C   0  0  1  0  0  0
  -28.4583  -22.8657   22.6944 C   0  0  0  0  0  0
  -31.7458  -15.3476   17.6122 C   0  0  0  0  0  0
  -29.9431  -16.9552   17.4626 C   0  0  0  0  0  0
  -31.9919  -17.4042   18.9631 C   0  0  0  0  0  0
  -29.1220  -23.9870   20.4906 C   0  0  0  0  0  0
  -29.2611  -18.1398   20.4857 C   0  0  0  0  0  0
  -29.0723  -16.5682   20.2146 C   0  0  0  0  0  0
  -27.9861  -25.0362   20.2124 C   0  0  0  0  0  0
  -30.9437  -16.3541   18.4925 C   0  0  0  0  0  0
  -28.4497  -21.5291   20.5877 N   0  0  0  0  0  0
  -30.2152  -15.7420   19.6796 N   0  0  0  0  0  0
  -31.4491  -12.5219   19.0447 H   0  0  0  0  0  0
  -30.3951  -11.4365   19.9151 H   0  0  0  0  0  0
  -29.7131  -11.6236   17.4953 H   0  0  0  0  0  0
  -29.5304  -13.3495   17.6445 H   0  0  0  0  0  0
  -27.8695  -11.2244   18.9812 H   0  0  0  0  0  0
  -27.3137  -12.4016   17.8224 H   0  0  0  0  0  0
  -27.6173  -14.2140   19.4086 H   0  0  0  0  0  0
  -28.7519  -12.1986   21.4084 H   0  0  0  0  0  0
  -28.4900  -13.8982   21.7261 H   0  0  0  0  0  0
  -25.2752   -9.5705   22.4785 H   0  0  0  0  0  0
  -24.0028   -7.4648   22.7462 H   0  0  0  0  0  0
  -21.0881   -8.8794   19.8954 H   0  0  0  0  0  0
  -22.3709  -10.9697   19.6215 H   0  0  0  0  0  0
  -21.1909   -7.6142   23.9725 H   0  0  0  0  0  0
  -21.1534   -6.0519   25.9101 H   0  0  0  0  0  0
  -22.0560   -2.7606   23.2852 H   0  0  0  0  0  0
  -22.4043  -11.9914   22.4878 H   0  0  0  0  0  0
  -21.1065  -13.1269   22.2596 H   0  0  0  0  0  0
  -24.6606  -15.8475   20.5007 H   0  0  0  0  0  0
  -26.2800  -15.6180   20.0756 H   0  0  0  0  0  0
  -26.7186  -32.5439   23.1103 H   0  0  0  0  0  0
  -25.0150  -33.9761   25.0482 H   0  0  0  0  0  0
  -22.7064  -31.3112   21.4145 H   0  0  0  0  0  0
  -23.3762  -35.9634   23.3313 H   0  0  0  0  0  0
  -24.3568  -36.8911   22.2043 H   0  0  0  0  0  0
  -23.7250  -37.6504   23.6654 H   0  0  0  0  0  0
  -26.0864  -31.5668   20.6076 H   0  0  0  0  0  0
  -26.8376  -30.8390   22.0011 H   0  0  0  0  0  0
  -28.1116  -28.9895   21.1742 H   0  0  0  0  0  0
  -25.9250  -25.9712   18.9659 H   0  0  0  0  0  0
  -23.9486  -27.3379   19.0025 H   0  0  0  0  0  0
  -23.7511  -30.6210   19.4140 H   0  0  0  0  0  0
  -22.7419  -29.2712   19.8559 H   0  0  0  0  0  0
  -25.1321  -36.1954   25.0809 H   0  0  0  0  0  0
  -20.9943  -28.3297   24.1421 H   0  0  0  0  0  0
  -20.5741  -26.2284   23.3593 H   0  0  0  0  0  0
  -21.6657  -26.7514   22.1180 H   0  0  0  0  0  0
  -19.6936  -25.6305   21.1243 H   0  0  0  0  0  0
  -19.6733  -27.3208   20.6753 H   0  0  0  0  0  0
  -17.4222  -26.6674   21.4006 H   0  0  0  0  0  0
  -18.0338  -26.0085   22.9009 H   0  0  0  0  0  0
  -19.7946  -30.7278   24.2218 H   0  0  0  0  0  0
  -17.5045  -31.6276   24.5186 H   0  0  0  0  0  0
  -15.5365  -30.3006   23.7688 H   0  0  0  0  0  0
  -15.8656  -28.0857   22.7050 H   0  0  0  0  0  0
  -24.5893  -30.7121   25.7820 H   0  0  0  0  0  0
  -24.8930  -32.2918   26.4918 H   0  0  0  0  0  0
  -25.8039  -30.8928   27.0248 H   0  0  0  0  0  0
  -26.2891  -29.6786   24.1231 H   0  0  0  0  0  0
  -27.4055  -29.7311   25.4677 H   0  0  0  0  0  0
  -27.8756  -30.4317   23.9383 H   0  0  0  0  0  0
  -27.2650  -33.3637   26.2118 H   0  0  0  0  0  0
  -28.3863  -32.6933   25.0378 H   0  0  0  0  0  0
  -28.0706  -31.8464   26.5432 H   0  0  0  0  0  0
  -28.2620  -38.0097   24.7527 H   0  0  0  0  0  0
  -28.1036  -36.2624   24.6269 H   0  0  0  0  0  0
  -27.2257  -37.1469   25.8847 H   0  0  0  0  0  0
  -20.9321  -29.8739   21.6885 H   0  0  0  0  0  0
  -26.0157  -38.2877   24.1440 H   0  0  0  0  0  0
  -25.7228  -20.6195   18.8192 H   0  0  0  0  0  0
  -25.0605  -19.0143   18.7980 H   0  0  0  0  0  0
  -25.1801  -18.8655   21.2626 H   0  0  0  0  0  0
  -24.3394  -20.3199   20.8100 H   0  0  0  0  0  0
  -27.7806  -19.6991   18.5324 H   0  0  0  0  0  0
  -27.1269  -18.0985   18.7166 H   0  0  0  0  0  0
  -26.1273  -20.5569   22.6587 H   0  0  0  0  0  0
  -26.1003  -21.7268   21.3856 H   0  0  0  0  0  0
  -27.3267  -18.2905   21.1881 H   0  0  0  0  0  0
  -28.3552  -20.2210   22.2667 H   0  0  0  0  0  0
  -29.0342  -22.1334   23.2586 H   0  0  0  0  0  0
  -27.4098  -22.7764   22.9778 H   0  0  0  0  0  0
  -28.7952  -23.8522   23.0174 H   0  0  0  0  0  0
  -32.2551  -15.8747   16.8052 H   0  0  0  0  0  0
  -31.1136  -14.6116   17.1236 H   0  0  0  0  0  0
  -32.5394  -14.8168   18.1331 H   0  0  0  0  0  0
  -29.2887  -16.1820   17.0581 H   0  0  0  0  0  0
  -30.4653  -17.3940   16.6113 H   0  0  0  0  0  0
  -29.3022  -17.7390   17.8530 H   0  0  0  0  0  0
  -31.9649  -18.3049   18.3473 H   0  0  0  0  0  0
  -33.0116  -17.0190   18.9082 H   0  0  0  0  0  0
  -31.8589  -17.7065   19.9997 H   0  0  0  0  0  0
  -29.6350  -23.7346   19.5621 H   0  0  0  0  0  0
  -29.8818  -24.4528   21.1179 H   0  0  0  0  0  0
  -29.8659  -18.6357   19.7329 H   0  0  0  0  0  0
  -29.8110  -18.2692   21.4185 H   0  0  0  0  0  0
  -28.2580  -16.4131   19.5085 H   0  0  0  0  0  0
  -28.7052  -16.1198   21.1386 H   0  0  0  0  0  0
  -27.2136  -24.9086   20.9746 H   0  0  0  0  0  0
  -27.5448  -24.7108   19.2701 H   0  0  0  0  0  0
  1 25  1  0  0  0
  1 30  2  0  0  0
  1 88  1  0  0  0
  2  3  1  0  0  0
  2 25  1  0  0  0
  2 89  1  0  0  0
  2 90  1  0  0  0
  3  4  1  0  0  0
  3 91  1  0  0  0
  3 92  1  0  0  0
  4  5  1  0  0  0
  4 93  1  0  0  0
  4 94  1  0  0  0
  5  6  1  0  0  0
  5 26  1  0  0  0
  5 95  1  0  0  0
  6 25  1  0  0  0
  6 96  1  0  0  0
  6 97  1  0  0  0
  7  8  2  0  0  0
  7 26  1  0  0  0
  7 29  1  0  0  0
  8  9  1  0  0  0
  8 22  1  0  0  0
  9 10  1  0  0  0
  9 27  2  0  0  0
 10 11  2  0  0  0
 10 15  1  0  0  0
 11 12  1  0  0  0
 11 98  1  0  0  0
 12 13  2  0  0  0
 12 99  1  0  0  0
 13 14  1  0  0  0
 13 31  1  0  0  0
 14 15  2  0  0  0
 14100  1  0  0  0
 15101  1  0  0  0
 16 17  2  0  0  0
 16 21  1  0  0  0
 16 31  1  0  0  0
 17 18  1  0  0  0
 17102  1  0  0  0
 18 19  2  0  0  0
 18103  1  0  0  0
 19 20  1  0  0  0
 19 24  1  0  0  0
 20 21  2  0  0  0
 20104  1  0  0  0
 21 23  1  0  0  0
 22 28  1  0  0  0
 22 32  2  0  0  0
 26 27  1  0  0  0
 28105  1  0  0  0
 28106  1  0  0  0
 29107  1  0  0  0
 29108  1  0  0  0
 33 34  1  0  0  0
 33 66  1  0  0  0
 33 70  2  0  0  0
 34 36  1  0  0  0
 34 59  1  0  0  0
 34109  1  0  0  0
 35 44  2  0  0  0
 35 45  1  0  0  0
 35 68  1  0  0  0
 36 56  1  0  0  0
 36110  1  0  0  0
 37 39  1  0  0  0
 37 47  1  0  0  0
 37 66  1  0  0  0
 37111  1  0  0  0
 38 43  2  0  0  0
 38 46  1  0  0  0
 38 47  1  0  0  0
 39 64  1  0  0  0
 39 67  2  0  0  0
 40 52  1  0  0  0
 40 53  2  0  0  0
 40 58  1  0  0  0
 41112  1  0  0  0
 41113  1  0  0  0
 41114  1  0  0  0
 41 48  1  0  0  0
 42 43  1  0  0  0
 42 66  1  0  0  0
 42115  1  0  0  0
 42116  1  0  0  0
 43 44  1  0  0  0
 44117  1  0  0  0
 45 46  2  0  0  0
 45118  1  0  0  0
 46119  1  0  0  0
 47120  1  0  0  0
 47121  1  0  0  0
 48 56  1  0  0  0
 48 65  1  0  0  0
 48122  1  0  0  0
 49 50  1  0  0  0
 49 53  1  0  0  0
 49 64  1  0  0  0
 49123  1  0  0  0
 50 51  1  0  0  0
 50124  1  0  0  0
 50125  1  0  0  0
 51 52  1  0  0  0
 51126  1  0  0  0
 51127  1  0  0  0
 52128  1  0  0  0
 52129  1  0  0  0
 53 54  1  0  0  0
 54 55  2  0  0  0
 54130  1  0  0  0
 55 57  1  0  0  0
 55131  1  0  0  0
 56 69  2  0  0  0
 57 58  2  0  0  0
 57132  1  0  0  0
 58133  1  0  0  0
 59 60  1  0  0  0
 59 61  1  0  0  0
 59 62  1  0  0  0
 60134  1  0  0  0
 60135  1  0  0  0
 60136  1  0  0  0
 61137  1  0  0  0
 61138  1  0  0  0
 61139  1  0  0  0
 62140  1  0  0  0
 62141  1  0  0  0
 62142  1  0  0  0
 63 65  1  0  0  0
 63143  1  0  0  0
 63144  1  0  0  0
 63145  1  0  0  0
 64146  1  0  0  0
 65147  1  0  0  0
 68 85  1  0  0  0
 71 78  1  0  0  0
 71 82  1  0  0  0
 71 87  2  0  0  0
 72 73  1  0  0  0
 72 74  1  0  0  0
 72148  1  0  0  0
 72149  1  0  0  0
 73 75  1  0  0  0
 73150  1  0  0  0
 73151  1  0  0  0
 74 76  1  0  0  0
 74152  1  0  0  0
 74153  1  0  0  0
 75 77  1  0  0  0
 75154  1  0  0  0
 75155  1  0  0  0
 76 77  1  0  0  0
 76 83  1  0  0  0
 76156  1  0  0  0
 77 87  1  0  0  0
 77157  1  0  0  0
 78158  1  0  0  0
 78159  1  0  0  0
 78160  1  0  0  0
 79161  1  0  0  0
 79162  1  0  0  0
 79163  1  0  0  0
 79 86  1  0  0  0
 80 86  1  0  0  0
 80164  1  0  0  0
 80165  1  0  0  0
 80166  1  0  0  0
 81 86  1  0  0  0
 81167  1  0  0  0
 81168  1  0  0  0
 81169  1  0  0  0
 82 85  1  0  0  0
 82170  1  0  0  0
 82171  1  0  0  0
 83 84  1  0  0  0
 83172  1  0  0  0
 83173  1  0  0  0
 84 88  1  0  0  0
 84174  1  0  0  0
 84175  1  0  0  0
 85176  1  0  0  0
 85177  1  0  0  0
 86 88  1  0  0  0
M  ISO  4   1 100  68 101  85 101  88 100
M  END
> <chiral flag>
0

> <version>
0

> <s_m_source_file>
/data/baiqing/PycharmProjects/Reinvent-master-3.2/result/LINK_invent/BTK/process_docking_weight1_custom_sum_contain_oxygen_bond_distance_aromatic_linkinvent_7_9_3/rearranged_h_0030.sdf

> <i_m_source_file_index>
74

> <r_mmod_Potential_Energy-OPLS-2005>
477.613464355469

> <r_mmod_Stretch_Energy-OPLS-2005>
92.7325744628906

> <r_mmod_Bend_Energy-OPLS-2005>
168.435516357422

> <r_mmod_Torsional_Energy-OPLS-2005>
405.020263671875

> <r_mmod_Improper_Torsional_Energy-OPLS-2005>
24.1797218322754

> <r_mmod_Van_der_Waal_Energy-OPLS-2005>
164.667541503906

> <r_mmod_Electrostatic_Energy-OPLS-2005>
-277.607025146484

> <r_mmod_Solvation_Energy-OPLS-2005>
-182.441055297852

> <b_mmod_Minimization_Converged-OPLS-2005>
0

> <r_mmod_RMS_Derivative-OPLS-2005>
3.90471053123474

$$$$
74
                    3D
 Structure written by MMmdl.
150158  0  0  1  0            999 V2000
  -30.5951  -14.8515   20.4259 C   0  0  0  0  0  0
  -30.4247  -12.5208   19.4934 C   0  0  0  0  0  0
  -29.5132  -12.5097   18.2475 C   0  0  0  0  0  0
  -28.0437  -12.3139   18.6617 C   0  0  0  0  0  0
  -27.6299  -13.2426   19.8356 C   0  0  2  0  0  0
  -28.6688  -13.2529   20.9751 C   0  0  0  0  0  0
  -25.2458  -13.8219   20.5680 C   0  0  0  0  0  0
  -24.1769  -13.0438   20.9199 C   0  0  0  0  0  0
  -24.6392  -11.6926   20.8740 C   0  0  0  0  0  0
  -23.9074  -10.4298   21.0392 C   0  0  0  0  0  0
  -24.3622   -9.4211   21.9180 C   0  0  0  0  0  0
  -23.6299   -8.2242   22.0754 C   0  0  0  0  0  0
  -22.4284   -8.0280   21.3539 C   0  0  0  0  0  0
  -21.9907   -9.0250   20.4642 C   0  0  0  0  0  0
  -22.7236  -10.2134   20.3049 C   0  0  0  0  0  0
  -21.6859   -6.0736   22.5282 C   0  0  0  0  0  0
  -21.4013   -6.5640   23.8212 C   0  0  0  0  0  0
  -21.3658   -5.6786   24.9179 C   0  0  0  0  0  0
  -21.6050   -4.3056   24.7225 C   0  0  0  0  0  0
  -21.8815   -3.8146   23.4347 C   0  0  0  0  0  0
  -21.9190   -4.6963   22.3405 C   0  0  0  0  0  0
  -22.7800  -13.5216   21.1860 C   0  0  0  0  0  0
  -22.1663   -4.2144   21.0984 F   0  0  0  0  0  0
  -21.5625   -3.4542   25.7743 F   0  0  0  0  0  0
  -29.9584  -13.6207   20.3801 N   0  0  0  0  0  0
  -26.2878  -12.9438   20.3214 N   0  0  0  0  0  0
  -25.9312  -11.6574   20.5709 N   0  0  0  0  0  0
  -22.0459  -12.8211   22.0424 N   0  0  0  0  0  0
  -25.4129  -15.1954   20.4098 N   0  0  0  0  0  0
  -31.7957  -14.8934   20.1464 O   0  0  0  0  0  0
  -21.6643   -6.8883   21.4243 O   0  0  0  0  0  0
  -22.3486  -14.5527   20.6722 O   0  0  0  0  0  0
  -24.6388  -31.8489   23.1935 C   0  0  0  0  0  0
  -25.9189  -32.4717   23.8295 C   0  0  1  0  0  0
  -27.2131  -27.1864   20.1443 C   0  0  0  0  0  0
  -25.5959  -33.8523   24.2209 N   0  0  0  0  0  0
  -23.4376  -30.4716   21.5380 C   0  0  2  0  0  0
  -24.8849  -28.9067   20.1106 C   0  0  0  0  0  0
  -22.7536  -29.4574   22.4879 C   0  0  0  0  0  0
  -18.0293  -28.1408   22.8481 C   0  0  0  0  0  0
  -24.1493  -36.7270   23.2638 C   0  0  0  0  0  0
  -25.9904  -30.7387   21.3838 C   0  0  0  0  0  0
  -26.0620  -29.3558   20.7232 C   0  0  0  0  0  0
  -27.2289  -28.5123   20.7202 C   0  0  0  0  0  0
  -26.0093  -26.8232   19.5003 C   0  0  0  0  0  0
  -24.8694  -27.6520   19.4838 C   0  0  0  0  0  0
  -23.6612  -29.8059   20.1547 C   0  0  0  0  0  0
  -25.4123  -36.3044   24.0313 C   0  0  1  0  0  0
  -20.5900  -28.3720   23.1254 C   0  0  2  0  0  0
  -20.6777  -26.9430   22.5410 C   0  0  0  0  0  0
  -19.5754  -26.6396   21.5214 C   0  0  0  0  0  0
  -18.1937  -26.7949   22.1624 C   0  0  0  0  0  0
  -19.1548  -28.8884   23.2860 C   0  0  0  0  0  0
  -18.9465  -30.1482   23.8881 C   0  0  0  0  0  0
  -17.6463  -30.6600   24.0566 C   0  0  0  0  0  0
  -25.9072  -34.9419   23.5067 C   0  0  0  0  0  0
  -16.5356  -29.9095   23.6340 C   0  0  0  0  0  0
  -16.7278  -28.6518   23.0354 C   0  0  0  0  0  0
  -26.4528  -31.6572   25.0716 C   0  0  0  0  0  0
  -25.3729  -31.3757   26.1421 C   0  0  0  0  0  0
  -27.0381  -30.2971   24.6272 C   0  0  0  0  0  0
  -27.6058  -32.4331   25.7506 C   0  0  0  0  0  0
  -27.5575  -37.1796   24.8465 C   0  0  0  0  0  0
  -21.4232  -29.3054   22.3635 N   0  0  0  0  0  0
  -26.4287  -37.3754   23.9404 N   0  0  0  0  0  0
  -24.7082  -31.0403   22.0935 N   0  0  0  0  0  0
  -23.4215  -28.8121   23.2999 O   0  0  0  0  0  0
  -28.2887  -26.2451   20.2013 O   0  0  0  0  0  0
  -26.5646  -34.8906   22.4637 O   0  0  0  0  0  0
  -23.5523  -32.1336   23.7202 O   0  0  0  0  0  0
  -29.0845  -19.6684   19.3649 C   0  0  0  0  0  0
  -29.9795  -19.8265   21.5430 C   0  0  0  0  0  0
  -29.7200  -18.9581   20.4377 C   0  0  0  0  0  0
  -29.1766  -21.9810   20.4372 C   0  0  0  0  0  0
  -28.8308  -21.1000   19.3561 C   0  0  0  0  0  0
  -29.7253  -21.2507   21.5515 C   0  0  0  0  0  0
  -29.2472  -23.6202   20.3306 C   0  0  0  0  0  0
  -30.4172  -17.4854   20.2976 C   0  0  0  0  0  0
  -28.0328  -24.7269   20.1862 C   0  0  0  0  0  0
  -29.8690  -16.0527   20.5494 N   0  0  0  0  0  0
  -28.1620  -21.7890   17.9207 Cl  0  0  0  0  0  0
  -30.2171  -22.1069   22.9713 Cl  0  0  0  0  0  0
  -31.4659  -12.6456   19.1883 H   0  0  0  0  0  0
  -30.3759  -11.5639   20.0153 H   0  0  0  0  0  0
  -29.8177  -11.7167   17.5626 H   0  0  0  0  0  0
  -29.6205  -13.4474   17.6989 H   0  0  0  0  0  0
  -27.9256  -11.2719   18.9603 H   0  0  0  0  0  0
  -27.3840  -12.4615   17.8056 H   0  0  0  0  0  0
  -27.6025  -14.2488   19.4167 H   0  0  0  0  0  0
  -28.7281  -12.2800   21.4643 H   0  0  0  0  0  0
  -28.3813  -13.9708   21.7442 H   0  0  0  0  0  0
  -25.2762   -9.5699   22.4760 H   0  0  0  0  0  0
  -24.0007   -7.4639   22.7480 H   0  0  0  0  0  0
  -21.0834   -8.8773   19.8953 H   0  0  0  0  0  0
  -22.3685  -10.9677   19.6166 H   0  0  0  0  0  0
  -21.2005   -7.6149   23.9718 H   0  0  0  0  0  0
  -21.1483   -6.0524   25.9082 H   0  0  0  0  0  0
  -22.0593   -2.7609   23.2851 H   0  0  0  0  0  0
  -22.4083  -11.9877   22.4820 H   0  0  0  0  0  0
  -21.1080  -13.1236   22.2629 H   0  0  0  0  0  0
  -24.6400  -15.8438   20.5134 H   0  0  0  0  0  0
  -26.2557  -15.6382   20.0671 H   0  0  0  0  0  0
  -26.7252  -32.5332   23.1025 H   0  0  0  0  0  0
  -25.0105  -33.9642   25.0354 H   0  0  0  0  0  0
  -22.7367  -31.2960   21.3897 H   0  0  0  0  0  0
  -23.3748  -35.9608   23.3305 H   0  0  0  0  0  0
  -24.3574  -36.8898   22.2051 H   0  0  0  0  0  0
  -23.7261  -37.6475   23.6670 H   0  0  0  0  0  0
  -26.1411  -31.4963   20.6140 H   0  0  0  0  0  0
  -26.8630  -30.7859   22.0236 H   0  0  0  0  0  0
  -28.1279  -28.8517   21.2149 H   0  0  0  0  0  0
  -25.9141  -25.8647   19.0150 H   0  0  0  0  0  0
  -23.9709  -27.3026   18.9929 H   0  0  0  0  0  0
  -23.7978  -30.5834   19.4017 H   0  0  0  0  0  0
  -22.7747  -29.2512   19.8416 H   0  0  0  0  0  0
  -25.1313  -36.1874   25.0806 H   0  0  0  0  0  0
  -20.9989  -28.3308   24.1373 H   0  0  0  0  0  0
  -20.5680  -26.2329   23.3624 H   0  0  0  0  0  0
  -21.6645  -26.7453   22.1202 H   0  0  0  0  0  0
  -19.6914  -25.6301   21.1255 H   0  0  0  0  0  0
  -19.6695  -27.3195   20.6738 H   0  0  0  0  0  0
  -17.4206  -26.6693   21.4025 H   0  0  0  0  0  0
  -18.0335  -26.0092   22.9022 H   0  0  0  0  0  0
  -19.7938  -30.7307   24.2237 H   0  0  0  0  0  0
  -17.5015  -31.6273   24.5177 H   0  0  0  0  0  0
  -15.5355  -30.2994   23.7675 H   0  0  0  0  0  0
  -15.8677  -28.0839   22.7071 H   0  0  0  0  0  0
  -24.5912  -30.7094   25.7759 H   0  0  0  0  0  0
  -24.8910  -32.2935   26.4795 H   0  0  0  0  0  0
  -25.8022  -30.8974   27.0234 H   0  0  0  0  0  0
  -26.2984  -29.6704   24.1273 H   0  0  0  0  0  0
  -27.3999  -29.7258   25.4834 H   0  0  0  0  0  0
  -27.8893  -30.4210   23.9573 H   0  0  0  0  0  0
  -27.2646  -33.3638   26.2051 H   0  0  0  0  0  0
  -28.3892  -32.6887   25.0358 H   0  0  0  0  0  0
  -28.0704  -31.8483   26.5457 H   0  0  0  0  0  0
  -28.2596  -38.0090   24.7496 H   0  0  0  0  0  0
  -28.1070  -36.2618   24.6310 H   0  0  0  0  0  0
  -27.2290  -37.1465   25.8869 H   0  0  0  0  0  0
  -20.9437  -29.8774   21.6825 H   0  0  0  0  0  0
  -26.0157  -38.2824   24.1403 H   0  0  0  0  0  0
  -28.8619  -19.1199   18.4606 H   0  0  0  0  0  0
  -30.4847  -19.4094   22.4037 H   0  0  0  0  0  0
  -29.8955  -23.7941   19.4724 H   0  0  0  0  0  0
  -29.8497  -23.9690   21.1664 H   0  0  0  0  0  0
  -31.3195  -17.5465   20.9087 H   0  0  0  0  0  0
  -30.8011  -17.4594   19.2762 H   0  0  0  0  0  0
  -27.5227  -24.4858   19.2549 H   0  0  0  0  0  0
  -27.3132  -24.5265   20.9810 H   0  0  0  0  0  0
  -28.8793  -15.9703   20.7220 H   0  0  0  0  0  0
  1 25  1  0  0  0
  1 30  2  0  0  0
  1 80  1  0  0  0
  2  3  1  0  0  0
  2 25  1  0  0  0
  2 83  1  0  0  0
  2 84  1  0  0  0
  3  4  1  0  0  0
  3 85  1  0  0  0
  3 86  1  0  0  0
  4  5  1  0  0  0
  4 87  1  0  0  0
  4 88  1  0  0  0
  5  6  1  0  0  0
  5 26  1  0  0  0
  5 89  1  0  0  0
  6 25  1  0  0  0
  6 90  1  0  0  0
  6 91  1  0  0  0
  7  8  2  0  0  0
  7 26  1  0  0  0
  7 29  1  0  0  0
  8  9  1  0  0  0
  8 22  1  0  0  0
  9 10  1  0  0  0
  9 27  2  0  0  0
 10 11  2  0  0  0
 10 15  1  0  0  0
 11 12  1  0  0  0
 11 92  1  0  0  0
 12 13  2  0  0  0
 12 93  1  0  0  0
 13 14  1  0  0  0
 13 31  1  0  0  0
 14 15  2  0  0  0
 14 94  1  0  0  0
 15 95  1  0  0  0
 16 17  2  0  0  0
 16 21  1  0  0  0
 16 31  1  0  0  0
 17 18  1  0  0  0
 17 96  1  0  0  0
 18 19  2  0  0  0
 18 97  1  0  0  0
 19 20  1  0  0  0
 19 24  1  0  0  0
 20 21  2  0  0  0
 20 98  1  0  0  0
 21 23  1  0  0  0
 22 28  1  0  0  0
 22 32  2  0  0  0
 26 27  1  0  0  0
 28 99  1  0  0  0
 28100  1  0  0  0
 29101  1  0  0  0
 29102  1  0  0  0
 33 34  1  0  0  0
 33 66  1  0  0  0
 33 70  2  0  0  0
 34 36  1  0  0  0
 34 59  1  0  0  0
 34103  1  0  0  0
 35 44  2  0  0  0
 35 45  1  0  0  0
 35 68  1  0  0  0
 36 56  1  0  0  0
 36104  1  0  0  0
 37 39  1  0  0  0
 37 47  1  0  0  0
 37 66  1  0  0  0
 37105  1  0  0  0
 38 43  2  0  0  0
 38 46  1  0  0  0
 38 47  1  0  0  0
 39 64  1  0  0  0
 39 67  2  0  0  0
 40 52  1  0  0  0
 40 53  2  0  0  0
 40 58  1  0  0  0
 41106  1  0  0  0
 41107  1  0  0  0
 41108  1  0  0  0
 41 48  1  0  0  0
 42 43  1  0  0  0
 42 66  1  0  0  0
 42109  1  0  0  0
 42110  1  0  0  0
 43 44  1  0  0  0
 44111  1  0  0  0
 45 46  2  0  0  0
 45112  1  0  0  0
 46113  1  0  0  0
 47114  1  0  0  0
 47115  1  0  0  0
 48 56  1  0  0  0
 48 65  1  0  0  0
 48116  1  0  0  0
 49 50  1  0  0  0
 49 53  1  0  0  0
 49 64  1  0  0  0
 49117  1  0  0  0
 50 51  1  0  0  0
 50118  1  0  0  0
 50119  1  0  0  0
 51 52  1  0  0  0
 51120  1  0  0  0
 51121  1  0  0  0
 52122  1  0  0  0
 52123  1  0  0  0
 53 54  1  0  0  0
 54 55  2  0  0  0
 54124  1  0  0  0
 55 57  1  0  0  0
 55125  1  0  0  0
 56 69  2  0  0  0
 57 58  2  0  0  0
 57126  1  0  0  0
 58127  1  0  0  0
 59 60  1  0  0  0
 59 61  1  0  0  0
 59 62  1  0  0  0
 60128  1  0  0  0
 60129  1  0  0  0
 60130  1  0  0  0
 61131  1  0  0  0
 61132  1  0  0  0
 61133  1  0  0  0
 62134  1  0  0  0
 62135  1  0  0  0
 62136  1  0  0  0
 63 65  1  0  0  0
 63137  1  0  0  0
 63138  1  0  0  0
 63139  1  0  0  0
 64140  1  0  0  0
 65141  1  0  0  0
 68 79  1  0  0  0
 71 73  2  0  0  0
 71 75  1  0  0  0
 71142  1  0  0  0
 72 73  1  0  0  0
 72 76  2  0  0  0
 72143  1  0  0  0
 73 78  1  0  0  0
 74 75  2  0  0  0
 74 76  1  0  0  0
 74 77  1  0  0  0
 75 81  1  0  0  0
 76 82  1  0  0  0
 77 79  1  0  0  0
 77144  1  0  0  0
 77145  1  0  0  0
 78 80  1  0  0  0
 78146  1  0  0  0
 78147  1  0  0  0
 79148  1  0  0  0
 79149  1  0  0  0
 80150  1  0  0  0
M  ISO  4   1 100  68 101  79 101  80 100
M  END
> <chiral flag>
0

> <version>
0

> <s_m_source_file>
/data/baiqing/PycharmProjects/Reinvent-master-3.2/result/LINK_invent/BTK/process_docking_weight1_custom_sum_contain_oxygen_bond_distance_aromatic_linkinvent_7_9_3/rearranged_h_0030.sdf

> <i_m_source_file_index>
75

> <r_mmod_Potential_Energy-OPLS-2005>
291.788543701172

> <r_mmod_Stretch_Energy-OPLS-2005>
182.755432128906

> <r_mmod_Bend_Energy-OPLS-2005>
229.271621704102

> <r_mmod_Torsional_Energy-OPLS-2005>
227.608657836914

> <r_mmod_Improper_Torsional_Energy-OPLS-2005>
10.2204666137695

> <r_mmod_Van_der_Waal_Energy-OPLS-2005>
134.592239379883

> <r_mmod_Electrostatic_Energy-OPLS-2005>
-422.047546386719

> <r_mmod_Solvation_Energy-OPLS-2005>
-209.93782043457

> <b_mmod_Minimization_Converged-OPLS-2005>
0

> <r_mmod_RMS_Derivative-OPLS-2005>
2.15985774993896

$$$$
75
                    3D
 Structure written by MMmdl.
175184  0  0  1  0            999 V2000
  -30.7121  -14.3762   20.6832 C   0  0  0  0  0  0
  -30.4373  -12.3045   19.3649 C   0  0  0  0  0  0
  -29.4818  -12.5366   18.1786 C   0  0  0  0  0  0
  -28.0055  -12.3922   18.6025 C   0  0  0  0  0  0
  -27.6703  -13.1910   19.8893 C   0  0  2  0  0  0
  -28.7126  -12.8689   20.9787 C   0  0  0  0  0  0
  -25.2668  -13.8144   20.5722 C   0  0  0  0  0  0
  -24.1858  -13.0456   20.9159 C   0  0  0  0  0  0
  -24.6361  -11.6909   20.8659 C   0  0  0  0  0  0
  -23.9020  -10.4305   21.0375 C   0  0  0  0  0  0
  -24.3561   -9.4238   21.9164 C   0  0  0  0  0  0
  -23.6253   -8.2263   22.0766 C   0  0  0  0  0  0
  -22.4228   -8.0282   21.3561 C   0  0  0  0  0  0
  -21.9842   -9.0259   20.4661 C   0  0  0  0  0  0
  -22.7180  -10.2141   20.3065 C   0  0  0  0  0  0
  -21.6881   -6.0722   22.5290 C   0  0  0  0  0  0
  -21.4008   -6.5637   23.8215 C   0  0  0  0  0  0
  -21.3678   -5.6790   24.9183 C   0  0  0  0  0  0
  -21.6082   -4.3061   24.7237 C   0  0  0  0  0  0
  -21.8816   -3.8142   23.4359 C   0  0  0  0  0  0
  -21.9187   -4.6948   22.3408 C   0  0  0  0  0  0
  -22.7901  -13.5321   21.1819 C   0  0  0  0  0  0
  -22.1625   -4.2117   21.0984 F   0  0  0  0  0  0
  -21.5671   -3.4550   25.7748 F   0  0  0  0  0  0
  -30.0536  -13.2113   20.4531 N   0  0  0  0  0  0
  -26.3074  -12.9258   20.3448 N   0  0  0  0  0  0
  -25.9280  -11.6432   20.5694 N   0  0  0  0  0  0
  -22.0416  -12.8287   22.0271 N   0  0  0  0  0  0
  -25.4523  -15.1833   20.4217 N   0  0  0  0  0  0
  -31.7518  -14.7114   20.1021 O   0  0  0  0  0  0
  -21.6668   -6.8832   21.4234 O   0  0  0  0  0  0
  -22.3617  -14.5651   20.6688 O   0  0  0  0  0  0
  -24.6094  -31.8726   23.2102 C   0  0  0  0  0  0
  -25.9007  -32.4846   23.8382 C   0  0  1  0  0  0
  -27.2474  -27.4893   20.0763 C   0  0  0  0  0  0
  -25.5891  -33.8623   24.2331 N   0  0  0  0  0  0
  -23.3942  -30.4919   21.5545 C   0  0  2  0  0  0
  -24.8412  -28.9527   20.1243 C   0  0  0  0  0  0
  -22.7382  -29.4683   22.5039 C   0  0  0  0  0  0
  -18.0300  -28.1328   22.8521 C   0  0  0  0  0  0
  -24.1478  -36.7310   23.2637 C   0  0  0  0  0  0
  -25.9152  -30.8505   21.3563 C   0  0  0  0  0  0
  -25.9982  -29.4848   20.7119 C   0  0  0  0  0  0
  -27.2049  -28.7587   20.6851 C   0  0  0  0  0  0
  -26.0780  -26.9502   19.5028 C   0  0  0  0  0  0
  -24.8726  -27.6810   19.5233 C   0  0  0  0  0  0
  -23.5992  -29.8126   20.1726 C   0  0  0  0  0  0
  -25.4111  -36.3117   24.0337 C   0  0  1  0  0  0
  -20.5863  -28.3656   23.1360 C   0  0  2  0  0  0
  -20.6822  -26.9407   22.5420 C   0  0  0  0  0  0
  -19.5771  -26.6288   21.5273 C   0  0  0  0  0  0
  -18.1980  -26.7843   22.1725 C   0  0  0  0  0  0
  -19.1522  -28.8827   23.2927 C   0  0  0  0  0  0
  -18.9432  -30.1464   23.8875 C   0  0  0  0  0  0
  -17.6415  -30.6576   24.0515 C   0  0  0  0  0  0
  -25.9047  -34.9482   23.5147 C   0  0  0  0  0  0
  -16.5330  -29.9043   23.6278 C   0  0  0  0  0  0
  -16.7279  -28.6443   23.0344 C   0  0  0  0  0  0
  -26.4445  -31.6604   25.0696 C   0  0  0  0  0  0
  -25.3721  -31.3704   26.1459 C   0  0  0  0  0  0
  -27.0251  -30.3047   24.6009 C   0  0  0  0  0  0
  -27.6040  -32.4303   25.7467 C   0  0  0  0  0  0
  -27.5582  -37.1809   24.8461 C   0  0  0  0  0  0
  -21.4111  -29.3042   22.3787 N   0  0  0  0  0  0
  -26.4283  -37.3807   23.9423 N   0  0  0  0  0  0
  -24.6574  -31.0835   22.1000 N   0  0  0  0  0  0
  -23.4181  -28.8235   23.3057 O   0  0  0  0  0  0
  -28.4378  -26.8188   19.9925 O   0  0  0  0  0  0
  -26.5583  -34.8931   22.4694 O   0  0  0  0  0  0
  -23.5321  -32.1445   23.7563 O   0  0  0  0  0  0
  -28.9140  -17.1735   22.1977 C   0  0  0  0  0  0
  -28.3695  -18.3877   21.7015 C   0  0  0  0  0  0
  -27.9296  -16.6359   23.0024 C   0  0  0  0  0  0
  -27.0757  -18.5516   22.1534 C   0  0  0  0  0  0
  -27.9220  -15.4390   23.7695 C   0  0  0  0  0  0
  -25.6490  -15.8709   24.4038 C   0  0  0  0  0  0
  -26.7912  -15.0552   24.4339 C   0  0  0  0  0  0
  -25.6337  -17.0552   23.6961 C   0  0  0  0  0  0
  -26.1731  -19.7036   21.8059 C   0  0  0  0  0  0
  -24.4448  -19.1113   24.6378 C   0  0  0  0  0  0
  -29.0529  -19.3553   20.7571 C   0  0  0  0  0  0
  -30.2647  -16.5591   21.8859 C   0  0  0  0  0  0
  -24.3455  -17.8707   23.7381 C   0  0  0  0  0  0
  -29.2627  -20.7655   21.3471 C   0  0  0  0  0  0
  -29.1709  -21.8977   20.3060 C   0  0  0  0  0  0
  -29.2686  -23.2786   20.9765 C   0  0  0  0  0  0
  -28.9202  -24.4594   20.0558 C   0  0  0  0  0  0
  -28.5733  -25.7146   20.8708 C   0  0  0  0  0  0
  -26.7545  -17.4528   22.9788 N   0  0  0  0  0  0
  -30.0861  -15.1514   21.5701 N   0  0  0  0  0  0
  -26.7559  -13.5675   25.3056 Cl  0  0  0  0  0  0
  -31.4709  -12.4530   19.0434 H   0  0  0  0  0  0
  -30.3712  -11.2711   19.7036 H   0  0  0  0  0  0
  -29.7116  -11.8402   17.3704 H   0  0  0  0  0  0
  -29.6459  -13.5369   17.7797 H   0  0  0  0  0  0
  -27.8055  -11.3311   18.7555 H   0  0  0  0  0  0
  -27.3495  -12.7081   17.7917 H   0  0  0  0  0  0
  -27.7436  -14.2554   19.6571 H   0  0  0  0  0  0
  -28.6843  -11.8025   21.2102 H   0  0  0  0  0  0
  -28.4539  -13.3617   21.9146 H   0  0  0  0  0  0
  -25.2691   -9.5736   22.4749 H   0  0  0  0  0  0
  -24.0008   -7.4673   22.7480 H   0  0  0  0  0  0
  -21.0782   -8.8765   19.8947 H   0  0  0  0  0  0
  -22.3640  -10.9701   19.6196 H   0  0  0  0  0  0
  -21.1975   -7.6134   23.9710 H   0  0  0  0  0  0
  -21.1508   -6.0496   25.9089 H   0  0  0  0  0  0
  -22.0552   -2.7609   23.2879 H   0  0  0  0  0  0
  -22.3865  -11.9891   22.4657 H   0  0  0  0  0  0
  -21.0981  -13.1305   22.2240 H   0  0  0  0  0  0
  -24.7042  -15.8544   20.5456 H   0  0  0  0  0  0
  -26.3427  -15.6168   20.2104 H   0  0  0  0  0  0
  -26.7096  -32.5565   23.1179 H   0  0  0  0  0  0
  -25.0062  -33.9811   25.0465 H   0  0  0  0  0  0
  -22.6853  -31.3107   21.4162 H   0  0  0  0  0  0
  -23.3746  -35.9640   23.3297 H   0  0  0  0  0  0
  -24.3574  -36.8908   22.2050 H   0  0  0  0  0  0
  -23.7199  -37.6512   23.6627 H   0  0  0  0  0  0
  -26.0086  -31.6176   20.5857 H   0  0  0  0  0  0
  -26.8088  -30.9101   21.9650 H   0  0  0  0  0  0
  -28.1059  -29.1732   21.1165 H   0  0  0  0  0  0
  -26.1079  -25.9802   19.0250 H   0  0  0  0  0  0
  -23.9817  -27.2648   19.0745 H   0  0  0  0  0  0
  -23.7000  -30.5783   19.4029 H   0  0  0  0  0  0
  -22.7228  -29.2291   19.8874 H   0  0  0  0  0  0
  -25.1271  -36.2001   25.0827 H   0  0  0  0  0  0
  -20.9956  -28.3210   24.1497 H   0  0  0  0  0  0
  -21.6668  -26.7519   22.1130 H   0  0  0  0  0  0
  -20.5872  -26.2267   23.3595 H   0  0  0  0  0  0
  -19.6912  -25.6173   21.1370 H   0  0  0  0  0  0
  -19.6698  -27.3030   20.6752 H   0  0  0  0  0  0
  -17.4223  -26.6524   21.4160 H   0  0  0  0  0  0
  -18.0448  -26.0010   22.9178 H   0  0  0  0  0  0
  -19.7892  -30.7313   24.2218 H   0  0  0  0  0  0
  -17.4955  -31.6280   24.5074 H   0  0  0  0  0  0
  -15.5331  -30.2942   23.7591 H   0  0  0  0  0  0
  -15.8693  -28.0763   22.7070 H   0  0  0  0  0  0
  -24.5918  -30.7023   25.7786 H   0  0  0  0  0  0
  -24.8895  -32.2874   26.4880 H   0  0  0  0  0  0
  -25.8115  -30.8899   27.0220 H   0  0  0  0  0  0
  -26.2779  -29.6869   24.1027 H   0  0  0  0  0  0
  -27.3990  -29.7230   25.4441 H   0  0  0  0  0  0
  -27.8628  -30.4367   23.9153 H   0  0  0  0  0  0
  -27.2667  -33.3610   26.2066 H   0  0  0  0  0  0
  -28.3867  -32.6853   25.0292 H   0  0  0  0  0  0
  -28.0681  -31.8381   26.5378 H   0  0  0  0  0  0
  -28.2598  -38.0104   24.7541 H   0  0  0  0  0  0
  -28.1080  -36.2641   24.6260 H   0  0  0  0  0  0
  -27.2309  -37.1439   25.8864 H   0  0  0  0  0  0
  -20.9269  -29.8901   21.7135 H   0  0  0  0  0  0
  -26.0182  -38.2887   24.1448 H   0  0  0  0  0  0
  -28.8104  -14.8204   23.8238 H   0  0  0  0  0  0
  -24.7750  -15.5459   24.9622 H   0  0  0  0  0  0
  -26.3137  -20.5340   22.4984 H   0  0  0  0  0  0
  -25.1199  -19.4553   21.7736 H   0  0  0  0  0  0
  -26.3949  -20.0820   20.8080 H   0  0  0  0  0  0
  -23.4933  -19.6411   24.6765 H   0  0  0  0  0  0
  -25.2009  -19.8140   24.2978 H   0  0  0  0  0  0
  -24.7028  -18.8282   25.6604 H   0  0  0  0  0  0
  -28.4579  -19.4211   19.8447 H   0  0  0  0  0  0
  -30.0199  -18.9825   20.4277 H   0  0  0  0  0  0
  -30.9236  -16.6390   22.7514 H   0  0  0  0  0  0
  -30.7672  -17.0548   21.0572 H   0  0  0  0  0  0
  -23.5529  -17.2470   24.1543 H   0  0  0  0  0  0
  -23.9740  -18.0798   22.7393 H   0  0  0  0  0  0
  -30.2090  -20.8065   21.8885 H   0  0  0  0  0  0
  -28.4966  -20.9673   22.0937 H   0  0  0  0  0  0
  -28.2122  -21.8271   19.7843 H   0  0  0  0  0  0
  -29.9479  -21.7762   19.5508 H   0  0  0  0  0  0
  -30.2671  -23.4256   21.3970 H   0  0  0  0  0  0
  -28.5790  -23.2905   21.8222 H   0  0  0  0  0  0
  -28.0769  -24.2116   19.4098 H   0  0  0  0  0  0
  -29.7637  -24.6719   19.3930 H   0  0  0  0  0  0
  -29.3752  -25.9383   21.5750 H   0  0  0  0  0  0
  -27.6740  -25.5493   21.4699 H   0  0  0  0  0  0
  -29.2554  -14.7346   21.9567 H   0  0  0  0  0  0
  1 25  1  0  0  0
  1 30  2  0  0  0
  1 90  1  0  0  0
  2  3  1  0  0  0
  2 25  1  0  0  0
  2 92  1  0  0  0
  2 93  1  0  0  0
  3  4  1  0  0  0
  3 94  1  0  0  0
  3 95  1  0  0  0
  4  5  1  0  0  0
  4 96  1  0  0  0
  4 97  1  0  0  0
  5  6  1  0  0  0
  5 26  1  0  0  0
  5 98  1  0  0  0
  6 25  1  0  0  0
  6 99  1  0  0  0
  6100  1  0  0  0
  7  8  2  0  0  0
  7 26  1  0  0  0
  7 29  1  0  0  0
  8  9  1  0  0  0
  8 22  1  0  0  0
  9 10  1  0  0  0
  9 27  2  0  0  0
 10 11  2  0  0  0
 10 15  1  0  0  0
 11 12  1  0  0  0
 11101  1  0  0  0
 12 13  2  0  0  0
 12102  1  0  0  0
 13 14  1  0  0  0
 13 31  1  0  0  0
 14 15  2  0  0  0
 14103  1  0  0  0
 15104  1  0  0  0
 16 17  2  0  0  0
 16 21  1  0  0  0
 16 31  1  0  0  0
 17 18  1  0  0  0
 17105  1  0  0  0
 18 19  2  0  0  0
 18106  1  0  0  0
 19 20  1  0  0  0
 19 24  1  0  0  0
 20 21  2  0  0  0
 20107  1  0  0  0
 21 23  1  0  0  0
 22 28  1  0  0  0
 22 32  2  0  0  0
 26 27  1  0  0  0
 28108  1  0  0  0
 28109  1  0  0  0
 29110  1  0  0  0
 29111  1  0  0  0
 33 34  1  0  0  0
 33 66  1  0  0  0
 33 70  2  0  0  0
 34 36  1  0  0  0
 34 59  1  0  0  0
 34112  1  0  0  0
 35 44  2  0  0  0
 35 45  1  0  0  0
 35 68  1  0  0  0
 36 56  1  0  0  0
 36113  1  0  0  0
 37 39  1  0  0  0
 37 47  1  0  0  0
 37 66  1  0  0  0
 37114  1  0  0  0
 38 43  2  0  0  0
 38 46  1  0  0  0
 38 47  1  0  0  0
 39 64  1  0  0  0
 39 67  2  0  0  0
 40 52  1  0  0  0
 40 53  2  0  0  0
 40 58  1  0  0  0
 41115  1  0  0  0
 41116  1  0  0  0
 41117  1  0  0  0
 41 48  1  0  0  0
 42 43  1  0  0  0
 42 66  1  0  0  0
 42118  1  0  0  0
 42119  1  0  0  0
 43 44  1  0  0  0
 44120  1  0  0  0
 45 46  2  0  0  0
 45121  1  0  0  0
 46122  1  0  0  0
 47123  1  0  0  0
 47124  1  0  0  0
 48 56  1  0  0  0
 48 65  1  0  0  0
 48125  1  0  0  0
 49 50  1  0  0  0
 49 53  1  0  0  0
 49 64  1  0  0  0
 49126  1  0  0  0
 50 51  1  0  0  0
 50127  1  0  0  0
 50128  1  0  0  0
 51 52  1  0  0  0
 51129  1  0  0  0
 51130  1  0  0  0
 52131  1  0  0  0
 52132  1  0  0  0
 53 54  1  0  0  0
 54 55  2  0  0  0
 54133  1  0  0  0
 55 57  1  0  0  0
 55134  1  0  0  0
 56 69  2  0  0  0
 57 58  2  0  0  0
 57135  1  0  0  0
 58136  1  0  0  0
 59 60  1  0  0  0
 59 61  1  0  0  0
 59 62  1  0  0  0
 60137  1  0  0  0
 60138  1  0  0  0
 60139  1  0  0  0
 61140  1  0  0  0
 61141  1  0  0  0
 61142  1  0  0  0
 62143  1  0  0  0
 62144  1  0  0  0
 62145  1  0  0  0
 63 65  1  0  0  0
 63146  1  0  0  0
 63147  1  0  0  0
 63148  1  0  0  0
 64149  1  0  0  0
 65150  1  0  0  0
 68 88  1  0  0  0
 71 72  1  0  0  0
 71 73  2  0  0  0
 71 82  1  0  0  0
 72 74  2  0  0  0
 72 81  1  0  0  0
 73 75  1  0  0  0
 73 89  1  0  0  0
 74 79  1  0  0  0
 74 89  1  0  0  0
 75 77  2  0  0  0
 75151  1  0  0  0
 76 77  1  0  0  0
 76 78  2  0  0  0
 76152  1  0  0  0
 77 91  1  0  0  0
 78 83  1  0  0  0
 78 89  1  0  0  0
 79153  1  0  0  0
 79154  1  0  0  0
 79155  1  0  0  0
 80 83  1  0  0  0
 80156  1  0  0  0
 80157  1  0  0  0
 80158  1  0  0  0
 81 84  1  0  0  0
 81159  1  0  0  0
 81160  1  0  0  0
 82 90  1  0  0  0
 82161  1  0  0  0
 82162  1  0  0  0
 83163  1  0  0  0
 83164  1  0  0  0
 84 85  1  0  0  0
 84165  1  0  0  0
 84166  1  0  0  0
 85 86  1  0  0  0
 85167  1  0  0  0
 85168  1  0  0  0
 86 87  1  0  0  0
 86169  1  0  0  0
 86170  1  0  0  0
 87 88  1  0  0  0
 87171  1  0  0  0
 87172  1  0  0  0
 88173  1  0  0  0
 88174  1  0  0  0
 90175  1  0  0  0
M  ISO  4   1 100  68 101  88 101  90 100
M  END
> <chiral flag>
0

> <version>
0

> <s_m_source_file>
/data/baiqing/PycharmProjects/Reinvent-master-3.2/result/LINK_invent/BTK/process_docking_weight1_custom_sum_contain_oxygen_bond_distance_aromatic_linkinvent_7_9_3/rearranged_h_0030.sdf

> <i_m_source_file_index>
76

> <r_mmod_Potential_Energy-OPLS-2005>
-8.70793151855469

> <r_mmod_Stretch_Energy-OPLS-2005>
38.0651473999023

> <r_mmod_Bend_Energy-OPLS-2005>
116.125846862793

> <r_mmod_Torsional_Energy-OPLS-2005>
232.503051757812

> <r_mmod_Improper_Torsional_Energy-OPLS-2005>
2.58155632019043

> <r_mmod_Van_der_Waal_Energy-OPLS-2005>
136.947204589844

> <r_mmod_Electrostatic_Energy-OPLS-2005>
-358.484313964844

> <r_mmod_Solvation_Energy-OPLS-2005>
-185.309356689453

> <b_mmod_Minimization_Converged-OPLS-2005>
0

> <r_mmod_RMS_Derivative-OPLS-2005>
5.06590938568115

$$$$
76
                    3D
 Structure written by MMmdl.
159167  0  0  1  0            999 V2000
  -30.5684  -14.9561   20.3864 C   0  0  0  0  0  0
  -30.4530  -12.5912   19.4690 C   0  0  0  0  0  0
  -29.5277  -12.4998   18.2358 C   0  0  0  0  0  0
  -28.0537  -12.3139   18.6564 C   0  0  0  0  0  0
  -27.6322  -13.2521   19.8199 C   0  0  2  0  0  0
  -28.6888  -13.2998   20.9458 C   0  0  0  0  0  0
  -25.2515  -13.8242   20.5697 C   0  0  0  0  0  0
  -24.1860  -13.0466   20.9247 C   0  0  0  0  0  0
  -24.6457  -11.6942   20.8722 C   0  0  0  0  0  0
  -23.9143  -10.4320   21.0403 C   0  0  0  0  0  0
  -24.3694   -9.4228   21.9190 C   0  0  0  0  0  0
  -23.6329   -8.2300   22.0804 C   0  0  0  0  0  0
  -22.4320   -8.0334   21.3572 C   0  0  0  0  0  0
  -21.9945   -9.0326   20.4701 C   0  0  0  0  0  0
  -22.7298  -10.2191   20.3076 C   0  0  0  0  0  0
  -21.6904   -6.0743   22.5270 C   0  0  0  0  0  0
  -21.4039   -6.5632   23.8176 C   0  0  0  0  0  0
  -21.3679   -5.6784   24.9141 C   0  0  0  0  0  0
  -21.6063   -4.3048   24.7187 C   0  0  0  0  0  0
  -21.8808   -3.8143   23.4300 C   0  0  0  0  0  0
  -21.9227   -4.6978   22.3363 C   0  0  0  0  0  0
  -22.7846  -13.5246   21.1827 C   0  0  0  0  0  0
  -22.1673   -4.2155   21.0933 F   0  0  0  0  0  0
  -21.5636   -3.4524   25.7691 F   0  0  0  0  0  0
  -29.9534  -13.7058   20.3204 N   0  0  0  0  0  0
  -26.2955  -12.9477   20.3216 N   0  0  0  0  0  0
  -25.9401  -11.6584   20.5720 N   0  0  0  0  0  0
  -22.0475  -12.8316   22.0407 N   0  0  0  0  0  0
  -25.4095  -15.1974   20.4068 N   0  0  0  0  0  0
  -31.7909  -14.9902   20.2274 O   0  0  0  0  0  0
  -21.6683   -6.8925   21.4256 O   0  0  0  0  0  0
  -22.3518  -14.5498   20.6581 O   0  0  0  0  0  0
  -24.6475  -31.8384   23.1813 C   0  0  0  0  0  0
  -25.9223  -32.4685   23.8221 C   0  0  1  0  0  0
  -27.2292  -27.1144   20.1417 C   0  0  0  0  0  0
  -25.5950  -33.8488   24.2139 N   0  0  0  0  0  0
  -23.4530  -30.4559   21.5289 C   0  0  2  0  0  0
  -24.9031  -28.8782   20.1067 C   0  0  0  0  0  0
  -22.7600  -29.4504   22.4829 C   0  0  0  0  0  0
  -18.0322  -28.1428   22.8449 C   0  0  0  0  0  0
  -24.1468  -36.7260   23.2627 C   0  0  0  0  0  0
  -26.0090  -30.7077   21.3822 C   0  0  0  0  0  0
  -26.0807  -29.3169   20.7238 C   0  0  0  0  0  0
  -27.2420  -28.4509   20.7204 C   0  0  0  0  0  0
  -26.0234  -26.7867   19.4797 C   0  0  0  0  0  0
  -24.8901  -27.6323   19.4617 C   0  0  0  0  0  0
  -23.6775  -29.7786   20.1492 C   0  0  0  0  0  0
  -25.4118  -36.3038   24.0281 C   0  0  1  0  0  0
  -20.5935  -28.3741   23.1213 C   0  0  2  0  0  0
  -20.6812  -26.9429   22.5401 C   0  0  0  0  0  0
  -19.5781  -26.6378   21.5212 C   0  0  0  0  0  0
  -18.1955  -26.7964   22.1595 C   0  0  0  0  0  0
  -19.1578  -28.8887   23.2838 C   0  0  0  0  0  0
  -18.9488  -30.1500   23.8847 C   0  0  0  0  0  0
  -17.6477  -30.6602   24.0570 C   0  0  0  0  0  0
  -25.9067  -34.9413   23.5006 C   0  0  0  0  0  0
  -16.5372  -29.9081   23.6366 C   0  0  0  0  0  0
  -16.7307  -28.6522   23.0333 C   0  0  0  0  0  0
  -26.4528  -31.6580   25.0692 C   0  0  0  0  0  0
  -25.3704  -31.3783   26.1381 C   0  0  0  0  0  0
  -27.0420  -30.2978   24.6300 C   0  0  0  0  0  0
  -27.6030  -32.4356   25.7517 C   0  0  0  0  0  0
  -27.5577  -37.1785   24.8455 C   0  0  0  0  0  0
  -21.4280  -29.3039   22.3560 N   0  0  0  0  0  0
  -26.4293  -37.3755   23.9388 N   0  0  0  0  0  0
  -24.7231  -31.0232   22.0858 N   0  0  0  0  0  0
  -23.4233  -28.8063   23.2989 O   0  0  0  0  0  0
  -28.2909  -26.1267   20.2062 O   0  0  0  0  0  0
  -26.5660  -34.8898   22.4595 O   0  0  0  0  0  0
  -23.5589  -32.1249   23.7022 O   0  0  0  0  0  0
  -29.0669  -18.9352   18.7274 C   0  0  0  0  0  0
  -28.6989  -20.0554   17.9478 C   0  0  0  0  0  0
  -29.5419  -19.0525   20.0396 C   0  0  0  0  0  0
  -28.7807  -21.3906   18.4417 C   0  0  0  0  0  0
  -29.5038  -20.4513   20.5780 C   0  0  0  0  0  0
  -29.0858  -21.6808   19.8130 C   0  0  0  0  0  0
  -28.2366  -19.7710   16.5217 C   0  0  0  0  0  0
  -28.6366  -22.5138   17.4114 C   0  0  0  0  0  0
  -29.9957  -20.6292   22.0161 C   0  0  0  0  0  0
  -29.1520  -23.2915   20.2991 C   0  0  0  0  0  0
  -30.1861  -17.6705   20.7028 C   0  0  0  0  0  0
  -28.0652  -24.5830   19.9976 C   0  0  0  0  0  0
  -29.8067  -16.1571   20.4205 N   0  0  0  0  0  0
  -31.4819  -12.7608   19.1488 H   0  0  0  0  0  0
  -30.4674  -11.6520   20.0239 H   0  0  0  0  0  0
  -29.8315  -11.6683   17.6027 H   0  0  0  0  0  0
  -29.6358  -13.3961   17.6216 H   0  0  0  0  0  0
  -27.9360  -11.2742   18.9565 H   0  0  0  0  0  0
  -27.3973  -12.4614   17.7987 H   0  0  0  0  0  0
  -27.5861  -14.2454   19.3780 H   0  0  0  0  0  0
  -28.7896  -12.3311   21.4397 H   0  0  0  0  0  0
  -28.4031  -14.0197   21.7158 H   0  0  0  0  0  0
  -25.2855   -9.5696   22.4709 H   0  0  0  0  0  0
  -24.0044   -7.4698   22.7507 H   0  0  0  0  0  0
  -21.0888   -8.8834   19.8990 H   0  0  0  0  0  0
  -22.3768  -10.9715   19.6159 H   0  0  0  0  0  0
  -21.2028   -7.6138   23.9692 H   0  0  0  0  0  0
  -21.1517   -6.0502   25.9046 H   0  0  0  0  0  0
  -22.0586   -2.7602   23.2789 H   0  0  0  0  0  0
  -22.4091  -12.0066   22.4893 H   0  0  0  0  0  0
  -21.1073  -13.1337   22.2484 H   0  0  0  0  0  0
  -24.6186  -15.8273   20.4940 H   0  0  0  0  0  0
  -26.2363  -15.6467   20.0360 H   0  0  0  0  0  0
  -26.7294  -32.5309   23.0956 H   0  0  0  0  0  0
  -25.0140  -33.9573   25.0315 H   0  0  0  0  0  0
  -22.7626  -31.2873   21.3714 H   0  0  0  0  0  0
  -23.3736  -35.9594   23.3284 H   0  0  0  0  0  0
  -24.3544  -36.8910   22.2050 H   0  0  0  0  0  0
  -23.7208  -37.6422   23.6705 H   0  0  0  0  0  0
  -26.1641  -31.4588   20.6063 H   0  0  0  0  0  0
  -26.8803  -30.7648   22.0210 H   0  0  0  0  0  0
  -28.1412  -28.7868   21.2146 H   0  0  0  0  0  0
  -25.9365  -25.8300   18.9858 H   0  0  0  0  0  0
  -23.9930  -27.3051   18.9521 H   0  0  0  0  0  0
  -23.8020  -30.5485   19.3867 H   0  0  0  0  0  0
  -22.7974  -29.2076   19.8475 H   0  0  0  0  0  0
  -25.1315  -36.1842   25.0778 H   0  0  0  0  0  0
  -21.0053  -28.3339   24.1328 H   0  0  0  0  0  0
  -20.5717  -26.2334   23.3638 H   0  0  0  0  0  0
  -21.6679  -26.7428   22.1195 H   0  0  0  0  0  0
  -19.6945  -25.6266   21.1287 H   0  0  0  0  0  0
  -19.6759  -27.3147   20.6728 H   0  0  0  0  0  0
  -17.4249  -26.6708   21.3991 H   0  0  0  0  0  0
  -18.0345  -26.0149   22.9023 H   0  0  0  0  0  0
  -19.7957  -30.7353   24.2178 H   0  0  0  0  0  0
  -17.5018  -31.6285   24.5160 H   0  0  0  0  0  0
  -15.5361  -30.2959   23.7729 H   0  0  0  0  0  0
  -15.8723  -28.0853   22.7038 H   0  0  0  0  0  0
  -24.5798  -30.7260   25.7632 H   0  0  0  0  0  0
  -24.9032  -32.3016   26.4838 H   0  0  0  0  0  0
  -25.7950  -30.8851   27.0139 H   0  0  0  0  0  0
  -26.3056  -29.6663   24.1317 H   0  0  0  0  0  0
  -27.4026  -29.7300   25.4883 H   0  0  0  0  0  0
  -27.8959  -30.4170   23.9626 H   0  0  0  0  0  0
  -27.2543  -33.3569   26.2190 H   0  0  0  0  0  0
  -28.3832  -32.7059   25.0394 H   0  0  0  0  0  0
  -28.0758  -31.8467   26.5384 H   0  0  0  0  0  0
  -28.2575  -38.0095   24.7530 H   0  0  0  0  0  0
  -28.1082  -36.2625   24.6268 H   0  0  0  0  0  0
  -27.2305  -37.1425   25.8858 H   0  0  0  0  0  0
  -20.9508  -29.8706   21.6673 H   0  0  0  0  0  0
  -26.0138  -38.2790   24.1466 H   0  0  0  0  0  0
  -29.0433  -17.9555   18.2699 H   0  0  0  0  0  0
  -27.9016  -18.7397   16.4120 H   0  0  0  0  0  0
  -29.0355  -19.9253   15.7960 H   0  0  0  0  0  0
  -27.3939  -20.3994   16.2351 H   0  0  0  0  0  0
  -29.1367  -22.2467   16.4764 H   0  0  0  0  0  0
  -29.1364  -23.4306   17.7066 H   0  0  0  0  0  0
  -27.5897  -22.7238   17.1833 H   0  0  0  0  0  0
  -29.7598  -19.7591   22.6261 H   0  0  0  0  0  0
  -29.5267  -21.4683   22.5276 H   0  0  0  0  0  0
  -31.0796  -20.7664   22.0457 H   0  0  0  0  0  0
  -30.1080  -23.6318   19.8965 H   0  0  0  0  0  0
  -29.3194  -23.2906   21.3751 H   0  0  0  0  0  0
  -30.1326  -17.7739   21.7850 H   0  0  0  0  0  0
  -31.2510  -17.7417   20.4742 H   0  0  0  0  0  0
  -27.1654  -24.3395   20.5637 H   0  0  0  0  0  0
  -27.7563  -24.4999   18.9596 H   0  0  0  0  0  0
  -28.8117  -15.9998   20.3541 H   0  0  0  0  0  0
  1 25  1  0  0  0
  1 30  2  0  0  0
  1 83  1  0  0  0
  2  3  1  0  0  0
  2 25  1  0  0  0
  2 84  1  0  0  0
  2 85  1  0  0  0
  3  4  1  0  0  0
  3 86  1  0  0  0
  3 87  1  0  0  0
  4  5  1  0  0  0
  4 88  1  0  0  0
  4 89  1  0  0  0
  5  6  1  0  0  0
  5 26  1  0  0  0
  5 90  1  0  0  0
  6 25  1  0  0  0
  6 91  1  0  0  0
  6 92  1  0  0  0
  7  8  2  0  0  0
  7 26  1  0  0  0
  7 29  1  0  0  0
  8  9  1  0  0  0
  8 22  1  0  0  0
  9 10  1  0  0  0
  9 27  2  0  0  0
 10 11  2  0  0  0
 10 15  1  0  0  0
 11 12  1  0  0  0
 11 93  1  0  0  0
 12 13  2  0  0  0
 12 94  1  0  0  0
 13 14  1  0  0  0
 13 31  1  0  0  0
 14 15  2  0  0  0
 14 95  1  0  0  0
 15 96  1  0  0  0
 16 17  2  0  0  0
 16 21  1  0  0  0
 16 31  1  0  0  0
 17 18  1  0  0  0
 17 97  1  0  0  0
 18 19  2  0  0  0
 18 98  1  0  0  0
 19 20  1  0  0  0
 19 24  1  0  0  0
 20 21  2  0  0  0
 20 99  1  0  0  0
 21 23  1  0  0  0
 22 28  1  0  0  0
 22 32  2  0  0  0
 26 27  1  0  0  0
 28100  1  0  0  0
 28101  1  0  0  0
 29102  1  0  0  0
 29103  1  0  0  0
 33 34  1  0  0  0
 33 66  1  0  0  0
 33 70  2  0  0  0
 34 36  1  0  0  0
 34 59  1  0  0  0
 34104  1  0  0  0
 35 44  2  0  0  0
 35 45  1  0  0  0
 35 68  1  0  0  0
 36 56  1  0  0  0
 36105  1  0  0  0
 37 39  1  0  0  0
 37 47  1  0  0  0
 37 66  1  0  0  0
 37106  1  0  0  0
 38 43  2  0  0  0
 38 46  1  0  0  0
 38 47  1  0  0  0
 39 64  1  0  0  0
 39 67  2  0  0  0
 40 52  1  0  0  0
 40 53  2  0  0  0
 40 58  1  0  0  0
 41107  1  0  0  0
 41108  1  0  0  0
 41109  1  0  0  0
 41 48  1  0  0  0
 42 43  1  0  0  0
 42 66  1  0  0  0
 42110  1  0  0  0
 42111  1  0  0  0
 43 44  1  0  0  0
 44112  1  0  0  0
 45 46  2  0  0  0
 45113  1  0  0  0
 46114  1  0  0  0
 47115  1  0  0  0
 47116  1  0  0  0
 48 56  1  0  0  0
 48 65  1  0  0  0
 48117  1  0  0  0
 49 50  1  0  0  0
 49 53  1  0  0  0
 49 64  1  0  0  0
 49118  1  0  0  0
 50 51  1  0  0  0
 50119  1  0  0  0
 50120  1  0  0  0
 51 52  1  0  0  0
 51121  1  0  0  0
 51122  1  0  0  0
 52123  1  0  0  0
 52124  1  0  0  0
 53 54  1  0  0  0
 54 55  2  0  0  0
 54125  1  0  0  0
 55 57  1  0  0  0
 55126  1  0  0  0
 56 69  2  0  0  0
 57 58  2  0  0  0
 57127  1  0  0  0
 58128  1  0  0  0
 59 60  1  0  0  0
 59 61  1  0  0  0
 59 62  1  0  0  0
 60129  1  0  0  0
 60130  1  0  0  0
 60131  1  0  0  0
 61132  1  0  0  0
 61133  1  0  0  0
 61134  1  0  0  0
 62135  1  0  0  0
 62136  1  0  0  0
 62137  1  0  0  0
 63 65  1  0  0  0
 63138  1  0  0  0
 63139  1  0  0  0
 63140  1  0  0  0
 64141  1  0  0  0
 65142  1  0  0  0
 68 82  1  0  0  0
 71 72  2  0  0  0
 71 73  1  0  0  0
 71143  1  0  0  0
 72 74  1  0  0  0
 72 77  1  0  0  0
 73 75  2  0  0  0
 73 81  1  0  0  0
 74 76  2  0  0  0
 74 78  1  0  0  0
 75 76  1  0  0  0
 75 79  1  0  0  0
 76 80  1  0  0  0
 77144  1  0  0  0
 77145  1  0  0  0
 77146  1  0  0  0
 78147  1  0  0  0
 78148  1  0  0  0
 78149  1  0  0  0
 79150  1  0  0  0
 79151  1  0  0  0
 79152  1  0  0  0
 80 82  1  0  0  0
 80153  1  0  0  0
 80154  1  0  0  0
 81 83  1  0  0  0
 81155  1  0  0  0
 81156  1  0  0  0
 82157  1  0  0  0
 82158  1  0  0  0
 83159  1  0  0  0
M  ISO  4   1 100  68 101  82 101  83 100
M  END
> <chiral flag>
0

> <version>
0

> <s_m_source_file>
/data/baiqing/PycharmProjects/Reinvent-master-3.2/result/LINK_invent/BTK/process_docking_weight1_custom_sum_contain_oxygen_bond_distance_aromatic_linkinvent_7_9_3/rearranged_h_0030.sdf

> <i_m_source_file_index>
77

> <r_mmod_Potential_Energy-OPLS-2005>
493.178680419922

> <r_mmod_Stretch_Energy-OPLS-2005>
301.780395507812

> <r_mmod_Bend_Energy-OPLS-2005>
263.206451416016

> <r_mmod_Torsional_Energy-OPLS-2005>
218.702728271484

> <r_mmod_Improper_Torsional_Energy-OPLS-2005>
6.38444423675537

> <r_mmod_Van_der_Waal_Energy-OPLS-2005>
137.403656005859

> <r_mmod_Electrostatic_Energy-OPLS-2005>
-429.245544433594

> <r_mmod_Solvation_Energy-OPLS-2005>
-211.291717529297

> <b_mmod_Minimization_Converged-OPLS-2005>
0

> <r_mmod_RMS_Derivative-OPLS-2005>
5.99736452102661

$$$$
77
                    3D
 Structure written by MMmdl.
153161  0  0  1  0            999 V2000
  -30.7831  -14.5465   20.4740 C   0  0  0  0  0  0
  -30.4128  -12.3251   19.4450 C   0  0  0  0  0  0
  -29.5077  -12.4817   18.2107 C   0  0  0  0  0  0
  -28.0272  -12.3566   18.6270 C   0  0  0  0  0  0
  -27.6630  -13.2328   19.8625 C   0  0  2  0  0  0
  -28.7228  -13.1238   20.9867 C   0  0  0  0  0  0
  -25.2635  -13.8235   20.5658 C   0  0  0  0  0  0
  -24.1923  -13.0436   20.9224 C   0  0  0  0  0  0
  -24.6546  -11.6939   20.8793 C   0  0  0  0  0  0
  -23.9197  -10.4297   21.0464 C   0  0  0  0  0  0
  -24.3707   -9.4203   21.9252 C   0  0  0  0  0  0
  -23.6358   -8.2241   22.0783 C   0  0  0  0  0  0
  -22.4329   -8.0319   21.3605 C   0  0  0  0  0  0
  -22.0027   -9.0295   20.4686 C   0  0  0  0  0  0
  -22.7371  -10.2167   20.3110 C   0  0  0  0  0  0
  -21.6845   -6.0798   22.5319 C   0  0  0  0  0  0
  -21.4008   -6.5679   23.8269 C   0  0  0  0  0  0
  -21.3653   -5.6820   24.9227 C   0  0  0  0  0  0
  -21.6020   -4.3089   24.7251 C   0  0  0  0  0  0
  -21.8805   -3.8209   23.4365 C   0  0  0  0  0  0
  -21.9180   -4.7038   22.3436 C   0  0  0  0  0  0
  -22.7954  -13.5252   21.1836 C   0  0  0  0  0  0
  -22.1644   -4.2227   21.1022 F   0  0  0  0  0  0
  -21.5618   -3.4551   25.7755 F   0  0  0  0  0  0
  -30.0390  -13.3995   20.3882 N   0  0  0  0  0  0
  -26.3090  -12.9439   20.3388 N   0  0  0  0  0  0
  -25.9496  -11.6566   20.5880 N   0  0  0  0  0  0
  -22.0548  -12.8247   22.0366 N   0  0  0  0  0  0
  -25.4191  -15.1951   20.4031 N   0  0  0  0  0  0
  -31.9635  -14.5553   20.1330 O   0  0  0  0  0  0
  -21.6659   -6.8948   21.4286 O   0  0  0  0  0  0
  -22.3639  -14.5540   20.6693 O   0  0  0  0  0  0
  -24.6312  -31.8581   23.2003 C   0  0  0  0  0  0
  -25.9149  -32.4733   23.8356 C   0  0  1  0  0  0
  -27.2125  -27.3119   20.1006 C   0  0  0  0  0  0
  -25.5962  -33.8535   24.2256 N   0  0  0  0  0  0
  -23.4256  -30.4903   21.5406 C   0  0  2  0  0  0
  -24.8665  -28.9575   20.1008 C   0  0  0  0  0  0
  -22.7552  -29.4614   22.4865 C   0  0  0  0  0  0
  -18.0316  -28.1430   22.8510 C   0  0  0  0  0  0
  -24.1511  -36.7266   23.2648 C   0  0  0  0  0  0
  -25.9706  -30.7889   21.3784 C   0  0  0  0  0  0
  -26.0374  -29.4182   20.7150 C   0  0  0  0  0  0
  -27.2110  -28.6022   20.7109 C   0  0  0  0  0  0
  -26.0130  -26.9215   19.4515 C   0  0  0  0  0  0
  -24.8615  -27.7189   19.4503 C   0  0  0  0  0  0
  -23.6428  -29.8431   20.1461 C   0  0  0  0  0  0
  -25.4134  -36.3047   24.0348 C   0  0  1  0  0  0
  -20.5925  -28.3728   23.1299 C   0  0  2  0  0  0
  -20.6812  -26.9471   22.5404 C   0  0  0  0  0  0
  -19.5747  -26.6413   21.5264 C   0  0  0  0  0  0
  -18.1923  -26.7964   22.1676 C   0  0  0  0  0  0
  -19.1579  -28.8912   23.2884 C   0  0  0  0  0  0
  -18.9492  -30.1532   23.8881 C   0  0  0  0  0  0
  -17.6477  -30.6613   24.0627 C   0  0  0  0  0  0
  -25.9075  -34.9430   23.5084 C   0  0  0  0  0  0
  -16.5377  -29.9133   23.6338 C   0  0  0  0  0  0
  -16.7305  -28.6576   23.0306 C   0  0  0  0  0  0
  -26.4484  -31.6538   25.0701 C   0  0  0  0  0  0
  -25.3730  -31.3722   26.1438 C   0  0  0  0  0  0
  -27.0303  -30.2939   24.6189 C   0  0  0  0  0  0
  -27.6022  -32.4313   25.7466 C   0  0  0  0  0  0
  -27.5591  -37.1794   24.8489 C   0  0  0  0  0  0
  -21.4259  -29.3037   22.3687 N   0  0  0  0  0  0
  -26.4275  -37.3768   23.9492 N   0  0  0  0  0  0
  -24.6943  -31.0637   22.0952 N   0  0  0  0  0  0
  -23.4246  -28.8097   23.2918 O   0  0  0  0  0  0
  -28.3070  -26.4305   20.1450 O   0  0  0  0  0  0
  -26.5646  -34.8922   22.4642 O   0  0  0  0  0  0
  -23.5472  -32.1348   23.7328 O   0  0  0  0  0  0
  -28.2181  -19.8659   20.4585 C   0  0  0  0  0  0
  -30.3742  -20.8724   20.1096 C   0  0  0  0  0  0
  -28.9821  -21.0432   20.2430 C   0  0  0  0  0  0
  -30.2081  -18.4129   20.5510 C   0  0  0  0  0  0
  -28.8080  -18.5812   20.6181 C   0  0  0  0  0  0
  -30.9723  -19.5898   20.2717 C   0  0  0  0  0  0
  -28.2483  -22.4139   20.1508 C   0  0  0  0  0  0
  -30.9142  -17.0494   20.8529 C   0  0  0  0  0  0
  -28.9889  -23.8099   20.2200 C   0  0  0  0  0  0
  -28.0006  -25.0027   19.9021 C   0  0  0  0  0  0
  -30.1802  -15.7373   20.7492 N   0  0  0  0  0  0
  -28.0146  -17.5115   20.8665 F   0  0  0  0  0  0
  -32.6947  -19.5065   20.1733 Cl  0  0  0  0  0  0
  -31.4617  -12.3428   19.1518 H   0  0  0  0  0  0
  -30.2464  -11.3420   19.8929 H   0  0  0  0  0  0
  -29.7540  -11.7259   17.4624 H   0  0  0  0  0  0
  -29.6907  -13.4485   17.7371 H   0  0  0  0  0  0
  -27.8423  -11.3019   18.8451 H   0  0  0  0  0  0
  -27.3807  -12.6025   17.7836 H   0  0  0  0  0  0
  -27.6761  -14.2704   19.5231 H   0  0  0  0  0  0
  -28.7167  -12.1236   21.4227 H   0  0  0  0  0  0
  -28.5084  -13.8157   21.8053 H   0  0  0  0  0  0
  -25.2857   -9.5653   22.4837 H   0  0  0  0  0  0
  -24.0048   -7.4649   22.7529 H   0  0  0  0  0  0
  -21.0939   -8.8876   19.9010 H   0  0  0  0  0  0
  -22.3880  -10.9731   19.6222 H   0  0  0  0  0  0
  -21.1978   -7.6187   23.9809 H   0  0  0  0  0  0
  -21.1485   -6.0543   25.9130 H   0  0  0  0  0  0
  -22.0577   -2.7651   23.2859 H   0  0  0  0  0  0
  -22.4064  -11.9860   22.4731 H   0  0  0  0  0  0
  -21.1197  -13.1383   22.2550 H   0  0  0  0  0  0
  -24.6395  -15.8338   20.5257 H   0  0  0  0  0  0
  -26.2680  -15.6654   20.1065 H   0  0  0  0  0  0
  -26.7237  -32.5405   23.1156 H   0  0  0  0  0  0
  -25.0176  -33.9706   25.0442 H   0  0  0  0  0  0
  -22.7179  -31.3101   21.4026 H   0  0  0  0  0  0
  -23.3745  -35.9608   23.3293 H   0  0  0  0  0  0
  -24.3606  -36.8857   22.2050 H   0  0  0  0  0  0
  -23.7249  -37.6480   23.6648 H   0  0  0  0  0  0
  -26.1186  -31.5659   20.6239 H   0  0  0  0  0  0
  -26.8436  -30.8185   22.0211 H   0  0  0  0  0  0
  -28.1048  -28.9409   21.2113 H   0  0  0  0  0  0
  -25.9215  -25.9798   18.9306 H   0  0  0  0  0  0
  -23.9804  -27.3733   18.9321 H   0  0  0  0  0  0
  -23.7900  -30.6283   19.4028 H   0  0  0  0  0  0
  -22.7649  -29.2893   19.8103 H   0  0  0  0  0  0
  -25.1283  -36.1876   25.0819 H   0  0  0  0  0  0
  -21.0056  -28.3295   24.1416 H   0  0  0  0  0  0
  -20.5818  -26.2333   23.3594 H   0  0  0  0  0  0
  -21.6663  -26.7511   22.1168 H   0  0  0  0  0  0
  -19.6923  -25.6327   21.1277 H   0  0  0  0  0  0
  -19.6690  -27.3261   20.6825 H   0  0  0  0  0  0
  -17.4232  -26.6760   21.4049 H   0  0  0  0  0  0
  -18.0295  -26.0095   22.9052 H   0  0  0  0  0  0
  -19.7971  -30.7394   24.2153 H   0  0  0  0  0  0
  -17.5038  -31.6257   24.5293 H   0  0  0  0  0  0
  -15.5394  -30.3053   23.7662 H   0  0  0  0  0  0
  -15.8686  -28.0964   22.6914 H   0  0  0  0  0  0
  -24.5969  -30.6947   25.7861 H   0  0  0  0  0  0
  -24.8838  -32.2874   26.4783 H   0  0  0  0  0  0
  -25.8079  -30.9040   27.0265 H   0  0  0  0  0  0
  -26.2828  -29.6714   24.1231 H   0  0  0  0  0  0
  -27.3965  -29.7199   25.4716 H   0  0  0  0  0  0
  -27.8749  -30.4173   23.9403 H   0  0  0  0  0  0
  -27.2588  -33.3670   26.1927 H   0  0  0  0  0  0
  -28.3860  -32.6771   25.0282 H   0  0  0  0  0  0
  -28.0636  -31.8480   26.5470 H   0  0  0  0  0  0
  -28.2573  -38.0111   24.7525 H   0  0  0  0  0  0
  -28.1073  -36.2633   24.6256 H   0  0  0  0  0  0
  -27.2317  -37.1375   25.8880 H   0  0  0  0  0  0
  -20.9440  -29.8863   21.7013 H   0  0  0  0  0  0
  -26.0126  -38.2832   24.1439 H   0  0  0  0  0  0
  -27.1429  -19.9438   20.5275 H   0  0  0  0  0  0
  -31.0028  -21.7257   19.8983 H   0  0  0  0  0  0
  -27.5259  -22.4007   20.9712 H   0  0  0  0  0  0
  -27.6467  -22.3929   19.2421 H   0  0  0  0  0  0
  -31.2983  -17.1181   21.8789 H   0  0  0  0  0  0
  -31.8065  -17.0115   20.2223 H   0  0  0  0  0  0
  -29.8116  -23.8374   19.5098 H   0  0  0  0  0  0
  -29.4340  -23.9210   21.2074 H   0  0  0  0  0  0
  -27.0901  -24.7480   20.4533 H   0  0  0  0  0  0
  -27.7740  -24.9080   18.8390 H   0  0  0  0  0  0
  -29.1805  -15.7583   20.8691 H   0  0  0  0  0  0
  1 25  1  0  0  0
  1 30  2  0  0  0
  1 81  1  0  0  0
  2  3  1  0  0  0
  2 25  1  0  0  0
  2 84  1  0  0  0
  2 85  1  0  0  0
  3  4  1  0  0  0
  3 86  1  0  0  0
  3 87  1  0  0  0
  4  5  1  0  0  0
  4 88  1  0  0  0
  4 89  1  0  0  0
  5  6  1  0  0  0
  5 26  1  0  0  0
  5 90  1  0  0  0
  6 25  1  0  0  0
  6 91  1  0  0  0
  6 92  1  0  0  0
  7  8  2  0  0  0
  7 26  1  0  0  0
  7 29  1  0  0  0
  8  9  1  0  0  0
  8 22  1  0  0  0
  9 10  1  0  0  0
  9 27  2  0  0  0
 10 11  2  0  0  0
 10 15  1  0  0  0
 11 12  1  0  0  0
 11 93  1  0  0  0
 12 13  2  0  0  0
 12 94  1  0  0  0
 13 14  1  0  0  0
 13 31  1  0  0  0
 14 15  2  0  0  0
 14 95  1  0  0  0
 15 96  1  0  0  0
 16 17  2  0  0  0
 16 21  1  0  0  0
 16 31  1  0  0  0
 17 18  1  0  0  0
 17 97  1  0  0  0
 18 19  2  0  0  0
 18 98  1  0  0  0
 19 20  1  0  0  0
 19 24  1  0  0  0
 20 21  2  0  0  0
 20 99  1  0  0  0
 21 23  1  0  0  0
 22 28  1  0  0  0
 22 32  2  0  0  0
 26 27  1  0  0  0
 28100  1  0  0  0
 28101  1  0  0  0
 29102  1  0  0  0
 29103  1  0  0  0
 33 34  1  0  0  0
 33 66  1  0  0  0
 33 70  2  0  0  0
 34 36  1  0  0  0
 34 59  1  0  0  0
 34104  1  0  0  0
 35 44  2  0  0  0
 35 45  1  0  0  0
 35 68  1  0  0  0
 36 56  1  0  0  0
 36105  1  0  0  0
 37 39  1  0  0  0
 37 47  1  0  0  0
 37 66  1  0  0  0
 37106  1  0  0  0
 38 43  2  0  0  0
 38 46  1  0  0  0
 38 47  1  0  0  0
 39 64  1  0  0  0
 39 67  2  0  0  0
 40 52  1  0  0  0
 40 53  2  0  0  0
 40 58  1  0  0  0
 41107  1  0  0  0
 41108  1  0  0  0
 41109  1  0  0  0
 41 48  1  0  0  0
 42 43  1  0  0  0
 42 66  1  0  0  0
 42110  1  0  0  0
 42111  1  0  0  0
 43 44  1  0  0  0
 44112  1  0  0  0
 45 46  2  0  0  0
 45113  1  0  0  0
 46114  1  0  0  0
 47115  1  0  0  0
 47116  1  0  0  0
 48 56  1  0  0  0
 48 65  1  0  0  0
 48117  1  0  0  0
 49 50  1  0  0  0
 49 53  1  0  0  0
 49 64  1  0  0  0
 49118  1  0  0  0
 50 51  1  0  0  0
 50119  1  0  0  0
 50120  1  0  0  0
 51 52  1  0  0  0
 51121  1  0  0  0
 51122  1  0  0  0
 52123  1  0  0  0
 52124  1  0  0  0
 53 54  1  0  0  0
 54 55  2  0  0  0
 54125  1  0  0  0
 55 57  1  0  0  0
 55126  1  0  0  0
 56 69  2  0  0  0
 57 58  2  0  0  0
 57127  1  0  0  0
 58128  1  0  0  0
 59 60  1  0  0  0
 59 61  1  0  0  0
 59 62  1  0  0  0
 60129  1  0  0  0
 60130  1  0  0  0
 60131  1  0  0  0
 61132  1  0  0  0
 61133  1  0  0  0
 61134  1  0  0  0
 62135  1  0  0  0
 62136  1  0  0  0
 62137  1  0  0  0
 63 65  1  0  0  0
 63138  1  0  0  0
 63139  1  0  0  0
 63140  1  0  0  0
 64141  1  0  0  0
 65142  1  0  0  0
 68 80  1  0  0  0
 71 73  2  0  0  0
 71 75  1  0  0  0
 71143  1  0  0  0
 72 73  1  0  0  0
 72 76  2  0  0  0
 72144  1  0  0  0
 73 77  1  0  0  0
 74 75  2  0  0  0
 74 76  1  0  0  0
 74 78  1  0  0  0
 75 82  1  0  0  0
 76 83  1  0  0  0
 77 79  1  0  0  0
 77145  1  0  0  0
 77146  1  0  0  0
 78 81  1  0  0  0
 78147  1  0  0  0
 78148  1  0  0  0
 79 80  1  0  0  0
 79149  1  0  0  0
 79150  1  0  0  0
 80151  1  0  0  0
 80152  1  0  0  0
 81153  1  0  0  0
M  ISO  4   1 100  68 101  80 101  81 100
M  END
> <chiral flag>
0

> <version>
0

> <s_m_source_file>
/data/baiqing/PycharmProjects/Reinvent-master-3.2/result/LINK_invent/BTK/process_docking_weight1_custom_sum_contain_oxygen_bond_distance_aromatic_linkinvent_7_9_3/rearranged_h_0030.sdf

> <i_m_source_file_index>
78

> <r_mmod_Potential_Energy-OPLS-2005>
45.9281730651855

> <r_mmod_Stretch_Energy-OPLS-2005>
69.4663772583008

> <r_mmod_Bend_Energy-OPLS-2005>
147.803756713867

> <r_mmod_Torsional_Energy-OPLS-2005>
197.501342773438

> <r_mmod_Improper_Torsional_Energy-OPLS-2005>
4.08424186706543

> <r_mmod_Van_der_Waal_Energy-OPLS-2005>
155.262344360352

> <r_mmod_Electrostatic_Energy-OPLS-2005>
-381.627807617188

> <r_mmod_Solvation_Energy-OPLS-2005>
-197.426910400391

> <b_mmod_Minimization_Converged-OPLS-2005>
0

> <r_mmod_RMS_Derivative-OPLS-2005>
8.26629447937012

$$$$
78
                    3D
 Structure written by MMmdl.
166174  0  0  1  0            999 V2000
  -30.5650  -14.3678   20.9365 C   0  0  0  0  0  0
  -30.6074  -12.3608   19.3927 C   0  0  0  0  0  0
  -29.6730  -12.5416   18.1603 C   0  0  0  0  0  0
  -28.1924  -12.3421   18.5097 C   0  0  0  0  0  0
  -27.9264  -13.1359   19.7792 C   0  0  2  0  0  0
  -28.8093  -12.6507   20.9257 C   0  0  0  0  0  0
  -25.8025  -14.2869   20.0942 C   0  0  0  0  0  0
  -24.6678  -14.0898   20.7336 C   0  0  0  0  0  0
  -24.8144  -12.3872   20.7319 C   0  0  0  0  0  0
  -24.0394  -10.9092   20.9625 C   0  0  0  0  0  0
  -24.4086   -9.8471   21.8968 C   0  0  0  0  0  0
  -23.7222   -8.5804   22.0804 C   0  0  0  0  0  0
  -22.5626   -8.2354   21.3404 C   0  0  0  0  0  0
  -22.2134   -9.1949   20.3600 C   0  0  0  0  0  0
  -22.9516  -10.4162   20.1494 C   0  0  0  0  0  0
  -21.7790   -6.1781   22.5143 C   0  0  0  0  0  0
  -21.4675   -6.6301   23.8180 C   0  0  0  0  0  0
  -21.3843   -5.7231   24.8999 C   0  0  0  0  0  0
  -21.6008   -4.3477   24.6952 C   0  0  0  0  0  0
  -21.8735   -3.8773   23.4004 C   0  0  0  0  0  0
  -21.9485   -4.7801   22.3185 C   0  0  0  0  0  0
  -22.5863  -15.6386   21.7464 C   0  0  0  0  0  0
  -22.1785   -4.2850   21.0779 F   0  0  0  0  0  0
  -21.5459   -3.4816   25.7382 F   0  0  0  0  0  0
  -30.1281  -13.1339   20.5631 N   0  0  0  0  0  0
  -26.5695  -13.1556   20.1257 N   0  0  0  0  0  0
  -26.0210  -12.0111   20.4838 N   0  0  0  0  0  0
  -21.7718  -15.2161   22.7846 N   0  0  0  0  0  0
  -26.2702  -15.4064   19.5027 N   0  0  0  0  0  0
  -31.4666  -14.9414   20.3009 O   0  0  0  0  0  0
  -21.8149   -7.0441   21.4237 O   0  0  0  0  0  0
  -21.7203  -16.2227   21.1117 O   0  0  0  0  0  0
  -24.7456  -31.6994   23.1076 C   0  0  0  0  0  0
  -25.9763  -32.3910   23.7762 C   0  0  1  0  0  0
  -26.3093  -25.6098   20.4413 C   0  0  0  0  0  0
  -25.6056  -33.7838   24.1499 N   0  0  0  0  0  0
  -23.5605  -30.3251   21.4814 C   0  0  2  0  0  0
  -24.8629  -28.4871   20.0950 C   0  0  0  0  0  0
  -22.7817  -29.3886   22.4473 C   0  0  0  0  0  0
  -18.0330  -28.1447   22.8423 C   0  0  0  0  0  0
  -24.1496  -36.6941   23.2670 C   0  0  0  0  0  0
  -26.1169  -30.0165   21.5478 C   0  0  0  0  0  0
  -25.9852  -28.4949   20.9122 C   0  0  0  0  0  0
  -26.7039  -27.0941   21.0371 C   0  0  0  0  0  0
  -25.4465  -26.1007   19.4158 C   0  0  0  0  0  0
  -24.7296  -27.3477   19.2877 C   0  0  0  0  0  0
  -23.8191  -29.6319   20.1039 C   0  0  0  0  0  0
  -25.4177  -36.2602   24.0218 C   0  0  1  0  0  0
  -20.5962  -28.3802   23.1031 C   0  0  2  0  0  0
  -20.6753  -26.9409   22.5420 C   0  0  0  0  0  0
  -19.5746  -26.6330   21.5226 C   0  0  0  0  0  0
  -18.1928  -26.7967   22.1605 C   0  0  0  0  0  0
  -19.1604  -28.8964   23.2707 C   0  0  0  0  0  0
  -18.9520  -30.1540   23.8774 C   0  0  0  0  0  0
  -17.6509  -30.6613   24.0546 C   0  0  0  0  0  0
  -25.9213  -34.9000   23.4753 C   0  0  0  0  0  0
  -16.5392  -29.9097   23.6362 C   0  0  0  0  0  0
  -16.7314  -28.6529   23.0360 C   0  0  0  0  0  0
  -26.4725  -31.6424   25.0773 C   0  0  0  0  0  0
  -25.3571  -31.4017   26.1234 C   0  0  0  0  0  0
  -27.0824  -30.2681   24.7433 C   0  0  0  0  0  0
  -27.6027  -32.4557   25.7525 C   0  0  0  0  0  0
  -27.5545  -37.1615   24.8456 C   0  0  0  0  0  0
  -21.4453  -29.2930   22.3245 N   0  0  0  0  0  0
  -26.4231  -37.3463   23.9411 N   0  0  0  0  0  0
  -24.8564  -30.7513   22.0880 N   0  0  0  0  0  0
  -23.4017  -28.7523   23.3028 O   0  0  0  0  0  0
  -26.5180  -23.8231   20.5885 O   0  0  0  0  0  0
  -26.5976  -34.8741   22.4457 O   0  0  0  0  0  0
  -23.6395  -32.0664   23.5531 O   0  0  0  0  0  0
  -23.9501  -14.0588   22.8283 C   0  0  0  0  0  0
  -24.9005  -15.7619   22.3854 C   0  0  0  0  0  0
  -22.6544  -13.3568   21.3983 C   0  0  0  0  0  0
  -24.6154  -16.9500   20.9204 C   0  0  0  0  0  0
  -24.2384  -13.2649   24.0811 C   0  0  0  0  0  0
  -19.2658  -11.6657   22.7027 C   0  0  0  0  0  0
  -26.2606  -16.0783   23.1210 C   0  0  0  0  0  0
  -21.5096  -12.3503   21.6754 C   0  0  0  0  0  0
  -25.4557  -19.1768   20.7430 C   0  0  0  0  0  0
  -20.3004  -12.7823   22.5231 C   0  0  0  0  0  0
  -27.5562  -15.5334   22.3498 C   0  0  0  0  0  0
  -29.0786  -15.6746   22.7859 C   0  0  0  0  0  0
  -25.6195  -21.7295   20.6477 C   0  0  0  0  0  0
  -22.6728  -14.3827   19.7768 N   0  0  0  0  0  0
  -23.6738  -15.9736   19.6573 N   0  0  0  0  0  0
  -30.1183  -14.7297   22.1918 N   0  0  0  0  0  0
  -31.6279  -12.6463   19.1357 H   0  0  0  0  0  0
  -30.6632  -11.3062   19.6611 H   0  0  0  0  0  0
  -29.9688  -11.8621   17.3584 H   0  0  0  0  0  0
  -29.8128  -13.5473   17.7616 H   0  0  0  0  0  0
  -27.9797  -11.2837   18.6613 H   0  0  0  0  0  0
  -27.5597  -12.6838   17.6888 H   0  0  0  0  0  0
  -28.2426  -14.1502   19.5500 H   0  0  0  0  0  0
  -28.8021  -11.5602   20.9570 H   0  0  0  0  0  0
  -28.4977  -12.9156   21.9293 H   0  0  0  0  0  0
  -25.2698  -10.0386   22.5231 H   0  0  0  0  0  0
  -24.0989   -7.8850   22.8211 H   0  0  0  0  0  0
  -21.3768   -8.9850   19.7078 H   0  0  0  0  0  0
  -22.6249  -11.0528   19.3396 H   0  0  0  0  0  0
  -21.2945   -7.6820   23.9944 H   0  0  0  0  0  0
  -21.1600   -6.0866   25.8924 H   0  0  0  0  0  0
  -22.0211   -2.8215   23.2341 H   0  0  0  0  0  0
  -22.1510  -14.5905   23.4776 H   0  0  0  0  0  0
  -20.8896  -15.6814   22.9342 H   0  0  0  0  0  0
  -25.4723  -15.9749   19.2329 H   0  0  0  0  0  0
  -26.9450  -15.3264   18.7551 H   0  0  0  0  0  0
  -26.7889  -32.4116   23.0487 H   0  0  0  0  0  0
  -24.9962  -33.8761   24.9487 H   0  0  0  0  0  0
  -22.9382  -31.2006   21.2867 H   0  0  0  0  0  0
  -23.3804  -35.9216   23.3170 H   0  0  0  0  0  0
  -24.3543  -36.8830   22.2120 H   0  0  0  0  0  0
  -23.7209  -37.6016   23.6931 H   0  0  0  0  0  0
  -26.4994  -30.6436   20.7415 H   0  0  0  0  0  0
  -26.9303  -30.0000   22.2568 H   0  0  0  0  0  0
  -27.4989  -27.0799   21.7714 H   0  0  0  0  0  0
  -25.0976  -25.3373   18.7340 H   0  0  0  0  0  0
  -23.9540  -27.3737   18.5367 H   0  0  0  0  0  0
  -24.1494  -30.3820   19.3835 H   0  0  0  0  0  0
  -22.8763  -29.2491   19.7104 H   0  0  0  0  0  0
  -25.1418  -36.1251   25.0703 H   0  0  0  0  0  0
  -21.0049  -28.3498   24.1159 H   0  0  0  0  0  0
  -20.5559  -26.2446   23.3735 H   0  0  0  0  0  0
  -21.6607  -26.7256   22.1273 H   0  0  0  0  0  0
  -19.6867  -25.6206   21.1343 H   0  0  0  0  0  0
  -19.6716  -27.3068   20.6702 H   0  0  0  0  0  0
  -17.4202  -26.6735   21.3998 H   0  0  0  0  0  0
  -18.0267  -26.0152   22.9032 H   0  0  0  0  0  0
  -19.8000  -30.7382   24.2081 H   0  0  0  0  0  0
  -17.5058  -31.6275   24.5183 H   0  0  0  0  0  0
  -15.5386  -30.2954   23.7762 H   0  0  0  0  0  0
  -15.8719  -28.0815   22.7121 H   0  0  0  0  0  0
  -24.5776  -30.7381   25.7482 H   0  0  0  0  0  0
  -24.8762  -32.3337   26.4211 H   0  0  0  0  0  0
  -25.7505  -30.9414   27.0302 H   0  0  0  0  0  0
  -26.3535  -29.5790   24.3174 H   0  0  0  0  0  0
  -27.4501  -29.7820   25.6481 H   0  0  0  0  0  0
  -27.9457  -30.3561   24.0839 H   0  0  0  0  0  0
  -27.2472  -33.4046   26.1550 H   0  0  0  0  0  0
  -28.4025  -32.6829   25.0467 H   0  0  0  0  0  0
  -28.0508  -31.9135   26.5862 H   0  0  0  0  0  0
  -28.2442  -38.0018   24.7547 H   0  0  0  0  0  0
  -28.1155  -36.2526   24.6220 H   0  0  0  0  0  0
  -27.2265  -37.1155   25.8857 H   0  0  0  0  0  0
  -20.9847  -29.8569   21.6234 H   0  0  0  0  0  0
  -25.9978  -38.2465   24.1452 H   0  0  0  0  0  0
  -24.7878  -13.8670   24.8039 H   0  0  0  0  0  0
  -24.8392  -12.3931   23.8238 H   0  0  0  0  0  0
  -23.3178  -12.9129   24.5430 H   0  0  0  0  0  0
  -18.4542  -11.9985   23.3501 H   0  0  0  0  0  0
  -19.7062  -10.7807   23.1632 H   0  0  0  0  0  0
  -18.8272  -11.3690   21.7498 H   0  0  0  0  0  0
  -26.2234  -15.6681   24.1288 H   0  0  0  0  0  0
  -26.3362  -17.1595   23.2364 H   0  0  0  0  0  0
  -21.9209  -11.4919   22.1985 H   0  0  0  0  0  0
  -21.1106  -12.0345   20.7132 H   0  0  0  0  0  0
  -26.0525  -18.9695   19.8544 H   0  0  0  0  0  0
  -26.1603  -19.0521   21.5649 H   0  0  0  0  0  0
  -20.6376  -13.0739   23.5177 H   0  0  0  0  0  0
  -19.8120  -13.6443   22.0673 H   0  0  0  0  0  0
  -27.5693  -15.9989   21.3751 H   0  0  0  0  0  0
  -27.3222  -14.4878   22.2507 H   0  0  0  0  0  0
  -29.0984  -15.4691   23.8582 H   0  0  0  0  0  0
  -29.4060  -16.7107   22.6935 H   0  0  0  0  0  0
  -25.0115  -21.9244   21.5303 H   0  0  0  0  0  0
  -24.9439  -21.8825   19.8057 H   0  0  0  0  0  0
  -30.3126  -13.9794   22.8441 H   0  0  0  0  0  0
  1 25  1  0  0  0
  1 30  2  0  0  0
  1 86  1  0  0  0
  2  3  1  0  0  0
  2 25  1  0  0  0
  2 87  1  0  0  0
  2 88  1  0  0  0
  3  4  1  0  0  0
  3 89  1  0  0  0
  3 90  1  0  0  0
  4  5  1  0  0  0
  4 91  1  0  0  0
  4 92  1  0  0  0
  5  6  1  0  0  0
  5 26  1  0  0  0
  5 93  1  0  0  0
  6 25  1  0  0  0
  6 94  1  0  0  0
  6 95  1  0  0  0
  7  8  2  0  0  0
  7 26  1  0  0  0
  7 29  1  0  0  0
  8  9  1  0  0  0
  8 22  1  0  0  0
  9 10  1  0  0  0
  9 27  2  0  0  0
 10 11  2  0  0  0
 10 15  1  0  0  0
 11 12  1  0  0  0
 11 96  1  0  0  0
 12 13  2  0  0  0
 12 97  1  0  0  0
 13 14  1  0  0  0
 13 31  1  0  0  0
 14 15  2  0  0  0
 14 98  1  0  0  0
 15 99  1  0  0  0
 16 17  2  0  0  0
 16 21  1  0  0  0
 16 31  1  0  0  0
 17 18  1  0  0  0
 17100  1  0  0  0
 18 19  2  0  0  0
 18101  1  0  0  0
 19 20  1  0  0  0
 19 24  1  0  0  0
 20 21  2  0  0  0
 20102  1  0  0  0
 21 23  1  0  0  0
 22 28  1  0  0  0
 22 32  2  0  0  0
 26 27  1  0  0  0
 28103  1  0  0  0
 28104  1  0  0  0
 29105  1  0  0  0
 29106  1  0  0  0
 33 34  1  0  0  0
 33 66  1  0  0  0
 33 70  2  0  0  0
 34 36  1  0  0  0
 34 59  1  0  0  0
 34107  1  0  0  0
 35 44  2  0  0  0
 35 45  1  0  0  0
 35 68  1  0  0  0
 36 56  1  0  0  0
 36108  1  0  0  0
 37 39  1  0  0  0
 37 47  1  0  0  0
 37 66  1  0  0  0
 37109  1  0  0  0
 38 43  2  0  0  0
 38 46  1  0  0  0
 38 47  1  0  0  0
 39 64  1  0  0  0
 39 67  2  0  0  0
 40 52  1  0  0  0
 40 53  2  0  0  0
 40 58  1  0  0  0
 41110  1  0  0  0
 41111  1  0  0  0
 41112  1  0  0  0
 41 48  1  0  0  0
 42 43  1  0  0  0
 42 66  1  0  0  0
 42113  1  0  0  0
 42114  1  0  0  0
 43 44  1  0  0  0
 44115  1  0  0  0
 45 46  2  0  0  0
 45116  1  0  0  0
 46117  1  0  0  0
 47118  1  0  0  0
 47119  1  0  0  0
 48 56  1  0  0  0
 48 65  1  0  0  0
 48120  1  0  0  0
 49 50  1  0  0  0
 49 53  1  0  0  0
 49 64  1  0  0  0
 49121  1  0  0  0
 50 51  1  0  0  0
 50122  1  0  0  0
 50123  1  0  0  0
 51 52  1  0  0  0
 51124  1  0  0  0
 51125  1  0  0  0
 52126  1  0  0  0
 52127  1  0  0  0
 53 54  1  0  0  0
 54 55  2  0  0  0
 54128  1  0  0  0
 55 57  1  0  0  0
 55129  1  0  0  0
 56 69  2  0  0  0
 57 58  2  0  0  0
 57130  1  0  0  0
 58131  1  0  0  0
 59 60  1  0  0  0
 59 61  1  0  0  0
 59 62  1  0  0  0
 60132  1  0  0  0
 60133  1  0  0  0
 60134  1  0  0  0
 61135  1  0  0  0
 61136  1  0  0  0
 61137  1  0  0  0
 62138  1  0  0  0
 62139  1  0  0  0
 62140  1  0  0  0
 63 65  1  0  0  0
 63141  1  0  0  0
 63142  1  0  0  0
 63143  1  0  0  0
 64144  1  0  0  0
 65145  1  0  0  0
 68 83  1  0  0  0
 71 72  2  0  0  0
 71 73  1  0  0  0
 71 75  1  0  0  0
 72 74  1  0  0  0
 72 77  1  0  0  0
 73 78  1  0  0  0
 73 84  2  0  0  0
 74 79  1  0  0  0
 74 85  2  0  0  0
 75146  1  0  0  0
 75147  1  0  0  0
 75148  1  0  0  0
 76 80  1  0  0  0
 76149  1  0  0  0
 76150  1  0  0  0
 76151  1  0  0  0
 77 81  1  0  0  0
 77152  1  0  0  0
 77153  1  0  0  0
 78 80  1  0  0  0
 78154  1  0  0  0
 78155  1  0  0  0
 79 83  1  0  0  0
 79156  1  0  0  0
 79157  1  0  0  0
 80158  1  0  0  0
 80159  1  0  0  0
 81 82  1  0  0  0
 81160  1  0  0  0
 81161  1  0  0  0
 82 86  1  0  0  0
 82162  1  0  0  0
 82163  1  0  0  0
 83164  1  0  0  0
 83165  1  0  0  0
 84 85  1  0  0  0
 86166  1  0  0  0
M  ISO  4   1 100  68 101  83 101  86 100
M  END
> <chiral flag>
0

> <version>
0

> <s_m_source_file>
/data/baiqing/PycharmProjects/Reinvent-master-3.2/result/LINK_invent/BTK/process_docking_weight1_custom_sum_contain_oxygen_bond_distance_aromatic_linkinvent_7_9_3/rearranged_h_0030.sdf

> <i_m_source_file_index>
79

> <r_mmod_Potential_Energy-OPLS-2005>
19567.26171875

> <r_mmod_Stretch_Energy-OPLS-2005>
10907.861328125

> <r_mmod_Bend_Energy-OPLS-2005>
1298.81372070312

> <r_mmod_Torsional_Energy-OPLS-2005>
403.970123291016

> <r_mmod_Improper_Torsional_Energy-OPLS-2005>
50.3843536376953

> <r_mmod_Van_der_Waal_Energy-OPLS-2005>
3009.349609375

> <r_mmod_Electrostatic_Energy-OPLS-2005>
-370.869537353516

> <r_mmod_Solvation_Energy-OPLS-2005>
-253.942428588867

> <b_mmod_Minimization_Converged-OPLS-2005>
0

> <r_mmod_RMS_Derivative-OPLS-2005>
6.72845792770386

$$$$
79
                    3D
 Structure written by MMmdl.
157165  0  0  1  0            999 V2000
  -30.6786  -14.4746   20.5897 C   0  0  0  0  0  0
  -30.4298  -12.3109   19.4203 C   0  0  0  0  0  0
  -29.4994  -12.5099   18.2060 C   0  0  0  0  0  0
  -28.0171  -12.3696   18.6127 C   0  0  0  0  0  0
  -27.6625  -13.2014   19.8748 C   0  0  2  0  0  0
  -28.7015  -12.9638   20.9921 C   0  0  0  0  0  0
  -25.2606  -13.8154   20.5676 C   0  0  0  0  0  0
  -24.1848  -13.0435   20.9149 C   0  0  0  0  0  0
  -24.6398  -11.6900   20.8706 C   0  0  0  0  0  0
  -23.9066  -10.4286   21.0387 C   0  0  0  0  0  0
  -24.3621   -9.4201   21.9162 C   0  0  0  0  0  0
  -23.6297   -8.2237   22.0748 C   0  0  0  0  0  0
  -22.4274   -8.0281   21.3552 C   0  0  0  0  0  0
  -21.9906   -9.0252   20.4645 C   0  0  0  0  0  0
  -22.7234  -10.2128   20.3041 C   0  0  0  0  0  0
  -21.6859   -6.0728   22.5273 C   0  0  0  0  0  0
  -21.4016   -6.5629   23.8209 C   0  0  0  0  0  0
  -21.3670   -5.6783   24.9172 C   0  0  0  0  0  0
  -21.6050   -4.3042   24.7219 C   0  0  0  0  0  0
  -21.8825   -3.8144   23.4339 C   0  0  0  0  0  0
  -21.9199   -4.6961   22.3395 C   0  0  0  0  0  0
  -22.7874  -13.5230   21.1834 C   0  0  0  0  0  0
  -22.1664   -4.2141   21.0970 F   0  0  0  0  0  0
  -21.5641   -3.4532   25.7736 F   0  0  0  0  0  0
  -30.0307  -13.2864   20.4450 N   0  0  0  0  0  0
  -26.3030  -12.9303   20.3348 N   0  0  0  0  0  0
  -25.9315  -11.6466   20.5730 N   0  0  0  0  0  0
  -22.0545  -12.8211   22.0404 N   0  0  0  0  0  0
  -25.4375  -15.1881   20.4138 N   0  0  0  0  0  0
  -31.7991  -14.6944   20.1216 O   0  0  0  0  0  0
  -21.6645   -6.8881   21.4242 O   0  0  0  0  0  0
  -22.3542  -14.5537   20.6695 O   0  0  0  0  0  0
  -24.6132  -31.8673   23.2120 C   0  0  0  0  0  0
  -25.9024  -32.4819   23.8403 C   0  0  1  0  0  0
  -27.2384  -27.4478   20.0973 C   0  0  0  0  0  0
  -25.5886  -33.8622   24.2324 N   0  0  0  0  0  0
  -23.4032  -30.4891   21.5509 C   0  0  2  0  0  0
  -24.8531  -28.9544   20.1178 C   0  0  0  0  0  0
  -22.7412  -29.4627   22.4987 C   0  0  0  0  0  0
  -18.0265  -28.1367   22.8480 C   0  0  0  0  0  0
  -24.1489  -36.7324   23.2629 C   0  0  0  0  0  0
  -25.9313  -30.8342   21.3670 C   0  0  0  0  0  0
  -26.0093  -29.4668   20.7203 C   0  0  0  0  0  0
  -27.2067  -28.7185   20.7126 C   0  0  0  0  0  0
  -26.0697  -26.9423   19.4947 C   0  0  0  0  0  0
  -24.8766  -27.6886   19.5044 C   0  0  0  0  0  0
  -23.6135  -29.8197   20.1655 C   0  0  0  0  0  0
  -25.4100  -36.3114   24.0335 C   0  0  1  0  0  0
  -20.5849  -28.3640   23.1329 C   0  0  2  0  0  0
  -20.6757  -26.9378   22.5422 C   0  0  0  0  0  0
  -19.5734  -26.6380   21.5211 C   0  0  0  0  0  0
  -18.1911  -26.7913   22.1618 C   0  0  0  0  0  0
  -19.1512  -28.8821   23.2902 C   0  0  0  0  0  0
  -18.9441  -30.1433   23.8900 C   0  0  0  0  0  0
  -17.6443  -30.6570   24.0557 C   0  0  0  0  0  0
  -25.9031  -34.9477   23.5129 C   0  0  0  0  0  0
  -16.5332  -29.9069   23.6326 C   0  0  0  0  0  0
  -16.7257  -28.6495   23.0329 C   0  0  0  0  0  0
  -26.4443  -31.6596   25.0729 C   0  0  0  0  0  0
  -25.3709  -31.3725   26.1483 C   0  0  0  0  0  0
  -27.0220  -30.3014   24.6101 C   0  0  0  0  0  0
  -27.6053  -32.4279   25.7461 C   0  0  0  0  0  0
  -27.5588  -37.1798   24.8445 C   0  0  0  0  0  0
  -21.4133  -29.3017   22.3751 N   0  0  0  0  0  0
  -26.4280  -37.3807   23.9420 N   0  0  0  0  0  0
  -24.6666  -31.0777   22.1016 N   0  0  0  0  0  0
  -23.4191  -28.8157   23.3009 O   0  0  0  0  0  0
  -28.3889  -26.7032   20.0234 O   0  0  0  0  0  0
  -26.5596  -34.8926   22.4693 O   0  0  0  0  0  0
  -23.5324  -32.1410   23.7515 O   0  0  0  0  0  0
  -29.3646  -23.5333   21.8370 C   0  0  0  0  0  0
  -29.5092  -22.1552   21.5653 C   0  0  0  0  0  0
  -28.4853  -23.8902   19.6102 C   0  0  0  0  0  0
  -28.8608  -24.4237   20.8627 C   0  0  0  0  0  0
  -29.1229  -21.6130   20.3131 C   0  0  0  0  0  0
  -28.6068  -22.5077   19.3420 C   0  0  0  0  0  0
  -29.9691  -26.5397   21.7722 C   0  0  0  0  0  0
  -29.6047  -17.8671   20.4975 C   0  0  0  0  0  0
  -30.3239  -16.8478   21.4274 C   0  0  0  0  0  0
  -29.8014  -19.3481   20.9228 C   0  0  0  0  0  0
  -28.6953  -25.9188   21.1795 C   0  0  1  0  0  0
  -29.9505  -15.4436   21.1764 N   0  0  0  0  0  0
  -29.2018  -20.2612   19.9923 O   0  0  0  0  0  0
  -28.1049  -21.9166   17.7980 Cl  0  0  0  0  0  0
  -31.4739  -12.4238   19.1220 H   0  0  0  0  0  0
  -30.3404  -11.2974   19.8142 H   0  0  0  0  0  0
  -29.7425  -11.7915   17.4222 H   0  0  0  0  0  0
  -29.6689  -13.4982   17.7772 H   0  0  0  0  0  0
  -27.8222  -11.3131   18.7998 H   0  0  0  0  0  0
  -27.3700  -12.6524   17.7817 H   0  0  0  0  0  0
  -27.7114  -14.2516   19.5870 H   0  0  0  0  0  0
  -28.6805  -11.9191   21.3057 H   0  0  0  0  0  0
  -28.4564  -13.5367   21.8875 H   0  0  0  0  0  0
  -25.2783   -9.5666   22.4706 H   0  0  0  0  0  0
  -24.0019   -7.4629   22.7453 H   0  0  0  0  0  0
  -21.0845   -8.8763   19.8943 H   0  0  0  0  0  0
  -22.3707  -10.9658   19.6131 H   0  0  0  0  0  0
  -21.1991   -7.6132   23.9710 H   0  0  0  0  0  0
  -21.1499   -6.0508   25.9076 H   0  0  0  0  0  0
  -22.0599   -2.7604   23.2844 H   0  0  0  0  0  0
  -22.4196  -11.9865   22.4744 H   0  0  0  0  0  0
  -21.1171  -13.1227   22.2657 H   0  0  0  0  0  0
  -24.6798  -15.8516   20.5340 H   0  0  0  0  0  0
  -26.3009  -15.6278   20.1199 H   0  0  0  0  0  0
  -26.7104  -32.5532   23.1177 H   0  0  0  0  0  0
  -25.0054  -33.9788   25.0477 H   0  0  0  0  0  0
  -22.6924  -31.3062   21.4090 H   0  0  0  0  0  0
  -23.3764  -35.9644   23.3260 H   0  0  0  0  0  0
  -24.3618  -36.8974   22.2055 H   0  0  0  0  0  0
  -23.7214  -37.6514   23.6655 H   0  0  0  0  0  0
  -26.0473  -31.5982   20.5970 H   0  0  0  0  0  0
  -26.8189  -30.8874   21.9859 H   0  0  0  0  0  0
  -28.1029  -29.1147   21.1676 H   0  0  0  0  0  0
  -26.0890  -25.9732   19.0165 H   0  0  0  0  0  0
  -23.9897  -27.2873   19.0343 H   0  0  0  0  0  0
  -23.7232  -30.5940   19.4048 H   0  0  0  0  0  0
  -22.7394  -29.2369   19.8686 H   0  0  0  0  0  0
  -25.1270  -36.1990   25.0827 H   0  0  0  0  0  0
  -20.9936  -28.3194   24.1449 H   0  0  0  0  0  0
  -20.5664  -26.2230   23.3595 H   0  0  0  0  0  0
  -21.6627  -26.7426   22.1202 H   0  0  0  0  0  0
  -19.6904  -25.6305   21.1210 H   0  0  0  0  0  0
  -19.6689  -27.3217   20.6763 H   0  0  0  0  0  0
  -17.4184  -26.6654   21.4017 H   0  0  0  0  0  0
  -18.0319  -26.0055   22.9015 H   0  0  0  0  0  0
  -19.7915  -30.7254   24.2265 H   0  0  0  0  0  0
  -17.4988  -31.6251   24.5163 H   0  0  0  0  0  0
  -15.5333  -30.2964   23.7654 H   0  0  0  0  0  0
  -15.8650  -28.0830   22.7015 H   0  0  0  0  0  0
  -24.5901  -30.7027   25.7860 H   0  0  0  0  0  0
  -24.8858  -32.2872   26.4892 H   0  0  0  0  0  0
  -25.8062  -30.8951   27.0267 H   0  0  0  0  0  0
  -26.2743  -29.6827   24.1111 H   0  0  0  0  0  0
  -27.3916  -29.7202   25.4565 H   0  0  0  0  0  0
  -27.8624  -30.4310   23.9277 H   0  0  0  0  0  0
  -27.2749  -33.3644   26.1965 H   0  0  0  0  0  0
  -28.3883  -32.6712   25.0267 H   0  0  0  0  0  0
  -28.0652  -31.8401   26.5415 H   0  0  0  0  0  0
  -28.2560  -38.0148   24.7589 H   0  0  0  0  0  0
  -28.1133  -36.2685   24.6141 H   0  0  0  0  0  0
  -27.2326  -37.1301   25.8852 H   0  0  0  0  0  0
  -20.9288  -29.8778   21.7009 H   0  0  0  0  0  0
  -26.0174  -38.2879   24.1476 H   0  0  0  0  0  0
  -29.6461  -23.9029   22.8121 H   0  0  0  0  0  0
  -29.9064  -21.5327   22.3515 H   0  0  0  0  0  0
  -28.0865  -24.5404   18.8459 H   0  0  0  0  0  0
  -30.2487  -26.0804   22.7190 H   0  0  0  0  0  0
  -29.8392  -27.6045   21.9614 H   0  0  0  0  0  0
  -30.8070  -26.4310   21.0839 H   0  0  0  0  0  0
  -28.5357  -17.6532   20.4811 H   0  0  0  0  0  0
  -29.9559  -17.7311   19.4740 H   0  0  0  0  0  0
  -30.0591  -17.0630   22.4638 H   0  0  0  0  0  0
  -31.4054  -16.9752   21.3628 H   0  0  0  0  0  0
  -30.8650  -19.5747   21.0041 H   0  0  0  0  0  0
  -29.3583  -19.4738   21.9107 H   0  0  0  0  0  0
  -27.8944  -25.9967   21.9206 H   0  0  0  0  0  0
  -29.0388  -15.1558   21.5015 H   0  0  0  0  0  0
  1 25  1  0  0  0
  1 30  2  0  0  0
  1 82  1  0  0  0
  2  3  1  0  0  0
  2 25  1  0  0  0
  2 85  1  0  0  0
  2 86  1  0  0  0
  3  4  1  0  0  0
  3 87  1  0  0  0
  3 88  1  0  0  0
  4  5  1  0  0  0
  4 89  1  0  0  0
  4 90  1  0  0  0
  5  6  1  0  0  0
  5 26  1  0  0  0
  5 91  1  0  0  0
  6 25  1  0  0  0
  6 92  1  0  0  0
  6 93  1  0  0  0
  7  8  2  0  0  0
  7 26  1  0  0  0
  7 29  1  0  0  0
  8  9  1  0  0  0
  8 22  1  0  0  0
  9 10  1  0  0  0
  9 27  2  0  0  0
 10 11  2  0  0  0
 10 15  1  0  0  0
 11 12  1  0  0  0
 11 94  1  0  0  0
 12 13  2  0  0  0
 12 95  1  0  0  0
 13 14  1  0  0  0
 13 31  1  0  0  0
 14 15  2  0  0  0
 14 96  1  0  0  0
 15 97  1  0  0  0
 16 17  2  0  0  0
 16 21  1  0  0  0
 16 31  1  0  0  0
 17 18  1  0  0  0
 17 98  1  0  0  0
 18 19  2  0  0  0
 18 99  1  0  0  0
 19 20  1  0  0  0
 19 24  1  0  0  0
 20 21  2  0  0  0
 20100  1  0  0  0
 21 23  1  0  0  0
 22 28  1  0  0  0
 22 32  2  0  0  0
 26 27  1  0  0  0
 28101  1  0  0  0
 28102  1  0  0  0
 29103  1  0  0  0
 29104  1  0  0  0
 33 34  1  0  0  0
 33 66  1  0  0  0
 33 70  2  0  0  0
 34 36  1  0  0  0
 34 59  1  0  0  0
 34105  1  0  0  0
 35 44  2  0  0  0
 35 45  1  0  0  0
 35 68  1  0  0  0
 36 56  1  0  0  0
 36106  1  0  0  0
 37 39  1  0  0  0
 37 47  1  0  0  0
 37 66  1  0  0  0
 37107  1  0  0  0
 38 43  2  0  0  0
 38 46  1  0  0  0
 38 47  1  0  0  0
 39 64  1  0  0  0
 39 67  2  0  0  0
 40 52  1  0  0  0
 40 53  2  0  0  0
 40 58  1  0  0  0
 41108  1  0  0  0
 41109  1  0  0  0
 41110  1  0  0  0
 41 48  1  0  0  0
 42 43  1  0  0  0
 42 66  1  0  0  0
 42111  1  0  0  0
 42112  1  0  0  0
 43 44  1  0  0  0
 44113  1  0  0  0
 45 46  2  0  0  0
 45114  1  0  0  0
 46115  1  0  0  0
 47116  1  0  0  0
 47117  1  0  0  0
 48 56  1  0  0  0
 48 65  1  0  0  0
 48118  1  0  0  0
 49 50  1  0  0  0
 49 53  1  0  0  0
 49 64  1  0  0  0
 49119  1  0  0  0
 50 51  1  0  0  0
 50120  1  0  0  0
 50121  1  0  0  0
 51 52  1  0  0  0
 51122  1  0  0  0
 51123  1  0  0  0
 52124  1  0  0  0
 52125  1  0  0  0
 53 54  1  0  0  0
 54 55  2  0  0  0
 54126  1  0  0  0
 55 57  1  0  0  0
 55127  1  0  0  0
 56 69  2  0  0  0
 57 58  2  0  0  0
 57128  1  0  0  0
 58129  1  0  0  0
 59 60  1  0  0  0
 59 61  1  0  0  0
 59 62  1  0  0  0
 60130  1  0  0  0
 60131  1  0  0  0
 60132  1  0  0  0
 61133  1  0  0  0
 61134  1  0  0  0
 61135  1  0  0  0
 62136  1  0  0  0
 62137  1  0  0  0
 62138  1  0  0  0
 63 65  1  0  0  0
 63139  1  0  0  0
 63140  1  0  0  0
 63141  1  0  0  0
 64142  1  0  0  0
 65143  1  0  0  0
 68 81  1  0  0  0
 71 72  2  0  0  0
 71 74  1  0  0  0
 71144  1  0  0  0
 72 75  1  0  0  0
 72145  1  0  0  0
 73 74  2  0  0  0
 73 76  1  0  0  0
 73146  1  0  0  0
 74 81  1  0  0  0
 75 76  2  0  0  0
 75 83  1  0  0  0
 76 84  1  0  0  0
 77147  1  0  0  0
 77148  1  0  0  0
 77149  1  0  0  0
 77 81  1  0  0  0
 78 79  1  0  0  0
 78 80  1  0  0  0
 78150  1  0  0  0
 78151  1  0  0  0
 79 82  1  0  0  0
 79152  1  0  0  0
 79153  1  0  0  0
 80 83  1  0  0  0
 80154  1  0  0  0
 80155  1  0  0  0
 81156  1  0  0  0
 82157  1  0  0  0
M  ISO  4   1 100  68 101  81 101  82 100
M  END
> <chiral flag>
0

> <version>
0

> <s_m_source_file>
/data/baiqing/PycharmProjects/Reinvent-master-3.2/result/LINK_invent/BTK/process_docking_weight1_custom_sum_contain_oxygen_bond_distance_aromatic_linkinvent_7_9_3/rearranged_h_0030.sdf

> <i_m_source_file_index>
80

> <r_mmod_Potential_Energy-OPLS-2005>
-52.9087524414062

> <r_mmod_Stretch_Energy-OPLS-2005>
37.877311706543

> <r_mmod_Bend_Energy-OPLS-2005>
97.8136672973633

> <r_mmod_Torsional_Energy-OPLS-2005>
227.035598754883

> <r_mmod_Improper_Torsional_Energy-OPLS-2005>
2.83836126327515

> <r_mmod_Van_der_Waal_Energy-OPLS-2005>
148.94873046875

> <r_mmod_Electrostatic_Energy-OPLS-2005>
-367.868621826172

> <r_mmod_Solvation_Energy-OPLS-2005>
-210.734939575195

> <b_mmod_Minimization_Converged-OPLS-2005>
0

> <r_mmod_RMS_Derivative-OPLS-2005>
2.25417947769165

$$$$
80
                    3D
 Structure written by MMmdl.
168176  0  0  1  0            999 V2000
  -30.6835  -14.4388   20.5543 C   0  0  0  0  0  0
  -30.4302  -12.2796   19.4193 C   0  0  0  0  0  0
  -29.5000  -12.4911   18.2052 C   0  0  0  0  0  0
  -28.0187  -12.3559   18.6157 C   0  0  0  0  0  0
  -27.6650  -13.1920   19.8748 C   0  0  2  0  0  0
  -28.7025  -12.9503   20.9958 C   0  0  0  0  0  0
  -25.2599  -13.8126   20.5637 C   0  0  0  0  0  0
  -24.1826  -13.0436   20.9150 C   0  0  0  0  0  0
  -24.6360  -11.6895   20.8712 C   0  0  0  0  0  0
  -23.9022  -10.4295   21.0396 C   0  0  0  0  0  0
  -24.3588   -9.4217   21.9175 C   0  0  0  0  0  0
  -23.6269   -8.2251   22.0762 C   0  0  0  0  0  0
  -22.4250   -8.0279   21.3554 C   0  0  0  0  0  0
  -21.9868   -9.0245   20.4654 C   0  0  0  0  0  0
  -22.7197  -10.2123   20.3056 C   0  0  0  0  0  0
  -21.6846   -6.0718   22.5271 C   0  0  0  0  0  0
  -21.4015   -6.5623   23.8205 C   0  0  0  0  0  0
  -21.3662   -5.6785   24.9170 C   0  0  0  0  0  0
  -21.6047   -4.3049   24.7227 C   0  0  0  0  0  0
  -21.8822   -3.8135   23.4352 C   0  0  0  0  0  0
  -21.9188   -4.6945   22.3402 C   0  0  0  0  0  0
  -22.7852  -13.5257   21.1809 C   0  0  0  0  0  0
  -22.1660   -4.2129   21.0981 F   0  0  0  0  0  0
  -21.5629   -3.4543   25.7744 F   0  0  0  0  0  0
  -30.0408  -13.2479   20.4541 N   0  0  0  0  0  0
  -26.3016  -12.9269   20.3322 N   0  0  0  0  0  0
  -25.9275  -11.6445   20.5724 N   0  0  0  0  0  0
  -22.0484  -12.8274   22.0379 N   0  0  0  0  0  0
  -25.4373  -15.1842   20.4039 N   0  0  0  0  0  0
  -31.8052  -14.6511   20.0871 O   0  0  0  0  0  0
  -21.6641   -6.8854   21.4235 O   0  0  0  0  0  0
  -22.3541  -14.5562   20.6656 O   0  0  0  0  0  0
  -24.6097  -31.8692   23.2107 C   0  0  0  0  0  0
  -25.9002  -32.4827   23.8405 C   0  0  1  0  0  0
  -27.2489  -27.4722   20.1019 C   0  0  0  0  0  0
  -25.5853  -33.8629   24.2343 N   0  0  0  0  0  0
  -23.4000  -30.4894   21.5475 C   0  0  2  0  0  0
  -24.8522  -28.9586   20.1118 C   0  0  0  0  0  0
  -22.7398  -29.4659   22.4986 C   0  0  0  0  0  0
  -18.0273  -28.1393   22.8510 C   0  0  0  0  0  0
  -24.1477  -36.7330   23.2640 C   0  0  0  0  0  0
  -25.9216  -30.8498   21.3567 C   0  0  0  0  0  0
  -26.0047  -29.4844   20.7096 C   0  0  0  0  0  0
  -27.2060  -28.7489   20.7035 C   0  0  0  0  0  0
  -26.0907  -26.9560   19.4890 C   0  0  0  0  0  0
  -24.8889  -27.6930   19.4945 C   0  0  0  0  0  0
  -23.6097  -29.8178   20.1623 C   0  0  0  0  0  0
  -25.4092  -36.3127   24.0349 C   0  0  1  0  0  0
  -20.5860  -28.3683   23.1330 C   0  0  2  0  0  0
  -20.6757  -26.9422   22.5430 C   0  0  0  0  0  0
  -19.5738  -26.6408   21.5226 C   0  0  0  0  0  0
  -18.1916  -26.7944   22.1636 C   0  0  0  0  0  0
  -19.1524  -28.8859   23.2913 C   0  0  0  0  0  0
  -18.9449  -30.1463   23.8926 C   0  0  0  0  0  0
  -17.6448  -30.6590   24.0593 C   0  0  0  0  0  0
  -25.9017  -34.9481   23.5152 C   0  0  0  0  0  0
  -16.5340  -29.9108   23.6323 C   0  0  0  0  0  0
  -16.7260  -28.6530   23.0336 C   0  0  0  0  0  0
  -26.4445  -31.6592   25.0714 C   0  0  0  0  0  0
  -25.3734  -31.3697   26.1489 C   0  0  0  0  0  0
  -27.0272  -30.3034   24.6063 C   0  0  0  0  0  0
  -27.6036  -32.4306   25.7456 C   0  0  0  0  0  0
  -27.5583  -37.1819   24.8468 C   0  0  0  0  0  0
  -21.4133  -29.3039   22.3719 N   0  0  0  0  0  0
  -26.4293  -37.3797   23.9423 N   0  0  0  0  0  0
  -24.6617  -31.0829   22.0988 N   0  0  0  0  0  0
  -23.4182  -28.8209   23.3023 O   0  0  0  0  0  0
  -28.3939  -26.7161   20.1222 O   0  0  0  0  0  0
  -26.5585  -34.8937   22.4718 O   0  0  0  0  0  0
  -23.5298  -32.1424   23.7516 O   0  0  0  0  0  0
  -31.9782  -22.2451   20.6706 C   0  0  0  0  0  0
  -30.7960  -24.3571   20.4448 C   0  0  0  0  0  0
  -31.9113  -23.5513   20.1559 C   0  0  0  0  0  0
  -30.9351  -21.7281   21.4654 C   0  0  0  0  0  0
  -29.7505  -23.8801   21.2720 C   0  0  0  0  0  0
  -29.8074  -22.5437   21.7686 C   0  0  0  0  0  0
  -33.0387  -24.0836   19.2905 C   0  0  0  0  0  0
  -28.8861  -22.1946   24.1278 C   0  0  0  0  0  0
  -31.0731  -20.2924   21.9739 C   0  0  0  0  0  0
  -28.5825  -24.8028   21.6479 C   0  0  0  0  0  0
  -28.6640  -21.9846   22.6219 C   0  0  0  0  0  0
  -30.4835  -19.2585   21.0005 C   0  0  0  0  0  0
  -30.5110  -17.8168   21.5432 C   0  0  0  0  0  0
  -29.9850  -16.8213   20.4977 C   0  0  0  0  0  0
  -28.7851  -26.3191   21.4422 C   0  0  0  0  0  0
  -29.9056  -15.4434   20.9850 N   0  0  0  0  0  0
  -31.4762  -12.3837   19.1230 H   0  0  0  0  0  0
  -30.3325  -11.2649   19.8076 H   0  0  0  0  0  0
  -29.7387  -11.7685   17.4224 H   0  0  0  0  0  0
  -29.6705  -13.4761   17.7690 H   0  0  0  0  0  0
  -27.8259  -11.2997   18.8093 H   0  0  0  0  0  0
  -27.3691  -12.6347   17.7849 H   0  0  0  0  0  0
  -27.7191  -14.2411   19.5819 H   0  0  0  0  0  0
  -28.6664  -11.9108   21.3227 H   0  0  0  0  0  0
  -28.4683  -13.5390   21.8836 H   0  0  0  0  0  0
  -25.2747   -9.5694   22.4724 H   0  0  0  0  0  0
  -23.9993   -7.4639   22.7471 H   0  0  0  0  0  0
  -21.0803   -8.8761   19.8951 H   0  0  0  0  0  0
  -22.3672  -10.9651   19.6149 H   0  0  0  0  0  0
  -21.2030   -7.6133   23.9702 H   0  0  0  0  0  0
  -21.1470   -6.0519   25.9067 H   0  0  0  0  0  0
  -22.0601   -2.7598   23.2863 H   0  0  0  0  0  0
  -22.4113  -11.9968   22.4816 H   0  0  0  0  0  0
  -21.1095  -13.1298   22.2557 H   0  0  0  0  0  0
  -24.6777  -15.8466   20.5120 H   0  0  0  0  0  0
  -26.2928  -15.6157   20.0773 H   0  0  0  0  0  0
  -26.7084  -32.5567   23.1195 H   0  0  0  0  0  0
  -25.0007  -33.9786   25.0486 H   0  0  0  0  0  0
  -22.6869  -31.3031   21.4051 H   0  0  0  0  0  0
  -23.3722  -35.9681   23.3322 H   0  0  0  0  0  0
  -24.3582  -36.8920   22.2051 H   0  0  0  0  0  0
  -23.7235  -37.6548   23.6636 H   0  0  0  0  0  0
  -26.0243  -31.6156   20.5859 H   0  0  0  0  0  0
  -26.8129  -30.9101   21.9700 H   0  0  0  0  0  0
  -28.0976  -29.1537   21.1631 H   0  0  0  0  0  0
  -26.1205  -25.9803   19.0238 H   0  0  0  0  0  0
  -24.0069  -27.2845   19.0209 H   0  0  0  0  0  0
  -23.7105  -30.5905   19.3986 H   0  0  0  0  0  0
  -22.7379  -29.2298   19.8706 H   0  0  0  0  0  0
  -25.1262  -36.2011   25.0840 H   0  0  0  0  0  0
  -20.9969  -28.3263   24.1443 H   0  0  0  0  0  0
  -20.5667  -26.2294   23.3614 H   0  0  0  0  0  0
  -21.6625  -26.7462   22.1221 H   0  0  0  0  0  0
  -19.6887  -25.6327   21.1239 H   0  0  0  0  0  0
  -19.6666  -27.3228   20.6762 H   0  0  0  0  0  0
  -17.4182  -26.6714   21.4035 H   0  0  0  0  0  0
  -18.0304  -26.0075   22.9018 H   0  0  0  0  0  0
  -19.7922  -30.7286   24.2294 H   0  0  0  0  0  0
  -17.5000  -31.6267   24.5206 H   0  0  0  0  0  0
  -15.5343  -30.3022   23.7625 H   0  0  0  0  0  0
  -15.8662  -28.0867   22.7015 H   0  0  0  0  0  0
  -24.5890  -30.7043   25.7863 H   0  0  0  0  0  0
  -24.8934  -32.2847   26.4971 H   0  0  0  0  0  0
  -25.8109  -30.8865   27.0231 H   0  0  0  0  0  0
  -26.2807  -29.6796   24.1130 H   0  0  0  0  0  0
  -27.4057  -29.7266   25.4515 H   0  0  0  0  0  0
  -27.8632  -30.4357   23.9190 H   0  0  0  0  0  0
  -27.2663  -33.3594   26.2073 H   0  0  0  0  0  0
  -28.3812  -32.6888   25.0252 H   0  0  0  0  0  0
  -28.0738  -31.8403   26.5333 H   0  0  0  0  0  0
  -28.2621  -38.0097   24.7505 H   0  0  0  0  0  0
  -28.1055  -36.2633   24.6295 H   0  0  0  0  0  0
  -27.2317  -37.1488   25.8876 H   0  0  0  0  0  0
  -20.9276  -29.8758   21.6947 H   0  0  0  0  0  0
  -26.0189  -38.2887   24.1395 H   0  0  0  0  0  0
  -32.8394  -21.6300   20.4437 H   0  0  0  0  0  0
  -30.7630  -25.3558   20.0317 H   0  0  0  0  0  0
  -32.9067  -23.7618   18.2574 H   0  0  0  0  0  0
  -34.0041  -23.7170   19.6407 H   0  0  0  0  0  0
  -33.0747  -25.1732   19.3060 H   0  0  0  0  0  0
  -28.0436  -21.8010   24.6960 H   0  0  0  0  0  0
  -28.9868  -23.2496   24.3769 H   0  0  0  0  0  0
  -29.7852  -21.6896   24.4795 H   0  0  0  0  0  0
  -30.6202  -20.1858   22.9588 H   0  0  0  0  0  0
  -32.1301  -20.0738   22.1287 H   0  0  0  0  0  0
  -28.3700  -24.6608   22.7059 H   0  0  0  0  0  0
  -27.6838  -24.4787   21.1211 H   0  0  0  0  0  0
  -28.5272  -20.9227   22.4221 H   0  0  0  0  0  0
  -27.7118  -22.4230   22.3251 H   0  0  0  0  0  0
  -31.0275  -19.3062   20.0559 H   0  0  0  0  0  0
  -29.4541  -19.5295   20.7640 H   0  0  0  0  0  0
  -29.9046  -17.7578   22.4493 H   0  0  0  0  0  0
  -31.5308  -17.5510   21.8249 H   0  0  0  0  0  0
  -30.5894  -16.8781   19.5893 H   0  0  0  0  0  0
  -28.9786  -17.1138   20.1949 H   0  0  0  0  0  0
  -29.8119  -26.6226   21.6473 H   0  0  0  0  0  0
  -28.1894  -26.8305   22.2025 H   0  0  0  0  0  0
  -29.0224  -15.1605   21.3840 H   0  0  0  0  0  0
  1 25  1  0  0  0
  1 30  2  0  0  0
  1 86  1  0  0  0
  2  3  1  0  0  0
  2 25  1  0  0  0
  2 87  1  0  0  0
  2 88  1  0  0  0
  3  4  1  0  0  0
  3 89  1  0  0  0
  3 90  1  0  0  0
  4  5  1  0  0  0
  4 91  1  0  0  0
  4 92  1  0  0  0
  5  6  1  0  0  0
  5 26  1  0  0  0
  5 93  1  0  0  0
  6 25  1  0  0  0
  6 94  1  0  0  0
  6 95  1  0  0  0
  7  8  2  0  0  0
  7 26  1  0  0  0
  7 29  1  0  0  0
  8  9  1  0  0  0
  8 22  1  0  0  0
  9 10  1  0  0  0
  9 27  2  0  0  0
 10 11  2  0  0  0
 10 15  1  0  0  0
 11 12  1  0  0  0
 11 96  1  0  0  0
 12 13  2  0  0  0
 12 97  1  0  0  0
 13 14  1  0  0  0
 13 31  1  0  0  0
 14 15  2  0  0  0
 14 98  1  0  0  0
 15 99  1  0  0  0
 16 17  2  0  0  0
 16 21  1  0  0  0
 16 31  1  0  0  0
 17 18  1  0  0  0
 17100  1  0  0  0
 18 19  2  0  0  0
 18101  1  0  0  0
 19 20  1  0  0  0
 19 24  1  0  0  0
 20 21  2  0  0  0
 20102  1  0  0  0
 21 23  1  0  0  0
 22 28  1  0  0  0
 22 32  2  0  0  0
 26 27  1  0  0  0
 28103  1  0  0  0
 28104  1  0  0  0
 29105  1  0  0  0
 29106  1  0  0  0
 33 34  1  0  0  0
 33 66  1  0  0  0
 33 70  2  0  0  0
 34 36  1  0  0  0
 34 59  1  0  0  0
 34107  1  0  0  0
 35 44  2  0  0  0
 35 45  1  0  0  0
 35 68  1  0  0  0
 36 56  1  0  0  0
 36108  1  0  0  0
 37 39  1  0  0  0
 37 47  1  0  0  0
 37 66  1  0  0  0
 37109  1  0  0  0
 38 43  2  0  0  0
 38 46  1  0  0  0
 38 47  1  0  0  0
 39 64  1  0  0  0
 39 67  2  0  0  0
 40 52  1  0  0  0
 40 53  2  0  0  0
 40 58  1  0  0  0
 41110  1  0  0  0
 41111  1  0  0  0
 41112  1  0  0  0
 41 48  1  0  0  0
 42 43  1  0  0  0
 42 66  1  0  0  0
 42113  1  0  0  0
 42114  1  0  0  0
 43 44  1  0  0  0
 44115  1  0  0  0
 45 46  2  0  0  0
 45116  1  0  0  0
 46117  1  0  0  0
 47118  1  0  0  0
 47119  1  0  0  0
 48 56  1  0  0  0
 48 65  1  0  0  0
 48120  1  0  0  0
 49 50  1  0  0  0
 49 53  1  0  0  0
 49 64  1  0  0  0
 49121  1  0  0  0
 50 51  1  0  0  0
 50122  1  0  0  0
 50123  1  0  0  0
 51 52  1  0  0  0
 51124  1  0  0  0
 51125  1  0  0  0
 52126  1  0  0  0
 52127  1  0  0  0
 53 54  1  0  0  0
 54 55  2  0  0  0
 54128  1  0  0  0
 55 57  1  0  0  0
 55129  1  0  0  0
 56 69  2  0  0  0
 57 58  2  0  0  0
 57130  1  0  0  0
 58131  1  0  0  0
 59 60  1  0  0  0
 59 61  1  0  0  0
 59 62  1  0  0  0
 60132  1  0  0  0
 60133  1  0  0  0
 60134  1  0  0  0
 61135  1  0  0  0
 61136  1  0  0  0
 61137  1  0  0  0
 62138  1  0  0  0
 62139  1  0  0  0
 62140  1  0  0  0
 63 65  1  0  0  0
 63141  1  0  0  0
 63142  1  0  0  0
 63143  1  0  0  0
 64144  1  0  0  0
 65145  1  0  0  0
 68 85  1  0  0  0
 71 73  2  0  0  0
 71 74  1  0  0  0
 71146  1  0  0  0
 72 73  1  0  0  0
 72 75  2  0  0  0
 72147  1  0  0  0
 73 77  1  0  0  0
 74 76  2  0  0  0
 74 79  1  0  0  0
 75 76  1  0  0  0
 75 80  1  0  0  0
 76 81  1  0  0  0
 77148  1  0  0  0
 77149  1  0  0  0
 77150  1  0  0  0
 78 81  1  0  0  0
 78151  1  0  0  0
 78152  1  0  0  0
 78153  1  0  0  0
 79 82  1  0  0  0
 79154  1  0  0  0
 79155  1  0  0  0
 80 85  1  0  0  0
 80156  1  0  0  0
 80157  1  0  0  0
 81158  1  0  0  0
 81159  1  0  0  0
 82 83  1  0  0  0
 82160  1  0  0  0
 82161  1  0  0  0
 83 84  1  0  0  0
 83162  1  0  0  0
 83163  1  0  0  0
 84 86  1  0  0  0
 84164  1  0  0  0
 84165  1  0  0  0
 85166  1  0  0  0
 85167  1  0  0  0
 86168  1  0  0  0
M  ISO  4   1 100  68 101  85 101  86 100
M  END
> <chiral flag>
0

> <version>
0

> <s_m_source_file>
/data/baiqing/PycharmProjects/Reinvent-master-3.2/result/LINK_invent/BTK/process_docking_weight1_custom_sum_contain_oxygen_bond_distance_aromatic_linkinvent_7_9_3/rearranged_h_0030.sdf

> <i_m_source_file_index>
81

> <r_mmod_Potential_Energy-OPLS-2005>
-63.0307922363281

> <r_mmod_Stretch_Energy-OPLS-2005>
35.7180519104004

> <r_mmod_Bend_Energy-OPLS-2005>
88.0552825927734

> <r_mmod_Torsional_Energy-OPLS-2005>
230.311737060547

> <r_mmod_Improper_Torsional_Energy-OPLS-2005>
7.06673192977905

> <r_mmod_Van_der_Waal_Energy-OPLS-2005>
157.683959960938

> <r_mmod_Electrostatic_Energy-OPLS-2005>
-388.575622558594

> <r_mmod_Solvation_Energy-OPLS-2005>
-203.756072998047

> <b_mmod_Minimization_Converged-OPLS-2005>
0

> <r_mmod_RMS_Derivative-OPLS-2005>
2.40761852264404

$$$$
81
                    3D
 Structure written by MMmdl.
150158  0  0  1  0            999 V2000
  -29.2868  -16.3848   20.3351 C   0  0  0  0  0  0
  -30.1660  -13.7452   19.5857 C   0  0  0  0  0  0
  -29.5086  -12.8914   18.4319 C   0  0  0  0  0  0
  -28.1595  -12.3049   18.8645 C   0  0  0  0  0  0
  -27.4731  -13.3172   19.7933 C   0  0  2  0  0  0
  -28.3349  -13.8654   20.9344 C   0  0  0  0  0  0
  -25.1757  -13.8192   20.5795 C   0  0  0  0  0  0
  -24.1284  -13.0308   20.9336 C   0  0  0  0  0  0
  -24.6056  -11.6837   20.8788 C   0  0  0  0  0  0
  -23.8887  -10.4215   21.0446 C   0  0  0  0  0  0
  -24.3523   -9.4157   21.9200 C   0  0  0  0  0  0
  -23.6248   -8.2166   22.0753 C   0  0  0  0  0  0
  -22.4228   -8.0202   21.3538 C   0  0  0  0  0  0
  -21.9823   -9.0144   20.4630 C   0  0  0  0  0  0
  -22.7104  -10.2038   20.3057 C   0  0  0  0  0  0
  -21.6826   -6.0701   22.5293 C   0  0  0  0  0  0
  -21.3998   -6.5626   23.8221 C   0  0  0  0  0  0
  -21.3654   -5.6784   24.9187 C   0  0  0  0  0  0
  -21.6041   -4.3047   24.7237 C   0  0  0  0  0  0
  -21.8820   -3.8129   23.4366 C   0  0  0  0  0  0
  -21.9187   -4.6937   22.3419 C   0  0  0  0  0  0
  -22.7372  -13.5073   21.2013 C   0  0  0  0  0  0
  -22.1656   -4.2137   21.0990 F   0  0  0  0  0  0
  -21.5632   -3.4533   25.7749 F   0  0  0  0  0  0
  -29.2118  -14.8387   20.2608 N   0  0  0  0  0  0
  -26.1968  -12.9420   20.2971 N   0  0  0  0  0  0
  -25.8914  -11.6506   20.5537 N   0  0  0  0  0  0
  -22.0080  -12.8076   22.0612 N   0  0  0  0  0  0
  -25.3426  -15.1963   20.4373 N   0  0  0  0  0  0
  -30.5615  -16.4050   20.2075 O   0  0  0  0  0  0
  -21.6599   -6.8813   21.4246 O   0  0  0  0  0  0
  -22.3096  -14.5396   20.6853 O   0  0  0  0  0  0
  -24.7345  -31.4396   22.6783 C   0  0  0  0  0  0
  -25.8791  -32.2804   23.5338 C   0  0  1  0  0  0
  -26.6126  -28.0758   21.5707 C   0  0  0  0  0  0
  -25.4562  -33.6708   23.9273 N   0  0  0  0  0  0
  -24.3951  -28.8641   20.6999 C   0  0  2  0  0  0
  -25.6608  -28.9777   19.2500 C   0  0  0  0  0  0
  -23.6586  -27.3182   22.6961 C   0  0  0  0  0  0
  -18.1767  -28.1231   22.7737 C   0  0  0  0  0  0
  -24.1387  -36.6600   23.2792 C   0  0  0  0  0  0
  -26.0094  -31.0468   20.6469 C   0  0  0  0  0  0
  -26.5448  -29.7809   20.0782 C   0  0  0  0  0  0
  -27.3616  -29.0984   20.9981 C   0  0  0  0  0  0
  -26.5369  -27.1071   20.4143 C   0  0  0  0  0  0
  -25.9822  -27.5901   19.1749 C   0  0  0  0  0  0
  -24.1661  -29.2383   19.2873 C   0  0  0  0  0  0
  -25.4093  -36.1900   24.0078 C   0  0  1  0  0  0
  -20.7756  -27.6598   23.5200 C   0  0  2  0  0  0
  -20.2468  -26.3191   23.0208 C   0  0  0  0  0  0
  -19.4958  -26.3763   21.6770 C   0  0  0  0  0  0
  -18.1061  -26.8249   22.0126 C   0  0  0  0  0  0
  -19.4363  -28.6489   23.2836 C   0  0  0  0  0  0
  -19.2513  -29.9275   23.9138 C   0  0  0  0  0  0
  -17.9796  -30.5699   24.0585 C   0  0  0  0  0  0
  -25.8967  -34.8378   23.4073 C   0  0  0  0  0  0
  -16.7929  -29.9652   23.6082 C   0  0  0  0  0  0
  -16.9105  -28.7344   22.9570 C   0  0  0  0  0  0
  -26.4084  -31.6240   24.9116 C   0  0  0  0  0  0
  -25.3179  -31.3972   25.9919 C   0  0  0  0  0  0
  -27.0711  -30.2649   24.6442 C   0  0  0  0  0  0
  -27.5192  -32.4877   25.5968 C   0  0  0  0  0  0
  -27.5381  -37.1308   24.8450 C   0  0  0  0  0  0
  -22.1272  -27.2529   22.8292 N   0  0  0  0  0  0
  -26.4028  -37.2945   23.9435 N   0  0  0  0  0  0
  -24.8629  -30.6275   21.3913 N   0  0  0  0  0  0
  -23.8961  -27.6703   23.8639 O   0  0  0  0  0  0
  -25.4227  -28.7519   22.5042 O   0  0  0  0  0  0
  -26.6583  -34.8642   22.4401 O   0  0  0  0  0  0
  -23.6519  -31.6560   23.2660 O   0  0  0  0  0  0
  -24.9983  -21.5663   20.9332 C   0  0  0  0  0  0
  -27.3915  -21.0998   20.0485 C   0  0  0  0  0  0
  -25.1359  -23.1031   20.5326 C   0  0  0  0  0  0
  -27.2288  -19.5605   20.4486 C   0  0  0  0  0  0
  -25.8135  -20.1321   20.8984 C   0  0  0  0  0  0
  -26.5586  -22.5374   20.0564 C   0  0  0  0  0  0
  -23.7657  -24.8443   20.5306 C   0  0  0  0  0  0
  -22.8045  -27.0086   20.5058 C   0  0  0  0  0  0
  -22.8904  -29.3302   22.0733 C   0  0  0  0  0  0
  -28.1625  -17.7637   20.4145 N   0  0  0  0  0  0
  -24.8272  -18.8542   21.5260 Cl  0  0  0  0  0  0
  -27.4767  -23.7786   19.2839 Cl  0  0  0  0  0  0
  -31.0326  -14.2488   19.1608 H   0  0  0  0  0  0
  -30.6058  -13.0895   20.3386 H   0  0  0  0  0  0
  -30.1838  -12.1048   18.0948 H   0  0  0  0  0  0
  -29.3431  -13.5436   17.5705 H   0  0  0  0  0  0
  -28.3241  -11.3680   19.3957 H   0  0  0  0  0  0
  -27.5378  -12.0678   17.9989 H   0  0  0  0  0  0
  -27.2523  -14.1426   19.1106 H   0  0  0  0  0  0
  -28.8333  -13.0771   21.5015 H   0  0  0  0  0  0
  -27.7372  -14.4156   21.6616 H   0  0  0  0  0  0
  -25.2662   -9.5684   22.4772 H   0  0  0  0  0  0
  -23.9976   -7.4568   22.7478 H   0  0  0  0  0  0
  -21.0753   -8.8627   19.8942 H   0  0  0  0  0  0
  -22.3544  -10.9569   19.6165 H   0  0  0  0  0  0
  -21.1980   -7.6135   23.9722 H   0  0  0  0  0  0
  -21.1478   -6.0516   25.9090 H   0  0  0  0  0  0
  -22.0606   -2.7598   23.2861 H   0  0  0  0  0  0
  -22.3738  -11.9741   22.4975 H   0  0  0  0  0  0
  -21.0693  -13.1087   22.2863 H   0  0  0  0  0  0
  -24.5988  -15.8548   20.6317 H   0  0  0  0  0  0
  -26.2042  -15.6524   20.1642 H   0  0  0  0  0  0
  -26.7712  -32.3955   22.9365 H   0  0  0  0  0  0
  -24.7792  -33.7183   24.6722 H   0  0  0  0  0  0
  -24.6163  -27.8726   20.8273 H   0  0  0  0  0  0
  -23.3577  -35.8983   23.3068 H   0  0  0  0  0  0
  -24.3405  -36.8802   22.2304 H   0  0  0  0  0  0
  -23.7233  -37.5591   23.7351 H   0  0  0  0  0  0
  -25.6613  -31.6804   19.8327 H   0  0  0  0  0  0
  -26.8079  -31.5952   21.1251 H   0  0  0  0  0  0
  -27.8128  -29.7449   21.7331 H   0  0  0  0  0  0
  -26.4007  -26.0506   20.6028 H   0  0  0  0  0  0
  -25.4432  -26.8954   18.5440 H   0  0  0  0  0  0
  -23.8920  -30.2844   19.1312 H   0  0  0  0  0  0
  -23.6816  -28.6350   18.5259 H   0  0  0  0  0  0
  -25.1459  -36.0205   25.0542 H   0  0  0  0  0  0
  -20.9462  -27.6154   24.5971 H   0  0  0  0  0  0
  -19.5315  -25.9881   23.7828 H   0  0  0  0  0  0
  -20.9194  -25.4511   23.0625 H   0  0  0  0  0  0
  -19.4648  -25.3970   21.1985 H   0  0  0  0  0  0
  -19.8892  -27.1000   20.9673 H   0  0  0  0  0  0
  -17.5523  -26.9819   21.0840 H   0  0  0  0  0  0
  -17.5501  -26.0799   22.5874 H   0  0  0  0  0  0
  -20.1089  -30.3886   24.3850 H   0  0  0  0  0  0
  -17.9211  -31.5125   24.5871 H   0  0  0  0  0  0
  -15.8319  -30.4403   23.7440 H   0  0  0  0  0  0
  -16.0176  -28.2585   22.5724 H   0  0  0  0  0  0
  -24.5449  -30.7095   25.6449 H   0  0  0  0  0  0
  -24.8282  -32.3316   26.2674 H   0  0  0  0  0  0
  -25.7404  -30.9743   26.9060 H   0  0  0  0  0  0
  -26.3288  -29.4922   24.4680 H   0  0  0  0  0  0
  -27.6385  -29.9219   25.5121 H   0  0  0  0  0  0
  -27.7670  -30.3082   23.8091 H   0  0  0  0  0  0
  -27.1424  -33.4542   25.9320 H   0  0  0  0  0  0
  -28.3506  -32.6835   24.9185 H   0  0  0  0  0  0
  -27.9278  -31.9992   26.4821 H   0  0  0  0  0  0
  -28.2170  -37.9791   24.7409 H   0  0  0  0  0  0
  -28.1050  -36.2238   24.6261 H   0  0  0  0  0  0
  -27.2138  -37.0913   25.8872 H   0  0  0  0  0  0
  -21.8410  -26.9168   21.9202 H   0  0  0  0  0  0
  -25.9575  -38.1828   24.1584 H   0  0  0  0  0  0
  -24.0120  -21.4093   21.3535 H   0  0  0  0  0  0
  -28.3586  -21.2614   19.5946 H   0  0  0  0  0  0
  -22.9443  -24.3452   21.0612 H   0  0  0  0  0  0
  -23.5603  -24.6820   19.4601 H   0  0  0  0  0  0
  -21.7707  -26.7103   20.4759 H   0  0  0  0  0  0
  -22.7595  -27.2308   19.4572 H   0  0  0  0  0  0
  -22.3581  -29.5228   23.0176 H   0  0  0  0  0  0
  -22.5428  -30.1757   21.4585 H   0  0  0  0  0  0
  -29.0351  -18.2457   20.2443 H   0  0  0  0  0  0
  1 25  1  0  0  0
  1 30  2  0  0  0
  1 80  1  0  0  0
  2  3  1  0  0  0
  2 25  1  0  0  0
  2 83  1  0  0  0
  2 84  1  0  0  0
  3  4  1  0  0  0
  3 85  1  0  0  0
  3 86  1  0  0  0
  4  5  1  0  0  0
  4 87  1  0  0  0
  4 88  1  0  0  0
  5  6  1  0  0  0
  5 26  1  0  0  0
  5 89  1  0  0  0
  6 25  1  0  0  0
  6 90  1  0  0  0
  6 91  1  0  0  0
  7  8  2  0  0  0
  7 26  1  0  0  0
  7 29  1  0  0  0
  8  9  1  0  0  0
  8 22  1  0  0  0
  9 10  1  0  0  0
  9 27  2  0  0  0
 10 11  2  0  0  0
 10 15  1  0  0  0
 11 12  1  0  0  0
 11 92  1  0  0  0
 12 13  2  0  0  0
 12 93  1  0  0  0
 13 14  1  0  0  0
 13 31  1  0  0  0
 14 15  2  0  0  0
 14 94  1  0  0  0
 15 95  1  0  0  0
 16 17  2  0  0  0
 16 21  1  0  0  0
 16 31  1  0  0  0
 17 18  1  0  0  0
 17 96  1  0  0  0
 18 19  2  0  0  0
 18 97  1  0  0  0
 19 20  1  0  0  0
 19 24  1  0  0  0
 20 21  2  0  0  0
 20 98  1  0  0  0
 21 23  1  0  0  0
 22 28  1  0  0  0
 22 32  2  0  0  0
 26 27  1  0  0  0
 28 99  1  0  0  0
 28100  1  0  0  0
 29101  1  0  0  0
 29102  1  0  0  0
 33 34  1  0  0  0
 33 66  1  0  0  0
 33 70  2  0  0  0
 34 36  1  0  0  0
 34 59  1  0  0  0
 34103  1  0  0  0
 35 44  2  0  0  0
 35 45  1  0  0  0
 35 68  1  0  0  0
 36 56  1  0  0  0
 36104  1  0  0  0
 37 39  1  0  0  0
 37 47  1  0  0  0
 37 66  1  0  0  0
 37105  1  0  0  0
 38 43  2  0  0  0
 38 46  1  0  0  0
 38 47  1  0  0  0
 39 64  1  0  0  0
 39 67  2  0  0  0
 40 52  1  0  0  0
 40 53  2  0  0  0
 40 58  1  0  0  0
 41106  1  0  0  0
 41107  1  0  0  0
 41108  1  0  0  0
 41 48  1  0  0  0
 42 43  1  0  0  0
 42 66  1  0  0  0
 42109  1  0  0  0
 42110  1  0  0  0
 43 44  1  0  0  0
 44111  1  0  0  0
 45 46  2  0  0  0
 45112  1  0  0  0
 46113  1  0  0  0
 47114  1  0  0  0
 47115  1  0  0  0
 48 56  1  0  0  0
 48 65  1  0  0  0
 48116  1  0  0  0
 49 50  1  0  0  0
 49 53  1  0  0  0
 49 64  1  0  0  0
 49117  1  0  0  0
 50 51  1  0  0  0
 50118  1  0  0  0
 50119  1  0  0  0
 51 52  1  0  0  0
 51120  1  0  0  0
 51121  1  0  0  0
 52122  1  0  0  0
 52123  1  0  0  0
 53 54  1  0  0  0
 54 55  2  0  0  0
 54124  1  0  0  0
 55 57  1  0  0  0
 55125  1  0  0  0
 56 69  2  0  0  0
 57 58  2  0  0  0
 57126  1  0  0  0
 58127  1  0  0  0
 59 60  1  0  0  0
 59 61  1  0  0  0
 59 62  1  0  0  0
 60128  1  0  0  0
 60129  1  0  0  0
 60130  1  0  0  0
 61131  1  0  0  0
 61132  1  0  0  0
 61133  1  0  0  0
 62134  1  0  0  0
 62135  1  0  0  0
 62136  1  0  0  0
 63 65  1  0  0  0
 63137  1  0  0  0
 63138  1  0  0  0
 63139  1  0  0  0
 64140  1  0  0  0
 65141  1  0  0  0
 68 79  1  0  0  0
 71 73  2  0  0  0
 71 75  1  0  0  0
 71142  1  0  0  0
 72 74  1  0  0  0
 72 76  2  0  0  0
 72143  1  0  0  0
 73 76  1  0  0  0
 73 77  1  0  0  0
 74 75  2  0  0  0
 74 80  1  0  0  0
 75 81  1  0  0  0
 76 82  1  0  0  0
 77 78  1  0  0  0
 77144  1  0  0  0
 77145  1  0  0  0
 78 79  1  0  0  0
 78146  1  0  0  0
 78147  1  0  0  0
 79148  1  0  0  0
 79149  1  0  0  0
 80150  1  0  0  0
M  ISO  4   1 100  68 101  79 101  80 100
M  END
> <chiral flag>
0

> <version>
0

> <s_m_source_file>
/data/baiqing/PycharmProjects/Reinvent-master-3.2/result/LINK_invent/BTK/process_docking_weight1_custom_sum_contain_oxygen_bond_distance_aromatic_linkinvent_7_9_3/rearranged_h_0030.sdf

> <i_m_source_file_index>
82

> <r_mmod_Potential_Energy-OPLS-2005>
21711.32421875

> <r_mmod_Stretch_Energy-OPLS-2005>
9433.552734375

> <r_mmod_Bend_Energy-OPLS-2005>
2627.18090820312

> <r_mmod_Torsional_Energy-OPLS-2005>
675.709655761719

> <r_mmod_Improper_Torsional_Energy-OPLS-2005>
130.000961303711

> <r_mmod_Van_der_Waal_Energy-OPLS-2005>
2656.11572265625

> <r_mmod_Electrostatic_Energy-OPLS-2005>
-379.788482666016

> <r_mmod_Solvation_Energy-OPLS-2005>
-214.983489990234

> <b_mmod_Minimization_Converged-OPLS-2005>
0

> <r_mmod_RMS_Derivative-OPLS-2005>
11.3256807327271

$$$$
82
                    3D
 Structure written by MMmdl.
160168  0  0  1  0            999 V2000
  -30.6308  -13.5173   20.1625 C   0  0  0  0  0  0
  -31.6058  -12.4118   19.3353 C   0  0  0  0  0  0
  -30.2615  -12.4287   18.0508 C   0  0  0  0  0  0
  -28.9768  -13.5621   18.2219 C   0  0  0  0  0  0
  -28.4617  -14.5699   19.8322 C   0  0  2  0  0  0
  -29.9329  -14.4296   21.1925 C   0  0  0  0  0  0
  -24.5147  -14.4624   20.6543 C   0  0  0  0  0  0
  -23.6776  -13.3785   20.8351 C   0  0  0  0  0  0
  -24.3061  -12.1312   20.9189 C   0  0  0  0  0  0
  -23.8329  -10.6701   21.0546 C   0  0  0  0  0  0
  -24.3441   -9.6454   21.9136 C   0  0  0  0  0  0
  -23.6829   -8.3830   22.0645 C   0  0  0  0  0  0
  -22.4880   -8.0999   21.3531 C   0  0  0  0  0  0
  -22.0309   -9.0711   20.4468 C   0  0  0  0  0  0
  -22.6950  -10.3067   20.2948 C   0  0  0  0  0  0
  -21.7380   -6.1041   22.5245 C   0  0  0  0  0  0
  -21.4394   -6.5876   23.8187 C   0  0  0  0  0  0
  -21.3747   -5.6958   24.9105 C   0  0  0  0  0  0
  -21.6010   -4.3198   24.7147 C   0  0  0  0  0  0
  -21.8767   -3.8317   23.4265 C   0  0  0  0  0  0
  -21.9362   -4.7185   22.3362 C   0  0  0  0  0  0
  -22.2831  -13.5912   21.1164 C   0  0  0  0  0  0
  -22.1749   -4.2310   21.0944 F   0  0  0  0  0  0
  -21.5499   -3.4657   25.7648 F   0  0  0  0  0  0
  -31.2907  -13.3411   20.8509 N   0  0  0  0  0  0
  -25.7645  -14.1169   20.8087 N   0  0  0  0  0  0
  -25.3581  -12.7098   21.3733 N   0  0  0  0  0  0
  -21.7319  -12.8153   22.0380 N   0  0  0  0  0  0
  -24.3026  -15.7948   20.5325 N   0  0  0  0  0  0
  -31.0558  -14.5602   19.3376 O   0  0  0  0  0  0
  -21.7568   -6.9268   21.4205 O   0  0  0  0  0  0
  -21.7353  -14.5567   20.6115 O   0  0  0  0  0  0
  -24.7243  -31.7453   23.1204 C   0  0  0  0  0  0
  -25.9652  -32.4150   23.7853 C   0  0  1  0  0  0
  -26.8601  -26.0854   20.3213 C   0  0  0  0  0  0
  -25.6065  -33.8023   24.1674 N   0  0  0  0  0  0
  -23.5487  -30.3547   21.4891 C   0  0  2  0  0  0
  -24.9390  -28.5929   20.1130 C   0  0  0  0  0  0
  -22.7851  -29.4082   22.4575 C   0  0  0  0  0  0
  -18.0339  -28.1428   22.8437 C   0  0  0  0  0  0
  -24.1511  -36.7021   23.2662 C   0  0  0  0  0  0
  -26.1380  -30.2623   21.4753 C   0  0  0  0  0  0
  -26.1222  -28.7722   20.8324 C   0  0  0  0  0  0
  -27.0724  -27.5552   20.8906 C   0  0  0  0  0  0
  -25.7380  -26.2844   19.4746 C   0  0  0  0  0  0
  -24.8310  -27.3933   19.3932 C   0  0  0  0  0  0
  -23.8083  -29.6486   20.1242 C   0  0  0  0  0  0
  -25.4180  -36.2714   24.0239 C   0  0  1  0  0  0
  -20.5982  -28.3801   23.1071 C   0  0  2  0  0  0
  -20.6783  -26.9426   22.5409 C   0  0  0  0  0  0
  -19.5772  -26.6349   21.5213 C   0  0  0  0  0  0
  -18.1953  -26.7949   22.1609 C   0  0  0  0  0  0
  -19.1612  -28.8943   23.2730 C   0  0  0  0  0  0
  -18.9524  -30.1517   23.8791 C   0  0  0  0  0  0
  -17.6514  -30.6605   24.0540 C   0  0  0  0  0  0
  -25.9199  -34.9117   23.4825 C   0  0  0  0  0  0
  -16.5397  -29.9085   23.6356 C   0  0  0  0  0  0
  -16.7320  -28.6507   23.0374 C   0  0  0  0  0  0
  -26.4674  -31.6414   25.0687 C   0  0  0  0  0  0
  -25.3609  -31.3888   26.1209 C   0  0  0  0  0  0
  -27.0686  -30.2691   24.7008 C   0  0  0  0  0  0
  -27.6035  -32.4403   25.7498 C   0  0  0  0  0  0
  -27.5558  -37.1667   24.8462 C   0  0  0  0  0  0
  -21.4472  -29.2985   22.3335 N   0  0  0  0  0  0
  -26.4257  -37.3538   23.9403 N   0  0  0  0  0  0
  -24.8383  -30.8388   22.0752 N   0  0  0  0  0  0
  -23.4145  -28.7715   23.3059 O   0  0  0  0  0  0
  -27.4879  -24.5196   20.3886 O   0  0  0  0  0  0
  -26.5897  -34.8789   22.4485 O   0  0  0  0  0  0
  -23.6200  -32.0834   23.5886 O   0  0  0  0  0  0
  -26.5262  -15.6836   19.1001 C   0  0  0  0  0  0
  -27.4899  -15.3311   21.7989 C   0  0  0  0  0  0
  -26.5490  -13.9324   18.7010 C   0  0  0  0  0  0
  -27.7082  -13.4478   21.6377 C   0  0  0  0  0  0
  -27.0177  -16.5493   20.5474 C   0  0  0  0  0  0
  -27.2489  -12.6912   19.9014 C   0  0  0  0  0  0
  -25.8178  -13.4622   17.4552 C   0  0  0  0  0  0
  -28.0103  -12.5792   22.8671 C   0  0  0  0  0  0
  -28.6097  -11.2115   22.5243 C   0  0  0  0  0  0
  -29.8550  -11.2753   21.6320 C   0  0  0  0  0  0
  -26.9876  -22.5464   20.5194 C   0  0  0  0  0  0
  -27.2743  -20.2969   20.2767 C   0  0  0  0  0  0
  -29.7377  -12.2763   20.5338 N   0  0  0  0  0  0
  -27.0025  -18.3461   20.7887 O   0  0  0  0  0  0
  -27.2058  -10.9982   19.4987 Cl  0  0  0  0  0  0
  -32.5510  -12.7387   18.8716 H   0  0  0  0  0  0
  -31.8592  -11.3703   19.5734 H   0  0  0  0  0  0
  -29.8224  -11.4289   18.0186 H   0  0  0  0  0  0
  -30.7178  -12.5505   17.0681 H   0  0  0  0  0  0
  -28.2805  -13.1261   17.5145 H   0  0  0  0  0  0
  -29.3030  -14.3870   17.5848 H   0  0  0  0  0  0
  -28.7583  -15.5590   19.4562 H   0  0  0  0  0  0
  -29.7441  -14.3550   22.2697 H   0  0  0  0  0  0
  -30.2818  -15.4790   21.3276 H   0  0  0  0  0  0
  -25.2235   -9.8571   22.5040 H   0  0  0  0  0  0
  -24.0914   -7.6509   22.7454 H   0  0  0  0  0  0
  -21.1433   -8.8744   19.8608 H   0  0  0  0  0  0
  -22.2729  -11.0266   19.6070 H   0  0  0  0  0  0
  -21.2567   -7.6409   23.9749 H   0  0  0  0  0  0
  -21.1524   -6.0683   25.9002 H   0  0  0  0  0  0
  -22.0377   -2.7753   23.2742 H   0  0  0  0  0  0
  -22.2569  -12.0781   22.4837 H   0  0  0  0  0  0
  -20.7710  -12.9690   22.3092 H   0  0  0  0  0  0
  -23.3716  -16.1866   20.4448 H   0  0  0  0  0  0
  -25.0473  -16.4791   20.5038 H   0  0  0  0  0  0
  -26.7745  -32.4437   23.0543 H   0  0  0  0  0  0
  -25.0026  -33.8985   24.9704 H   0  0  0  0  0  0
  -22.9023  -31.2123   21.2897 H   0  0  0  0  0  0
  -23.3809  -35.9312   23.3211 H   0  0  0  0  0  0
  -24.3568  -36.8833   22.2102 H   0  0  0  0  0  0
  -23.7242  -37.6136   23.6858 H   0  0  0  0  0  0
  -26.4289  -30.9440   20.6752 H   0  0  0  0  0  0
  -26.9700  -30.3072   22.1630 H   0  0  0  0  0  0
  -27.9478  -27.6883   21.5102 H   0  0  0  0  0  0
  -25.4459  -25.4191   18.8960 H   0  0  0  0  0  0
  -23.9610  -27.2622   18.7645 H   0  0  0  0  0  0
  -24.0598  -30.4035   19.3780 H   0  0  0  0  0  0
  -22.8851  -29.1890   19.7660 H   0  0  0  0  0  0
  -25.1413  -36.1399   25.0727 H   0  0  0  0  0  0
  -21.0057  -28.3463   24.1202 H   0  0  0  0  0  0
  -20.5603  -26.2436   23.3707 H   0  0  0  0  0  0
  -21.6644  -26.7309   22.1256 H   0  0  0  0  0  0
  -19.6922  -25.6231   21.1315 H   0  0  0  0  0  0
  -19.6728  -27.3095   20.6694 H   0  0  0  0  0  0
  -17.4225  -26.6690   21.4009 H   0  0  0  0  0  0
  -18.0334  -26.0110   22.9024 H   0  0  0  0  0  0
  -19.8001  -30.7351   24.2122 H   0  0  0  0  0  0
  -17.5066  -31.6277   24.5162 H   0  0  0  0  0  0
  -15.5395  -30.2962   23.7736 H   0  0  0  0  0  0
  -15.8718  -28.0791   22.7158 H   0  0  0  0  0  0
  -24.5850  -30.7174   25.7502 H   0  0  0  0  0  0
  -24.8740  -32.3156   26.4254 H   0  0  0  0  0  0
  -25.7676  -30.9295   27.0226 H   0  0  0  0  0  0
  -26.3448  -29.6078   24.2234 H   0  0  0  0  0  0
  -27.4087  -29.7425   25.5938 H   0  0  0  0  0  0
  -27.9461  -30.3675   24.0614 H   0  0  0  0  0  0
  -27.2519  -33.3845   26.1665 H   0  0  0  0  0  0
  -28.4028  -32.6734   25.0448 H   0  0  0  0  0  0
  -28.0492  -31.8814   26.5736 H   0  0  0  0  0  0
  -28.2494  -38.0037   24.7527 H   0  0  0  0  0  0
  -28.1134  -36.2549   24.6264 H   0  0  0  0  0  0
  -27.2268  -37.1251   25.8861 H   0  0  0  0  0  0
  -20.9834  -29.8625   21.6346 H   0  0  0  0  0  0
  -26.0033  -38.2559   24.1431 H   0  0  0  0  0  0
  -26.1183  -16.3162   18.3233 H   0  0  0  0  0  0
  -27.7203  -15.7390   22.7730 H   0  0  0  0  0  0
  -25.9153  -14.1908   16.6499 H   0  0  0  0  0  0
  -24.7577  -13.3410   17.6830 H   0  0  0  0  0  0
  -26.1930  -12.4999   17.1072 H   0  0  0  0  0  0
  -27.0820  -12.4302   23.4183 H   0  0  0  0  0  0
  -28.6646  -13.1037   23.5621 H   0  0  0  0  0  0
  -27.8508  -10.5973   22.0457 H   0  0  0  0  0  0
  -28.8533  -10.6843   23.4478 H   0  0  0  0  0  0
  -30.0313  -10.2978   21.1808 H   0  0  0  0  0  0
  -30.7176  -11.4598   22.2739 H   0  0  0  0  0  0
  -26.8673  -22.5529   21.6030 H   0  0  0  0  0  0
  -25.9641  -22.6350   20.1543 H   0  0  0  0  0  0
  -28.3595  -20.2816   20.3810 H   0  0  0  0  0  0
  -27.1229  -20.2029   19.2011 H   0  0  0  0  0  0
  -29.0054  -12.0861   19.8678 H   0  0  0  0  0  0
  1 25  1  0  0  0
  1 30  2  0  0  0
  1 83  1  0  0  0
  2  3  1  0  0  0
  2 25  1  0  0  0
  2 86  1  0  0  0
  2 87  1  0  0  0
  3  4  1  0  0  0
  3 88  1  0  0  0
  3 89  1  0  0  0
  4  5  1  0  0  0
  4 90  1  0  0  0
  4 91  1  0  0  0
  5  6  1  0  0  0
  5 26  1  0  0  0
  5 92  1  0  0  0
  6 25  1  0  0  0
  6 93  1  0  0  0
  6 94  1  0  0  0
  7  8  2  0  0  0
  7 26  1  0  0  0
  7 29  1  0  0  0
  8  9  1  0  0  0
  8 22  1  0  0  0
  9 10  1  0  0  0
  9 27  2  0  0  0
 10 11  2  0  0  0
 10 15  1  0  0  0
 11 12  1  0  0  0
 11 95  1  0  0  0
 12 13  2  0  0  0
 12 96  1  0  0  0
 13 14  1  0  0  0
 13 31  1  0  0  0
 14 15  2  0  0  0
 14 97  1  0  0  0
 15 98  1  0  0  0
 16 17  2  0  0  0
 16 21  1  0  0  0
 16 31  1  0  0  0
 17 18  1  0  0  0
 17 99  1  0  0  0
 18 19  2  0  0  0
 18100  1  0  0  0
 19 20  1  0  0  0
 19 24  1  0  0  0
 20 21  2  0  0  0
 20101  1  0  0  0
 21 23  1  0  0  0
 22 28  1  0  0  0
 22 32  2  0  0  0
 26 27  1  0  0  0
 28102  1  0  0  0
 28103  1  0  0  0
 29104  1  0  0  0
 29105  1  0  0  0
 33 34  1  0  0  0
 33 66  1  0  0  0
 33 70  2  0  0  0
 34 36  1  0  0  0
 34 59  1  0  0  0
 34106  1  0  0  0
 35 44  2  0  0  0
 35 45  1  0  0  0
 35 68  1  0  0  0
 36 56  1  0  0  0
 36107  1  0  0  0
 37 39  1  0  0  0
 37 47  1  0  0  0
 37 66  1  0  0  0
 37108  1  0  0  0
 38 43  2  0  0  0
 38 46  1  0  0  0
 38 47  1  0  0  0
 39 64  1  0  0  0
 39 67  2  0  0  0
 40 52  1  0  0  0
 40 53  2  0  0  0
 40 58  1  0  0  0
 41109  1  0  0  0
 41110  1  0  0  0
 41111  1  0  0  0
 41 48  1  0  0  0
 42 43  1  0  0  0
 42 66  1  0  0  0
 42112  1  0  0  0
 42113  1  0  0  0
 43 44  1  0  0  0
 44114  1  0  0  0
 45 46  2  0  0  0
 45115  1  0  0  0
 46116  1  0  0  0
 47117  1  0  0  0
 47118  1  0  0  0
 48 56  1  0  0  0
 48 65  1  0  0  0
 48119  1  0  0  0
 49 50  1  0  0  0
 49 53  1  0  0  0
 49 64  1  0  0  0
 49120  1  0  0  0
 50 51  1  0  0  0
 50121  1  0  0  0
 50122  1  0  0  0
 51 52  1  0  0  0
 51123  1  0  0  0
 51124  1  0  0  0
 52125  1  0  0  0
 52126  1  0  0  0
 53 54  1  0  0  0
 54 55  2  0  0  0
 54127  1  0  0  0
 55 57  1  0  0  0
 55128  1  0  0  0
 56 69  2  0  0  0
 57 58  2  0  0  0
 57129  1  0  0  0
 58130  1  0  0  0
 59 60  1  0  0  0
 59 61  1  0  0  0
 59 62  1  0  0  0
 60131  1  0  0  0
 60132  1  0  0  0
 60133  1  0  0  0
 61134  1  0  0  0
 61135  1  0  0  0
 61136  1  0  0  0
 62137  1  0  0  0
 62138  1  0  0  0
 62139  1  0  0  0
 63 65  1  0  0  0
 63140  1  0  0  0
 63141  1  0  0  0
 63142  1  0  0  0
 64143  1  0  0  0
 65144  1  0  0  0
 68 81  1  0  0  0
 71 73  2  0  0  0
 71 75  1  0  0  0
 71145  1  0  0  0
 72 74  1  0  0  0
 72 75  2  0  0  0
 72146  1  0  0  0
 73 76  1  0  0  0
 73 77  1  0  0  0
 74 76  2  0  0  0
 74 78  1  0  0  0
 75 84  1  0  0  0
 76 85  1  0  0  0
 77147  1  0  0  0
 77148  1  0  0  0
 77149  1  0  0  0
 78 79  1  0  0  0
 78150  1  0  0  0
 78151  1  0  0  0
 79 80  1  0  0  0
 79152  1  0  0  0
 79153  1  0  0  0
 80 83  1  0  0  0
 80154  1  0  0  0
 80155  1  0  0  0
 81 82  1  0  0  0
 81156  1  0  0  0
 81157  1  0  0  0
 82 84  1  0  0  0
 82158  1  0  0  0
 82159  1  0  0  0
 83160  1  0  0  0
M  ISO  4   1 100  68 101  81 101  83 100
M  END
> <chiral flag>
0

> <version>
0

> <s_m_source_file>
/data/baiqing/PycharmProjects/Reinvent-master-3.2/result/LINK_invent/BTK/process_docking_weight1_custom_sum_contain_oxygen_bond_distance_aromatic_linkinvent_7_9_3/rearranged_h_0030.sdf

> <i_m_source_file_index>
83

> <r_mmod_Potential_Energy-OPLS-2005>
17840.869140625

> <r_mmod_Stretch_Energy-OPLS-2005>
9239.0322265625

> <r_mmod_Bend_Energy-OPLS-2005>
1755.583984375

> <r_mmod_Torsional_Energy-OPLS-2005>
467.692230224609

> <r_mmod_Improper_Torsional_Energy-OPLS-2005>
22.2912635803223

> <r_mmod_Van_der_Waal_Energy-OPLS-2005>
3474.02758789062

> <r_mmod_Electrostatic_Energy-OPLS-2005>
-372.459106445312

> <r_mmod_Solvation_Energy-OPLS-2005>
-207.436813354492

> <b_mmod_Minimization_Converged-OPLS-2005>
0

> <r_mmod_RMS_Derivative-OPLS-2005>
3.25017547607422

$$$$
83
                    3D
 Structure written by MMmdl.
150158  0  0  1  0            999 V2000
  -30.5862  -14.8909   20.4480 C   0  0  0  0  0  0
  -30.4361  -12.5754   19.4481 C   0  0  0  0  0  0
  -29.4882  -12.4926   18.2236 C   0  0  0  0  0  0
  -28.0372  -12.2695   18.6739 C   0  0  0  0  0  0
  -27.6198  -13.2346   19.8119 C   0  0  2  0  0  0
  -28.6748  -13.2932   20.9403 C   0  0  0  0  0  0
  -25.2491  -13.8256   20.5773 C   0  0  0  0  0  0
  -24.1784  -13.0452   20.9224 C   0  0  0  0  0  0
  -24.6350  -11.6954   20.8780 C   0  0  0  0  0  0
  -23.9053  -10.4300   21.0425 C   0  0  0  0  0  0
  -24.3589   -9.4217   21.9196 C   0  0  0  0  0  0
  -23.6274   -8.2251   22.0778 C   0  0  0  0  0  0
  -22.4283   -8.0272   21.3567 C   0  0  0  0  0  0
  -21.9875   -9.0260   20.4677 C   0  0  0  0  0  0
  -22.7205  -10.2135   20.3073 C   0  0  0  0  0  0
  -21.6821   -6.0708   22.5290 C   0  0  0  0  0  0
  -21.4034   -6.5639   23.8220 C   0  0  0  0  0  0
  -21.3634   -5.6790   24.9172 C   0  0  0  0  0  0
  -21.6069   -4.3064   24.7230 C   0  0  0  0  0  0
  -21.8796   -3.8133   23.4352 C   0  0  0  0  0  0
  -21.9216   -4.6947   22.3400 C   0  0  0  0  0  0
  -22.7774  -13.5231   21.1871 C   0  0  0  0  0  0
  -22.1669   -4.2141   21.0965 F   0  0  0  0  0  0
  -21.5624   -3.4530   25.7729 F   0  0  0  0  0  0
  -29.9490  -13.6673   20.3316 N   0  0  0  0  0  0
  -26.2855  -12.9409   20.3192 N   0  0  0  0  0  0
  -25.9286  -11.6603   20.5781 N   0  0  0  0  0  0
  -22.0415  -12.8267   22.0429 N   0  0  0  0  0  0
  -25.4190  -15.1926   20.4278 N   0  0  0  0  0  0
  -31.8065  -14.9282   20.2683 O   0  0  0  0  0  0
  -21.6644   -6.8864   21.4264 O   0  0  0  0  0  0
  -22.3483  -14.5530   20.6678 O   0  0  0  0  0  0
  -24.6442  -31.8464   23.1899 C   0  0  0  0  0  0
  -25.9226  -32.4725   23.8299 C   0  0  1  0  0  0
  -27.2460  -27.1847   20.2006 C   0  0  0  0  0  0
  -25.6005  -33.8524   24.2266 N   0  0  0  0  0  0
  -23.4445  -30.4670   21.5330 C   0  0  2  0  0  0
  -24.9017  -28.8904   20.1257 C   0  0  0  0  0  0
  -22.7540  -29.4615   22.4929 C   0  0  0  0  0  0
  -18.0299  -28.1391   22.8502 C   0  0  0  0  0  0
  -24.1471  -36.7212   23.2635 C   0  0  0  0  0  0
  -25.9916  -30.7488   21.3696 C   0  0  0  0  0  0
  -26.0779  -29.3590   20.7285 C   0  0  0  0  0  0
  -27.2548  -28.5316   20.7306 C   0  0  0  0  0  0
  -26.0416  -26.7907   19.5742 C   0  0  0  0  0  0
  -24.8892  -27.6110   19.5435 C   0  0  0  0  0  0
  -23.6713  -29.7854   20.1578 C   0  0  0  0  0  0
  -25.4109  -36.3034   24.0345 C   0  0  1  0  0  0
  -20.5912  -28.3727   23.1227 C   0  0  2  0  0  0
  -20.6792  -26.9436   22.5406 C   0  0  0  0  0  0
  -19.5748  -26.6405   21.5199 C   0  0  0  0  0  0
  -18.1936  -26.7951   22.1608 C   0  0  0  0  0  0
  -19.1551  -28.8882   23.2866 C   0  0  0  0  0  0
  -18.9461  -30.1473   23.8901 C   0  0  0  0  0  0
  -17.6454  -30.6596   24.0574 C   0  0  0  0  0  0
  -25.9061  -34.9442   23.5100 C   0  0  0  0  0  0
  -16.5359  -29.9086   23.6317 C   0  0  0  0  0  0
  -16.7278  -28.6488   23.0381 C   0  0  0  0  0  0
  -26.4574  -31.6569   25.0722 C   0  0  0  0  0  0
  -25.3819  -31.3735   26.1465 C   0  0  0  0  0  0
  -27.0456  -30.2986   24.6250 C   0  0  0  0  0  0
  -27.6111  -32.4334   25.7523 C   0  0  0  0  0  0
  -27.5563  -37.1767   24.8485 C   0  0  0  0  0  0
  -21.4245  -29.3066   22.3616 N   0  0  0  0  0  0
  -26.4269  -37.3747   23.9447 N   0  0  0  0  0  0
  -24.7117  -31.0424   22.0864 N   0  0  0  0  0  0
  -23.4197  -28.8176   23.3097 O   0  0  0  0  0  0
  -28.3587  -26.2836   20.2435 O   0  0  0  0  0  0
  -26.5581  -34.8911   22.4643 O   0  0  0  0  0  0
  -23.5570  -32.1333   23.7175 O   0  0  0  0  0  0
  -30.7670  -21.4141   20.5734 C   0  0  0  0  0  0
  -28.6594  -19.6490   20.8028 C   0  0  0  0  0  0
  -29.4868  -22.0571   20.5370 C   0  0  0  0  0  0
  -29.9523  -19.0171   20.8057 C   0  0  0  0  0  0
  -28.4275  -21.0935   20.6682 C   0  0  0  0  0  0
  -30.9967  -19.9958   20.7090 C   0  0  0  0  0  0
  -29.4057  -23.6771   20.2554 C   0  0  0  0  0  0
  -30.2667  -17.4440   21.2129 C   0  0  0  0  0  0
  -28.2191  -24.7863   20.5958 C   0  0  0  0  0  0
  -29.8468  -16.0855   20.5916 N   0  0  0  0  0  0
  -26.7967  -21.6616   20.7066 Cl  0  0  0  0  0  0
  -32.6491  -19.4932   20.8229 Cl  0  0  0  0  0  0
  -31.4574  -12.7428   19.1002 H   0  0  0  0  0  0
  -30.4450  -11.6317   20.0010 H   0  0  0  0  0  0
  -29.7995  -11.6841   17.5580 H   0  0  0  0  0  0
  -29.5507  -13.4086   17.6292 H   0  0  0  0  0  0
  -27.9644  -11.2404   19.0265 H   0  0  0  0  0  0
  -27.3507  -12.3514   17.8275 H   0  0  0  0  0  0
  -27.5698  -14.2193   19.3503 H   0  0  0  0  0  0
  -28.7726  -12.3385   21.4608 H   0  0  0  0  0  0
  -28.3792  -14.0393   21.6796 H   0  0  0  0  0  0
  -25.2711   -9.5694   22.4786 H   0  0  0  0  0  0
  -23.9987   -7.4639   22.7474 H   0  0  0  0  0  0
  -21.0796   -8.8761   19.8963 H   0  0  0  0  0  0
  -22.3647  -10.9689   19.6184 H   0  0  0  0  0  0
  -21.2022   -7.6148   23.9718 H   0  0  0  0  0  0
  -21.1476   -6.0517   25.9083 H   0  0  0  0  0  0
  -22.0591   -2.7598   23.2846 H   0  0  0  0  0  0
  -22.4065  -11.9928   22.4815 H   0  0  0  0  0  0
  -21.1033  -13.1332   22.2671 H   0  0  0  0  0  0
  -24.6575  -15.8488   20.5634 H   0  0  0  0  0  0
  -26.2803  -15.6415   20.1503 H   0  0  0  0  0  0
  -26.7347  -32.5370   23.1084 H   0  0  0  0  0  0
  -25.0316  -33.9634   25.0522 H   0  0  0  0  0  0
  -22.7473  -31.2951   21.3767 H   0  0  0  0  0  0
  -23.3751  -35.9512   23.3289 H   0  0  0  0  0  0
  -24.3564  -36.8800   22.2042 H   0  0  0  0  0  0
  -23.7188  -37.6417   23.6614 H   0  0  0  0  0  0
  -26.1279  -31.5040   20.5939 H   0  0  0  0  0  0
  -26.8658  -30.8113   22.0026 H   0  0  0  0  0  0
  -28.1527  -28.8989   21.2100 H   0  0  0  0  0  0
  -25.9723  -25.8028   19.1363 H   0  0  0  0  0  0
  -23.9819  -27.2330   19.0855 H   0  0  0  0  0  0
  -23.8025  -30.5548   19.3948 H   0  0  0  0  0  0
  -22.7811  -29.2278   19.8556 H   0  0  0  0  0  0
  -25.1280  -36.1864   25.0829 H   0  0  0  0  0  0
  -21.0022  -28.3287   24.1337 H   0  0  0  0  0  0
  -20.5648  -26.2341   23.3630 H   0  0  0  0  0  0
  -21.6668  -26.7442   22.1195 H   0  0  0  0  0  0
  -19.6904  -25.6299   21.1275 H   0  0  0  0  0  0
  -19.6676  -27.3197   20.6716 H   0  0  0  0  0  0
  -17.4220  -26.6743   21.3983 H   0  0  0  0  0  0
  -18.0278  -26.0075   22.8955 H   0  0  0  0  0  0
  -19.7937  -30.7275   24.2293 H   0  0  0  0  0  0
  -17.5013  -31.6266   24.5191 H   0  0  0  0  0  0
  -15.5359  -30.2999   23.7640 H   0  0  0  0  0  0
  -15.8678  -28.0796   22.7126 H   0  0  0  0  0  0
  -24.6000  -30.7046   25.7833 H   0  0  0  0  0  0
  -24.9014  -32.2913   26.4861 H   0  0  0  0  0  0
  -25.8184  -30.8972   27.0261 H   0  0  0  0  0  0
  -26.3064  -29.6709   24.1254 H   0  0  0  0  0  0
  -27.4113  -29.7270   25.4793 H   0  0  0  0  0  0
  -27.8942  -30.4252   23.9529 H   0  0  0  0  0  0
  -27.2686  -33.3622   26.2088 H   0  0  0  0  0  0
  -28.3941  -32.6922   25.0388 H   0  0  0  0  0  0
  -28.0778  -31.8500   26.5465 H   0  0  0  0  0  0
  -28.2625  -38.0004   24.7517 H   0  0  0  0  0  0
  -28.1008  -36.2580   24.6334 H   0  0  0  0  0  0
  -27.2303  -37.1457   25.8879 H   0  0  0  0  0  0
  -20.9435  -29.8706   21.6746 H   0  0  0  0  0  0
  -26.0142  -38.2815   24.1411 H   0  0  0  0  0  0
  -31.6385  -22.0557   20.5146 H   0  0  0  0  0  0
  -27.7918  -19.0172   20.9576 H   0  0  0  0  0  0
  -29.5652  -23.7572   19.1788 H   0  0  0  0  0  0
  -30.3070  -24.0834   20.7246 H   0  0  0  0  0  0
  -29.7315  -17.3742   22.1578 H   0  0  0  0  0  0
  -31.3208  -17.3437   21.4834 H   0  0  0  0  0  0
  -27.2978  -24.4074   20.1677 H   0  0  0  0  0  0
  -28.0951  -24.7705   21.6817 H   0  0  0  0  0  0
  -28.8428  -15.9410   20.5439 H   0  0  0  0  0  0
  1 25  1  0  0  0
  1 30  2  0  0  0
  1 80  1  0  0  0
  2  3  1  0  0  0
  2 25  1  0  0  0
  2 83  1  0  0  0
  2 84  1  0  0  0
  3  4  1  0  0  0
  3 85  1  0  0  0
  3 86  1  0  0  0
  4  5  1  0  0  0
  4 87  1  0  0  0
  4 88  1  0  0  0
  5  6  1  0  0  0
  5 26  1  0  0  0
  5 89  1  0  0  0
  6 25  1  0  0  0
  6 90  1  0  0  0
  6 91  1  0  0  0
  7  8  2  0  0  0
  7 26  1  0  0  0
  7 29  1  0  0  0
  8  9  1  0  0  0
  8 22  1  0  0  0
  9 10  1  0  0  0
  9 27  2  0  0  0
 10 11  2  0  0  0
 10 15  1  0  0  0
 11 12  1  0  0  0
 11 92  1  0  0  0
 12 13  2  0  0  0
 12 93  1  0  0  0
 13 14  1  0  0  0
 13 31  1  0  0  0
 14 15  2  0  0  0
 14 94  1  0  0  0
 15 95  1  0  0  0
 16 17  2  0  0  0
 16 21  1  0  0  0
 16 31  1  0  0  0
 17 18  1  0  0  0
 17 96  1  0  0  0
 18 19  2  0  0  0
 18 97  1  0  0  0
 19 20  1  0  0  0
 19 24  1  0  0  0
 20 21  2  0  0  0
 20 98  1  0  0  0
 21 23  1  0  0  0
 22 28  1  0  0  0
 22 32  2  0  0  0
 26 27  1  0  0  0
 28 99  1  0  0  0
 28100  1  0  0  0
 29101  1  0  0  0
 29102  1  0  0  0
 33 34  1  0  0  0
 33 66  1  0  0  0
 33 70  2  0  0  0
 34 36  1  0  0  0
 34 59  1  0  0  0
 34103  1  0  0  0
 35 44  2  0  0  0
 35 45  1  0  0  0
 35 68  1  0  0  0
 36 56  1  0  0  0
 36104  1  0  0  0
 37 39  1  0  0  0
 37 47  1  0  0  0
 37 66  1  0  0  0
 37105  1  0  0  0
 38 43  2  0  0  0
 38 46  1  0  0  0
 38 47  1  0  0  0
 39 64  1  0  0  0
 39 67  2  0  0  0
 40 52  1  0  0  0
 40 53  2  0  0  0
 40 58  1  0  0  0
 41106  1  0  0  0
 41107  1  0  0  0
 41108  1  0  0  0
 41 48  1  0  0  0
 42 43  1  0  0  0
 42 66  1  0  0  0
 42109  1  0  0  0
 42110  1  0  0  0
 43 44  1  0  0  0
 44111  1  0  0  0
 45 46  2  0  0  0
 45112  1  0  0  0
 46113  1  0  0  0
 47114  1  0  0  0
 47115  1  0  0  0
 48 56  1  0  0  0
 48 65  1  0  0  0
 48116  1  0  0  0
 49 50  1  0  0  0
 49 53  1  0  0  0
 49 64  1  0  0  0
 49117  1  0  0  0
 50 51  1  0  0  0
 50118  1  0  0  0
 50119  1  0  0  0
 51 52  1  0  0  0
 51120  1  0  0  0
 51121  1  0  0  0
 52122  1  0  0  0
 52123  1  0  0  0
 53 54  1  0  0  0
 54 55  2  0  0  0
 54124  1  0  0  0
 55 57  1  0  0  0
 55125  1  0  0  0
 56 69  2  0  0  0
 57 58  2  0  0  0
 57126  1  0  0  0
 58127  1  0  0  0
 59 60  1  0  0  0
 59 61  1  0  0  0
 59 62  1  0  0  0
 60128  1  0  0  0
 60129  1  0  0  0
 60130  1  0  0  0
 61131  1  0  0  0
 61132  1  0  0  0
 61133  1  0  0  0
 62134  1  0  0  0
 62135  1  0  0  0
 62136  1  0  0  0
 63 65  1  0  0  0
 63137  1  0  0  0
 63138  1  0  0  0
 63139  1  0  0  0
 64140  1  0  0  0
 65141  1  0  0  0
 68 79  1  0  0  0
 71 73  2  0  0  0
 71 76  1  0  0  0
 71142  1  0  0  0
 72 74  1  0  0  0
 72 75  2  0  0  0
 72143  1  0  0  0
 73 75  1  0  0  0
 73 77  1  0  0  0
 74 76  2  0  0  0
 74 78  1  0  0  0
 75 81  1  0  0  0
 76 82  1  0  0  0
 77 79  1  0  0  0
 77144  1  0  0  0
 77145  1  0  0  0
 78 80  1  0  0  0
 78146  1  0  0  0
 78147  1  0  0  0
 79148  1  0  0  0
 79149  1  0  0  0
 80150  1  0  0  0
M  ISO  4   1 100  68 101  79 101  80 100
M  END
> <chiral flag>
0

> <version>
0

> <s_m_source_file>
/data/baiqing/PycharmProjects/Reinvent-master-3.2/result/LINK_invent/BTK/process_docking_weight1_custom_sum_contain_oxygen_bond_distance_aromatic_linkinvent_7_9_3/rearranged_h_0030.sdf

> <i_m_source_file_index>
84

> <r_mmod_Potential_Energy-OPLS-2005>
374.754852294922

> <r_mmod_Stretch_Energy-OPLS-2005>
199.72770690918

> <r_mmod_Bend_Energy-OPLS-2005>
256.817016601562

> <r_mmod_Torsional_Energy-OPLS-2005>
230.235488891602

> <r_mmod_Improper_Torsional_Energy-OPLS-2005>
6.81293201446533

> <r_mmod_Van_der_Waal_Energy-OPLS-2005>
129.319915771484

> <r_mmod_Electrostatic_Energy-OPLS-2005>
-391.130706787109

> <r_mmod_Solvation_Energy-OPLS-2005>
-215.869079589844

> <b_mmod_Minimization_Converged-OPLS-2005>
0

> <r_mmod_RMS_Derivative-OPLS-2005>
12.9325256347656

$$$$
84
                    3D
 Structure written by MMmdl.
165173  0  0  1  0            999 V2000
  -30.6674  -14.5310   20.5533 C   0  0  0  0  0  0
  -30.4355  -12.3467   19.4223 C   0  0  0  0  0  0
  -29.5052  -12.5156   18.2035 C   0  0  0  0  0  0
  -28.0229  -12.3759   18.6092 C   0  0  0  0  0  0
  -27.6598  -13.2116   19.8663 C   0  0  2  0  0  0
  -28.7032  -13.0110   20.9875 C   0  0  0  0  0  0
  -25.2592  -13.8172   20.5649 C   0  0  0  0  0  0
  -24.1856  -13.0438   20.9179 C   0  0  0  0  0  0
  -24.6422  -11.6915   20.8730 C   0  0  0  0  0  0
  -23.9089  -10.4298   21.0373 C   0  0  0  0  0  0
  -24.3644   -9.4208   21.9141 C   0  0  0  0  0  0
  -23.6323   -8.2249   22.0725 C   0  0  0  0  0  0
  -22.4303   -8.0286   21.3525 C   0  0  0  0  0  0
  -21.9942   -9.0255   20.4622 C   0  0  0  0  0  0
  -22.7270  -10.2128   20.3018 C   0  0  0  0  0  0
  -21.6853   -6.0761   22.5265 C   0  0  0  0  0  0
  -21.4014   -6.5642   23.8199 C   0  0  0  0  0  0
  -21.3664   -5.6778   24.9157 C   0  0  0  0  0  0
  -21.6042   -4.3050   24.7197 C   0  0  0  0  0  0
  -21.8829   -3.8153   23.4308 C   0  0  0  0  0  0
  -21.9206   -4.6983   22.3383 C   0  0  0  0  0  0
  -22.7864  -13.5210   21.1840 C   0  0  0  0  0  0
  -22.1661   -4.2172   21.0960 F   0  0  0  0  0  0
  -21.5637   -3.4526   25.7705 F   0  0  0  0  0  0
  -30.0262  -13.3355   20.4295 N   0  0  0  0  0  0
  -26.3022  -12.9345   20.3302 N   0  0  0  0  0  0
  -25.9344  -11.6504   20.5731 N   0  0  0  0  0  0
  -22.0514  -12.8206   22.0401 N   0  0  0  0  0  0
  -25.4270  -15.1902   20.4061 N   0  0  0  0  0  0
  -31.8173  -14.7182   20.1464 O   0  0  0  0  0  0
  -21.6639   -6.8901   21.4235 O   0  0  0  0  0  0
  -22.3539  -14.5501   20.6671 O   0  0  0  0  0  0
  -24.6196  -31.8645   23.2099 C   0  0  0  0  0  0
  -25.9051  -32.4818   23.8423 C   0  0  1  0  0  0
  -27.2207  -27.3851   20.0989 C   0  0  0  0  0  0
  -25.5904  -33.8635   24.2330 N   0  0  0  0  0  0
  -23.4116  -30.4851   21.5575 C   0  0  2  0  0  0
  -24.8471  -28.9411   20.1272 C   0  0  0  0  0  0
  -22.7448  -29.4624   22.5057 C   0  0  0  0  0  0
  -18.0292  -28.1372   22.8530 C   0  0  0  0  0  0
  -24.1476  -36.7304   23.2640 C   0  0  0  0  0  0
  -25.9431  -30.8108   21.3662 C   0  0  0  0  0  0
  -26.0128  -29.4384   20.7205 C   0  0  0  0  0  0
  -27.2025  -28.6686   20.7029 C   0  0  0  0  0  0
  -26.0346  -26.9146   19.4968 C   0  0  0  0  0  0
  -24.8529  -27.6779   19.5146 C   0  0  0  0  0  0
  -23.6168  -29.8177   20.1731 C   0  0  0  0  0  0
  -25.4104  -36.3125   24.0337 C   0  0  1  0  0  0
  -20.5880  -28.3651   23.1352 C   0  0  2  0  0  0
  -20.6783  -26.9397   22.5441 C   0  0  0  0  0  0
  -19.5748  -26.6371   21.5252 C   0  0  0  0  0  0
  -18.1925  -26.7930   22.1651 C   0  0  0  0  0  0
  -19.1543  -28.8832   23.2920 C   0  0  0  0  0  0
  -18.9471  -30.1454   23.8897 C   0  0  0  0  0  0
  -17.6479  -30.6582   24.0585 C   0  0  0  0  0  0
  -25.9044  -34.9470   23.5124 C   0  0  0  0  0  0
  -16.5356  -29.9084   23.6341 C   0  0  0  0  0  0
  -16.7282  -28.6509   23.0363 C   0  0  0  0  0  0
  -26.4459  -31.6608   25.0770 C   0  0  0  0  0  0
  -25.3741  -31.3681   26.1536 C   0  0  0  0  0  0
  -27.0269  -30.3079   24.6075 C   0  0  0  0  0  0
  -27.6050  -32.4312   25.7522 C   0  0  0  0  0  0
  -27.5567  -37.1813   24.8481 C   0  0  0  0  0  0
  -21.4181  -29.3005   22.3761 N   0  0  0  0  0  0
  -26.4279  -37.3814   23.9429 N   0  0  0  0  0  0
  -24.6787  -31.0693   22.1034 N   0  0  0  0  0  0
  -23.4204  -28.8169   23.3108 O   0  0  0  0  0  0
  -28.3914  -26.6461   20.0183 O   0  0  0  0  0  0
  -26.5615  -34.8921   22.4698 O   0  0  0  0  0  0
  -23.5365  -32.1392   23.7453 O   0  0  0  0  0  0
  -28.8511  -21.7296   20.1831 C   0  0  0  0  0  0
  -28.8142  -22.9833   19.5152 C   0  0  0  0  0  0
  -29.5212  -20.5892   19.6655 C   0  0  0  0  0  0
  -29.5150  -23.1141   18.2876 C   0  0  0  0  0  0
  -30.2332  -21.9998   17.7613 C   0  0  0  0  0  0
  -30.2199  -20.7412   18.4317 C   0  0  0  0  0  0
  -29.4319  -24.4100   17.4831 C   0  0  0  0  0  0
  -30.1275  -21.7050   15.2263 C   0  0  0  0  0  0
  -27.8661  -24.0867   20.0461 C   0  0  0  0  0  0
  -29.3541  -19.2638   20.4733 C   0  0  0  0  0  0
  -30.9845  -22.1247   16.4275 C   0  0  0  0  0  0
  -30.2199  -17.9881   20.1884 C   0  0  0  0  0  0
  -30.2917  -16.9361   21.3430 C   0  0  0  0  0  0
  -28.4624  -25.3750   20.7156 C   0  0  0  0  0  0
  -29.9049  -15.5459   21.0131 N   0  0  0  0  0  0
  -31.0278  -19.4098   17.6669 Cl  0  0  0  0  0  0
  -31.4776  -12.4722   19.1232 H   0  0  0  0  0  0
  -30.3606  -11.3384   19.8320 H   0  0  0  0  0  0
  -29.7560  -11.7803   17.4389 H   0  0  0  0  0  0
  -29.6710  -13.4943   17.7478 H   0  0  0  0  0  0
  -27.8302  -11.3200   18.7964 H   0  0  0  0  0  0
  -27.3803  -12.6613   17.7749 H   0  0  0  0  0  0
  -27.6961  -14.2583   19.5662 H   0  0  0  0  0  0
  -28.6982  -11.9795   21.3422 H   0  0  0  0  0  0
  -28.4595  -13.6222   21.8578 H   0  0  0  0  0  0
  -25.2808   -9.5664   22.4694 H   0  0  0  0  0  0
  -24.0044   -7.4625   22.7424 H   0  0  0  0  0  0
  -21.0881   -8.8774   19.8920 H   0  0  0  0  0  0
  -22.3747  -10.9665   19.6108 H   0  0  0  0  0  0
  -21.1985   -7.6143   23.9712 H   0  0  0  0  0  0
  -21.1479   -6.0497   25.9058 H   0  0  0  0  0  0
  -22.0616   -2.7624   23.2785 H   0  0  0  0  0  0
  -22.4174  -11.9928   22.4873 H   0  0  0  0  0  0
  -21.1075  -13.1134   22.2509 H   0  0  0  0  0  0
  -24.6512  -15.8356   20.5019 H   0  0  0  0  0  0
  -26.2694  -15.6381   20.0656 H   0  0  0  0  0  0
  -26.7150  -32.5484   23.1199 H   0  0  0  0  0  0
  -25.0121  -33.9828   25.0521 H   0  0  0  0  0  0
  -22.7053  -31.3061   21.4221 H   0  0  0  0  0  0
  -23.3731  -35.9646   23.3332 H   0  0  0  0  0  0
  -24.3591  -36.8874   22.2053 H   0  0  0  0  0  0
  -23.7196  -37.6499   23.6653 H   0  0  0  0  0  0
  -26.0559  -31.5631   20.5847 H   0  0  0  0  0  0
  -26.8337  -30.8699   21.9812 H   0  0  0  0  0  0
  -28.1068  -29.0556   21.1497 H   0  0  0  0  0  0
  -26.0016  -25.9713   18.9806 H   0  0  0  0  0  0
  -23.9589  -27.2909   19.0431 H   0  0  0  0  0  0
  -23.7407  -30.5958   19.4196 H   0  0  0  0  0  0
  -22.7368  -29.2455   19.8722 H   0  0  0  0  0  0
  -25.1263  -36.2008   25.0825 H   0  0  0  0  0  0
  -20.9951  -28.3198   24.1481 H   0  0  0  0  0  0
  -20.5738  -26.2252   23.3619 H   0  0  0  0  0  0
  -21.6647  -26.7471   22.1197 H   0  0  0  0  0  0
  -19.6915  -25.6289   21.1264 H   0  0  0  0  0  0
  -19.6682  -27.3202   20.6803 H   0  0  0  0  0  0
  -17.4214  -26.6713   21.4038 H   0  0  0  0  0  0
  -18.0295  -26.0063   22.9026 H   0  0  0  0  0  0
  -19.7954  -30.7289   24.2218 H   0  0  0  0  0  0
  -17.5034  -31.6270   24.5172 H   0  0  0  0  0  0
  -15.5360  -30.2987   23.7657 H   0  0  0  0  0  0
  -15.8691  -28.0827   22.7043 H   0  0  0  0  0  0
  -24.5983  -30.6932   25.7915 H   0  0  0  0  0  0
  -24.8842  -32.2790   26.4991 H   0  0  0  0  0  0
  -25.8119  -30.8919   27.0313 H   0  0  0  0  0  0
  -26.2776  -29.6915   24.1092 H   0  0  0  0  0  0
  -27.4045  -29.7256   25.4478 H   0  0  0  0  0  0
  -27.8633  -30.4468   23.9217 H   0  0  0  0  0  0
  -27.2714  -33.3648   26.2067 H   0  0  0  0  0  0
  -28.3862  -32.6769   25.0328 H   0  0  0  0  0  0
  -28.0710  -31.8444   26.5443 H   0  0  0  0  0  0
  -28.2588  -38.0106   24.7508 H   0  0  0  0  0  0
  -28.1025  -36.2618   24.6304 H   0  0  0  0  0  0
  -27.2298  -37.1454   25.8890 H   0  0  0  0  0  0
  -20.9360  -29.8732   21.6974 H   0  0  0  0  0  0
  -26.0151  -38.2885   24.1450 H   0  0  0  0  0  0
  -28.2866  -21.6180   21.0981 H   0  0  0  0  0  0
  -28.9270  -25.2215   17.9988 H   0  0  0  0  0  0
  -28.8742  -24.2238   16.5644 H   0  0  0  0  0  0
  -30.4154  -24.7988   17.2217 H   0  0  0  0  0  0
  -30.6831  -21.8040   14.2947 H   0  0  0  0  0  0
  -29.2373  -22.3292   15.1464 H   0  0  0  0  0  0
  -29.8130  -20.6640   15.3133 H   0  0  0  0  0  0
  -27.2259  -23.6196   20.7952 H   0  0  0  0  0  0
  -27.1862  -24.3259   19.2350 H   0  0  0  0  0  0
  -28.3051  -18.9738   20.3840 H   0  0  0  0  0  0
  -29.4894  -19.5294   21.5219 H   0  0  0  0  0  0
  -31.8979  -21.5310   16.4461 H   0  0  0  0  0  0
  -31.3557  -23.1342   16.2671 H   0  0  0  0  0  0
  -31.2492  -18.3155   20.0394 H   0  0  0  0  0  0
  -29.8949  -17.5165   19.2597 H   0  0  0  0  0  0
  -29.6556  -17.2609   22.1662 H   0  0  0  0  0  0
  -31.3029  -16.9272   21.7552 H   0  0  0  0  0  0
  -29.5083  -25.1929   20.9628 H   0  0  0  0  0  0
  -27.9823  -25.5082   21.6862 H   0  0  0  0  0  0
  -28.9611  -15.2871   21.2635 H   0  0  0  0  0  0
  1 25  1  0  0  0
  1 30  2  0  0  0
  1 85  1  0  0  0
  2  3  1  0  0  0
  2 25  1  0  0  0
  2 87  1  0  0  0
  2 88  1  0  0  0
  3  4  1  0  0  0
  3 89  1  0  0  0
  3 90  1  0  0  0
  4  5  1  0  0  0
  4 91  1  0  0  0
  4 92  1  0  0  0
  5  6  1  0  0  0
  5 26  1  0  0  0
  5 93  1  0  0  0
  6 25  1  0  0  0
  6 94  1  0  0  0
  6 95  1  0  0  0
  7  8  2  0  0  0
  7 26  1  0  0  0
  7 29  1  0  0  0
  8  9  1  0  0  0
  8 22  1  0  0  0
  9 10  1  0  0  0
  9 27  2  0  0  0
 10 11  2  0  0  0
 10 15  1  0  0  0
 11 12  1  0  0  0
 11 96  1  0  0  0
 12 13  2  0  0  0
 12 97  1  0  0  0
 13 14  1  0  0  0
 13 31  1  0  0  0
 14 15  2  0  0  0
 14 98  1  0  0  0
 15 99  1  0  0  0
 16 17  2  0  0  0
 16 21  1  0  0  0
 16 31  1  0  0  0
 17 18  1  0  0  0
 17100  1  0  0  0
 18 19  2  0  0  0
 18101  1  0  0  0
 19 20  1  0  0  0
 19 24  1  0  0  0
 20 21  2  0  0  0
 20102  1  0  0  0
 21 23  1  0  0  0
 22 28  1  0  0  0
 22 32  2  0  0  0
 26 27  1  0  0  0
 28103  1  0  0  0
 28104  1  0  0  0
 29105  1  0  0  0
 29106  1  0  0  0
 33 34  1  0  0  0
 33 66  1  0  0  0
 33 70  2  0  0  0
 34 36  1  0  0  0
 34 59  1  0  0  0
 34107  1  0  0  0
 35 44  2  0  0  0
 35 45  1  0  0  0
 35 68  1  0  0  0
 36 56  1  0  0  0
 36108  1  0  0  0
 37 39  1  0  0  0
 37 47  1  0  0  0
 37 66  1  0  0  0
 37109  1  0  0  0
 38 43  2  0  0  0
 38 46  1  0  0  0
 38 47  1  0  0  0
 39 64  1  0  0  0
 39 67  2  0  0  0
 40 52  1  0  0  0
 40 53  2  0  0  0
 40 58  1  0  0  0
 41110  1  0  0  0
 41111  1  0  0  0
 41112  1  0  0  0
 41 48  1  0  0  0
 42 43  1  0  0  0
 42 66  1  0  0  0
 42113  1  0  0  0
 42114  1  0  0  0
 43 44  1  0  0  0
 44115  1  0  0  0
 45 46  2  0  0  0
 45116  1  0  0  0
 46117  1  0  0  0
 47118  1  0  0  0
 47119  1  0  0  0
 48 56  1  0  0  0
 48 65  1  0  0  0
 48120  1  0  0  0
 49 50  1  0  0  0
 49 53  1  0  0  0
 49 64  1  0  0  0
 49121  1  0  0  0
 50 51  1  0  0  0
 50122  1  0  0  0
 50123  1  0  0  0
 51 52  1  0  0  0
 51124  1  0  0  0
 51125  1  0  0  0
 52126  1  0  0  0
 52127  1  0  0  0
 53 54  1  0  0  0
 54 55  2  0  0  0
 54128  1  0  0  0
 55 57  1  0  0  0
 55129  1  0  0  0
 56 69  2  0  0  0
 57 58  2  0  0  0
 57130  1  0  0  0
 58131  1  0  0  0
 59 60  1  0  0  0
 59 61  1  0  0  0
 59 62  1  0  0  0
 60132  1  0  0  0
 60133  1  0  0  0
 60134  1  0  0  0
 61135  1  0  0  0
 61136  1  0  0  0
 61137  1  0  0  0
 62138  1  0  0  0
 62139  1  0  0  0
 62140  1  0  0  0
 63 65  1  0  0  0
 63141  1  0  0  0
 63142  1  0  0  0
 63143  1  0  0  0
 64144  1  0  0  0
 65145  1  0  0  0
 68 84  1  0  0  0
 71 72  2  0  0  0
 71 73  1  0  0  0
 71146  1  0  0  0
 72 74  1  0  0  0
 72 79  1  0  0  0
 73 76  2  0  0  0
 73 80  1  0  0  0
 74 75  2  0  0  0
 74 77  1  0  0  0
 75 76  1  0  0  0
 75 81  1  0  0  0
 76 86  1  0  0  0
 77147  1  0  0  0
 77148  1  0  0  0
 77149  1  0  0  0
 78 81  1  0  0  0
 78150  1  0  0  0
 78151  1  0  0  0
 78152  1  0  0  0
 79 84  1  0  0  0
 79153  1  0  0  0
 79154  1  0  0  0
 80 82  1  0  0  0
 80155  1  0  0  0
 80156  1  0  0  0
 81157  1  0  0  0
 81158  1  0  0  0
 82 83  1  0  0  0
 82159  1  0  0  0
 82160  1  0  0  0
 83 85  1  0  0  0
 83161  1  0  0  0
 83162  1  0  0  0
 84163  1  0  0  0
 84164  1  0  0  0
 85165  1  0  0  0
M  ISO  4   1 100  68 101  84 101  85 100
M  END
> <chiral flag>
0

> <version>
0

> <s_m_source_file>
/data/baiqing/PycharmProjects/Reinvent-master-3.2/result/LINK_invent/BTK/process_docking_weight1_custom_sum_contain_oxygen_bond_distance_aromatic_linkinvent_7_9_3/rearranged_h_0030.sdf

> <i_m_source_file_index>
85

> <r_mmod_Potential_Energy-OPLS-2005>
54.6361274719238

> <r_mmod_Stretch_Energy-OPLS-2005>
53.1783981323242

> <r_mmod_Bend_Energy-OPLS-2005>
133.212509155273

> <r_mmod_Torsional_Energy-OPLS-2005>
245.595306396484

> <r_mmod_Improper_Torsional_Energy-OPLS-2005>
4.87992715835571

> <r_mmod_Van_der_Waal_Energy-OPLS-2005>
164.248413085938

> <r_mmod_Electrostatic_Energy-OPLS-2005>
-362.714385986328

> <r_mmod_Solvation_Energy-OPLS-2005>
-204.229965209961

> <b_mmod_Minimization_Converged-OPLS-2005>
0

> <r_mmod_RMS_Derivative-OPLS-2005>
3.67373776435852

$$$$
85
                    3D
 Structure written by MMmdl.
168177  0  0  1  0            999 V2000
  -30.6859  -14.4751   20.5709 C   0  0  0  0  0  0
  -30.4329  -12.3115   19.4243 C   0  0  0  0  0  0
  -29.4908  -12.4714   18.2113 C   0  0  0  0  0  0
  -28.0057  -12.3564   18.6203 C   0  0  0  0  0  0
  -27.6517  -13.2061   19.8703 C   0  0  2  0  0  0
  -28.6964  -13.0103   20.9947 C   0  0  0  0  0  0
  -25.2488  -13.8108   20.5633 C   0  0  0  0  0  0
  -24.1730  -13.0429   20.9164 C   0  0  0  0  0  0
  -24.6302  -11.6893   20.8740 C   0  0  0  0  0  0
  -23.9000  -10.4306   21.0437 C   0  0  0  0  0  0
  -24.3558   -9.4215   21.9220 C   0  0  0  0  0  0
  -23.6283   -8.2229   22.0740 C   0  0  0  0  0  0
  -22.4252   -8.0256   21.3544 C   0  0  0  0  0  0
  -21.9901   -9.0218   20.4642 C   0  0  0  0  0  0
  -22.7178  -10.2121   20.3090 C   0  0  0  0  0  0
  -21.6822   -6.0727   22.5273 C   0  0  0  0  0  0
  -21.3974   -6.5642   23.8200 C   0  0  0  0  0  0
  -21.3668   -5.6785   24.9180 C   0  0  0  0  0  0
  -21.6062   -4.3051   24.7216 C   0  0  0  0  0  0
  -21.8826   -3.8143   23.4341 C   0  0  0  0  0  0
  -21.9195   -4.6976   22.3400 C   0  0  0  0  0  0
  -22.7772  -13.5268   21.1880 C   0  0  0  0  0  0
  -22.1670   -4.2171   21.0976 F   0  0  0  0  0  0
  -21.5641   -3.4526   25.7736 F   0  0  0  0  0  0
  -30.0207  -13.2993   20.4312 N   0  0  0  0  0  0
  -26.2934  -12.9303   20.3398 N   0  0  0  0  0  0
  -25.9238  -11.6456   20.5767 N   0  0  0  0  0  0
  -22.0396  -12.8270   22.0433 N   0  0  0  0  0  0
  -25.4253  -15.1767   20.3897 N   0  0  0  0  0  0
  -31.8493  -14.6369   20.2115 O   0  0  0  0  0  0
  -21.6599   -6.8855   21.4222 O   0  0  0  0  0  0
  -22.3496  -14.5624   20.6800 O   0  0  0  0  0  0
  -24.6184  -31.8768   23.2177 C   0  0  0  0  0  0
  -25.9118  -32.4829   23.8437 C   0  0  1  0  0  0
  -27.1638  -27.3875   20.0712 C   0  0  0  0  0  0
  -25.5973  -33.8622   24.2345 N   0  0  0  0  0  0
  -23.4016  -30.5109   21.5681 C   0  0  2  0  0  0
  -24.8286  -29.0059   20.1022 C   0  0  0  0  0  0
  -22.7433  -29.4725   22.5064 C   0  0  0  0  0  0
  -18.0317  -28.1245   22.8646 C   0  0  0  0  0  0
  -24.1508  -36.7317   23.2630 C   0  0  0  0  0  0
  -25.9446  -30.8153   21.3892 C   0  0  0  0  0  0
  -26.0011  -29.4548   20.7270 C   0  0  0  0  0  0
  -27.1716  -28.6503   20.7220 C   0  0  0  0  0  0
  -25.9787  -27.0326   19.3653 C   0  0  0  0  0  0
  -24.8168  -27.7954   19.4180 C   0  0  0  0  0  0
  -23.6028  -29.8754   20.1692 C   0  0  0  0  0  0
  -25.4122  -36.3093   24.0333 C   0  0  1  0  0  0
  -20.5897  -28.3573   23.1075 C   0  0  2  0  0  0
  -20.6776  -26.9398   22.4999 C   0  0  0  0  0  0
  -19.5528  -26.6259   21.5068 C   0  0  0  0  0  0
  -18.1924  -26.7646   22.1986 C   0  0  0  0  0  0
  -19.1595  -28.8779   23.2820 C   0  0  0  0  0  0
  -18.9568  -30.1435   23.8817 C   0  0  0  0  0  0
  -17.6603  -30.6589   24.0537 C   0  0  0  0  0  0
  -25.9046  -34.9467   23.5124 C   0  0  0  0  0  0
  -16.5479  -29.9014   23.6406 C   0  0  0  0  0  0
  -16.7326  -28.6361   23.0506 C   0  0  0  0  0  0
  -26.4523  -31.6581   25.0755 C   0  0  0  0  0  0
  -25.3785  -31.3711   26.1492 C   0  0  0  0  0  0
  -27.0341  -30.3009   24.6140 C   0  0  0  0  0  0
  -27.6080  -32.4294   25.7545 C   0  0  0  0  0  0
  -27.5578  -37.1838   24.8468 C   0  0  0  0  0  0
  -21.4182  -29.3021   22.3653 N   0  0  0  0  0  0
  -26.4289  -37.3786   23.9402 N   0  0  0  0  0  0
  -24.6745  -31.0851   22.1119 N   0  0  0  0  0  0
  -23.4187  -28.8277   23.3128 O   0  0  0  0  0  0
  -28.2266  -26.4913   20.1633 O   0  0  0  0  0  0
  -26.5587  -34.8912   22.4666 O   0  0  0  0  0  0
  -23.5376  -32.1554   23.7573 O   0  0  0  0  0  0
  -27.8667  -21.0892   21.3275 C   0  0  0  0  0  0
  -27.5223  -19.7682   21.7311 C   0  0  0  0  0  0
  -26.2577  -19.2800   21.3304 C   0  0  0  0  0  0
  -27.2221  -21.5773   20.1793 C   0  0  0  0  0  0
  -25.5748  -19.9514   20.3024 C   0  0  0  0  0  0
  -27.8643  -22.6989   19.3816 C   0  0  0  0  0  0
  -28.4716  -23.5179   21.7176 C   0  0  0  0  0  0
  -28.8162  -22.0388   22.0762 C   0  0  1  0  0  0
  -28.5448  -23.8363   20.2073 C   0  0  1  0  0  0
  -24.2408  -19.4385   19.7873 C   0  0  0  0  0  0
  -28.6996  -21.9153   23.6098 C   0  0  0  0  0  0
  -28.5224  -18.7933   22.3613 C   0  0  0  0  0  0
  -27.8359  -25.1411   19.7920 C   0  0  0  0  0  0
  -28.8809  -17.6841   21.3188 C   0  0  0  0  0  0
  -29.6471  -16.4142   21.7823 C   0  0  0  0  0  0
  -26.0955  -21.0290   19.6721 N   0  0  0  0  0  0
  -29.8811  -15.5479   20.6201 N   0  0  0  0  0  0
  -25.5625  -17.8817   22.0715 Cl  0  0  0  0  0  0
  -31.4666  -12.4599   19.1039 H   0  0  0  0  0  0
  -30.3913  -11.2990   19.8316 H   0  0  0  0  0  0
  -29.7278  -11.7198   17.4594 H   0  0  0  0  0  0
  -29.6558  -13.4385   17.7392 H   0  0  0  0  0  0
  -27.7971  -11.3044   18.8116 H   0  0  0  0  0  0
  -27.3536  -12.6472   17.7930 H   0  0  0  0  0  0
  -27.6771  -14.2493   19.5577 H   0  0  0  0  0  0
  -28.6590  -11.9879   21.3790 H   0  0  0  0  0  0
  -28.4849  -13.6608   21.8464 H   0  0  0  0  0  0
  -25.2682   -9.5698   22.4797 H   0  0  0  0  0  0
  -24.0029   -7.4598   22.7413 H   0  0  0  0  0  0
  -21.0879   -8.8722   19.8907 H   0  0  0  0  0  0
  -22.3649  -10.9678   19.6208 H   0  0  0  0  0  0
  -21.1909   -7.6122   23.9735 H   0  0  0  0  0  0
  -21.1502   -6.0494   25.9093 H   0  0  0  0  0  0
  -22.0599   -2.7611   23.2819 H   0  0  0  0  0  0
  -22.4023  -11.9979   22.4886 H   0  0  0  0  0  0
  -21.0977  -13.1267   22.2554 H   0  0  0  0  0  0
  -24.7072  -15.8594   20.5997 H   0  0  0  0  0  0
  -26.3239  -15.5929   20.1826 H   0  0  0  0  0  0
  -26.7203  -32.5497   23.1211 H   0  0  0  0  0  0
  -25.0233  -33.9796   25.0569 H   0  0  0  0  0  0
  -22.6847  -31.3265   21.4481 H   0  0  0  0  0  0
  -23.3737  -35.9678   23.3271 H   0  0  0  0  0  0
  -24.3601  -36.8949   22.2039 H   0  0  0  0  0  0
  -23.7288  -37.6537   23.6634 H   0  0  0  0  0  0
  -26.0796  -31.5730   20.6172 H   0  0  0  0  0  0
  -26.8320  -30.8543   22.0087 H   0  0  0  0  0  0
  -28.0568  -28.9714   21.2556 H   0  0  0  0  0  0
  -25.8828  -26.1441   18.7647 H   0  0  0  0  0  0
  -23.9293  -27.4700   18.8938 H   0  0  0  0  0  0
  -23.7257  -30.6608   19.4226 H   0  0  0  0  0  0
  -22.7197  -29.3089   19.8629 H   0  0  0  0  0  0
  -25.1298  -36.1974   25.0824 H   0  0  0  0  0  0
  -21.0033  -28.2828   24.1153 H   0  0  0  0  0  0
  -21.6504  -26.7742   22.0354 H   0  0  0  0  0  0
  -20.6203  -26.2174   23.3140 H   0  0  0  0  0  0
  -19.6645  -25.6195   21.0965 H   0  0  0  0  0  0
  -19.6113  -27.3217   20.6685 H   0  0  0  0  0  0
  -17.3848  -26.5941   21.4845 H   0  0  0  0  0  0
  -18.0806  -25.9976   22.9676 H   0  0  0  0  0  0
  -19.8059  -30.7256   24.2218 H   0  0  0  0  0  0
  -17.5254  -31.6291   24.5133 H   0  0  0  0  0  0
  -15.5565  -30.2993   23.7775 H   0  0  0  0  0  0
  -15.8763  -28.0552   22.7294 H   0  0  0  0  0  0
  -24.5998  -30.7026   25.7809 H   0  0  0  0  0  0
  -24.8941  -32.2870   26.4860 H   0  0  0  0  0  0
  -25.8097  -30.8929   27.0303 H   0  0  0  0  0  0
  -26.2884  -29.6801   24.1170 H   0  0  0  0  0  0
  -27.4074  -29.7222   25.4605 H   0  0  0  0  0  0
  -27.8740  -30.4276   23.9302 H   0  0  0  0  0  0
  -27.2688  -33.3624   26.2073 H   0  0  0  0  0  0
  -28.3911  -32.6829   25.0380 H   0  0  0  0  0  0
  -28.0713  -31.8459   26.5523 H   0  0  0  0  0  0
  -28.2624  -38.0121   24.7488 H   0  0  0  0  0  0
  -28.1060  -36.2649   24.6319 H   0  0  0  0  0  0
  -27.2289  -37.1512   25.8879 H   0  0  0  0  0  0
  -20.9406  -29.8551   21.6666 H   0  0  0  0  0  0
  -26.0165  -38.2864   24.1385 H   0  0  0  0  0  0
  -27.1307  -23.0804   18.6666 H   0  0  0  0  0  0
  -28.6237  -22.2065   18.7774 H   0  0  0  0  0  0
  -29.1138  -24.2061   22.2704 H   0  0  0  0  0  0
  -27.4511  -23.7087   22.0541 H   0  0  0  0  0  0
  -29.8373  -21.8053   21.7765 H   0  0  0  0  0  0
  -29.5942  -23.8944   19.9243 H   0  0  0  0  0  0
  -23.8555  -20.0999   19.0147 H   0  0  0  0  0  0
  -23.4933  -19.3858   20.5784 H   0  0  0  0  0  0
  -24.3563  -18.4360   19.3654 H   0  0  0  0  0  0
  -28.9671  -20.9293   23.9784 H   0  0  0  0  0  0
  -27.6866  -22.1311   23.9521 H   0  0  0  0  0  0
  -29.3587  -22.6204   24.1188 H   0  0  0  0  0  0
  -29.4381  -19.3140   22.6403 H   0  0  0  0  0  0
  -28.1020  -18.3662   23.2694 H   0  0  0  0  0  0
  -26.8304  -24.9315   20.1626 H   0  0  0  0  0  0
  -27.8059  -25.1532   18.7020 H   0  0  0  0  0  0
  -29.4080  -18.1580   20.4858 H   0  0  0  0  0  0
  -27.9510  -17.3195   20.8815 H   0  0  0  0  0  0
  -29.0815  -15.8741   22.5493 H   0  0  0  0  0  0
  -30.6130  -16.6861   22.2087 H   0  0  0  0  0  0
  -30.0757  -16.1157   19.8098 H   0  0  0  0  0  0
  1 25  1  0  0  0
  1 30  2  0  0  0
  1 87  1  0  0  0
  2  3  1  0  0  0
  2 25  1  0  0  0
  2 89  1  0  0  0
  2 90  1  0  0  0
  3  4  1  0  0  0
  3 91  1  0  0  0
  3 92  1  0  0  0
  4  5  1  0  0  0
  4 93  1  0  0  0
  4 94  1  0  0  0
  5  6  1  0  0  0
  5 26  1  0  0  0
  5 95  1  0  0  0
  6 25  1  0  0  0
  6 96  1  0  0  0
  6 97  1  0  0  0
  7  8  2  0  0  0
  7 26  1  0  0  0
  7 29  1  0  0  0
  8  9  1  0  0  0
  8 22  1  0  0  0
  9 10  1  0  0  0
  9 27  2  0  0  0
 10 11  2  0  0  0
 10 15  1  0  0  0
 11 12  1  0  0  0
 11 98  1  0  0  0
 12 13  2  0  0  0
 12 99  1  0  0  0
 13 14  1  0  0  0
 13 31  1  0  0  0
 14 15  2  0  0  0
 14100  1  0  0  0
 15101  1  0  0  0
 16 17  2  0  0  0
 16 21  1  0  0  0
 16 31  1  0  0  0
 17 18  1  0  0  0
 17102  1  0  0  0
 18 19  2  0  0  0
 18103  1  0  0  0
 19 20  1  0  0  0
 19 24  1  0  0  0
 20 21  2  0  0  0
 20104  1  0  0  0
 21 23  1  0  0  0
 22 28  1  0  0  0
 22 32  2  0  0  0
 26 27  1  0  0  0
 28105  1  0  0  0
 28106  1  0  0  0
 29107  1  0  0  0
 29108  1  0  0  0
 33 34  1  0  0  0
 33 66  1  0  0  0
 33 70  2  0  0  0
 34 36  1  0  0  0
 34 59  1  0  0  0
 34109  1  0  0  0
 35 44  2  0  0  0
 35 45  1  0  0  0
 35 68  1  0  0  0
 36 56  1  0  0  0
 36110  1  0  0  0
 37 39  1  0  0  0
 37 47  1  0  0  0
 37 66  1  0  0  0
 37111  1  0  0  0
 38 43  2  0  0  0
 38 46  1  0  0  0
 38 47  1  0  0  0
 39 64  1  0  0  0
 39 67  2  0  0  0
 40 52  1  0  0  0
 40 53  2  0  0  0
 40 58  1  0  0  0
 41112  1  0  0  0
 41113  1  0  0  0
 41114  1  0  0  0
 41 48  1  0  0  0
 42 43  1  0  0  0
 42 66  1  0  0  0
 42115  1  0  0  0
 42116  1  0  0  0
 43 44  1  0  0  0
 44117  1  0  0  0
 45 46  2  0  0  0
 45118  1  0  0  0
 46119  1  0  0  0
 47120  1  0  0  0
 47121  1  0  0  0
 48 56  1  0  0  0
 48 65  1  0  0  0
 48122  1  0  0  0
 49 50  1  0  0  0
 49 53  1  0  0  0
 49 64  1  0  0  0
 49123  1  0  0  0
 50 51  1  0  0  0
 50124  1  0  0  0
 50125  1  0  0  0
 51 52  1  0  0  0
 51126  1  0  0  0
 51127  1  0  0  0
 52128  1  0  0  0
 52129  1  0  0  0
 53 54  1  0  0  0
 54 55  2  0  0  0
 54130  1  0  0  0
 55 57  1  0  0  0
 55131  1  0  0  0
 56 69  2  0  0  0
 57 58  2  0  0  0
 57132  1  0  0  0
 58133  1  0  0  0
 59 60  1  0  0  0
 59 61  1  0  0  0
 59 62  1  0  0  0
 60134  1  0  0  0
 60135  1  0  0  0
 60136  1  0  0  0
 61137  1  0  0  0
 61138  1  0  0  0
 61139  1  0  0  0
 62140  1  0  0  0
 62141  1  0  0  0
 62142  1  0  0  0
 63 65  1  0  0  0
 63143  1  0  0  0
 63144  1  0  0  0
 63145  1  0  0  0
 64146  1  0  0  0
 65147  1  0  0  0
 68 83  1  0  0  0
 71 72  1  0  0  0
 71 74  2  0  0  0
 71 78  1  0  0  0
 72 73  2  0  0  0
 72 82  1  0  0  0
 73 75  1  0  0  0
 73 88  1  0  0  0
 74 76  1  0  0  0
 74 86  1  0  0  0
 75 80  1  0  0  0
 75 86  2  0  0  0
 76 79  1  0  0  0
 76148  1  0  0  0
 76149  1  0  0  0
 77 78  1  0  0  0
 77 79  1  0  0  0
 77150  1  0  0  0
 77151  1  0  0  0
 78 81  1  0  0  0
 78152  1  0  0  0
 79 83  1  0  0  0
 79153  1  0  0  0
 80154  1  0  0  0
 80155  1  0  0  0
 80156  1  0  0  0
 81157  1  0  0  0
 81158  1  0  0  0
 81159  1  0  0  0
 82 84  1  0  0  0
 82160  1  0  0  0
 82161  1  0  0  0
 83162  1  0  0  0
 83163  1  0  0  0
 84 85  1  0  0  0
 84164  1  0  0  0
 84165  1  0  0  0
 85 87  1  0  0  0
 85166  1  0  0  0
 85167  1  0  0  0
 87168  1  0  0  0
M  ISO  4   1 100  68 101  83 101  87 100
M  END
> <chiral flag>
0

> <version>
0

> <s_m_source_file>
/data/baiqing/PycharmProjects/Reinvent-master-3.2/result/LINK_invent/BTK/process_docking_weight1_custom_sum_contain_oxygen_bond_distance_aromatic_linkinvent_7_9_3/rearranged_h_0030.sdf

> <i_m_source_file_index>
86

> <r_mmod_Potential_Energy-OPLS-2005>
72.898193359375

> <r_mmod_Stretch_Energy-OPLS-2005>
44.5006523132324

> <r_mmod_Bend_Energy-OPLS-2005>
145.274948120117

> <r_mmod_Torsional_Energy-OPLS-2005>
349.078552246094

> <r_mmod_Improper_Torsional_Energy-OPLS-2005>
22.5202617645264

> <r_mmod_Van_der_Waal_Energy-OPLS-2005>
188.061477661133

> <r_mmod_Electrostatic_Energy-OPLS-2005>
-510.194854736328

> <r_mmod_Solvation_Energy-OPLS-2005>
-204.034240722656

> <b_mmod_Minimization_Converged-OPLS-2005>
0

> <r_mmod_RMS_Derivative-OPLS-2005>
8.65713977813721

$$$$
86
                    3D
 Structure written by MMmdl.
157165  0  0  1  0            999 V2000
  -30.5671  -15.0315   20.3820 C   0  0  0  0  0  0
  -30.4290  -12.6601   19.4763 C   0  0  0  0  0  0
  -29.5181  -12.5346   18.2368 C   0  0  0  0  0  0
  -28.0543  -12.3005   18.6601 C   0  0  0  0  0  0
  -27.6146  -13.2559   19.8017 C   0  0  2  0  0  0
  -28.6606  -13.3310   20.9280 C   0  0  0  0  0  0
  -25.2457  -13.8248   20.5616 C   0  0  0  0  0  0
  -24.1761  -13.0500   20.9094 C   0  0  0  0  0  0
  -24.6384  -11.6954   20.8679 C   0  0  0  0  0  0
  -23.9089  -10.4305   21.0397 C   0  0  0  0  0  0
  -24.3645   -9.4222   21.9191 C   0  0  0  0  0  0
  -23.6343   -8.2241   22.0763 C   0  0  0  0  0  0
  -22.4317   -8.0272   21.3535 C   0  0  0  0  0  0
  -21.9964   -9.0220   20.4609 C   0  0  0  0  0  0
  -22.7244  -10.2134   20.3061 C   0  0  0  0  0  0
  -21.6839   -6.0760   22.5292 C   0  0  0  0  0  0
  -21.4005   -6.5669   23.8234 C   0  0  0  0  0  0
  -21.3678   -5.6797   24.9175 C   0  0  0  0  0  0
  -21.6033   -4.3059   24.7198 C   0  0  0  0  0  0
  -21.8804   -3.8170   23.4318 C   0  0  0  0  0  0
  -21.9181   -4.7003   22.3390 C   0  0  0  0  0  0
  -22.7771  -13.5310   21.1794 C   0  0  0  0  0  0
  -22.1657   -4.2221   21.0964 F   0  0  0  0  0  0
  -21.5611   -3.4523   25.7699 F   0  0  0  0  0  0
  -29.9114  -13.7909   20.3096 N   0  0  0  0  0  0
  -26.2836  -12.9466   20.3107 N   0  0  0  0  0  0
  -25.9320  -11.6599   20.5646 N   0  0  0  0  0  0
  -22.0404  -12.8266   22.0304 N   0  0  0  0  0  0
  -25.4259  -15.1994   20.4156 N   0  0  0  0  0  0
  -31.7971  -14.9600   20.2602 O   0  0  0  0  0  0
  -21.6657   -6.8882   21.4249 O   0  0  0  0  0  0
  -22.3471  -14.5644   20.6708 O   0  0  0  0  0  0
  -24.6525  -31.8377   23.1836 C   0  0  0  0  0  0
  -25.9266  -32.4665   23.8235 C   0  0  1  0  0  0
  -27.1985  -27.0660   20.1432 C   0  0  0  0  0  0
  -25.5981  -33.8470   24.2151 N   0  0  0  0  0  0
  -23.4571  -30.4609   21.5308 C   0  0  2  0  0  0
  -24.9031  -28.8804   20.1100 C   0  0  0  0  0  0
  -22.7625  -29.4519   22.4821 C   0  0  0  0  0  0
  -18.0322  -28.1399   22.8483 C   0  0  0  0  0  0
  -24.1502  -36.7249   23.2639 C   0  0  0  0  0  0
  -26.0230  -30.6896   21.3943 C   0  0  0  0  0  0
  -26.0881  -29.2971   20.7289 C   0  0  0  0  0  0
  -27.2367  -28.4084   20.7227 C   0  0  0  0  0  0
  -25.9862  -26.7756   19.4801 C   0  0  0  0  0  0
  -24.8702  -27.6367   19.4626 C   0  0  0  0  0  0
  -23.6866  -29.7921   20.1512 C   0  0  0  0  0  0
  -25.4139  -36.3022   24.0309 C   0  0  1  0  0  0
  -20.5946  -28.3737   23.1217 C   0  0  2  0  0  0
  -20.6800  -26.9428   22.5399 C   0  0  0  0  0  0
  -19.5764  -26.6384   21.5214 C   0  0  0  0  0  0
  -18.1955  -26.7936   22.1627 C   0  0  0  0  0  0
  -19.1582  -28.8887   23.2840 C   0  0  0  0  0  0
  -18.9478  -30.1480   23.8880 C   0  0  0  0  0  0
  -17.6471  -30.6590   24.0563 C   0  0  0  0  0  0
  -25.9098  -34.9402   23.5037 C   0  0  0  0  0  0
  -16.5370  -29.9080   23.6338 C   0  0  0  0  0  0
  -16.7301  -28.6497   23.0359 C   0  0  0  0  0  0
  -26.4547  -31.6558   25.0717 C   0  0  0  0  0  0
  -25.3687  -31.3766   26.1380 C   0  0  0  0  0  0
  -27.0415  -30.2939   24.6357 C   0  0  0  0  0  0
  -27.6066  -32.4338   25.7500 C   0  0  0  0  0  0
  -27.5585  -37.1786   24.8464 C   0  0  0  0  0  0
  -21.4306  -29.3055   22.3587 N   0  0  0  0  0  0
  -26.4303  -37.3736   23.9397 N   0  0  0  0  0  0
  -24.7317  -31.0181   22.0900 N   0  0  0  0  0  0
  -23.4247  -28.8062   23.3006 O   0  0  0  0  0  0
  -28.2246  -26.0304   20.1798 O   0  0  0  0  0  0
  -26.5678  -34.8898   22.4623 O   0  0  0  0  0  0
  -23.5631  -32.1276   23.7028 O   0  0  0  0  0  0
  -27.4000  -18.9906   21.5593 C   0  0  0  0  0  0
  -28.7086  -16.6336   22.1694 C   0  0  0  0  0  0
  -26.8518  -18.1255   22.5210 C   0  0  0  0  0  0
  -29.1476  -17.3183   21.0106 C   0  0  0  0  0  0
  -28.6242  -18.7690   20.8606 C   0  0  0  0  0  0
  -27.5736  -16.9911   22.8975 C   0  0  0  0  0  0
  -25.5116  -18.4382   23.1632 C   0  0  0  0  0  0
  -30.4004  -16.9841   18.9090 C   0  0  0  0  0  0
  -28.8767  -23.0674   20.0908 C   0  0  0  0  0  0
  -27.8898  -24.4745   20.2145 C   0  0  0  0  0  0
  -28.3967  -21.4444   20.3955 C   0  0  0  0  0  0
  -29.9409  -16.3316   20.1362 N   0  0  0  0  0  0
  -29.0909  -20.0178   20.2075 O   0  0  0  0  0  0
  -27.0386  -15.9613   24.1760 Cl  0  0  0  0  0  0
  -31.4605  -12.8189   19.1542 H   0  0  0  0  0  0
  -30.4358  -11.7279   20.0400 H   0  0  0  0  0  0
  -29.8605  -11.7228   17.5954 H   0  0  0  0  0  0
  -29.5876  -13.4442   17.6383 H   0  0  0  0  0  0
  -27.9726  -11.2660   18.9945 H   0  0  0  0  0  0
  -27.3911  -12.3853   17.7999 H   0  0  0  0  0  0
  -27.5521  -14.2437   19.3445 H   0  0  0  0  0  0
  -28.7869  -12.3612   21.4086 H   0  0  0  0  0  0
  -28.3126  -14.0075   21.7051 H   0  0  0  0  0  0
  -25.2807   -9.5690   22.4766 H   0  0  0  0  0  0
  -24.0034   -7.4653   22.7537 H   0  0  0  0  0  0
  -21.0894   -8.8695   19.8907 H   0  0  0  0  0  0
  -22.3695  -10.9643   19.6170 H   0  0  0  0  0  0
  -21.2012   -7.6187   23.9741 H   0  0  0  0  0  0
  -21.1560   -6.0540   25.9080 H   0  0  0  0  0  0
  -22.0587   -2.7650   23.2777 H   0  0  0  0  0  0
  -22.4040  -11.9928   22.4637 H   0  0  0  0  0  0
  -21.1032  -13.1270   22.2560 H   0  0  0  0  0  0
  -24.6756  -15.8671   20.5347 H   0  0  0  0  0  0
  -26.3136  -15.6355   20.2063 H   0  0  0  0  0  0
  -26.7344  -32.5230   23.0963 H   0  0  0  0  0  0
  -25.0113  -33.9551   25.0292 H   0  0  0  0  0  0
  -22.7634  -31.2915   21.3774 H   0  0  0  0  0  0
  -23.3766  -35.9572   23.3277 H   0  0  0  0  0  0
  -24.3600  -36.8909   22.2060 H   0  0  0  0  0  0
  -23.7252  -37.6438   23.6695 H   0  0  0  0  0  0
  -26.1960  -31.4435   20.6249 H   0  0  0  0  0  0
  -26.8885  -30.7320   22.0444 H   0  0  0  0  0  0
  -28.1430  -28.7279   21.2135 H   0  0  0  0  0  0
  -25.8588  -25.8398   18.9620 H   0  0  0  0  0  0
  -23.9698  -27.3242   18.9505 H   0  0  0  0  0  0
  -23.8294  -30.5677   19.3981 H   0  0  0  0  0  0
  -22.7978  -29.2430   19.8376 H   0  0  0  0  0  0
  -25.1329  -36.1839   25.0798 H   0  0  0  0  0  0
  -21.0032  -28.3319   24.1335 H   0  0  0  0  0  0
  -20.5701  -26.2341   23.3619 H   0  0  0  0  0  0
  -21.6659  -26.7432   22.1181 H   0  0  0  0  0  0
  -19.6909  -25.6288   21.1254 H   0  0  0  0  0  0
  -19.6685  -27.3191   20.6736 H   0  0  0  0  0  0
  -17.4213  -26.6701   21.4031 H   0  0  0  0  0  0
  -18.0335  -26.0084   22.9029 H   0  0  0  0  0  0
  -19.7952  -30.7305   24.2243 H   0  0  0  0  0  0
  -17.5015  -31.6264   24.5166 H   0  0  0  0  0  0
  -15.5362  -30.2961   23.7661 H   0  0  0  0  0  0
  -15.8708  -28.0798   22.7079 H   0  0  0  0  0  0
  -24.5894  -30.7094   25.7679 H   0  0  0  0  0  0
  -24.8838  -32.2954   26.4697 H   0  0  0  0  0  0
  -25.7929  -30.9005   27.0231 H   0  0  0  0  0  0
  -26.3042  -29.6643   24.1362 H   0  0  0  0  0  0
  -27.4000  -29.7271   25.4961 H   0  0  0  0  0  0
  -27.8974  -30.4158   23.9706 H   0  0  0  0  0  0
  -27.2662  -33.3678   26.1982 H   0  0  0  0  0  0
  -28.3918  -32.6831   25.0347 H   0  0  0  0  0  0
  -28.0688  -31.8521   26.5488 H   0  0  0  0  0  0
  -28.2588  -38.0097   24.7525 H   0  0  0  0  0  0
  -28.1096  -36.2626   24.6281 H   0  0  0  0  0  0
  -27.2300  -37.1424   25.8866 H   0  0  0  0  0  0
  -20.9528  -29.8778   21.6770 H   0  0  0  0  0  0
  -26.0163  -38.2803   24.1377 H   0  0  0  0  0  0
  -26.8092  -19.8741   21.3828 H   0  0  0  0  0  0
  -29.1837  -15.7270   22.4928 H   0  0  0  0  0  0
  -25.1607  -19.4386   22.9061 H   0  0  0  0  0  0
  -25.5731  -18.3755   24.2503 H   0  0  0  0  0  0
  -24.7574  -17.7270   22.8230 H   0  0  0  0  0  0
  -29.5684  -17.4728   18.3968 H   0  0  0  0  0  0
  -30.8415  -16.2992   18.1823 H   0  0  0  0  0  0
  -31.1479  -17.7434   19.1427 H   0  0  0  0  0  0
  -29.7576  -23.2543   20.7064 H   0  0  0  0  0  0
  -29.2610  -23.0721   19.0712 H   0  0  0  0  0  0
  -27.3375  -24.3444   21.1454 H   0  0  0  0  0  0
  -27.1489  -24.3031   19.4355 H   0  0  0  0  0  0
  -27.4552  -21.3398   19.8545 H   0  0  0  0  0  0
  -28.1266  -21.4910   21.4478 H   0  0  0  0  0  0
  1 25  1  0  0  0
  1 30  2  0  0  0
  1 82  1  0  0  0
  2  3  1  0  0  0
  2 25  1  0  0  0
  2 85  1  0  0  0
  2 86  1  0  0  0
  3  4  1  0  0  0
  3 87  1  0  0  0
  3 88  1  0  0  0
  4  5  1  0  0  0
  4 89  1  0  0  0
  4 90  1  0  0  0
  5  6  1  0  0  0
  5 26  1  0  0  0
  5 91  1  0  0  0
  6 25  1  0  0  0
  6 92  1  0  0  0
  6 93  1  0  0  0
  7  8  2  0  0  0
  7 26  1  0  0  0
  7 29  1  0  0  0
  8  9  1  0  0  0
  8 22  1  0  0  0
  9 10  1  0  0  0
  9 27  2  0  0  0
 10 11  2  0  0  0
 10 15  1  0  0  0
 11 12  1  0  0  0
 11 94  1  0  0  0
 12 13  2  0  0  0
 12 95  1  0  0  0
 13 14  1  0  0  0
 13 31  1  0  0  0
 14 15  2  0  0  0
 14 96  1  0  0  0
 15 97  1  0  0  0
 16 17  2  0  0  0
 16 21  1  0  0  0
 16 31  1  0  0  0
 17 18  1  0  0  0
 17 98  1  0  0  0
 18 19  2  0  0  0
 18 99  1  0  0  0
 19 20  1  0  0  0
 19 24  1  0  0  0
 20 21  2  0  0  0
 20100  1  0  0  0
 21 23  1  0  0  0
 22 28  1  0  0  0
 22 32  2  0  0  0
 26 27  1  0  0  0
 28101  1  0  0  0
 28102  1  0  0  0
 29103  1  0  0  0
 29104  1  0  0  0
 33 34  1  0  0  0
 33 66  1  0  0  0
 33 70  2  0  0  0
 34 36  1  0  0  0
 34 59  1  0  0  0
 34105  1  0  0  0
 35 44  2  0  0  0
 35 45  1  0  0  0
 35 68  1  0  0  0
 36 56  1  0  0  0
 36106  1  0  0  0
 37 39  1  0  0  0
 37 47  1  0  0  0
 37 66  1  0  0  0
 37107  1  0  0  0
 38 43  2  0  0  0
 38 46  1  0  0  0
 38 47  1  0  0  0
 39 64  1  0  0  0
 39 67  2  0  0  0
 40 52  1  0  0  0
 40 53  2  0  0  0
 40 58  1  0  0  0
 41108  1  0  0  0
 41109  1  0  0  0
 41110  1  0  0  0
 41 48  1  0  0  0
 42 43  1  0  0  0
 42 66  1  0  0  0
 42111  1  0  0  0
 42112  1  0  0  0
 43 44  1  0  0  0
 44113  1  0  0  0
 45 46  2  0  0  0
 45114  1  0  0  0
 46115  1  0  0  0
 47116  1  0  0  0
 47117  1  0  0  0
 48 56  1  0  0  0
 48 65  1  0  0  0
 48118  1  0  0  0
 49 50  1  0  0  0
 49 53  1  0  0  0
 49 64  1  0  0  0
 49119  1  0  0  0
 50 51  1  0  0  0
 50120  1  0  0  0
 50121  1  0  0  0
 51 52  1  0  0  0
 51122  1  0  0  0
 51123  1  0  0  0
 52124  1  0  0  0
 52125  1  0  0  0
 53 54  1  0  0  0
 54 55  2  0  0  0
 54126  1  0  0  0
 55 57  1  0  0  0
 55127  1  0  0  0
 56 69  2  0  0  0
 57 58  2  0  0  0
 57128  1  0  0  0
 58129  1  0  0  0
 59 60  1  0  0  0
 59 61  1  0  0  0
 59 62  1  0  0  0
 60130  1  0  0  0
 60131  1  0  0  0
 60132  1  0  0  0
 61133  1  0  0  0
 61134  1  0  0  0
 61135  1  0  0  0
 62136  1  0  0  0
 62137  1  0  0  0
 62138  1  0  0  0
 63 65  1  0  0  0
 63139  1  0  0  0
 63140  1  0  0  0
 63141  1  0  0  0
 64142  1  0  0  0
 65143  1  0  0  0
 68 80  1  0  0  0
 71 73  2  0  0  0
 71 75  1  0  0  0
 71144  1  0  0  0
 72 74  1  0  0  0
 72 76  2  0  0  0
 72145  1  0  0  0
 73 76  1  0  0  0
 73 77  1  0  0  0
 74 75  2  0  0  0
 74 82  1  0  0  0
 75 83  1  0  0  0
 76 84  1  0  0  0
 77146  1  0  0  0
 77147  1  0  0  0
 77148  1  0  0  0
 78 82  1  0  0  0
 78149  1  0  0  0
 78150  1  0  0  0
 78151  1  0  0  0
 79 80  1  0  0  0
 79 81  1  0  0  0
 79152  1  0  0  0
 79153  1  0  0  0
 80154  1  0  0  0
 80155  1  0  0  0
 81 83  1  0  0  0
 81156  1  0  0  0
 81157  1  0  0  0
M  ISO  4   1 100  68 101  80 101  82 100
M  END
> <chiral flag>
0

> <version>
0

> <s_m_source_file>
/data/baiqing/PycharmProjects/Reinvent-master-3.2/result/LINK_invent/BTK/process_docking_weight1_custom_sum_contain_oxygen_bond_distance_aromatic_linkinvent_7_9_3/rearranged_h_0030.sdf

> <i_m_source_file_index>
87

> <r_mmod_Potential_Energy-OPLS-2005>
1007.96270751953

> <r_mmod_Stretch_Energy-OPLS-2005>
385.223968505859

> <r_mmod_Bend_Energy-OPLS-2005>
381.147888183594

> <r_mmod_Torsional_Energy-OPLS-2005>
330.370758056641

> <r_mmod_Improper_Torsional_Energy-OPLS-2005>
15.0636587142944

> <r_mmod_Van_der_Waal_Energy-OPLS-2005>
145.481796264648

> <r_mmod_Electrostatic_Energy-OPLS-2005>
-313.746734619141

> <r_mmod_Solvation_Energy-OPLS-2005>
-194.262496948242

> <b_mmod_Minimization_Converged-OPLS-2005>
0

> <r_mmod_RMS_Derivative-OPLS-2005>
5.089684009552

$$$$
87
                    3D
 Structure written by MMmdl.
175184  0  0  1  0            999 V2000
  -30.7876  -14.3002   20.7125 C   0  0  0  0  0  0
  -30.4128  -12.2613   19.3877 C   0  0  0  0  0  0
  -29.4813  -12.5253   18.1903 C   0  0  0  0  0  0
  -28.0057  -12.3811   18.6053 C   0  0  0  0  0  0
  -27.6689  -13.1938   19.8819 C   0  0  2  0  0  0
  -28.7025  -12.9129   20.9954 C   0  0  0  0  0  0
  -25.2619  -13.8142   20.5667 C   0  0  0  0  0  0
  -24.1855  -13.0428   20.9148 C   0  0  0  0  0  0
  -24.6391  -11.6890   20.8711 C   0  0  0  0  0  0
  -23.9053  -10.4285   21.0390 C   0  0  0  0  0  0
  -24.3609   -9.4209   21.9174 C   0  0  0  0  0  0
  -23.6288   -8.2246   22.0756 C   0  0  0  0  0  0
  -22.4271   -8.0281   21.3548 C   0  0  0  0  0  0
  -21.9905   -9.0245   20.4639 C   0  0  0  0  0  0
  -22.7227  -10.2126   20.3043 C   0  0  0  0  0  0
  -21.6855   -6.0734   22.5276 C   0  0  0  0  0  0
  -21.4014   -6.5638   23.8211 C   0  0  0  0  0  0
  -21.3658   -5.6791   24.9173 C   0  0  0  0  0  0
  -21.6042   -4.3054   24.7226 C   0  0  0  0  0  0
  -21.8821   -3.8147   23.4345 C   0  0  0  0  0  0
  -21.9194   -4.6961   22.3401 C   0  0  0  0  0  0
  -22.7879  -13.5233   21.1823 C   0  0  0  0  0  0
  -22.1662   -4.2147   21.0978 F   0  0  0  0  0  0
  -21.5630   -3.4538   25.7739 F   0  0  0  0  0  0
  -30.0544  -13.1870   20.4689 N   0  0  0  0  0  0
  -26.3055  -12.9291   20.3375 N   0  0  0  0  0  0
  -25.9313  -11.6457   20.5738 N   0  0  0  0  0  0
  -22.0521  -12.8226   22.0377 N   0  0  0  0  0  0
  -25.4355  -15.1857   20.4111 N   0  0  0  0  0  0
  -31.7912  -14.6141   20.0654 O   0  0  0  0  0  0
  -21.6640   -6.8874   21.4241 O   0  0  0  0  0  0
  -22.3563  -14.5540   20.6679 O   0  0  0  0  0  0
  -24.6085  -31.8717   23.2160 C   0  0  0  0  0  0
  -25.9007  -32.4840   23.8431 C   0  0  1  0  0  0
  -27.2405  -27.4981   20.0666 C   0  0  0  0  0  0
  -25.5881  -33.8637   24.2367 N   0  0  0  0  0  0
  -23.3927  -30.4961   21.5549 C   0  0  2  0  0  0
  -24.8384  -28.9692   20.1187 C   0  0  0  0  0  0
  -22.7364  -29.4677   22.5029 C   0  0  0  0  0  0
  -18.0255  -28.1367   22.8503 C   0  0  0  0  0  0
  -24.1491  -36.7333   23.2635 C   0  0  0  0  0  0
  -25.9161  -30.8526   21.3627 C   0  0  0  0  0  0
  -25.9930  -29.4898   20.7147 C   0  0  0  0  0  0
  -27.1928  -28.7526   20.7021 C   0  0  0  0  0  0
  -26.0632  -26.9666   19.4953 C   0  0  0  0  0  0
  -24.8632  -27.6995   19.5166 C   0  0  0  0  0  0
  -23.5973  -29.8277   20.1691 C   0  0  0  0  0  0
  -25.4108  -36.3134   24.0349 C   0  0  1  0  0  0
  -20.5839  -28.3643   23.1339 C   0  0  2  0  0  0
  -20.6742  -26.9386   22.5422 C   0  0  0  0  0  0
  -19.5722  -26.6382   21.5212 C   0  0  0  0  0  0
  -18.1901  -26.7921   22.1623 C   0  0  0  0  0  0
  -19.1503  -28.8822   23.2926 C   0  0  0  0  0  0
  -18.9433  -30.1435   23.8926 C   0  0  0  0  0  0
  -17.6437  -30.6582   24.0563 C   0  0  0  0  0  0
  -25.9028  -34.9489   23.5159 C   0  0  0  0  0  0
  -16.5331  -29.9082   23.6325 C   0  0  0  0  0  0
  -16.7247  -28.6496   23.0353 C   0  0  0  0  0  0
  -26.4453  -31.6582   25.0724 C   0  0  0  0  0  0
  -25.3743  -31.3651   26.1480 C   0  0  0  0  0  0
  -27.0254  -30.3028   24.6052 C   0  0  0  0  0  0
  -27.6041  -32.4264   25.7503 C   0  0  0  0  0  0
  -27.5592  -37.1826   24.8464 C   0  0  0  0  0  0
  -21.4094  -29.3029   22.3761 N   0  0  0  0  0  0
  -26.4306  -37.3807   23.9406 N   0  0  0  0  0  0
  -24.6569  -31.0867   22.1037 N   0  0  0  0  0  0
  -23.4161  -28.8218   23.3047 O   0  0  0  0  0  0
  -28.4367  -26.8301   20.0411 O   0  0  0  0  0  0
  -26.5595  -34.8931   22.4721 O   0  0  0  0  0  0
  -23.5294  -32.1449   23.7591 O   0  0  0  0  0  0
  -28.5766  -24.0857   19.7934 C   0  0  0  0  0  0
  -29.4335  -24.2975   17.4135 C   0  0  0  0  0  0
  -30.9293  -18.8053   21.1472 C   0  0  0  0  0  0
  -28.2526  -22.6162   19.5419 C   0  0  0  0  0  0
  -29.1161  -22.8099   17.1803 C   0  0  0  0  0  0
  -30.7094  -19.7093   19.9259 C   0  0  0  0  0  0
  -28.5262  -24.9141   18.4968 C   0  0  2  0  0  0
  -30.4644  -17.3749   20.8524 C   0  0  2  0  0  0
  -28.7306  -18.2450   19.1721 C   0  0  2  0  0  0
  -29.2192  -22.0185   18.4988 C   0  0  2  0  0  0
  -29.2339  -19.6834   19.4468 C   0  0  2  0  0  0
  -28.9804  -17.3618   20.4105 C   0  0  2  0  0  0
  -29.3062  -17.5996   17.8924 C   0  0  0  0  0  0
  -30.7661  -16.4130   22.0217 C   0  0  0  0  0  0
  -28.8996  -26.3830   18.7702 C   0  0  0  0  0  0
  -30.3355  -15.0525   21.7210 N   0  0  0  0  0  0
  -28.9871  -20.5717   18.2813 N   0  3  0  0  0  0
  -28.2118  -17.7845   21.4159 F   0  0  0  0  0  0
  -31.4566  -12.3574   19.0831 H   0  0  0  0  0  0
  -30.3031  -11.2328   19.7360 H   0  0  0  0  0  0
  -29.7091  -11.8338   17.3779 H   0  0  0  0  0  0
  -29.6563  -13.5290   17.7995 H   0  0  0  0  0  0
  -27.8079  -11.3223   18.7764 H   0  0  0  0  0  0
  -27.3530  -12.6835   17.7858 H   0  0  0  0  0  0
  -27.7332  -14.2480   19.6167 H   0  0  0  0  0  0
  -28.6487  -11.8665   21.2997 H   0  0  0  0  0  0
  -28.4472  -13.4808   21.8903 H   0  0  0  0  0  0
  -25.2755   -9.5692   22.4744 H   0  0  0  0  0  0
  -23.9997   -7.4645   22.7485 H   0  0  0  0  0  0
  -21.0841   -8.8758   19.8941 H   0  0  0  0  0  0
  -22.3687  -10.9664   19.6147 H   0  0  0  0  0  0
  -21.2005   -7.6145   23.9715 H   0  0  0  0  0  0
  -21.1479   -6.0521   25.9076 H   0  0  0  0  0  0
  -22.0602   -2.7611   23.2851 H   0  0  0  0  0  0
  -22.4140  -11.9878   22.4745 H   0  0  0  0  0  0
  -21.1138  -13.1253   22.2582 H   0  0  0  0  0  0
  -24.6756  -15.8434   20.5446 H   0  0  0  0  0  0
  -26.2979  -15.6312   20.1296 H   0  0  0  0  0  0
  -26.7083  -32.5586   23.1209 H   0  0  0  0  0  0
  -25.0002  -33.9801   25.0491 H   0  0  0  0  0  0
  -22.6795  -31.3111   21.4181 H   0  0  0  0  0  0
  -23.3749  -35.9668   23.3300 H   0  0  0  0  0  0
  -24.3591  -36.8935   22.2049 H   0  0  0  0  0  0
  -23.7245  -37.6547   23.6631 H   0  0  0  0  0  0
  -26.0208  -31.6190   20.5938 H   0  0  0  0  0  0
  -26.8073  -30.9077   21.9762 H   0  0  0  0  0  0
  -28.0879  -29.1551   21.1562 H   0  0  0  0  0  0
  -26.0458  -25.9892   19.0458 H   0  0  0  0  0  0
  -23.9701  -27.2840   19.0711 H   0  0  0  0  0  0
  -23.6975  -30.5996   19.4052 H   0  0  0  0  0  0
  -22.7239  -29.2394   19.8802 H   0  0  0  0  0  0
  -25.1287  -36.2016   25.0847 H   0  0  0  0  0  0
  -20.9938  -28.3189   24.1455 H   0  0  0  0  0  0
  -20.5636  -26.2244   23.3598 H   0  0  0  0  0  0
  -21.6616  -26.7423   22.1219 H   0  0  0  0  0  0
  -19.6879  -25.6298   21.1227 H   0  0  0  0  0  0
  -19.6665  -27.3205   20.6754 H   0  0  0  0  0  0
  -17.4172  -26.6673   21.4026 H   0  0  0  0  0  0
  -18.0301  -26.0057   22.9014 H   0  0  0  0  0  0
  -19.7905  -30.7253   24.2305 H   0  0  0  0  0  0
  -17.4984  -31.6267   24.5144 H   0  0  0  0  0  0
  -15.5333  -30.2991   23.7632 H   0  0  0  0  0  0
  -15.8644  -28.0828   22.7058 H   0  0  0  0  0  0
  -24.5918  -30.6997   25.7820 H   0  0  0  0  0  0
  -24.8935  -32.2784   26.4985 H   0  0  0  0  0  0
  -25.8128  -30.8784   27.0200 H   0  0  0  0  0  0
  -26.2783  -29.6839   24.1067 H   0  0  0  0  0  0
  -27.3982  -29.7212   25.4496 H   0  0  0  0  0  0
  -27.8641  -30.4352   23.9212 H   0  0  0  0  0  0
  -27.2667  -33.3531   26.2156 H   0  0  0  0  0  0
  -28.3833  -32.6858   25.0326 H   0  0  0  0  0  0
  -28.0711  -31.8318   26.5363 H   0  0  0  0  0  0
  -28.2618  -38.0118   24.7512 H   0  0  0  0  0  0
  -28.1087  -36.2651   24.6300 H   0  0  0  0  0  0
  -27.2297  -37.1487   25.8864 H   0  0  0  0  0  0
  -20.9235  -29.8775   21.7020 H   0  0  0  0  0  0
  -26.0206  -38.2894   24.1394 H   0  0  0  0  0  0
  -29.5625  -24.1726   20.2529 H   0  0  0  0  0  0
  -27.8639  -24.4738   20.5226 H   0  0  0  0  0  0
  -29.3246  -24.8483   16.4785 H   0  0  0  0  0  0
  -30.4798  -24.4000   17.7073 H   0  0  0  0  0  0
  -30.3928  -19.2041   22.0099 H   0  0  0  0  0  0
  -31.9872  -18.8075   21.4158 H   0  0  0  0  0  0
  -27.2192  -22.5142   19.2063 H   0  0  0  0  0  0
  -28.3216  -22.1101   20.5029 H   0  0  0  0  0  0
  -29.8117  -22.4088   16.4421 H   0  0  0  0  0  0
  -28.1177  -22.7102   16.7528 H   0  0  0  0  0  0
  -31.3781  -19.4094   19.1183 H   0  0  0  0  0  0
  -31.0135  -20.7131   20.2180 H   0  0  0  0  0  0
  -27.5112  -24.8704   18.1075 H   0  0  0  0  0  0
  -31.0633  -17.0417   20.0063 H   0  0  0  0  0  0
  -27.6489  -18.2897   19.0336 H   0  0  0  0  0  0
  -30.2413  -22.1547   18.8512 H   0  0  0  0  0  0
  -28.6221  -20.0369   20.2749 H   0  0  0  0  0  0
  -28.6444  -16.3483   20.1957 H   0  0  0  0  0  0
  -30.3950  -17.5651   17.8925 H   0  0  0  0  0  0
  -28.9939  -18.1323   16.9942 H   0  0  0  0  0  0
  -28.9507  -16.5742   17.7825 H   0  0  0  0  0  0
  -30.2524  -16.7448   22.9252 H   0  0  0  0  0  0
  -31.8330  -16.4128   22.2513 H   0  0  0  0  0  0
  -28.5602  -27.0320   17.9611 H   0  0  0  0  0  0
  -29.9854  -26.4814   18.7949 H   0  0  0  0  0  0
  -29.5504  -14.6898   22.2427 H   0  0  0  0  0  0
  -29.5807  -20.2707   17.5247 H   0  0  0  0  0  0
  -28.0340  -20.4448   17.9792 H   0  0  0  0  0  0
  1 25  1  0  0  0
  1 30  2  0  0  0
  1 86  1  0  0  0
  2  3  1  0  0  0
  2 25  1  0  0  0
  2 89  1  0  0  0
  2 90  1  0  0  0
  3  4  1  0  0  0
  3 91  1  0  0  0
  3 92  1  0  0  0
  4  5  1  0  0  0
  4 93  1  0  0  0
  4 94  1  0  0  0
  5  6  1  0  0  0
  5 26  1  0  0  0
  5 95  1  0  0  0
  6 25  1  0  0  0
  6 96  1  0  0  0
  6 97  1  0  0  0
  7  8  2  0  0  0
  7 26  1  0  0  0
  7 29  1  0  0  0
  8  9  1  0  0  0
  8 22  1  0  0  0
  9 10  1  0  0  0
  9 27  2  0  0  0
 10 11  2  0  0  0
 10 15  1  0  0  0
 11 12  1  0  0  0
 11 98  1  0  0  0
 12 13  2  0  0  0
 12 99  1  0  0  0
 13 14  1  0  0  0
 13 31  1  0  0  0
 14 15  2  0  0  0
 14100  1  0  0  0
 15101  1  0  0  0
 16 17  2  0  0  0
 16 21  1  0  0  0
 16 31  1  0  0  0
 17 18  1  0  0  0
 17102  1  0  0  0
 18 19  2  0  0  0
 18103  1  0  0  0
 19 20  1  0  0  0
 19 24  1  0  0  0
 20 21  2  0  0  0
 20104  1  0  0  0
 21 23  1  0  0  0
 22 28  1  0  0  0
 22 32  2  0  0  0
 26 27  1  0  0  0
 28105  1  0  0  0
 28106  1  0  0  0
 29107  1  0  0  0
 29108  1  0  0  0
 33 34  1  0  0  0
 33 66  1  0  0  0
 33 70  2  0  0  0
 34 36  1  0  0  0
 34 59  1  0  0  0
 34109  1  0  0  0
 35 44  2  0  0  0
 35 45  1  0  0  0
 35 68  1  0  0  0
 36 56  1  0  0  0
 36110  1  0  0  0
 37 39  1  0  0  0
 37 47  1  0  0  0
 37 66  1  0  0  0
 37111  1  0  0  0
 38 43  2  0  0  0
 38 46  1  0  0  0
 38 47  1  0  0  0
 39 64  1  0  0  0
 39 67  2  0  0  0
 40 52  1  0  0  0
 40 53  2  0  0  0
 40 58  1  0  0  0
 41112  1  0  0  0
 41113  1  0  0  0
 41114  1  0  0  0
 41 48  1  0  0  0
 42 43  1  0  0  0
 42 66  1  0  0  0
 42115  1  0  0  0
 42116  1  0  0  0
 43 44  1  0  0  0
 44117  1  0  0  0
 45 46  2  0  0  0
 45118  1  0  0  0
 46119  1  0  0  0
 47120  1  0  0  0
 47121  1  0  0  0
 48 56  1  0  0  0
 48 65  1  0  0  0
 48122  1  0  0  0
 49 50  1  0  0  0
 49 53  1  0  0  0
 49 64  1  0  0  0
 49123  1  0  0  0
 50 51  1  0  0  0
 50124  1  0  0  0
 50125  1  0  0  0
 51 52  1  0  0  0
 51126  1  0  0  0
 51127  1  0  0  0
 52128  1  0  0  0
 52129  1  0  0  0
 53 54  1  0  0  0
 54 55  2  0  0  0
 54130  1  0  0  0
 55 57  1  0  0  0
 55131  1  0  0  0
 56 69  2  0  0  0
 57 58  2  0  0  0
 57132  1  0  0  0
 58133  1  0  0  0
 59 60  1  0  0  0
 59 61  1  0  0  0
 59 62  1  0  0  0
 60134  1  0  0  0
 60135  1  0  0  0
 60136  1  0  0  0
 61137  1  0  0  0
 61138  1  0  0  0
 61139  1  0  0  0
 62140  1  0  0  0
 62141  1  0  0  0
 62142  1  0  0  0
 63 65  1  0  0  0
 63143  1  0  0  0
 63144  1  0  0  0
 63145  1  0  0  0
 64146  1  0  0  0
 65147  1  0  0  0
 68 85  1  0  0  0
 71 74  1  0  0  0
 71 77  1  0  0  0
 71148  1  0  0  0
 71149  1  0  0  0
 72 75  1  0  0  0
 72 77  1  0  0  0
 72150  1  0  0  0
 72151  1  0  0  0
 73 76  1  0  0  0
 73 78  1  0  0  0
 73152  1  0  0  0
 73153  1  0  0  0
 74 80  1  0  0  0
 74154  1  0  0  0
 74155  1  0  0  0
 75 80  1  0  0  0
 75156  1  0  0  0
 75157  1  0  0  0
 76 81  1  0  0  0
 76158  1  0  0  0
 76159  1  0  0  0
 77 85  1  0  0  0
 77160  1  0  0  0
 78 82  1  0  0  0
 78 84  1  0  0  0
 78161  1  0  0  0
 79 81  1  0  0  0
 79 82  1  0  0  0
 79 83  1  0  0  0
 79162  1  0  0  0
 80 87  1  0  0  0
 80163  1  0  0  0
 81 87  1  0  0  0
 81164  1  0  0  0
 82 88  1  0  0  0
 82165  1  0  0  0
 83166  1  0  0  0
 83167  1  0  0  0
 83168  1  0  0  0
 84 86  1  0  0  0
 84169  1  0  0  0
 84170  1  0  0  0
 85171  1  0  0  0
 85172  1  0  0  0
 86173  1  0  0  0
 87174  1  0  0  0
 87175  1  0  0  0
M  CHG  1  87   1
M  ISO  4   1 100  68 101  85 101  86 100
M  END
> <chiral flag>
0

> <version>
0

> <s_m_source_file>
/data/baiqing/PycharmProjects/Reinvent-master-3.2/result/LINK_invent/BTK/process_docking_weight1_custom_sum_contain_oxygen_bond_distance_aromatic_linkinvent_7_9_3/rearranged_h_0030.sdf

> <i_m_source_file_index>
88

> <r_mmod_Potential_Energy-OPLS-2005>
-124.127334594727

> <r_mmod_Stretch_Energy-OPLS-2005>
31.5346565246582

> <r_mmod_Bend_Energy-OPLS-2005>
101.150871276855

> <r_mmod_Torsional_Energy-OPLS-2005>
278.653839111328

> <r_mmod_Improper_Torsional_Energy-OPLS-2005>
1.79652416706085

> <r_mmod_Van_der_Waal_Energy-OPLS-2005>
150.288925170898

> <r_mmod_Electrostatic_Energy-OPLS-2005>
-260.310821533203

> <r_mmod_Solvation_Energy-OPLS-2005>
-435.149688720703

> <b_mmod_Minimization_Converged-OPLS-2005>
0

> <r_mmod_RMS_Derivative-OPLS-2005>
1.23722779750824

$$$$
88
                    3D
 Structure written by MMmdl.
168177  0  0  1  0            999 V2000
  -30.7371  -14.3635   20.6599 C   0  0  0  0  0  0
  -30.4236  -12.2760   19.3916 C   0  0  0  0  0  0
  -29.4870  -12.5187   18.1916 C   0  0  0  0  0  0
  -28.0085  -12.3828   18.6062 C   0  0  0  0  0  0
  -27.6696  -13.1956   19.8836 C   0  0  2  0  0  0
  -28.7063  -12.9107   20.9926 C   0  0  0  0  0  0
  -25.2623  -13.8145   20.5667 C   0  0  0  0  0  0
  -24.1854  -13.0439   20.9156 C   0  0  0  0  0  0
  -24.6390  -11.6900   20.8722 C   0  0  0  0  0  0
  -23.9051  -10.4293   21.0400 C   0  0  0  0  0  0
  -24.3607   -9.4210   21.9179 C   0  0  0  0  0  0
  -23.6287   -8.2244   22.0752 C   0  0  0  0  0  0
  -22.4269   -8.0281   21.3544 C   0  0  0  0  0  0
  -21.9899   -9.0252   20.4646 C   0  0  0  0  0  0
  -22.7223  -10.2132   20.3051 C   0  0  0  0  0  0
  -21.6851   -6.0736   22.5278 C   0  0  0  0  0  0
  -21.4013   -6.5639   23.8212 C   0  0  0  0  0  0
  -21.3658   -5.6791   24.9173 C   0  0  0  0  0  0
  -21.6041   -4.3055   24.7224 C   0  0  0  0  0  0
  -21.8822   -3.8148   23.4346 C   0  0  0  0  0  0
  -21.9195   -4.6964   22.3400 C   0  0  0  0  0  0
  -22.7879  -13.5248   21.1825 C   0  0  0  0  0  0
  -22.1663   -4.2151   21.0979 F   0  0  0  0  0  0
  -21.5626   -3.4537   25.7737 F   0  0  0  0  0  0
  -30.0492  -13.2122   20.4593 N   0  0  0  0  0  0
  -26.3060  -12.9294   20.3388 N   0  0  0  0  0  0
  -25.9312  -11.6462   20.5754 N   0  0  0  0  0  0
  -22.0515  -12.8247   22.0387 N   0  0  0  0  0  0
  -25.4374  -15.1856   20.4079 N   0  0  0  0  0  0
  -31.7884  -14.6466   20.0761 O   0  0  0  0  0  0
  -21.6637   -6.8875   21.4240 O   0  0  0  0  0  0
  -22.3567  -14.5559   20.6678 O   0  0  0  0  0  0
  -24.6081  -31.8711   23.2112 C   0  0  0  0  0  0
  -25.8992  -32.4841   23.8405 C   0  0  1  0  0  0
  -27.2422  -27.4852   20.0945 C   0  0  0  0  0  0
  -25.5866  -33.8636   24.2341 N   0  0  0  0  0  0
  -23.3942  -30.4924   21.5506 C   0  0  2  0  0  0
  -24.8408  -28.9532   20.1232 C   0  0  0  0  0  0
  -22.7371  -29.4678   22.5017 C   0  0  0  0  0  0
  -18.0267  -28.1373   22.8505 C   0  0  0  0  0  0
  -24.1483  -36.7321   23.2640 C   0  0  0  0  0  0
  -25.9147  -30.8531   21.3528 C   0  0  0  0  0  0
  -25.9947  -29.4870   20.7093 C   0  0  0  0  0  0
  -27.1996  -28.7605   20.6877 C   0  0  0  0  0  0
  -26.0744  -26.9397   19.5216 C   0  0  0  0  0  0
  -24.8711  -27.6760   19.5301 C   0  0  0  0  0  0
  -23.6002  -29.8154   20.1679 C   0  0  0  0  0  0
  -25.4102  -36.3124   24.0348 C   0  0  1  0  0  0
  -20.5852  -28.3646   23.1343 C   0  0  2  0  0  0
  -20.6754  -26.9388   22.5428 C   0  0  0  0  0  0
  -19.5735  -26.6390   21.5216 C   0  0  0  0  0  0
  -18.1913  -26.7924   22.1631 C   0  0  0  0  0  0
  -19.1514  -28.8827   23.2924 C   0  0  0  0  0  0
  -18.9448  -30.1438   23.8929 C   0  0  0  0  0  0
  -17.6452  -30.6584   24.0575 C   0  0  0  0  0  0
  -25.9027  -34.9486   23.5148 C   0  0  0  0  0  0
  -16.5343  -29.9094   23.6325 C   0  0  0  0  0  0
  -16.7260  -28.6509   23.0351 C   0  0  0  0  0  0
  -26.4442  -31.6608   25.0711 C   0  0  0  0  0  0
  -25.3726  -31.3703   26.1475 C   0  0  0  0  0  0
  -27.0267  -30.3068   24.6031 C   0  0  0  0  0  0
  -27.6035  -32.4314   25.7460 C   0  0  0  0  0  0
  -27.5582  -37.1811   24.8467 C   0  0  0  0  0  0
  -21.4107  -29.3027   22.3759 N   0  0  0  0  0  0
  -26.4293  -37.3802   23.9414 N   0  0  0  0  0  0
  -24.6573  -31.0860   22.0979 N   0  0  0  0  0  0
  -23.4164  -28.8229   23.3047 O   0  0  0  0  0  0
  -28.4492  -26.8453   20.0304 O   0  0  0  0  0  0
  -26.5594  -34.8935   22.4711 O   0  0  0  0  0  0
  -23.5290  -32.1438   23.7541 O   0  0  0  0  0  0
  -30.6384  -21.9150   18.6670 C   0  0  0  0  0  0
  -30.8041  -23.1159   19.2311 C   0  0  0  0  0  0
  -30.1149  -21.1166   19.7073 C   0  0  0  0  0  0
  -31.0896  -21.8463   17.2522 C   0  0  0  0  0  0
  -31.5189  -23.3260   16.9896 C   0  0  0  0  0  0
  -31.4224  -24.1229   18.3352 C   0  0  2  0  0  0
  -32.7947  -24.6041   18.8251 C   0  0  0  0  0  0
  -29.9129  -25.4549   21.1913 C   0  0  0  0  0  0
  -29.9887  -17.4727   20.5219 C   0  0  0  0  0  0
  -30.3886  -24.0571   21.6106 C   0  0  0  0  0  0
  -30.2395  -18.9654   20.7454 C   0  0  0  0  0  0
  -30.5080  -16.6175   21.6912 C   0  0  0  0  0  0
  -28.5218  -25.5266   20.5405 C   0  0  0  0  0  0
  -29.9417  -21.8029   20.8311 N   0  0  0  0  0  0
  -30.3638  -23.0672   20.5446 N   0  0  0  0  0  0
  -29.8637  -19.7555   19.5803 N   0  0  0  0  0  0
  -30.1500  -15.2178   21.5045 N   0  0  0  0  0  0
  -30.6434  -25.1865   18.1370 F   0  0  0  0  0  0
  -31.4657  -12.3870   19.0853 H   0  0  0  0  0  0
  -30.3293  -11.2498   19.7497 H   0  0  0  0  0  0
  -29.7148  -11.8154   17.3895 H   0  0  0  0  0  0
  -29.6629  -13.5152   17.7834 H   0  0  0  0  0  0
  -27.8060  -11.3247   18.7760 H   0  0  0  0  0  0
  -27.3588  -12.6873   17.7848 H   0  0  0  0  0  0
  -27.7359  -14.2525   19.6248 H   0  0  0  0  0  0
  -28.6666  -11.8592   21.2806 H   0  0  0  0  0  0
  -28.4580  -13.4585   21.9019 H   0  0  0  0  0  0
  -25.2755   -9.5690   22.4747 H   0  0  0  0  0  0
  -24.0001   -7.4637   22.7469 H   0  0  0  0  0  0
  -21.0830   -8.8767   19.8951 H   0  0  0  0  0  0
  -22.3683  -10.9669   19.6155 H   0  0  0  0  0  0
  -21.2006   -7.6148   23.9715 H   0  0  0  0  0  0
  -21.1472   -6.0521   25.9076 H   0  0  0  0  0  0
  -22.0603   -2.7611   23.2843 H   0  0  0  0  0  0
  -22.4123  -11.9907   22.4780 H   0  0  0  0  0  0
  -21.1134  -13.1278   22.2586 H   0  0  0  0  0  0
  -24.6769  -15.8475   20.5190 H   0  0  0  0  0  0
  -26.3009  -15.6211   20.1080 H   0  0  0  0  0  0
  -26.7064  -32.5581   23.1181 H   0  0  0  0  0  0
  -25.0002  -33.9801   25.0478 H   0  0  0  0  0  0
  -22.6805  -31.3070   21.4093 H   0  0  0  0  0  0
  -23.3744  -35.9656   23.3323 H   0  0  0  0  0  0
  -24.3580  -36.8911   22.2050 H   0  0  0  0  0  0
  -23.7236  -37.6534   23.6638 H   0  0  0  0  0  0
  -26.0135  -31.6160   20.5795 H   0  0  0  0  0  0
  -26.8079  -30.9159   21.9628 H   0  0  0  0  0  0
  -28.0990  -29.1779   21.1190 H   0  0  0  0  0  0
  -26.1029  -25.9679   19.0490 H   0  0  0  0  0  0
  -23.9818  -27.2594   19.0766 H   0  0  0  0  0  0
  -23.7029  -30.5846   19.4012 H   0  0  0  0  0  0
  -22.7275  -29.2274   19.8794 H   0  0  0  0  0  0
  -25.1278  -36.1994   25.0843 H   0  0  0  0  0  0
  -20.9954  -28.3203   24.1460 H   0  0  0  0  0  0
  -20.5648  -26.2252   23.3608 H   0  0  0  0  0  0
  -21.6626  -26.7434   22.1222 H   0  0  0  0  0  0
  -19.6890  -25.6309   21.1228 H   0  0  0  0  0  0
  -19.6674  -27.3221   20.6761 H   0  0  0  0  0  0
  -17.4184  -26.6686   21.4029 H   0  0  0  0  0  0
  -18.0311  -26.0059   22.9020 H   0  0  0  0  0  0
  -19.7926  -30.7245   24.2307 H   0  0  0  0  0  0
  -17.5014  -31.6268   24.5172 H   0  0  0  0  0  0
  -15.5348  -30.3012   23.7621 H   0  0  0  0  0  0
  -15.8663  -28.0842   22.7039 H   0  0  0  0  0  0
  -24.5879  -30.7069   25.7817 H   0  0  0  0  0  0
  -24.8932  -32.2858   26.4957 H   0  0  0  0  0  0
  -25.8089  -30.8846   27.0212 H   0  0  0  0  0  0
  -26.2791  -29.6838   24.1100 H   0  0  0  0  0  0
  -27.4098  -29.7286   25.4450 H   0  0  0  0  0  0
  -27.8597  -30.4433   23.9126 H   0  0  0  0  0  0
  -27.2671  -33.3602   26.2082 H   0  0  0  0  0  0
  -28.3810  -32.6890   25.0255 H   0  0  0  0  0  0
  -28.0739  -31.8404   26.5330 H   0  0  0  0  0  0
  -28.2612  -38.0096   24.7513 H   0  0  0  0  0  0
  -28.1066  -36.2632   24.6294 H   0  0  0  0  0  0
  -27.2308  -37.1463   25.8872 H   0  0  0  0  0  0
  -20.9252  -29.8753   21.6995 H   0  0  0  0  0  0
  -26.0192  -38.2887   24.1404 H   0  0  0  0  0  0
  -30.2974  -21.5313   16.5725 H   0  0  0  0  0  0
  -31.9322  -21.1654   17.1285 H   0  0  0  0  0  0
  -30.8353  -23.7627   16.2599 H   0  0  0  0  0  0
  -32.5126  -23.3805   16.5442 H   0  0  0  0  0  0
  -33.4878  -23.7694   18.9314 H   0  0  0  0  0  0
  -32.7241  -25.0968   19.7941 H   0  0  0  0  0  0
  -33.2324  -25.3141   18.1236 H   0  0  0  0  0  0
  -30.6471  -25.8850   20.5129 H   0  0  0  0  0  0
  -29.9254  -26.1064   22.0657 H   0  0  0  0  0  0
  -30.4778  -17.1552   19.5993 H   0  0  0  0  0  0
  -28.9200  -17.3001   20.3835 H   0  0  0  0  0  0
  -29.7676  -23.7021   22.4347 H   0  0  0  0  0  0
  -31.4077  -24.1139   21.9941 H   0  0  0  0  0  0
  -31.2968  -19.1333   20.9607 H   0  0  0  0  0  0
  -29.6807  -19.3004   21.6213 H   0  0  0  0  0  0
  -30.0727  -16.9606   22.6305 H   0  0  0  0  0  0
  -31.5900  -16.7218   21.7921 H   0  0  0  0  0  0
  -27.7431  -25.3210   21.2780 H   0  0  0  0  0  0
  -28.4107  -24.8167   19.7207 H   0  0  0  0  0  0
  -30.1336  -19.3718   18.6797 H   0  0  0  0  0  0
  -29.3119  -14.8897   21.9621 H   0  0  0  0  0  0
  1 25  1  0  0  0
  1 30  2  0  0  0
  1 87  1  0  0  0
  2  3  1  0  0  0
  2 25  1  0  0  0
  2 89  1  0  0  0
  2 90  1  0  0  0
  3  4  1  0  0  0
  3 91  1  0  0  0
  3 92  1  0  0  0
  4  5  1  0  0  0
  4 93  1  0  0  0
  4 94  1  0  0  0
  5  6  1  0  0  0
  5 26  1  0  0  0
  5 95  1  0  0  0
  6 25  1  0  0  0
  6 96  1  0  0  0
  6 97  1  0  0  0
  7  8  2  0  0  0
  7 26  1  0  0  0
  7 29  1  0  0  0
  8  9  1  0  0  0
  8 22  1  0  0  0
  9 10  1  0  0  0
  9 27  2  0  0  0
 10 11  2  0  0  0
 10 15  1  0  0  0
 11 12  1  0  0  0
 11 98  1  0  0  0
 12 13  2  0  0  0
 12 99  1  0  0  0
 13 14  1  0  0  0
 13 31  1  0  0  0
 14 15  2  0  0  0
 14100  1  0  0  0
 15101  1  0  0  0
 16 17  2  0  0  0
 16 21  1  0  0  0
 16 31  1  0  0  0
 17 18  1  0  0  0
 17102  1  0  0  0
 18 19  2  0  0  0
 18103  1  0  0  0
 19 20  1  0  0  0
 19 24  1  0  0  0
 20 21  2  0  0  0
 20104  1  0  0  0
 21 23  1  0  0  0
 22 28  1  0  0  0
 22 32  2  0  0  0
 26 27  1  0  0  0
 28105  1  0  0  0
 28106  1  0  0  0
 29107  1  0  0  0
 29108  1  0  0  0
 33 34  1  0  0  0
 33 66  1  0  0  0
 33 70  2  0  0  0
 34 36  1  0  0  0
 34 59  1  0  0  0
 34109  1  0  0  0
 35 44  2  0  0  0
 35 45  1  0  0  0
 35 68  1  0  0  0
 36 56  1  0  0  0
 36110  1  0  0  0
 37 39  1  0  0  0
 37 47  1  0  0  0
 37 66  1  0  0  0
 37111  1  0  0  0
 38 43  2  0  0  0
 38 46  1  0  0  0
 38 47  1  0  0  0
 39 64  1  0  0  0
 39 67  2  0  0  0
 40 52  1  0  0  0
 40 53  2  0  0  0
 40 58  1  0  0  0
 41112  1  0  0  0
 41113  1  0  0  0
 41114  1  0  0  0
 41 48  1  0  0  0
 42 43  1  0  0  0
 42 66  1  0  0  0
 42115  1  0  0  0
 42116  1  0  0  0
 43 44  1  0  0  0
 44117  1  0  0  0
 45 46  2  0  0  0
 45118  1  0  0  0
 46119  1  0  0  0
 47120  1  0  0  0
 47121  1  0  0  0
 48 56  1  0  0  0
 48 65  1  0  0  0
 48122  1  0  0  0
 49 50  1  0  0  0
 49 53  1  0  0  0
 49 64  1  0  0  0
 49123  1  0  0  0
 50 51  1  0  0  0
 50124  1  0  0  0
 50125  1  0  0  0
 51 52  1  0  0  0
 51126  1  0  0  0
 51127  1  0  0  0
 52128  1  0  0  0
 52129  1  0  0  0
 53 54  1  0  0  0
 54 55  2  0  0  0
 54130  1  0  0  0
 55 57  1  0  0  0
 55131  1  0  0  0
 56 69  2  0  0  0
 57 58  2  0  0  0
 57132  1  0  0  0
 58133  1  0  0  0
 59 60  1  0  0  0
 59 61  1  0  0  0
 59 62  1  0  0  0
 60134  1  0  0  0
 60135  1  0  0  0
 60136  1  0  0  0
 61137  1  0  0  0
 61138  1  0  0  0
 61139  1  0  0  0
 62140  1  0  0  0
 62141  1  0  0  0
 62142  1  0  0  0
 63 65  1  0  0  0
 63143  1  0  0  0
 63144  1  0  0  0
 63145  1  0  0  0
 64146  1  0  0  0
 65147  1  0  0  0
 68 83  1  0  0  0
 71 72  2  0  0  0
 71 73  1  0  0  0
 71 74  1  0  0  0
 72 76  1  0  0  0
 72 85  1  0  0  0
 73 84  2  0  0  0
 73 86  1  0  0  0
 74 75  1  0  0  0
 74148  1  0  0  0
 74149  1  0  0  0
 75 76  1  0  0  0
 75150  1  0  0  0
 75151  1  0  0  0
 76 77  1  0  0  0
 76 88  1  0  0  0
 77152  1  0  0  0
 77153  1  0  0  0
 77154  1  0  0  0
 78 80  1  0  0  0
 78 83  1  0  0  0
 78155  1  0  0  0
 78156  1  0  0  0
 79 81  1  0  0  0
 79 82  1  0  0  0
 79157  1  0  0  0
 79158  1  0  0  0
 80 85  1  0  0  0
 80159  1  0  0  0
 80160  1  0  0  0
 81 86  1  0  0  0
 81161  1  0  0  0
 81162  1  0  0  0
 82 87  1  0  0  0
 82163  1  0  0  0
 82164  1  0  0  0
 83165  1  0  0  0
 83166  1  0  0  0
 84 85  1  0  0  0
 86167  1  0  0  0
 87168  1  0  0  0
M  ISO  4   1 100  68 101  83 101  87 100
M  END
> <chiral flag>
0

> <version>
0

> <s_m_source_file>
/data/baiqing/PycharmProjects/Reinvent-master-3.2/result/LINK_invent/BTK/process_docking_weight1_custom_sum_contain_oxygen_bond_distance_aromatic_linkinvent_7_9_3/rearranged_h_0030.sdf

> <i_m_source_file_index>
89

> <r_mmod_Potential_Energy-OPLS-2005>
-114.699935913086

> <r_mmod_Stretch_Energy-OPLS-2005>
34.5789985656738

> <r_mmod_Bend_Energy-OPLS-2005>
186.018951416016

> <r_mmod_Torsional_Energy-OPLS-2005>
243.533630371094

> <r_mmod_Improper_Torsional_Energy-OPLS-2005>
6.8690128326416

> <r_mmod_Van_der_Waal_Energy-OPLS-2005>
123.0751953125

> <r_mmod_Electrostatic_Energy-OPLS-2005>
-483.735321044922

> <r_mmod_Solvation_Energy-OPLS-2005>
-232.632293701172

> <b_mmod_Minimization_Converged-OPLS-2005>
0

> <r_mmod_RMS_Derivative-OPLS-2005>
0.846195697784424

$$$$
89
                    3D
 Structure written by MMmdl.
163171  0  0  1  0            999 V2000
  -30.6988  -14.4605   20.6266 C   0  0  0  0  0  0
  -30.4256  -12.3162   19.4229 C   0  0  0  0  0  0
  -29.4899  -12.4884   18.2088 C   0  0  0  0  0  0
  -28.0179  -12.3274   18.6323 C   0  0  0  0  0  0
  -27.6566  -13.1945   19.8671 C   0  0  2  0  0  0
  -28.6979  -12.9997   20.9922 C   0  0  0  0  0  0
  -25.2601  -13.8161   20.5769 C   0  0  0  0  0  0
  -24.1829  -13.0430   20.9246 C   0  0  0  0  0  0
  -24.6356  -11.6897   20.8769 C   0  0  0  0  0  0
  -23.8995  -10.4281   21.0425 C   0  0  0  0  0  0
  -24.3557   -9.4190   21.9191 C   0  0  0  0  0  0
  -23.6243   -8.2225   22.0758 C   0  0  0  0  0  0
  -22.4228   -8.0258   21.3549 C   0  0  0  0  0  0
  -21.9845   -9.0227   20.4663 C   0  0  0  0  0  0
  -22.7164  -10.2120   20.3075 C   0  0  0  0  0  0
  -21.6838   -6.0699   22.5260 C   0  0  0  0  0  0
  -21.4001   -6.5613   23.8188 C   0  0  0  0  0  0
  -21.3667   -5.6786   24.9162 C   0  0  0  0  0  0
  -21.6047   -4.3044   24.7229 C   0  0  0  0  0  0
  -21.8813   -3.8120   23.4349 C   0  0  0  0  0  0
  -21.9186   -4.6925   22.3394 C   0  0  0  0  0  0
  -22.7857  -13.5279   21.1851 C   0  0  0  0  0  0
  -22.1661   -4.2106   21.0978 F   0  0  0  0  0  0
  -21.5632   -3.4536   25.7753 F   0  0  0  0  0  0
  -30.0279  -13.2944   20.4452 N   0  0  0  0  0  0
  -26.2983  -12.9278   20.3349 N   0  0  0  0  0  0
  -25.9270  -11.6449   20.5772 N   0  0  0  0  0  0
  -22.0437  -12.8331   22.0417 N   0  0  0  0  0  0
  -25.4354  -15.1877   20.4281 N   0  0  0  0  0  0
  -31.8216  -14.6510   20.1498 O   0  0  0  0  0  0
  -21.6619   -6.8837   21.4229 O   0  0  0  0  0  0
  -22.3583  -14.5573   20.6668 O   0  0  0  0  0  0
  -24.6159  -31.8675   23.2102 C   0  0  0  0  0  0
  -25.9053  -32.4829   23.8407 C   0  0  1  0  0  0
  -27.2449  -27.4274   20.1274 C   0  0  0  0  0  0
  -25.5922  -33.8629   24.2343 N   0  0  0  0  0  0
  -23.4068  -30.4875   21.5494 C   0  0  2  0  0  0
  -24.8585  -28.9459   20.1209 C   0  0  0  0  0  0
  -22.7425  -29.4692   22.5014 C   0  0  0  0  0  0
  -18.0300  -28.1332   22.8414 C   0  0  0  0  0  0
  -24.1481  -36.7331   23.2625 C   0  0  0  0  0  0
  -25.9336  -30.8286   21.3684 C   0  0  0  0  0  0
  -26.0121  -29.4562   20.7312 C   0  0  0  0  0  0
  -27.2071  -28.7019   20.7355 C   0  0  0  0  0  0
  -26.0826  -26.9363   19.4960 C   0  0  0  0  0  0
  -24.8878  -27.6834   19.5002 C   0  0  0  0  0  0
  -23.6168  -29.8102   20.1666 C   0  0  0  0  0  0
  -25.4116  -36.3137   24.0334 C   0  0  1  0  0  0
  -20.5862  -28.3729   23.1325 C   0  0  2  0  0  0
  -20.6852  -26.9436   22.5559 C   0  0  0  0  0  0
  -19.5934  -26.6288   21.5306 C   0  0  0  0  0  0
  -18.2033  -26.7883   22.1560 C   0  0  0  0  0  0
  -19.1501  -28.8845   23.2851 C   0  0  0  0  0  0
  -18.9375  -30.1463   23.8808 C   0  0  0  0  0  0
  -17.6360  -30.6544   24.0446 C   0  0  0  0  0  0
  -25.9050  -34.9482   23.5146 C   0  0  0  0  0  0
  -16.5277  -29.8985   23.6218 C   0  0  0  0  0  0
  -16.7252  -28.6405   23.0250 C   0  0  0  0  0  0
  -26.4474  -31.6616   25.0741 C   0  0  0  0  0  0
  -25.3744  -31.3739   26.1502 C   0  0  0  0  0  0
  -27.0282  -30.3048   24.6123 C   0  0  0  0  0  0
  -27.6076  -32.4321   25.7472 C   0  0  0  0  0  0
  -27.5588  -37.1815   24.8462 C   0  0  0  0  0  0
  -21.4155  -29.3090   22.3735 N   0  0  0  0  0  0
  -26.4304  -37.3819   23.9410 N   0  0  0  0  0  0
  -24.6697  -31.0783   22.1002 N   0  0  0  0  0  0
  -23.4168  -28.8245   23.3085 O   0  0  0  0  0  0
  -28.4155  -26.7040   20.0855 O   0  0  0  0  0  0
  -26.5577  -34.8905   22.4684 O   0  0  0  0  0  0
  -23.5343  -32.1425   23.7465 O   0  0  0  0  0  0
  -28.0293  -21.6431   23.4506 C   0  0  0  0  0  0
  -28.4725  -21.9892   20.7131 C   0  0  0  0  0  0
  -27.8720  -22.9281   22.8774 C   0  0  0  0  0  0
  -28.3282  -20.5108   22.6592 C   0  0  0  0  0  0
  -28.0781  -23.1076   21.4842 C   0  0  0  0  0  0
  -28.5618  -20.7003   21.2748 C   0  0  0  0  0  0
  -27.4037  -24.0622   23.7773 C   0  0  0  0  0  0
  -27.7438  -24.4097   20.7398 C   0  0  0  0  0  0
  -28.2610  -19.1177   23.3037 C   0  0  0  0  0  0
  -29.9873  -15.6663   21.2811 C   0  0  0  0  0  0
  -30.1773  -15.8003   22.8098 C   0  0  0  0  0  0
  -29.2143  -16.8234   23.4620 C   0  0  0  0  0  0
  -28.5788  -25.6660   21.0677 C   0  0  0  0  0  0
  -29.3904  -18.2166   22.9767 N   0  3  0  0  0  0
  -28.9047  -19.3709   20.2212 Cl  0  0  0  0  0  0
  -31.4667  -12.4255   19.1157 H   0  0  0  0  0  0
  -30.3417  -11.3107   19.8323 H   0  0  0  0  0  0
  -29.7372  -11.7549   17.4406 H   0  0  0  0  0  0
  -29.6354  -13.4690   17.7514 H   0  0  0  0  0  0
  -27.8619  -11.2756   18.8745 H   0  0  0  0  0  0
  -27.3525  -12.5486   17.7971 H   0  0  0  0  0  0
  -27.6933  -14.2311   19.5349 H   0  0  0  0  0  0
  -28.6848  -11.9748   21.3597 H   0  0  0  0  0  0
  -28.4546  -13.6181   21.8548 H   0  0  0  0  0  0
  -25.2676   -9.5697   22.4797 H   0  0  0  0  0  0
  -23.9938   -7.4630   22.7492 H   0  0  0  0  0  0
  -21.0756   -8.8737   19.9003 H   0  0  0  0  0  0
  -22.3565  -10.9662   19.6217 H   0  0  0  0  0  0
  -21.1979   -7.6123   23.9680 H   0  0  0  0  0  0
  -21.1515   -6.0522   25.9075 H   0  0  0  0  0  0
  -22.0589   -2.7580   23.2863 H   0  0  0  0  0  0
  -22.3977  -12.0021   22.4910 H   0  0  0  0  0  0
  -21.1063  -13.1427   22.2547 H   0  0  0  0  0  0
  -24.6786  -15.8444   20.5835 H   0  0  0  0  0  0
  -26.2838  -15.6304   20.0975 H   0  0  0  0  0  0
  -26.7156  -32.5508   23.1196 H   0  0  0  0  0  0
  -25.0162  -33.9809   25.0549 H   0  0  0  0  0  0
  -22.6953  -31.3022   21.4039 H   0  0  0  0  0  0
  -23.3734  -35.9667   23.3302 H   0  0  0  0  0  0
  -24.3590  -36.8921   22.2036 H   0  0  0  0  0  0
  -23.7204  -37.6537   23.6612 H   0  0  0  0  0  0
  -26.0412  -31.5864   20.5892 H   0  0  0  0  0  0
  -26.8237  -30.8895   21.9825 H   0  0  0  0  0  0
  -28.0960  -29.0971   21.2070 H   0  0  0  0  0  0
  -26.1031  -25.9834   18.9865 H   0  0  0  0  0  0
  -24.0070  -27.2886   19.0130 H   0  0  0  0  0  0
  -23.7235  -30.5787   19.4010 H   0  0  0  0  0  0
  -22.7409  -29.2225   19.8784 H   0  0  0  0  0  0
  -25.1268  -36.2050   25.0827 H   0  0  0  0  0  0
  -20.9869  -28.3336   24.1469 H   0  0  0  0  0  0
  -20.5698  -26.2405   23.3821 H   0  0  0  0  0  0
  -21.6787  -26.7501   22.1486 H   0  0  0  0  0  0
  -19.7105  -25.6132   21.1512 H   0  0  0  0  0  0
  -19.6987  -27.2936   20.6724 H   0  0  0  0  0  0
  -17.4471  -26.6652   21.3812 H   0  0  0  0  0  0
  -18.0278  -26.0000   22.8885 H   0  0  0  0  0  0
  -19.7806  -30.7346   24.2152 H   0  0  0  0  0  0
  -17.4884  -31.6229   24.5032 H   0  0  0  0  0  0
  -15.5269  -30.2858   23.7539 H   0  0  0  0  0  0
  -15.8691  -28.0678   22.6917 H   0  0  0  0  0  0
  -24.5953  -30.7037   25.7867 H   0  0  0  0  0  0
  -24.8885  -32.2886   26.4897 H   0  0  0  0  0  0
  -25.8096  -30.8980   27.0303 H   0  0  0  0  0  0
  -26.2816  -29.6833   24.1177 H   0  0  0  0  0  0
  -27.4047  -29.7267   25.4573 H   0  0  0  0  0  0
  -27.8650  -30.4352   23.9262 H   0  0  0  0  0  0
  -27.2742  -33.3632   26.2067 H   0  0  0  0  0  0
  -28.3843  -32.6877   25.0252 H   0  0  0  0  0  0
  -28.0799  -31.8451   26.5362 H   0  0  0  0  0  0
  -28.2629  -38.0087   24.7527 H   0  0  0  0  0  0
  -28.1055  -36.2631   24.6281 H   0  0  0  0  0  0
  -27.2315  -37.1473   25.8862 H   0  0  0  0  0  0
  -20.9295  -29.8824   21.6975 H   0  0  0  0  0  0
  -26.0205  -38.2899   24.1415 H   0  0  0  0  0  0
  -27.8407  -21.5101   24.5083 H   0  0  0  0  0  0
  -28.6438  -22.0971   19.6518 H   0  0  0  0  0  0
  -26.9743  -23.6713   24.6994 H   0  0  0  0  0  0
  -26.6288  -24.6597   23.2986 H   0  0  0  0  0  0
  -28.2283  -24.7163   24.0585 H   0  0  0  0  0  0
  -26.6892  -24.6229   20.9115 H   0  0  0  0  0  0
  -27.8323  -24.2261   19.6687 H   0  0  0  0  0  0
  -27.3259  -18.6591   22.9788 H   0  0  0  0  0  0
  -28.1906  -19.2041   24.3895 H   0  0  0  0  0  0
  -30.3774  -16.5649   20.8037 H   0  0  0  0  0  0
  -28.9295  -15.6577   21.0212 H   0  0  0  0  0  0
  -31.2136  -16.0521   23.0435 H   0  0  0  0  0  0
  -29.9995  -14.8292   23.2756 H   0  0  0  0  0  0
  -29.3490  -16.8111   24.5456 H   0  0  0  0  0  0
  -28.1889  -16.4940   23.2861 H   0  0  0  0  0  0
  -29.6378  -25.4006   21.0690 H   0  0  0  0  0  0
  -28.3521  -26.0435   22.0653 H   0  0  0  0  0  0
  -30.2459  -18.6034   23.3407 H   0  0  0  0  0  0
  -29.4514  -18.2094   21.9696 H   0  0  0  0  0  0
  1 25  1  0  0  0
  1 30  2  0  0  0
  1 80  1  0  0  0
  2  3  1  0  0  0
  2 25  1  0  0  0
  2 86  1  0  0  0
  2 87  1  0  0  0
  3  4  1  0  0  0
  3 88  1  0  0  0
  3 89  1  0  0  0
  4  5  1  0  0  0
  4 90  1  0  0  0
  4 91  1  0  0  0
  5  6  1  0  0  0
  5 26  1  0  0  0
  5 92  1  0  0  0
  6 25  1  0  0  0
  6 93  1  0  0  0
  6 94  1  0  0  0
  7  8  2  0  0  0
  7 26  1  0  0  0
  7 29  1  0  0  0
  8  9  1  0  0  0
  8 22  1  0  0  0
  9 10  1  0  0  0
  9 27  2  0  0  0
 10 11  2  0  0  0
 10 15  1  0  0  0
 11 12  1  0  0  0
 11 95  1  0  0  0
 12 13  2  0  0  0
 12 96  1  0  0  0
 13 14  1  0  0  0
 13 31  1  0  0  0
 14 15  2  0  0  0
 14 97  1  0  0  0
 15 98  1  0  0  0
 16 17  2  0  0  0
 16 21  1  0  0  0
 16 31  1  0  0  0
 17 18  1  0  0  0
 17 99  1  0  0  0
 18 19  2  0  0  0
 18100  1  0  0  0
 19 20  1  0  0  0
 19 24  1  0  0  0
 20 21  2  0  0  0
 20101  1  0  0  0
 21 23  1  0  0  0
 22 28  1  0  0  0
 22 32  2  0  0  0
 26 27  1  0  0  0
 28102  1  0  0  0
 28103  1  0  0  0
 29104  1  0  0  0
 29105  1  0  0  0
 33 34  1  0  0  0
 33 66  1  0  0  0
 33 70  2  0  0  0
 34 36  1  0  0  0
 34 59  1  0  0  0
 34106  1  0  0  0
 35 44  2  0  0  0
 35 45  1  0  0  0
 35 68  1  0  0  0
 36 56  1  0  0  0
 36107  1  0  0  0
 37 39  1  0  0  0
 37 47  1  0  0  0
 37 66  1  0  0  0
 37108  1  0  0  0
 38 43  2  0  0  0
 38 46  1  0  0  0
 38 47  1  0  0  0
 39 64  1  0  0  0
 39 67  2  0  0  0
 40 52  1  0  0  0
 40 53  2  0  0  0
 40 58  1  0  0  0
 41109  1  0  0  0
 41110  1  0  0  0
 41111  1  0  0  0
 41 48  1  0  0  0
 42 43  1  0  0  0
 42 66  1  0  0  0
 42112  1  0  0  0
 42113  1  0  0  0
 43 44  1  0  0  0
 44114  1  0  0  0
 45 46  2  0  0  0
 45115  1  0  0  0
 46116  1  0  0  0
 47117  1  0  0  0
 47118  1  0  0  0
 48 56  1  0  0  0
 48 65  1  0  0  0
 48119  1  0  0  0
 49 50  1  0  0  0
 49 53  1  0  0  0
 49 64  1  0  0  0
 49120  1  0  0  0
 50 51  1  0  0  0
 50121  1  0  0  0
 50122  1  0  0  0
 51 52  1  0  0  0
 51123  1  0  0  0
 51124  1  0  0  0
 52125  1  0  0  0
 52126  1  0  0  0
 53 54  1  0  0  0
 54 55  2  0  0  0
 54127  1  0  0  0
 55 57  1  0  0  0
 55128  1  0  0  0
 56 69  2  0  0  0
 57 58  2  0  0  0
 57129  1  0  0  0
 58130  1  0  0  0
 59 60  1  0  0  0
 59 61  1  0  0  0
 59 62  1  0  0  0
 60131  1  0  0  0
 60132  1  0  0  0
 60133  1  0  0  0
 61134  1  0  0  0
 61135  1  0  0  0
 61136  1  0  0  0
 62137  1  0  0  0
 62138  1  0  0  0
 62139  1  0  0  0
 63 65  1  0  0  0
 63140  1  0  0  0
 63141  1  0  0  0
 63142  1  0  0  0
 64143  1  0  0  0
 65144  1  0  0  0
 68 83  1  0  0  0
 71 73  2  0  0  0
 71 74  1  0  0  0
 71145  1  0  0  0
 72 75  2  0  0  0
 72 76  1  0  0  0
 72146  1  0  0  0
 73 75  1  0  0  0
 73 77  1  0  0  0
 74 76  2  0  0  0
 74 79  1  0  0  0
 75 78  1  0  0  0
 76 85  1  0  0  0
 77147  1  0  0  0
 77148  1  0  0  0
 77149  1  0  0  0
 78 83  1  0  0  0
 78150  1  0  0  0
 78151  1  0  0  0
 79 84  1  0  0  0
 79152  1  0  0  0
 79153  1  0  0  0
 80 81  1  0  0  0
 80154  1  0  0  0
 80155  1  0  0  0
 81 82  1  0  0  0
 81156  1  0  0  0
 81157  1  0  0  0
 82 84  1  0  0  0
 82158  1  0  0  0
 82159  1  0  0  0
 83160  1  0  0  0
 83161  1  0  0  0
 84162  1  0  0  0
 84163  1  0  0  0
M  CHG  1  84   1
M  ISO  4   1 100  68 101  80 100  83 101
M  END
> <chiral flag>
0

> <version>
0

> <s_m_source_file>
/data/baiqing/PycharmProjects/Reinvent-master-3.2/result/LINK_invent/BTK/process_docking_weight1_custom_sum_contain_oxygen_bond_distance_aromatic_linkinvent_7_9_3/rearranged_h_0030.sdf

> <i_m_source_file_index>
90

> <r_mmod_Potential_Energy-OPLS-2005>
-233.425338745117

> <r_mmod_Stretch_Energy-OPLS-2005>
36.6477279663086

> <r_mmod_Bend_Energy-OPLS-2005>
97.2650146484375

> <r_mmod_Torsional_Energy-OPLS-2005>
208.120819091797

> <r_mmod_Improper_Torsional_Energy-OPLS-2005>
4.69673109054565

> <r_mmod_Van_der_Waal_Energy-OPLS-2005>
141.60595703125

> <r_mmod_Electrostatic_Energy-OPLS-2005>
-287.991760253906

> <r_mmod_Solvation_Energy-OPLS-2005>
-447.120971679688

> <b_mmod_Minimization_Converged-OPLS-2005>
0

> <r_mmod_RMS_Derivative-OPLS-2005>
4.31150770187378

$$$$
90
                    3D
 Structure written by MMmdl.
161169  0  0  1  0            999 V2000
  -30.6961  -14.4744   20.5637 C   0  0  0  0  0  0
  -30.4282  -12.3024   19.4377 C   0  0  0  0  0  0
  -29.5008  -12.4893   18.2172 C   0  0  0  0  0  0
  -28.0234  -12.3442   18.6307 C   0  0  0  0  0  0
  -27.6624  -13.2002   19.8729 C   0  0  2  0  0  0
  -28.7006  -12.9950   21.0008 C   0  0  0  0  0  0
  -25.2584  -13.8142   20.5624 C   0  0  0  0  0  0
  -24.1814  -13.0449   20.9151 C   0  0  0  0  0  0
  -24.6356  -11.6904   20.8731 C   0  0  0  0  0  0
  -23.9022  -10.4291   21.0405 C   0  0  0  0  0  0
  -24.3584   -9.4215   21.9181 C   0  0  0  0  0  0
  -23.6262   -8.2256   22.0759 C   0  0  0  0  0  0
  -22.4248   -8.0286   21.3555 C   0  0  0  0  0  0
  -21.9871   -9.0251   20.4659 C   0  0  0  0  0  0
  -22.7197  -10.2130   20.3061 C   0  0  0  0  0  0
  -21.6854   -6.0720   22.5271 C   0  0  0  0  0  0
  -21.4016   -6.5620   23.8203 C   0  0  0  0  0  0
  -21.3661   -5.6780   24.9169 C   0  0  0  0  0  0
  -21.6051   -4.3042   24.7227 C   0  0  0  0  0  0
  -21.8818   -3.8130   23.4346 C   0  0  0  0  0  0
  -21.9184   -4.6944   22.3398 C   0  0  0  0  0  0
  -22.7843  -13.5265   21.1818 C   0  0  0  0  0  0
  -22.1661   -4.2127   21.0981 F   0  0  0  0  0  0
  -21.5628   -3.4533   25.7745 F   0  0  0  0  0  0
  -30.0374  -13.2891   20.4575 N   0  0  0  0  0  0
  -26.3005  -12.9296   20.3318 N   0  0  0  0  0  0
  -25.9282  -11.6469   20.5760 N   0  0  0  0  0  0
  -22.0471  -12.8287   22.0391 N   0  0  0  0  0  0
  -25.4358  -15.1845   20.3977 N   0  0  0  0  0  0
  -31.8203  -14.6675   20.0941 O   0  0  0  0  0  0
  -21.6642   -6.8867   21.4236 O   0  0  0  0  0  0
  -22.3543  -14.5570   20.6652 O   0  0  0  0  0  0
  -24.6137  -31.8683   23.2103 C   0  0  0  0  0  0
  -25.9044  -32.4816   23.8385 C   0  0  1  0  0  0
  -27.2334  -27.4312   20.0859 C   0  0  0  0  0  0
  -25.5911  -33.8620   24.2320 N   0  0  0  0  0  0
  -23.4003  -30.4910   21.5514 C   0  0  2  0  0  0
  -24.8430  -28.9539   20.1142 C   0  0  0  0  0  0
  -22.7396  -29.4653   22.5005 C   0  0  0  0  0  0
  -18.0261  -28.1381   22.8492 C   0  0  0  0  0  0
  -24.1492  -36.7333   23.2634 C   0  0  0  0  0  0
  -25.9275  -30.8290   21.3623 C   0  0  0  0  0  0
  -26.0016  -29.4618   20.7136 C   0  0  0  0  0  0
  -27.1937  -28.7042   20.7009 C   0  0  0  0  0  0
  -26.0570  -26.9420   19.4720 C   0  0  0  0  0  0
  -24.8663  -27.6925   19.4937 C   0  0  0  0  0  0
  -23.6061  -29.8216   20.1660 C   0  0  0  0  0  0
  -25.4112  -36.3112   24.0328 C   0  0  1  0  0  0
  -20.5849  -28.3665   23.1330 C   0  0  2  0  0  0
  -20.6749  -26.9405   22.5421 C   0  0  0  0  0  0
  -19.5741  -26.6387   21.5206 C   0  0  0  0  0  0
  -18.1914  -26.7936   22.1608 C   0  0  0  0  0  0
  -19.1509  -28.8838   23.2908 C   0  0  0  0  0  0
  -18.9446  -30.1442   23.8927 C   0  0  0  0  0  0
  -17.6450  -30.6589   24.0567 C   0  0  0  0  0  0
  -25.9039  -34.9471   23.5121 C   0  0  0  0  0  0
  -16.5341  -29.9098   23.6322 C   0  0  0  0  0  0
  -16.7246  -28.6507   23.0354 C   0  0  0  0  0  0
  -26.4477  -31.6597   25.0716 C   0  0  0  0  0  0
  -25.3757  -31.3712   26.1486 C   0  0  0  0  0  0
  -27.0294  -30.3034   24.6089 C   0  0  0  0  0  0
  -27.6077  -32.4300   25.7461 C   0  0  0  0  0  0
  -27.5585  -37.1812   24.8456 C   0  0  0  0  0  0
  -21.4128  -29.3044   22.3742 N   0  0  0  0  0  0
  -26.4294  -37.3798   23.9404 N   0  0  0  0  0  0
  -24.6658  -31.0782   22.0995 N   0  0  0  0  0  0
  -23.4177  -28.8206   23.3045 O   0  0  0  0  0  0
  -28.4288  -26.7412   20.1126 O   0  0  0  0  0  0
  -26.5599  -34.8927   22.4680 O   0  0  0  0  0  0
  -23.5332  -32.1435   23.7511 O   0  0  0  0  0  0
  -31.2169  -23.7549   18.9615 C   0  0  0  0  0  0
  -30.2523  -22.1966   20.5796 C   0  0  0  0  0  0
  -30.3261  -23.5031   20.0256 C   0  0  0  0  0  0
  -32.0457  -22.7316   18.4622 C   0  0  0  0  0  0
  -31.0894  -21.1595   20.0848 C   0  0  0  0  0  0
  -31.9766  -21.4412   19.0227 C   0  0  0  0  0  0
  -33.0308  -23.0256   17.3488 C   0  0  0  0  0  0
  -29.5702  -24.6885   20.6288 C   0  0  0  0  0  0
  -30.4043  -17.8344   21.8954 C   0  0  0  0  0  0
  -30.2079  -19.3472   21.6159 C   0  0  0  0  0  0
  -30.1311  -16.9179   20.6811 C   0  0  0  0  0  0
  -28.5051  -25.3586   19.7293 C   0  0  0  0  0  0
  -31.1295  -19.8515   20.6046 N   0  0  0  0  0  0
  -29.9527  -15.4959   21.0288 N   0  0  0  0  0  0
  -32.7809  -20.4561   18.5483 F   0  0  0  0  0  0
  -31.4732  -12.3977   19.1408 H   0  0  0  0  0  0
  -30.3307  -11.2954   19.8437 H   0  0  0  0  0  0
  -29.7449  -11.7572   17.4475 H   0  0  0  0  0  0
  -29.6633  -13.4702   17.7667 H   0  0  0  0  0  0
  -27.8463  -11.2901   18.8487 H   0  0  0  0  0  0
  -27.3674  -12.5928   17.7959 H   0  0  0  0  0  0
  -27.7065  -14.2427   19.5589 H   0  0  0  0  0  0
  -28.6686  -11.9648   21.3591 H   0  0  0  0  0  0
  -28.4557  -13.6123   21.8666 H   0  0  0  0  0  0
  -25.2740   -9.5679   22.4740 H   0  0  0  0  0  0
  -23.9976   -7.4638   22.7455 H   0  0  0  0  0  0
  -21.0811   -8.8756   19.8965 H   0  0  0  0  0  0
  -22.3657  -10.9656   19.6153 H   0  0  0  0  0  0
  -21.2039   -7.6133   23.9697 H   0  0  0  0  0  0
  -21.1481   -6.0520   25.9066 H   0  0  0  0  0  0
  -22.0600   -2.7592   23.2857 H   0  0  0  0  0  0
  -22.4086  -11.9975   22.4836 H   0  0  0  0  0  0
  -21.1088  -13.1328   22.2581 H   0  0  0  0  0  0
  -24.6720  -15.8465   20.4837 H   0  0  0  0  0  0
  -26.2892  -15.6067   20.0527 H   0  0  0  0  0  0
  -26.7117  -32.5520   23.1148 H   0  0  0  0  0  0
  -25.0066  -33.9784   25.0469 H   0  0  0  0  0  0
  -22.6869  -31.3058   21.4123 H   0  0  0  0  0  0
  -23.3733  -35.9686   23.3303 H   0  0  0  0  0  0
  -24.3585  -36.8952   22.2047 H   0  0  0  0  0  0
  -23.7265  -37.6547   23.6652 H   0  0  0  0  0  0
  -26.0359  -31.5887   20.5870 H   0  0  0  0  0  0
  -26.8179  -30.8887   21.9771 H   0  0  0  0  0  0
  -28.0860  -29.0925   21.1704 H   0  0  0  0  0  0
  -26.0364  -25.9900   18.9621 H   0  0  0  0  0  0
  -23.9778  -27.2971   19.0208 H   0  0  0  0  0  0
  -23.7164  -30.5952   19.4051 H   0  0  0  0  0  0
  -22.7276  -29.2438   19.8721 H   0  0  0  0  0  0
  -25.1284  -36.1978   25.0816 H   0  0  0  0  0  0
  -20.9928  -28.3234   24.1458 H   0  0  0  0  0  0
  -20.5631  -26.2283   23.3607 H   0  0  0  0  0  0
  -21.6626  -26.7448   22.1232 H   0  0  0  0  0  0
  -19.6906  -25.6299   21.1233 H   0  0  0  0  0  0
  -19.6687  -27.3194   20.6736 H   0  0  0  0  0  0
  -17.4181  -26.6684   21.4005 H   0  0  0  0  0  0
  -18.0314  -26.0071   22.8996 H   0  0  0  0  0  0
  -19.7920  -30.7238   24.2326 H   0  0  0  0  0  0
  -17.5007  -31.6273   24.5162 H   0  0  0  0  0  0
  -15.5340  -30.3009   23.7635 H   0  0  0  0  0  0
  -15.8644  -28.0821   22.7084 H   0  0  0  0  0  0
  -24.5909  -30.7081   25.7831 H   0  0  0  0  0  0
  -24.8975  -32.2871   26.4966 H   0  0  0  0  0  0
  -25.8122  -30.8852   27.0224 H   0  0  0  0  0  0
  -26.2820  -29.6795   24.1179 H   0  0  0  0  0  0
  -27.4094  -29.7284   25.4544 H   0  0  0  0  0  0
  -27.8645  -30.4342   23.9206 H   0  0  0  0  0  0
  -27.2727  -33.3597   26.2073 H   0  0  0  0  0  0
  -28.3863  -32.6862   25.0261 H   0  0  0  0  0  0
  -28.0774  -31.8399   26.5342 H   0  0  0  0  0  0
  -28.2605  -38.0106   24.7495 H   0  0  0  0  0  0
  -28.1073  -36.2636   24.6277 H   0  0  0  0  0  0
  -27.2311  -37.1476   25.8863 H   0  0  0  0  0  0
  -20.9285  -29.8764   21.6968 H   0  0  0  0  0  0
  -26.0183  -38.2875   24.1410 H   0  0  0  0  0  0
  -31.2921  -24.7515   18.5479 H   0  0  0  0  0  0
  -29.5860  -22.0109   21.4093 H   0  0  0  0  0  0
  -33.2292  -24.0949   17.2671 H   0  0  0  0  0  0
  -32.6436  -22.6717   16.3927 H   0  0  0  0  0  0
  -33.9827  -22.5279   17.5396 H   0  0  0  0  0  0
  -30.3283  -25.4309   20.8763 H   0  0  0  0  0  0
  -29.1186  -24.4088   21.5816 H   0  0  0  0  0  0
  -29.7316  -17.5556   22.7070 H   0  0  0  0  0  0
  -31.4144  -17.6539   22.2658 H   0  0  0  0  0  0
  -30.3595  -19.9036   22.5435 H   0  0  0  0  0  0
  -29.1810  -19.5362   21.2984 H   0  0  0  0  0  0
  -30.9193  -17.0537   19.9376 H   0  0  0  0  0  0
  -29.2133  -17.2464   20.1921 H   0  0  0  0  0  0
  -27.5706  -24.8082   19.8327 H   0  0  0  0  0  0
  -28.7920  -25.3209   18.6771 H   0  0  0  0  0  0
  -31.8269  -19.2237   20.2125 H   0  0  0  0  0  0
  -29.0561  -15.2386   21.4106 H   0  0  0  0  0  0
  1 25  1  0  0  0
  1 30  2  0  0  0
  1 84  1  0  0  0
  2  3  1  0  0  0
  2 25  1  0  0  0
  2 86  1  0  0  0
  2 87  1  0  0  0
  3  4  1  0  0  0
  3 88  1  0  0  0
  3 89  1  0  0  0
  4  5  1  0  0  0
  4 90  1  0  0  0
  4 91  1  0  0  0
  5  6  1  0  0  0
  5 26  1  0  0  0
  5 92  1  0  0  0
  6 25  1  0  0  0
  6 93  1  0  0  0
  6 94  1  0  0  0
  7  8  2  0  0  0
  7 26  1  0  0  0
  7 29  1  0  0  0
  8  9  1  0  0  0
  8 22  1  0  0  0
  9 10  1  0  0  0
  9 27  2  0  0  0
 10 11  2  0  0  0
 10 15  1  0  0  0
 11 12  1  0  0  0
 11 95  1  0  0  0
 12 13  2  0  0  0
 12 96  1  0  0  0
 13 14  1  0  0  0
 13 31  1  0  0  0
 14 15  2  0  0  0
 14 97  1  0  0  0
 15 98  1  0  0  0
 16 17  2  0  0  0
 16 21  1  0  0  0
 16 31  1  0  0  0
 17 18  1  0  0  0
 17 99  1  0  0  0
 18 19  2  0  0  0
 18100  1  0  0  0
 19 20  1  0  0  0
 19 24  1  0  0  0
 20 21  2  0  0  0
 20101  1  0  0  0
 21 23  1  0  0  0
 22 28  1  0  0  0
 22 32  2  0  0  0
 26 27  1  0  0  0
 28102  1  0  0  0
 28103  1  0  0  0
 29104  1  0  0  0
 29105  1  0  0  0
 33 34  1  0  0  0
 33 66  1  0  0  0
 33 70  2  0  0  0
 34 36  1  0  0  0
 34 59  1  0  0  0
 34106  1  0  0  0
 35 44  2  0  0  0
 35 45  1  0  0  0
 35 68  1  0  0  0
 36 56  1  0  0  0
 36107  1  0  0  0
 37 39  1  0  0  0
 37 47  1  0  0  0
 37 66  1  0  0  0
 37108  1  0  0  0
 38 43  2  0  0  0
 38 46  1  0  0  0
 38 47  1  0  0  0
 39 64  1  0  0  0
 39 67  2  0  0  0
 40 52  1  0  0  0
 40 53  2  0  0  0
 40 58  1  0  0  0
 41109  1  0  0  0
 41110  1  0  0  0
 41111  1  0  0  0
 41 48  1  0  0  0
 42 43  1  0  0  0
 42 66  1  0  0  0
 42112  1  0  0  0
 42113  1  0  0  0
 43 44  1  0  0  0
 44114  1  0  0  0
 45 46  2  0  0  0
 45115  1  0  0  0
 46116  1  0  0  0
 47117  1  0  0  0
 47118  1  0  0  0
 48 56  1  0  0  0
 48 65  1  0  0  0
 48119  1  0  0  0
 49 50  1  0  0  0
 49 53  1  0  0  0
 49 64  1  0  0  0
 49120  1  0  0  0
 50 51  1  0  0  0
 50121  1  0  0  0
 50122  1  0  0  0
 51 52  1  0  0  0
 51123  1  0  0  0
 51124  1  0  0  0
 52125  1  0  0  0
 52126  1  0  0  0
 53 54  1  0  0  0
 54 55  2  0  0  0
 54127  1  0  0  0
 55 57  1  0  0  0
 55128  1  0  0  0
 56 69  2  0  0  0
 57 58  2  0  0  0
 57129  1  0  0  0
 58130  1  0  0  0
 59 60  1  0  0  0
 59 61  1  0  0  0
 59 62  1  0  0  0
 60131  1  0  0  0
 60132  1  0  0  0
 60133  1  0  0  0
 61134  1  0  0  0
 61135  1  0  0  0
 61136  1  0  0  0
 62137  1  0  0  0
 62138  1  0  0  0
 62139  1  0  0  0
 63 65  1  0  0  0
 63140  1  0  0  0
 63141  1  0  0  0
 63142  1  0  0  0
 64143  1  0  0  0
 65144  1  0  0  0
 68 82  1  0  0  0
 71 73  2  0  0  0
 71 74  1  0  0  0
 71145  1  0  0  0
 72 73  1  0  0  0
 72 75  2  0  0  0
 72146  1  0  0  0
 73 78  1  0  0  0
 74 76  2  0  0  0
 74 77  1  0  0  0
 75 76  1  0  0  0
 75 83  1  0  0  0
 76 85  1  0  0  0
 77147  1  0  0  0
 77148  1  0  0  0
 77149  1  0  0  0
 78 82  1  0  0  0
 78150  1  0  0  0
 78151  1  0  0  0
 79 80  1  0  0  0
 79 81  1  0  0  0
 79152  1  0  0  0
 79153  1  0  0  0
 80 83  1  0  0  0
 80154  1  0  0  0
 80155  1  0  0  0
 81 84  1  0  0  0
 81156  1  0  0  0
 81157  1  0  0  0
 82158  1  0  0  0
 82159  1  0  0  0
 83160  1  0  0  0
 84161  1  0  0  0
M  ISO  4   1 100  68 101  82 101  84 100
M  END
> <chiral flag>
0

> <version>
0

> <s_m_source_file>
/data/baiqing/PycharmProjects/Reinvent-master-3.2/result/LINK_invent/BTK/process_docking_weight1_custom_sum_contain_oxygen_bond_distance_aromatic_linkinvent_7_9_3/rearranged_h_0030.sdf

> <i_m_source_file_index>
91

> <r_mmod_Potential_Energy-OPLS-2005>
-7.6957573890686

> <r_mmod_Stretch_Energy-OPLS-2005>
37.0156860351562

> <r_mmod_Bend_Energy-OPLS-2005>
117.210487365723

> <r_mmod_Torsional_Energy-OPLS-2005>
204.312652587891

> <r_mmod_Improper_Torsional_Energy-OPLS-2005>
6.21086692810059

> <r_mmod_Van_der_Waal_Energy-OPLS-2005>
152.68017578125

> <r_mmod_Electrostatic_Energy-OPLS-2005>
-329.809753417969

> <r_mmod_Solvation_Energy-OPLS-2005>
-209.060623168945

> <b_mmod_Minimization_Converged-OPLS-2005>
0

> <r_mmod_RMS_Derivative-OPLS-2005>
2.90558910369873

$$$$
91
                    3D
 Structure written by MMmdl.
177186  0  0  1  0            999 V2000
  -30.7586  -14.3372   20.7253 C   0  0  0  0  0  0
  -30.4158  -12.2883   19.3888 C   0  0  0  0  0  0
  -29.4813  -12.5342   18.1884 C   0  0  0  0  0  0
  -28.0051  -12.3893   18.6034 C   0  0  0  0  0  0
  -27.6650  -13.1979   19.8817 C   0  0  2  0  0  0
  -28.6969  -12.9159   20.9925 C   0  0  0  0  0  0
  -25.2606  -13.8149   20.5662 C   0  0  0  0  0  0
  -24.1838  -13.0439   20.9146 C   0  0  0  0  0  0
  -24.6374  -11.6904   20.8708 C   0  0  0  0  0  0
  -23.9037  -10.4298   21.0404 C   0  0  0  0  0  0
  -24.3594   -9.4220   21.9181 C   0  0  0  0  0  0
  -23.6276   -8.2251   22.0763 C   0  0  0  0  0  0
  -22.4270   -8.0276   21.3535 C   0  0  0  0  0  0
  -21.9896   -9.0251   20.4637 C   0  0  0  0  0  0
  -22.7218  -10.2136   20.3052 C   0  0  0  0  0  0
  -21.6848   -6.0725   22.5268 C   0  0  0  0  0  0
  -21.4019   -6.5628   23.8200 C   0  0  0  0  0  0
  -21.3654   -5.6791   24.9159 C   0  0  0  0  0  0
  -21.6052   -4.3054   24.7226 C   0  0  0  0  0  0
  -21.8818   -3.8142   23.4345 C   0  0  0  0  0  0
  -21.9201   -4.6954   22.3392 C   0  0  0  0  0  0
  -22.7875  -13.5258   21.1830 C   0  0  0  0  0  0
  -22.1664   -4.2144   21.0968 F   0  0  0  0  0  0
  -21.5633   -3.4539   25.7732 F   0  0  0  0  0  0
  -30.0416  -13.2160   20.4649 N   0  0  0  0  0  0
  -26.3042  -12.9301   20.3364 N   0  0  0  0  0  0
  -25.9296  -11.6461   20.5723 N   0  0  0  0  0  0
  -22.0511  -12.8237   22.0381 N   0  0  0  0  0  0
  -25.4369  -15.1855   20.4074 N   0  0  0  0  0  0
  -31.7792  -14.6516   20.1034 O   0  0  0  0  0  0
  -21.6641   -6.8874   21.4228 O   0  0  0  0  0  0
  -22.3555  -14.5572   20.6694 O   0  0  0  0  0  0
  -24.6118  -31.8667   23.2155 C   0  0  0  0  0  0
  -25.9022  -32.4820   23.8425 C   0  0  1  0  0  0
  -27.2252  -27.4676   20.0678 C   0  0  0  0  0  0
  -25.5890  -33.8621   24.2341 N   0  0  0  0  0  0
  -23.3953  -30.4990   21.5509 C   0  0  2  0  0  0
  -24.8348  -28.9586   20.1319 C   0  0  0  0  0  0
  -22.7311  -29.4733   22.4984 C   0  0  0  0  0  0
  -18.0270  -28.1359   22.8510 C   0  0  0  0  0  0
  -24.1488  -36.7308   23.2641 C   0  0  0  0  0  0
  -25.9238  -30.8391   21.3665 C   0  0  0  0  0  0
  -25.9989  -29.4749   20.7158 C   0  0  0  0  0  0
  -27.2002  -28.7332   20.6871 C   0  0  0  0  0  0
  -26.0309  -26.9328   19.5425 C   0  0  0  0  0  0
  -24.8403  -27.6785   19.5534 C   0  0  0  0  0  0
  -23.6008  -29.8277   20.1696 C   0  0  0  0  0  0
  -25.4093  -36.3087   24.0344 C   0  0  1  0  0  0
  -20.5856  -28.3670   23.1313 C   0  0  2  0  0  0
  -20.6760  -26.9424   22.5385 C   0  0  0  0  0  0
  -19.5769  -26.6397   21.5162 C   0  0  0  0  0  0
  -18.1938  -26.7932   22.1589 C   0  0  0  0  0  0
  -19.1511  -28.8820   23.2923 C   0  0  0  0  0  0
  -18.9439  -30.1420   23.8949 C   0  0  0  0  0  0
  -17.6454  -30.6592   24.0576 C   0  0  0  0  0  0
  -25.8994  -34.9457   23.5099 C   0  0  0  0  0  0
  -16.5337  -29.9096   23.6373 C   0  0  0  0  0  0
  -16.7260  -28.6490   23.0435 C   0  0  0  0  0  0
  -26.4492  -31.6630   25.0747 C   0  0  0  0  0  0
  -25.3806  -31.3703   26.1522 C   0  0  0  0  0  0
  -27.0362  -30.3087   24.6106 C   0  0  0  0  0  0
  -27.6021  -32.4388   25.7534 C   0  0  0  0  0  0
  -27.5584  -37.1795   24.8473 C   0  0  0  0  0  0
  -21.4054  -29.3080   22.3698 N   0  0  0  0  0  0
  -26.4286  -37.3773   23.9431 N   0  0  0  0  0  0
  -24.6622  -31.0808   22.1031 N   0  0  0  0  0  0
  -23.4061  -28.8299   23.3055 O   0  0  0  0  0  0
  -28.3982  -26.7627   19.9607 O   0  0  0  0  0  0
  -26.5496  -34.8929   22.4629 O   0  0  0  0  0  0
  -23.5310  -32.1400   23.7543 O   0  0  0  0  0  0
  -28.2805  -24.5617   17.5011 C   0  0  0  0  0  0
  -28.2434  -25.9822   17.6106 C   0  0  0  0  0  0
  -27.3761  -24.2247   16.5036 C   0  0  0  0  0  0
  -27.3966  -26.4989   16.6559 C   0  0  0  0  0  0
  -25.4620  -24.1920   14.5522 C   0  0  0  0  0  0
  -25.8704  -25.4059   15.0160 C   0  0  0  0  0  0
  -26.9015  -23.0102   15.8977 C   0  0  0  0  0  0
  -29.1147  -23.6729   18.3831 C   0  0  0  0  0  0
  -27.0239  -27.9236   16.3528 C   0  0  0  0  0  0
  -28.9902  -26.7949   18.6547 C   0  0  0  0  0  0
  -27.5050  -21.6457   16.1974 C   0  0  0  0  0  0
  -27.0657  -20.9863   17.5253 C   0  0  0  0  0  0
  -27.9975  -19.8068   17.8621 C   0  0  0  0  0  0
  -27.9607  -19.2954   19.3132 C   0  0  0  0  0  0
  -29.2729  -18.5615   19.6333 C   0  0  0  0  0  0
  -29.3358  -17.9011   21.0165 C   0  0  0  0  0  0
  -30.7777  -17.4742   21.3623 C   0  0  0  0  0  0
  -30.8868  -16.2722   22.3170 C   0  0  0  0  0  0
  -25.9695  -23.0004   14.9870 N   0  0  0  0  0  0
  -26.8158  -25.4245   15.9918 N   0  0  0  0  0  0
  -30.2962  -15.0595   21.7569 N   0  0  0  0  0  0
  -31.4595  -12.4004   19.0872 H   0  0  0  0  0  0
  -30.3166  -11.2598   19.7397 H   0  0  0  0  0  0
  -29.7127  -11.8347   17.3837 H   0  0  0  0  0  0
  -29.6529  -13.5345   17.7859 H   0  0  0  0  0  0
  -27.8075  -11.3311   18.7689 H   0  0  0  0  0  0
  -27.3548  -12.6948   17.7826 H   0  0  0  0  0  0
  -27.7315  -14.2553   19.6261 H   0  0  0  0  0  0
  -28.6560  -11.8660   21.2857 H   0  0  0  0  0  0
  -28.4313  -13.4687   21.8937 H   0  0  0  0  0  0
  -25.2742   -9.5702   22.4752 H   0  0  0  0  0  0
  -23.9985   -7.4656   22.7500 H   0  0  0  0  0  0
  -21.0837   -8.8755   19.8945 H   0  0  0  0  0  0
  -22.3671  -10.9664   19.6164 H   0  0  0  0  0  0
  -21.2000   -7.6136   23.9694 H   0  0  0  0  0  0
  -21.1477   -6.0519   25.9057 H   0  0  0  0  0  0
  -22.0605   -2.7613   23.2838 H   0  0  0  0  0  0
  -22.4120  -11.9883   22.4750 H   0  0  0  0  0  0
  -21.1144  -13.1257   22.2604 H   0  0  0  0  0  0
  -24.6789  -15.8501   20.5243 H   0  0  0  0  0  0
  -26.3000  -15.6177   20.1000 H   0  0  0  0  0  0
  -26.7061  -32.5548   23.1173 H   0  0  0  0  0  0
  -25.0228  -33.9807   25.0610 H   0  0  0  0  0  0
  -22.6871  -31.3180   21.4100 H   0  0  0  0  0  0
  -23.3742  -35.9648   23.3284 H   0  0  0  0  0  0
  -24.3609  -36.8930   22.2061 H   0  0  0  0  0  0
  -23.7252  -37.6506   23.6672 H   0  0  0  0  0  0
  -26.0257  -31.6057   20.5970 H   0  0  0  0  0  0
  -26.8143  -30.8895   21.9831 H   0  0  0  0  0  0
  -28.1090  -29.1360   21.1118 H   0  0  0  0  0  0
  -26.0285  -25.9497   19.0953 H   0  0  0  0  0  0
  -23.9385  -27.2630   19.1230 H   0  0  0  0  0  0
  -23.7143  -30.6018   19.4090 H   0  0  0  0  0  0
  -22.7240  -29.2483   19.8746 H   0  0  0  0  0  0
  -25.1288  -36.1863   25.0834 H   0  0  0  0  0  0
  -20.9962  -28.3202   24.1427 H   0  0  0  0  0  0
  -20.5637  -26.2270   23.3554 H   0  0  0  0  0  0
  -21.6642  -26.7487   22.1195 H   0  0  0  0  0  0
  -19.6934  -25.6285   21.1257 H   0  0  0  0  0  0
  -19.6730  -27.3137   20.6635 H   0  0  0  0  0  0
  -17.4215  -26.6697   21.4002 H   0  0  0  0  0  0
  -18.0405  -25.9998   22.8911 H   0  0  0  0  0  0
  -19.7885  -30.7230   24.2365 H   0  0  0  0  0  0
  -17.5000  -31.6321   24.5090 H   0  0  0  0  0  0
  -15.5340  -30.3030   23.7682 H   0  0  0  0  0  0
  -15.8642  -28.0792   22.7264 H   0  0  0  0  0  0
  -24.5981  -30.7023   25.7933 H   0  0  0  0  0  0
  -24.9026  -32.2856   26.5015 H   0  0  0  0  0  0
  -25.8255  -30.8892   27.0234 H   0  0  0  0  0  0
  -26.2898  -29.6771   24.1259 H   0  0  0  0  0  0
  -27.4275  -29.7401   25.4551 H   0  0  0  0  0  0
  -27.8684  -30.4503   23.9200 H   0  0  0  0  0  0
  -27.2594  -33.3679   26.2115 H   0  0  0  0  0  0
  -28.3862  -32.6945   25.0406 H   0  0  0  0  0  0
  -28.0645  -31.8493   26.5455 H   0  0  0  0  0  0
  -28.2569  -38.0119   24.7492 H   0  0  0  0  0  0
  -28.1117  -36.2633   24.6311 H   0  0  0  0  0  0
  -27.2304  -37.1429   25.8879 H   0  0  0  0  0  0
  -20.9130  -29.8761   21.6947 H   0  0  0  0  0  0
  -26.0138  -38.2856   24.1363 H   0  0  0  0  0  0
  -24.6982  -24.1209   13.7831 H   0  0  0  0  0  0
  -25.4713  -26.3526   14.6667 H   0  0  0  0  0  0
  -30.0525  -24.1505   18.6664 H   0  0  0  0  0  0
  -29.3959  -22.7369   17.9084 H   0  0  0  0  0  0
  -28.5848  -23.4275   19.3039 H   0  0  0  0  0  0
  -27.7799  -28.6253   16.6986 H   0  0  0  0  0  0
  -26.0800  -28.1906   16.8300 H   0  0  0  0  0  0
  -26.9102  -28.0889   15.2812 H   0  0  0  0  0  0
  -29.1060  -27.8352   18.3484 H   0  0  0  0  0  0
  -30.0082  -26.4204   18.7563 H   0  0  0  0  0  0
  -28.5865  -21.7636   16.1479 H   0  0  0  0  0  0
  -27.2724  -20.9645   15.3750 H   0  0  0  0  0  0
  -26.0258  -20.6614   17.4703 H   0  0  0  0  0  0
  -27.1094  -21.7221   18.3286 H   0  0  0  0  0  0
  -29.0182  -20.1289   17.6534 H   0  0  0  0  0  0
  -27.8058  -18.9775   17.1789 H   0  0  0  0  0  0
  -27.1032  -18.6366   19.4614 H   0  0  0  0  0  0
  -27.8404  -20.1255   20.0115 H   0  0  0  0  0  0
  -30.0929  -19.2768   19.5466 H   0  0  0  0  0  0
  -29.4564  -17.7989   18.8749 H   0  0  0  0  0  0
  -28.6596  -17.0472   21.0225 H   0  0  0  0  0  0
  -28.9714  -18.5834   21.7851 H   0  0  0  0  0  0
  -31.2995  -18.3273   21.7986 H   0  0  0  0  0  0
  -31.3262  -17.2427   20.4482 H   0  0  0  0  0  0
  -30.3884  -16.4999   23.2602 H   0  0  0  0  0  0
  -31.9346  -16.0795   22.5579 H   0  0  0  0  0  0
  -29.4631  -14.7074   22.2060 H   0  0  0  0  0  0
  1 25  1  0  0  0
  1 30  2  0  0  0
  1 91  1  0  0  0
  2  3  1  0  0  0
  2 25  1  0  0  0
  2 92  1  0  0  0
  2 93  1  0  0  0
  3  4  1  0  0  0
  3 94  1  0  0  0
  3 95  1  0  0  0
  4  5  1  0  0  0
  4 96  1  0  0  0
  4 97  1  0  0  0
  5  6  1  0  0  0
  5 26  1  0  0  0
  5 98  1  0  0  0
  6 25  1  0  0  0
  6 99  1  0  0  0
  6100  1  0  0  0
  7  8  2  0  0  0
  7 26  1  0  0  0
  7 29  1  0  0  0
  8  9  1  0  0  0
  8 22  1  0  0  0
  9 10  1  0  0  0
  9 27  2  0  0  0
 10 11  2  0  0  0
 10 15  1  0  0  0
 11 12  1  0  0  0
 11101  1  0  0  0
 12 13  2  0  0  0
 12102  1  0  0  0
 13 14  1  0  0  0
 13 31  1  0  0  0
 14 15  2  0  0  0
 14103  1  0  0  0
 15104  1  0  0  0
 16 17  2  0  0  0
 16 21  1  0  0  0
 16 31  1  0  0  0
 17 18  1  0  0  0
 17105  1  0  0  0
 18 19  2  0  0  0
 18106  1  0  0  0
 19 20  1  0  0  0
 19 24  1  0  0  0
 20 21  2  0  0  0
 20107  1  0  0  0
 21 23  1  0  0  0
 22 28  1  0  0  0
 22 32  2  0  0  0
 26 27  1  0  0  0
 28108  1  0  0  0
 28109  1  0  0  0
 29110  1  0  0  0
 29111  1  0  0  0
 33 34  1  0  0  0
 33 66  1  0  0  0
 33 70  2  0  0  0
 34 36  1  0  0  0
 34 59  1  0  0  0
 34112  1  0  0  0
 35 44  2  0  0  0
 35 45  1  0  0  0
 35 68  1  0  0  0
 36 56  1  0  0  0
 36113  1  0  0  0
 37 39  1  0  0  0
 37 47  1  0  0  0
 37 66  1  0  0  0
 37114  1  0  0  0
 38 43  2  0  0  0
 38 46  1  0  0  0
 38 47  1  0  0  0
 39 64  1  0  0  0
 39 67  2  0  0  0
 40 52  1  0  0  0
 40 53  2  0  0  0
 40 58  1  0  0  0
 41115  1  0  0  0
 41116  1  0  0  0
 41117  1  0  0  0
 41 48  1  0  0  0
 42 43  1  0  0  0
 42 66  1  0  0  0
 42118  1  0  0  0
 42119  1  0  0  0
 43 44  1  0  0  0
 44120  1  0  0  0
 45 46  2  0  0  0
 45121  1  0  0  0
 46122  1  0  0  0
 47123  1  0  0  0
 47124  1  0  0  0
 48 56  1  0  0  0
 48 65  1  0  0  0
 48125  1  0  0  0
 49 50  1  0  0  0
 49 53  1  0  0  0
 49 64  1  0  0  0
 49126  1  0  0  0
 50 51  1  0  0  0
 50127  1  0  0  0
 50128  1  0  0  0
 51 52  1  0  0  0
 51129  1  0  0  0
 51130  1  0  0  0
 52131  1  0  0  0
 52132  1  0  0  0
 53 54  1  0  0  0
 54 55  2  0  0  0
 54133  1  0  0  0
 55 57  1  0  0  0
 55134  1  0  0  0
 56 69  2  0  0  0
 57 58  2  0  0  0
 57135  1  0  0  0
 58136  1  0  0  0
 59 60  1  0  0  0
 59 61  1  0  0  0
 59 62  1  0  0  0
 60137  1  0  0  0
 60138  1  0  0  0
 60139  1  0  0  0
 61140  1  0  0  0
 61141  1  0  0  0
 61142  1  0  0  0
 62143  1  0  0  0
 62144  1  0  0  0
 62145  1  0  0  0
 63 65  1  0  0  0
 63146  1  0  0  0
 63147  1  0  0  0
 63148  1  0  0  0
 64149  1  0  0  0
 65150  1  0  0  0
 68 80  1  0  0  0
 71 72  1  0  0  0
 71 73  2  0  0  0
 71 78  1  0  0  0
 72 74  2  0  0  0
 72 80  1  0  0  0
 73 77  1  0  0  0
 73 90  1  0  0  0
 74 79  1  0  0  0
 74 90  1  0  0  0
 75 76  2  0  0  0
 75 89  1  0  0  0
 75151  1  0  0  0
 76 90  1  0  0  0
 76152  1  0  0  0
 77 81  1  0  0  0
 77 89  2  0  0  0
 78153  1  0  0  0
 78154  1  0  0  0
 78155  1  0  0  0
 79156  1  0  0  0
 79157  1  0  0  0
 79158  1  0  0  0
 80159  1  0  0  0
 80160  1  0  0  0
 81 82  1  0  0  0
 81161  1  0  0  0
 81162  1  0  0  0
 82 83  1  0  0  0
 82163  1  0  0  0
 82164  1  0  0  0
 83 84  1  0  0  0
 83165  1  0  0  0
 83166  1  0  0  0
 84 85  1  0  0  0
 84167  1  0  0  0
 84168  1  0  0  0
 85 86  1  0  0  0
 85169  1  0  0  0
 85170  1  0  0  0
 86 87  1  0  0  0
 86171  1  0  0  0
 86172  1  0  0  0
 87 88  1  0  0  0
 87173  1  0  0  0
 87174  1  0  0  0
 88 91  1  0  0  0
 88175  1  0  0  0
 88176  1  0  0  0
 91177  1  0  0  0
M  ISO  4   1 100  68 101  80 101  91 100
M  END
> <chiral flag>
0

> <version>
0

> <s_m_source_file>
/data/baiqing/PycharmProjects/Reinvent-master-3.2/result/LINK_invent/BTK/process_docking_weight1_custom_sum_contain_oxygen_bond_distance_aromatic_linkinvent_7_9_3/rearranged_h_0030.sdf

> <i_m_source_file_index>
92

> <r_mmod_Potential_Energy-OPLS-2005>
-214.235046386719

> <r_mmod_Stretch_Energy-OPLS-2005>
34.5876655578613

> <r_mmod_Bend_Energy-OPLS-2005>
100.486557006836

> <r_mmod_Torsional_Energy-OPLS-2005>
233.39875793457

> <r_mmod_Improper_Torsional_Energy-OPLS-2005>
2.10299253463745

> <r_mmod_Van_der_Waal_Energy-OPLS-2005>
149.040954589844

> <r_mmod_Electrostatic_Energy-OPLS-2005>
-530.400207519531

> <r_mmod_Solvation_Energy-OPLS-2005>
-211.974349975586

> <b_mmod_Minimization_Converged-OPLS-2005>
0

> <r_mmod_RMS_Derivative-OPLS-2005>
3.89235162734985

$$$$
92
                    3D
 Structure written by MMmdl.
147155  0  0  1  0            999 V2000
  -30.4791  -15.1826   20.3806 C   0  0  0  0  0  0
  -30.4374  -12.7511   19.5174 C   0  0  0  0  0  0
  -29.5304  -12.5597   18.2777 C   0  0  0  0  0  0
  -28.0746  -12.3017   18.7043 C   0  0  0  0  0  0
  -27.6147  -13.2695   19.8243 C   0  0  2  0  0  0
  -28.6521  -13.4144   20.9578 C   0  0  0  0  0  0
  -25.2403  -13.8242   20.5744 C   0  0  0  0  0  0
  -24.1747  -13.0438   20.9255 C   0  0  0  0  0  0
  -24.6397  -11.6933   20.8762 C   0  0  0  0  0  0
  -23.9090  -10.4292   21.0408 C   0  0  0  0  0  0
  -24.3634   -9.4206   21.9188 C   0  0  0  0  0  0
  -23.6302   -8.2243   22.0758 C   0  0  0  0  0  0
  -22.4284   -8.0283   21.3547 C   0  0  0  0  0  0
  -21.9926   -9.0258   20.4648 C   0  0  0  0  0  0
  -22.7260  -10.2135   20.3057 C   0  0  0  0  0  0
  -21.6855   -6.0739   22.5280 C   0  0  0  0  0  0
  -21.4015   -6.5641   23.8214 C   0  0  0  0  0  0
  -21.3660   -5.6793   24.9176 C   0  0  0  0  0  0
  -21.6043   -4.3056   24.7224 C   0  0  0  0  0  0
  -21.8818   -3.8149   23.4344 C   0  0  0  0  0  0
  -21.9192   -4.6966   22.3402 C   0  0  0  0  0  0
  -22.7764  -13.5191   21.1900 C   0  0  0  0  0  0
  -22.1661   -4.2151   21.0980 F   0  0  0  0  0  0
  -21.5629   -3.4540   25.7737 F   0  0  0  0  0  0
  -29.8946  -13.8935   20.3334 N   0  0  0  0  0  0
  -26.2830  -12.9510   20.3224 N   0  0  0  0  0  0
  -25.9332  -11.6621   20.5725 N   0  0  0  0  0  0
  -22.0421  -12.8175   22.0454 N   0  0  0  0  0  0
  -25.4042  -15.1976   20.4184 N   0  0  0  0  0  0
  -31.6990  -15.1812   20.1694 O   0  0  0  0  0  0
  -21.6642   -6.8883   21.4241 O   0  0  0  0  0  0
  -22.3442  -14.5490   20.6735 O   0  0  0  0  0  0
  -24.6595  -31.8284   23.1757 C   0  0  0  0  0  0
  -25.9295  -32.4612   23.8203 C   0  0  1  0  0  0
  -27.2147  -26.9745   20.1720 C   0  0  0  0  0  0
  -25.5981  -33.8427   24.2111 N   0  0  0  0  0  0
  -23.4715  -30.4438   21.5242 C   0  0  2  0  0  0
  -24.9239  -28.8441   20.1110 C   0  0  0  0  0  0
  -22.7647  -29.4473   22.4798 C   0  0  0  0  0  0
  -18.0318  -28.1411   22.8470 C   0  0  0  0  0  0
  -24.1495  -36.7220   23.2648 C   0  0  0  0  0  0
  -26.0395  -30.6502   21.3994 C   0  0  0  0  0  0
  -26.1079  -29.2458   20.7421 C   0  0  0  0  0  0
  -27.2506  -28.3313   20.7507 C   0  0  0  0  0  0
  -26.0020  -26.7206   19.4902 C   0  0  0  0  0  0
  -24.8937  -27.6003   19.4655 C   0  0  0  0  0  0
  -23.7081  -29.7659   20.1479 C   0  0  0  0  0  0
  -25.4133  -36.2983   24.0304 C   0  0  1  0  0  0
  -20.5944  -28.3751   23.1196 C   0  0  2  0  0  0
  -20.6801  -26.9436   22.5403 C   0  0  0  0  0  0
  -19.5774  -26.6382   21.5215 C   0  0  0  0  0  0
  -18.1955  -26.7946   22.1623 C   0  0  0  0  0  0
  -19.1580  -28.8899   23.2823 C   0  0  0  0  0  0
  -18.9492  -30.1493   23.8853 C   0  0  0  0  0  0
  -17.6486  -30.6600   24.0557 C   0  0  0  0  0  0
  -25.9094  -34.9361   23.5022 C   0  0  0  0  0  0
  -16.5377  -29.9088   23.6343 C   0  0  0  0  0  0
  -16.7301  -28.6509   23.0359 C   0  0  0  0  0  0
  -26.4558  -31.6538   25.0708 C   0  0  0  0  0  0
  -25.3700  -31.3782   26.1376 C   0  0  0  0  0  0
  -27.0444  -30.2912   24.6409 C   0  0  0  0  0  0
  -27.6065  -32.4333   25.7500 C   0  0  0  0  0  0
  -27.5566  -37.1774   24.8471 C   0  0  0  0  0  0
  -21.4320  -29.3054   22.3547 N   0  0  0  0  0  0
  -26.4286  -37.3710   23.9398 N   0  0  0  0  0  0
  -24.7446  -30.9994   22.0870 N   0  0  0  0  0  0
  -23.4215  -28.8034   23.3017 O   0  0  0  0  0  0
  -28.2052  -25.8717   20.2521 O   0  0  0  0  0  0
  -26.5691  -34.8886   22.4611 O   0  0  0  0  0  0
  -23.5672  -32.1229   23.6875 O   0  0  0  0  0  0
  -29.6797  -20.5790   19.2606 C   0  0  0  0  0  0
  -28.3352  -21.7885   21.2918 C   0  0  0  0  0  0
  -29.4394  -19.6058   20.3190 C   0  0  0  0  0  0
  -28.5770  -22.7597   20.2283 C   0  0  0  0  0  0
  -28.7346  -20.3560   21.3506 C   0  0  0  0  0  0
  -29.2830  -22.0075   19.2009 C   0  0  0  0  0  0
  -30.1803  -18.0349   20.3942 C   0  0  0  0  0  0
  -27.8087  -24.3078   20.0587 C   0  0  0  0  0  0
  -29.7392  -16.4511   20.4584 N   0  0  0  0  0  0
  -28.3440  -19.5028   22.7987 Cl  0  0  0  0  0  0
  -29.6738  -22.8475   17.7439 Cl  0  0  0  0  0  0
  -31.4610  -12.9385   19.1904 H   0  0  0  0  0  0
  -30.4827  -11.8362   20.1105 H   0  0  0  0  0  0
  -29.8939  -11.7350   17.6632 H   0  0  0  0  0  0
  -29.5762  -13.4524   17.6522 H   0  0  0  0  0  0
  -28.0154  -11.2734   19.0633 H   0  0  0  0  0  0
  -27.4065  -12.3641   17.8445 H   0  0  0  0  0  0
  -27.5398  -14.2438   19.3404 H   0  0  0  0  0  0
  -28.8011  -12.4721   21.4872 H   0  0  0  0  0  0
  -28.3083  -14.1382   21.6987 H   0  0  0  0  0  0
  -25.2778   -9.5680   22.4767 H   0  0  0  0  0  0
  -24.0008   -7.4633   22.7477 H   0  0  0  0  0  0
  -21.0859   -8.8777   19.8952 H   0  0  0  0  0  0
  -22.3718  -10.9674   19.6165 H   0  0  0  0  0  0
  -21.2008   -7.6151   23.9717 H   0  0  0  0  0  0
  -21.1483   -6.0525   25.9079 H   0  0  0  0  0  0
  -22.0595   -2.7610   23.2843 H   0  0  0  0  0  0
  -22.4048  -11.9842   22.4845 H   0  0  0  0  0  0
  -21.1033  -13.1183   22.2652 H   0  0  0  0  0  0
  -24.6352  -15.8483   20.5365 H   0  0  0  0  0  0
  -26.2457  -15.6409   20.0744 H   0  0  0  0  0  0
  -26.7357  -32.5161   23.0914 H   0  0  0  0  0  0
  -25.0094  -33.9518   25.0236 H   0  0  0  0  0  0
  -22.7830  -31.2751   21.3583 H   0  0  0  0  0  0
  -23.3757  -35.9553   23.3305 H   0  0  0  0  0  0
  -24.3574  -36.8859   22.2063 H   0  0  0  0  0  0
  -23.7255  -37.6414   23.6697 H   0  0  0  0  0  0
  -26.2149  -31.3940   20.6213 H   0  0  0  0  0  0
  -26.9023  -30.7052   22.0516 H   0  0  0  0  0  0
  -28.1457  -28.6350   21.2749 H   0  0  0  0  0  0
  -25.8632  -25.7756   18.9889 H   0  0  0  0  0  0
  -23.9945  -27.2879   18.9529 H   0  0  0  0  0  0
  -23.8600  -30.5373   19.3918 H   0  0  0  0  0  0
  -22.8183  -29.2192   19.8301 H   0  0  0  0  0  0
  -25.1334  -36.1790   25.0798 H   0  0  0  0  0  0
  -21.0037  -28.3351   24.1318 H   0  0  0  0  0  0
  -20.5688  -26.2367   23.3641 H   0  0  0  0  0  0
  -21.6662  -26.7421   22.1206 H   0  0  0  0  0  0
  -19.6931  -25.6282   21.1270 H   0  0  0  0  0  0
  -19.6708  -27.3170   20.6728 H   0  0  0  0  0  0
  -17.4224  -26.6689   21.4025 H   0  0  0  0  0  0
  -18.0349  -26.0103   22.9033 H   0  0  0  0  0  0
  -19.7968  -30.7326   24.2199 H   0  0  0  0  0  0
  -17.5037  -31.6275   24.5170 H   0  0  0  0  0  0
  -15.5375  -30.2975   23.7700 H   0  0  0  0  0  0
  -15.8702  -28.0817   22.7094 H   0  0  0  0  0  0
  -24.5893  -30.7111   25.7696 H   0  0  0  0  0  0
  -24.8876  -32.2983   26.4689 H   0  0  0  0  0  0
  -25.7952  -30.9027   27.0225 H   0  0  0  0  0  0
  -26.3100  -29.6603   24.1391 H   0  0  0  0  0  0
  -27.3965  -29.7258   25.5048 H   0  0  0  0  0  0
  -27.9047  -30.4106   23.9820 H   0  0  0  0  0  0
  -27.2648  -33.3679   26.1965 H   0  0  0  0  0  0
  -28.3938  -32.6821   25.0368 H   0  0  0  0  0  0
  -28.0667  -31.8529   26.5508 H   0  0  0  0  0  0
  -28.2595  -38.0057   24.7482 H   0  0  0  0  0  0
  -28.1047  -36.2584   24.6345 H   0  0  0  0  0  0
  -27.2277  -37.1473   25.8873 H   0  0  0  0  0  0
  -20.9562  -29.8746   21.6687 H   0  0  0  0  0  0
  -26.0136  -38.2774   24.1389 H   0  0  0  0  0  0
  -30.2365  -20.2145   18.4094 H   0  0  0  0  0  0
  -27.7681  -22.1530   22.1355 H   0  0  0  0  0  0
  -30.8293  -18.1294   21.2654 H   0  0  0  0  0  0
  -30.8813  -18.0540   19.5589 H   0  0  0  0  0  0
  -26.9078  -24.1981   20.6630 H   0  0  0  0  0  0
  -27.4468  -24.2647   19.0323 H   0  0  0  0  0  0
  -28.7457  -16.3168   20.5722 H   0  0  0  0  0  0
  1 25  1  0  0  0
  1 30  2  0  0  0
  1 79  1  0  0  0
  2  3  1  0  0  0
  2 25  1  0  0  0
  2 82  1  0  0  0
  2 83  1  0  0  0
  3  4  1  0  0  0
  3 84  1  0  0  0
  3 85  1  0  0  0
  4  5  1  0  0  0
  4 86  1  0  0  0
  4 87  1  0  0  0
  5  6  1  0  0  0
  5 26  1  0  0  0
  5 88  1  0  0  0
  6 25  1  0  0  0
  6 89  1  0  0  0
  6 90  1  0  0  0
  7  8  2  0  0  0
  7 26  1  0  0  0
  7 29  1  0  0  0
  8  9  1  0  0  0
  8 22  1  0  0  0
  9 10  1  0  0  0
  9 27  2  0  0  0
 10 11  2  0  0  0
 10 15  1  0  0  0
 11 12  1  0  0  0
 11 91  1  0  0  0
 12 13  2  0  0  0
 12 92  1  0  0  0
 13 14  1  0  0  0
 13 31  1  0  0  0
 14 15  2  0  0  0
 14 93  1  0  0  0
 15 94  1  0  0  0
 16 17  2  0  0  0
 16 21  1  0  0  0
 16 31  1  0  0  0
 17 18  1  0  0  0
 17 95  1  0  0  0
 18 19  2  0  0  0
 18 96  1  0  0  0
 19 20  1  0  0  0
 19 24  1  0  0  0
 20 21  2  0  0  0
 20 97  1  0  0  0
 21 23  1  0  0  0
 22 28  1  0  0  0
 22 32  2  0  0  0
 26 27  1  0  0  0
 28 98  1  0  0  0
 28 99  1  0  0  0
 29100  1  0  0  0
 29101  1  0  0  0
 33 34  1  0  0  0
 33 66  1  0  0  0
 33 70  2  0  0  0
 34 36  1  0  0  0
 34 59  1  0  0  0
 34102  1  0  0  0
 35 44  2  0  0  0
 35 45  1  0  0  0
 35 68  1  0  0  0
 36 56  1  0  0  0
 36103  1  0  0  0
 37 39  1  0  0  0
 37 47  1  0  0  0
 37 66  1  0  0  0
 37104  1  0  0  0
 38 43  2  0  0  0
 38 46  1  0  0  0
 38 47  1  0  0  0
 39 64  1  0  0  0
 39 67  2  0  0  0
 40 52  1  0  0  0
 40 53  2  0  0  0
 40 58  1  0  0  0
 41105  1  0  0  0
 41106  1  0  0  0
 41107  1  0  0  0
 41 48  1  0  0  0
 42 43  1  0  0  0
 42 66  1  0  0  0
 42108  1  0  0  0
 42109  1  0  0  0
 43 44  1  0  0  0
 44110  1  0  0  0
 45 46  2  0  0  0
 45111  1  0  0  0
 46112  1  0  0  0
 47113  1  0  0  0
 47114  1  0  0  0
 48 56  1  0  0  0
 48 65  1  0  0  0
 48115  1  0  0  0
 49 50  1  0  0  0
 49 53  1  0  0  0
 49 64  1  0  0  0
 49116  1  0  0  0
 50 51  1  0  0  0
 50117  1  0  0  0
 50118  1  0  0  0
 51 52  1  0  0  0
 51119  1  0  0  0
 51120  1  0  0  0
 52121  1  0  0  0
 52122  1  0  0  0
 53 54  1  0  0  0
 54 55  2  0  0  0
 54123  1  0  0  0
 55 57  1  0  0  0
 55124  1  0  0  0
 56 69  2  0  0  0
 57 58  2  0  0  0
 57125  1  0  0  0
 58126  1  0  0  0
 59 60  1  0  0  0
 59 61  1  0  0  0
 59 62  1  0  0  0
 60127  1  0  0  0
 60128  1  0  0  0
 60129  1  0  0  0
 61130  1  0  0  0
 61131  1  0  0  0
 61132  1  0  0  0
 62133  1  0  0  0
 62134  1  0  0  0
 62135  1  0  0  0
 63 65  1  0  0  0
 63136  1  0  0  0
 63137  1  0  0  0
 63138  1  0  0  0
 64139  1  0  0  0
 65140  1  0  0  0
 68 78  1  0  0  0
 71 73  2  0  0  0
 71 76  1  0  0  0
 71141  1  0  0  0
 72 74  1  0  0  0
 72 75  2  0  0  0
 72142  1  0  0  0
 73 75  1  0  0  0
 73 77  1  0  0  0
 74 76  2  0  0  0
 74 78  1  0  0  0
 75 80  1  0  0  0
 76 81  1  0  0  0
 77 79  1  0  0  0
 77143  1  0  0  0
 77144  1  0  0  0
 78145  1  0  0  0
 78146  1  0  0  0
 79147  1  0  0  0
M  ISO  4   1 100  68 101  78 101  79 100
M  END
> <chiral flag>
0

> <version>
0

> <s_m_source_file>
/data/baiqing/PycharmProjects/Reinvent-master-3.2/result/LINK_invent/BTK/process_docking_weight1_custom_sum_contain_oxygen_bond_distance_aromatic_linkinvent_7_9_3/rearranged_h_0030.sdf

> <i_m_source_file_index>
93

> <r_mmod_Potential_Energy-OPLS-2005>
1006.21594238281

> <r_mmod_Stretch_Energy-OPLS-2005>
445.494445800781

> <r_mmod_Bend_Energy-OPLS-2005>
410.511474609375

> <r_mmod_Torsional_Energy-OPLS-2005>
227.678451538086

> <r_mmod_Improper_Torsional_Energy-OPLS-2005>
9.72424793243408

> <r_mmod_Van_der_Waal_Energy-OPLS-2005>
128.632690429688

> <r_mmod_Electrostatic_Energy-OPLS-2005>
-387.786926269531

> <r_mmod_Solvation_Energy-OPLS-2005>
-213.734100341797

> <b_mmod_Minimization_Converged-OPLS-2005>
0

> <r_mmod_RMS_Derivative-OPLS-2005>
0.687332689762115

$$$$
93
                    3D
 Structure written by MMmdl.
156164  0  0  1  0            999 V2000
  -30.6021  -14.6355   20.5666 C   0  0  0  0  0  0
  -30.4520  -12.4126   19.4464 C   0  0  0  0  0  0
  -29.5101  -12.5144   18.2245 C   0  0  0  0  0  0
  -28.0377  -12.3313   18.6381 C   0  0  0  0  0  0
  -27.6556  -13.2026   19.8644 C   0  0  2  0  0  0
  -28.6935  -13.0320   20.9972 C   0  0  0  0  0  0
  -25.2546  -13.8126   20.5570 C   0  0  0  0  0  0
  -24.1803  -13.0427   20.9132 C   0  0  0  0  0  0
  -24.6360  -11.6889   20.8704 C   0  0  0  0  0  0
  -23.9039  -10.4279   21.0385 C   0  0  0  0  0  0
  -24.3630   -9.4216   21.9168 C   0  0  0  0  0  0
  -23.6319   -8.2233   22.0743 C   0  0  0  0  0  0
  -22.4293   -8.0261   21.3532 C   0  0  0  0  0  0
  -21.9924   -9.0224   20.4634 C   0  0  0  0  0  0
  -22.7216  -10.2116   20.3045 C   0  0  0  0  0  0
  -21.6860   -6.0715   22.5268 C   0  0  0  0  0  0
  -21.3996   -6.5617   23.8200 C   0  0  0  0  0  0
  -21.3687   -5.6776   24.9164 C   0  0  0  0  0  0
  -21.6068   -4.3034   24.7214 C   0  0  0  0  0  0
  -21.8824   -3.8125   23.4326 C   0  0  0  0  0  0
  -21.9190   -4.6941   22.3384 C   0  0  0  0  0  0
  -22.7843  -13.5237   21.1825 C   0  0  0  0  0  0
  -22.1647   -4.2127   21.0950 F   0  0  0  0  0  0
  -21.5692   -3.4527   25.7726 F   0  0  0  0  0  0
  -30.0112  -13.4019   20.4526 N   0  0  0  0  0  0
  -26.2972  -12.9281   20.3259 N   0  0  0  0  0  0
  -25.9285  -11.6467   20.5724 N   0  0  0  0  0  0
  -22.0488  -12.8250   22.0414 N   0  0  0  0  0  0
  -25.4245  -15.1845   20.3885 N   0  0  0  0  0  0
  -31.7420  -14.8469   20.1398 O   0  0  0  0  0  0
  -21.6658   -6.8849   21.4220 O   0  0  0  0  0  0
  -22.3529  -14.5553   20.6690 O   0  0  0  0  0  0
  -24.6190  -31.8647   23.2056 C   0  0  0  0  0  0
  -25.9083  -32.4785   23.8349 C   0  0  1  0  0  0
  -27.2220  -27.3609   20.1307 C   0  0  0  0  0  0
  -25.5942  -33.8584   24.2280 N   0  0  0  0  0  0
  -23.4068  -30.4893   21.5481 C   0  0  2  0  0  0
  -24.8547  -28.9542   20.1077 C   0  0  0  0  0  0
  -22.7417  -29.4653   22.4972 C   0  0  0  0  0  0
  -18.0266  -28.1386   22.8494 C   0  0  0  0  0  0
  -24.1501  -36.7298   23.2636 C   0  0  0  0  0  0
  -25.9414  -30.8122   21.3695 C   0  0  0  0  0  0
  -26.0182  -29.4438   20.7149 C   0  0  0  0  0  0
  -27.2025  -28.6582   20.7183 C   0  0  0  0  0  0
  -26.0415  -26.9237   19.4816 C   0  0  0  0  0  0
  -24.8673  -27.6986   19.4820 C   0  0  0  0  0  0
  -23.6180  -29.8285   20.1601 C   0  0  0  0  0  0
  -25.4122  -36.3063   24.0317 C   0  0  1  0  0  0
  -20.5866  -28.3652   23.1325 C   0  0  2  0  0  0
  -20.6773  -26.9393   22.5443 C   0  0  0  0  0  0
  -19.5771  -26.6374   21.5229 C   0  0  0  0  0  0
  -18.1922  -26.7933   22.1612 C   0  0  0  0  0  0
  -19.1520  -28.8839   23.2899 C   0  0  0  0  0  0
  -18.9446  -30.1451   23.8896 C   0  0  0  0  0  0
  -17.6442  -30.6581   24.0565 C   0  0  0  0  0  0
  -25.9068  -34.9446   23.5093 C   0  0  0  0  0  0
  -16.5330  -29.9068   23.6348 C   0  0  0  0  0  0
  -16.7257  -28.6502   23.0348 C   0  0  0  0  0  0
  -26.4513  -31.6582   25.0698 C   0  0  0  0  0  0
  -25.3774  -31.3705   26.1440 C   0  0  0  0  0  0
  -27.0359  -30.3002   24.6142 C   0  0  0  0  0  0
  -27.6072  -32.4310   25.7479 C   0  0  0  0  0  0
  -27.5583  -37.1793   24.8453 C   0  0  0  0  0  0
  -21.4140  -29.3002   22.3717 N   0  0  0  0  0  0
  -26.4285  -37.3756   23.9412 N   0  0  0  0  0  0
  -24.6739  -31.0713   22.0985 N   0  0  0  0  0  0
  -23.4186  -28.8206   23.3015 O   0  0  0  0  0  0
  -28.3486  -26.5367   20.2242 O   0  0  0  0  0  0
  -26.5625  -34.8907   22.4649 O   0  0  0  0  0  0
  -23.5385  -32.1438   23.7452 O   0  0  0  0  0  0
  -28.7239  -17.7973   21.6081 C   0  0  0  0  0  0
  -30.9315  -17.9065   20.6751 C   0  0  0  0  0  0
  -29.7654  -20.0325   21.3058 C   0  0  0  0  0  0
  -29.8456  -17.0927   21.0921 C   0  0  0  0  0  0
  -28.6729  -19.2177   21.7061 C   0  0  0  0  0  0
  -30.9004  -19.3331   20.7927 C   0  0  0  0  0  0
  -29.6833  -22.2655   19.0868 C   0  0  0  0  0  0
  -29.7552  -21.5926   21.5459 C   0  0  0  0  0  0
  -29.1759  -24.1200   20.8055 C   0  0  0  0  0  0
  -28.1674  -25.0872   20.0634 C   0  0  0  0  0  0
  -29.0962  -22.5598   20.4785 C   0  0  1  0  0  0
  -29.7836  -15.6270   21.0497 N   0  0  0  0  0  0
  -27.2403  -19.9334   22.3670 Cl  0  0  0  0  0  0
  -32.3191  -20.2031   20.3238 Cl  0  0  0  0  0  0
  -31.4820  -12.5856   19.1340 H   0  0  0  0  0  0
  -30.4301  -11.4064   19.8654 H   0  0  0  0  0  0
  -29.7861  -11.7687   17.4784 H   0  0  0  0  0  0
  -29.6346  -13.4874   17.7450 H   0  0  0  0  0  0
  -27.8916  -11.2763   18.8772 H   0  0  0  0  0  0
  -27.3810  -12.5415   17.7919 H   0  0  0  0  0  0
  -27.6842  -14.2394   19.5318 H   0  0  0  0  0  0
  -28.7101  -11.9968   21.3415 H   0  0  0  0  0  0
  -28.4208  -13.6281   21.8682 H   0  0  0  0  0  0
  -25.2777   -9.5720   22.4747 H   0  0  0  0  0  0
  -24.0043   -7.4630   22.7486 H   0  0  0  0  0  0
  -21.0846   -8.8737   19.8947 H   0  0  0  0  0  0
  -22.3656  -10.9665   19.6174 H   0  0  0  0  0  0
  -21.1945   -7.6119   23.9693 H   0  0  0  0  0  0
  -21.1535   -6.0495   25.9077 H   0  0  0  0  0  0
  -22.0584   -2.7570   23.2824 H   0  0  0  0  0  0
  -22.4106  -11.9944   22.4851 H   0  0  0  0  0  0
  -21.1102  -13.1254   22.2611 H   0  0  0  0  0  0
  -24.6453  -15.8289   20.4629 H   0  0  0  0  0  0
  -26.2551  -15.6110   20.0023 H   0  0  0  0  0  0
  -26.7141  -32.5473   23.1094 H   0  0  0  0  0  0
  -25.0099  -33.9734   25.0432 H   0  0  0  0  0  0
  -22.6954  -31.3067   21.4144 H   0  0  0  0  0  0
  -23.3744  -35.9648   23.3282 H   0  0  0  0  0  0
  -24.3593  -36.8950   22.2054 H   0  0  0  0  0  0
  -23.7272  -37.6496   23.6689 H   0  0  0  0  0  0
  -26.0694  -31.5801   20.6058 H   0  0  0  0  0  0
  -26.8210  -30.8547   21.9987 H   0  0  0  0  0  0
  -28.0910  -29.0297   21.2110 H   0  0  0  0  0  0
  -26.0005  -25.9689   18.9787 H   0  0  0  0  0  0
  -23.9762  -27.3212   18.9986 H   0  0  0  0  0  0
  -23.7254  -30.6101   19.4058 H   0  0  0  0  0  0
  -22.7380  -29.2551   19.8603 H   0  0  0  0  0  0
  -25.1314  -36.1886   25.0801 H   0  0  0  0  0  0
  -20.9958  -28.3219   24.1446 H   0  0  0  0  0  0
  -20.5674  -26.2258   23.3623 H   0  0  0  0  0  0
  -21.6641  -26.7447   22.1227 H   0  0  0  0  0  0
  -19.6919  -25.6278   21.1260 H   0  0  0  0  0  0
  -19.6723  -27.3181   20.6761 H   0  0  0  0  0  0
  -17.4219  -26.6706   21.3982 H   0  0  0  0  0  0
  -18.0296  -26.0058   22.8988 H   0  0  0  0  0  0
  -19.7921  -30.7283   24.2248 H   0  0  0  0  0  0
  -17.4993  -31.6264   24.5154 H   0  0  0  0  0  0
  -15.5334  -30.2955   23.7697 H   0  0  0  0  0  0
  -15.8665  -28.0820   22.7059 H   0  0  0  0  0  0
  -24.5902  -30.7122   25.7756 H   0  0  0  0  0  0
  -24.9046  -32.2882   26.4934 H   0  0  0  0  0  0
  -25.8103  -30.8802   27.0163 H   0  0  0  0  0  0
  -26.2920  -29.6711   24.1239 H   0  0  0  0  0  0
  -27.4136  -29.7287   25.4628 H   0  0  0  0  0  0
  -27.8760  -30.4268   23.9311 H   0  0  0  0  0  0
  -27.2651  -33.3546   26.2153 H   0  0  0  0  0  0
  -28.3849  -32.6964   25.0308 H   0  0  0  0  0  0
  -28.0799  -31.8389   26.5324 H   0  0  0  0  0  0
  -28.2579  -38.0105   24.7506 H   0  0  0  0  0  0
  -28.1097  -36.2640   24.6262 H   0  0  0  0  0  0
  -27.2327  -37.1428   25.8859 H   0  0  0  0  0  0
  -20.9306  -29.8706   21.6933 H   0  0  0  0  0  0
  -26.0162  -38.2828   24.1402 H   0  0  0  0  0  0
  -27.8645  -17.2446   21.9569 H   0  0  0  0  0  0
  -31.8237  -17.4454   20.2785 H   0  0  0  0  0  0
  -29.3281  -21.3074   18.7055 H   0  0  0  0  0  0
  -30.7714  -22.2202   19.1170 H   0  0  0  0  0  0
  -29.4212  -23.0284   18.3559 H   0  0  0  0  0  0
  -30.7795  -21.9202   21.7307 H   0  0  0  0  0  0
  -29.2592  -21.7778   22.5011 H   0  0  0  0  0  0
  -28.9861  -24.2573   21.8702 H   0  0  0  0  0  0
  -30.1972  -24.4684   20.6455 H   0  0  0  0  0  0
  -27.1794  -24.7970   20.4226 H   0  0  0  0  0  0
  -28.1726  -24.8834   18.9937 H   0  0  0  0  0  0
  -28.0351  -22.3033   20.4524 H   0  0  0  0  0  0
  -28.9084  -15.2450   21.3778 H   0  0  0  0  0  0
  1 25  1  0  0  0
  1 30  2  0  0  0
  1 82  1  0  0  0
  2  3  1  0  0  0
  2 25  1  0  0  0
  2 85  1  0  0  0
  2 86  1  0  0  0
  3  4  1  0  0  0
  3 87  1  0  0  0
  3 88  1  0  0  0
  4  5  1  0  0  0
  4 89  1  0  0  0
  4 90  1  0  0  0
  5  6  1  0  0  0
  5 26  1  0  0  0
  5 91  1  0  0  0
  6 25  1  0  0  0
  6 92  1  0  0  0
  6 93  1  0  0  0
  7  8  2  0  0  0
  7 26  1  0  0  0
  7 29  1  0  0  0
  8  9  1  0  0  0
  8 22  1  0  0  0
  9 10  1  0  0  0
  9 27  2  0  0  0
 10 11  2  0  0  0
 10 15  1  0  0  0
 11 12  1  0  0  0
 11 94  1  0  0  0
 12 13  2  0  0  0
 12 95  1  0  0  0
 13 14  1  0  0  0
 13 31  1  0  0  0
 14 15  2  0  0  0
 14 96  1  0  0  0
 15 97  1  0  0  0
 16 17  2  0  0  0
 16 21  1  0  0  0
 16 31  1  0  0  0
 17 18  1  0  0  0
 17 98  1  0  0  0
 18 19  2  0  0  0
 18 99  1  0  0  0
 19 20  1  0  0  0
 19 24  1  0  0  0
 20 21  2  0  0  0
 20100  1  0  0  0
 21 23  1  0  0  0
 22 28  1  0  0  0
 22 32  2  0  0  0
 26 27  1  0  0  0
 28101  1  0  0  0
 28102  1  0  0  0
 29103  1  0  0  0
 29104  1  0  0  0
 33 34  1  0  0  0
 33 66  1  0  0  0
 33 70  2  0  0  0
 34 36  1  0  0  0
 34 59  1  0  0  0
 34105  1  0  0  0
 35 44  2  0  0  0
 35 45  1  0  0  0
 35 68  1  0  0  0
 36 56  1  0  0  0
 36106  1  0  0  0
 37 39  1  0  0  0
 37 47  1  0  0  0
 37 66  1  0  0  0
 37107  1  0  0  0
 38 43  2  0  0  0
 38 46  1  0  0  0
 38 47  1  0  0  0
 39 64  1  0  0  0
 39 67  2  0  0  0
 40 52  1  0  0  0
 40 53  2  0  0  0
 40 58  1  0  0  0
 41108  1  0  0  0
 41109  1  0  0  0
 41110  1  0  0  0
 41 48  1  0  0  0
 42 43  1  0  0  0
 42 66  1  0  0  0
 42111  1  0  0  0
 42112  1  0  0  0
 43 44  1  0  0  0
 44113  1  0  0  0
 45 46  2  0  0  0
 45114  1  0  0  0
 46115  1  0  0  0
 47116  1  0  0  0
 47117  1  0  0  0
 48 56  1  0  0  0
 48 65  1  0  0  0
 48118  1  0  0  0
 49 50  1  0  0  0
 49 53  1  0  0  0
 49 64  1  0  0  0
 49119  1  0  0  0
 50 51  1  0  0  0
 50120  1  0  0  0
 50121  1  0  0  0
 51 52  1  0  0  0
 51122  1  0  0  0
 51123  1  0  0  0
 52124  1  0  0  0
 52125  1  0  0  0
 53 54  1  0  0  0
 54 55  2  0  0  0
 54126  1  0  0  0
 55 57  1  0  0  0
 55127  1  0  0  0
 56 69  2  0  0  0
 57 58  2  0  0  0
 57128  1  0  0  0
 58129  1  0  0  0
 59 60  1  0  0  0
 59 61  1  0  0  0
 59 62  1  0  0  0
 60130  1  0  0  0
 60131  1  0  0  0
 60132  1  0  0  0
 61133  1  0  0  0
 61134  1  0  0  0
 61135  1  0  0  0
 62136  1  0  0  0
 62137  1  0  0  0
 62138  1  0  0  0
 63 65  1  0  0  0
 63139  1  0  0  0
 63140  1  0  0  0
 63141  1  0  0  0
 64142  1  0  0  0
 65143  1  0  0  0
 68 80  1  0  0  0
 71 74  2  0  0  0
 71 75  1  0  0  0
 71144  1  0  0  0
 72 74  1  0  0  0
 72 76  2  0  0  0
 72145  1  0  0  0
 73 75  2  0  0  0
 73 76  1  0  0  0
 73 78  1  0  0  0
 74 82  1  0  0  0
 75 83  1  0  0  0
 76 84  1  0  0  0
 77146  1  0  0  0
 77147  1  0  0  0
 77148  1  0  0  0
 77 81  1  0  0  0
 78 81  1  0  0  0
 78149  1  0  0  0
 78150  1  0  0  0
 79 80  1  0  0  0
 79 81  1  0  0  0
 79151  1  0  0  0
 79152  1  0  0  0
 80153  1  0  0  0
 80154  1  0  0  0
 81155  1  0  0  0
 82156  1  0  0  0
M  ISO  4   1 100  68 101  80 101  82 100
M  END
> <chiral flag>
0

> <version>
0

> <s_m_source_file>
/data/baiqing/PycharmProjects/Reinvent-master-3.2/result/LINK_invent/BTK/process_docking_weight1_custom_sum_contain_oxygen_bond_distance_aromatic_linkinvent_7_9_3/rearranged_h_0030.sdf

> <i_m_source_file_index>
94

> <r_mmod_Potential_Energy-OPLS-2005>
71.3955307006836

> <r_mmod_Stretch_Energy-OPLS-2005>
74.5936660766602

> <r_mmod_Bend_Energy-OPLS-2005>
136.15673828125

> <r_mmod_Torsional_Energy-OPLS-2005>
213.851379394531

> <r_mmod_Improper_Torsional_Energy-OPLS-2005>
4.14204597473145

> <r_mmod_Van_der_Waal_Energy-OPLS-2005>
142.607727050781

> <r_mmod_Electrostatic_Energy-OPLS-2005>
-341.962341308594

> <r_mmod_Solvation_Energy-OPLS-2005>
-201.435852050781

> <b_mmod_Minimization_Converged-OPLS-2005>
0

> <r_mmod_RMS_Derivative-OPLS-2005>
4.54019737243652

$$$$
94
                    3D
 Structure written by MMmdl.
152160  0  0  1  0            999 V2000
  -30.5956  -14.6897   20.5060 C   0  0  0  0  0  0
  -30.4401  -12.4284   19.4616 C   0  0  0  0  0  0
  -29.5111  -12.5142   18.2286 C   0  0  0  0  0  0
  -28.0343  -12.3394   18.6375 C   0  0  0  0  0  0
  -27.6450  -13.2196   19.8540 C   0  0  2  0  0  0
  -28.6853  -13.1031   20.9880 C   0  0  0  0  0  0
  -25.2534  -13.8157   20.5670 C   0  0  0  0  0  0
  -24.1817  -13.0422   20.9208 C   0  0  0  0  0  0
  -24.6375  -11.6904   20.8737 C   0  0  0  0  0  0
  -23.9043  -10.4298   21.0402 C   0  0  0  0  0  0
  -24.3611   -9.4226   21.9172 C   0  0  0  0  0  0
  -23.6308   -8.2243   22.0727 C   0  0  0  0  0  0
  -22.4286   -8.0274   21.3525 C   0  0  0  0  0  0
  -21.9904   -9.0242   20.4633 C   0  0  0  0  0  0
  -22.7219  -10.2132   20.3060 C   0  0  0  0  0  0
  -21.6853   -6.0749   22.5286 C   0  0  0  0  0  0
  -21.4015   -6.5640   23.8220 C   0  0  0  0  0  0
  -21.3667   -5.6785   24.9178 C   0  0  0  0  0  0
  -21.6050   -4.3048   24.7217 C   0  0  0  0  0  0
  -21.8824   -3.8152   23.4330 C   0  0  0  0  0  0
  -21.9196   -4.6979   22.3403 C   0  0  0  0  0  0
  -22.7847  -13.5231   21.1866 C   0  0  0  0  0  0
  -22.1676   -4.2174   21.0978 F   0  0  0  0  0  0
  -21.5625   -3.4529   25.7724 F   0  0  0  0  0  0
  -29.9926  -13.4605   20.4194 N   0  0  0  0  0  0
  -26.2944  -12.9339   20.3260 N   0  0  0  0  0  0
  -25.9302  -11.6490   20.5715 N   0  0  0  0  0  0
  -22.0487  -12.8251   22.0435 N   0  0  0  0  0  0
  -25.4222  -15.1872   20.4026 N   0  0  0  0  0  0
  -31.7741  -14.8430   20.1743 O   0  0  0  0  0  0
  -21.6640   -6.8889   21.4242 O   0  0  0  0  0  0
  -22.3542  -14.5541   20.6714 O   0  0  0  0  0  0
  -24.6290  -31.8560   23.1993 C   0  0  0  0  0  0
  -25.9105  -32.4772   23.8343 C   0  0  1  0  0  0
  -27.2247  -27.2854   20.1265 C   0  0  0  0  0  0
  -25.5893  -33.8570   24.2257 N   0  0  0  0  0  0
  -23.4268  -30.4794   21.5418 C   0  0  2  0  0  0
  -24.8740  -28.9331   20.1128 C   0  0  0  0  0  0
  -22.7504  -29.4611   22.4914 C   0  0  0  0  0  0
  -18.0284  -28.1431   22.8494 C   0  0  0  0  0  0
  -24.1475  -36.7295   23.2645 C   0  0  0  0  0  0
  -25.9699  -30.7823   21.3706 C   0  0  0  0  0  0
  -26.0462  -29.4053   20.7158 C   0  0  0  0  0  0
  -27.2268  -28.5974   20.7074 C   0  0  0  0  0  0
  -26.0266  -26.8791   19.4962 C   0  0  0  0  0  0
  -24.8682  -27.6771   19.4926 C   0  0  0  0  0  0
  -23.6443  -29.8150   20.1587 C   0  0  0  0  0  0
  -25.4103  -36.3082   24.0323 C   0  0  1  0  0  0
  -20.5890  -28.3720   23.1289 C   0  0  2  0  0  0
  -20.6774  -26.9435   22.5440 C   0  0  0  0  0  0
  -19.5749  -26.6404   21.5246 C   0  0  0  0  0  0
  -18.1921  -26.7969   22.1646 C   0  0  0  0  0  0
  -19.1542  -28.8897   23.2881 C   0  0  0  0  0  0
  -18.9454  -30.1496   23.8893 C   0  0  0  0  0  0
  -17.6452  -30.6610   24.0583 C   0  0  0  0  0  0
  -25.9049  -34.9445   23.5097 C   0  0  0  0  0  0
  -16.5342  -29.9108   23.6348 C   0  0  0  0  0  0
  -16.7270  -28.6546   23.0338 C   0  0  0  0  0  0
  -26.4490  -31.6593   25.0715 C   0  0  0  0  0  0
  -25.3740  -31.3707   26.1451 C   0  0  0  0  0  0
  -27.0320  -30.3018   24.6151 C   0  0  0  0  0  0
  -27.6045  -32.4341   25.7469 C   0  0  0  0  0  0
  -27.5572  -37.1795   24.8462 C   0  0  0  0  0  0
  -21.4217  -29.3045   22.3662 N   0  0  0  0  0  0
  -26.4280  -37.3780   23.9412 N   0  0  0  0  0  0
  -24.6943  -31.0564   22.0943 N   0  0  0  0  0  0
  -23.4210  -28.8151   23.3011 O   0  0  0  0  0  0
  -28.3254  -26.4009   20.1801 O   0  0  0  0  0  0
  -26.5638  -34.8916   22.4676 O   0  0  0  0  0  0
  -23.5444  -32.1336   23.7310 O   0  0  0  0  0  0
  -27.9683  -20.8672   22.6832 C   0  0  0  0  0  0
  -28.8709  -22.3539   20.9631 C   0  0  0  0  0  0
  -28.2164  -22.1703   22.2073 C   0  0  0  0  0  0
  -29.2852  -21.1213   20.3013 C   0  0  0  0  0  0
  -29.0278  -19.8150   20.8967 C   0  0  0  0  0  0
  -29.2081  -23.8441   20.4936 C   0  0  0  0  0  0
  -29.2725  -18.3809   20.2489 C   0  0  0  0  0  0
  -30.0845  -17.2380   21.0484 C   0  0  0  0  0  0
  -28.0480  -24.9253   20.2069 C   0  0  0  0  0  0
  -28.3516  -19.7316   22.0620 N   0  0  0  0  0  0
  -29.7819  -15.7635   20.7981 N   0  0  0  0  0  0
  -27.7488  -23.5023   23.2074 Cl  0  0  0  0  0  0
  -30.0939  -21.2092   18.7760 Cl  0  0  0  0  0  0
  -31.4803  -12.5690   19.1603 H   0  0  0  0  0  0
  -30.3917  -11.4398   19.9214 H   0  0  0  0  0  0
  -29.7868  -11.7603   17.4893 H   0  0  0  0  0  0
  -29.6417  -13.4836   17.7425 H   0  0  0  0  0  0
  -27.8833  -11.2887   18.8809 H   0  0  0  0  0  0
  -27.3777  -12.5477   17.7915 H   0  0  0  0  0  0
  -27.6535  -14.2507   19.4965 H   0  0  0  0  0  0
  -28.4157  -13.7502   21.8250 H   0  0  0  0  0  0
  -28.7096  -12.0889   21.3894 H   0  0  0  0  0  0
  -25.2756   -9.5711   22.4742 H   0  0  0  0  0  0
  -24.0034   -7.4635   22.7439 H   0  0  0  0  0  0
  -21.0827   -8.8756   19.8941 H   0  0  0  0  0  0
  -22.3663  -10.9670   19.6175 H   0  0  0  0  0  0
  -21.2007   -7.6149   23.9735 H   0  0  0  0  0  0
  -21.1481   -6.0507   25.9085 H   0  0  0  0  0  0
  -22.0595   -2.7618   23.2815 H   0  0  0  0  0  0
  -22.4092  -11.9934   22.4885 H   0  0  0  0  0  0
  -21.1093  -13.1274   22.2608 H   0  0  0  0  0  0
  -24.6412  -15.8283   20.4846 H   0  0  0  0  0  0
  -26.2474  -15.6159   20.0042 H   0  0  0  0  0  0
  -26.7172  -32.5439   23.1102 H   0  0  0  0  0  0
  -25.0011  -33.9702   25.0379 H   0  0  0  0  0  0
  -22.7222  -31.3007   21.3972 H   0  0  0  0  0  0
  -23.3735  -35.9636   23.3312 H   0  0  0  0  0  0
  -24.3578  -36.8915   22.2065 H   0  0  0  0  0  0
  -23.7230  -37.6493   23.6673 H   0  0  0  0  0  0
  -26.0973  -31.5399   20.5961 H   0  0  0  0  0  0
  -26.8531  -30.8410   21.9955 H   0  0  0  0  0  0
  -28.1244  -28.9599   21.1894 H   0  0  0  0  0  0
  -25.9467  -25.9208   19.0075 H   0  0  0  0  0  0
  -23.9709  -27.3075   19.0155 H   0  0  0  0  0  0
  -23.7667  -30.5885   19.3993 H   0  0  0  0  0  0
  -22.7647  -29.2445   19.8575 H   0  0  0  0  0  0
  -25.1291  -36.1934   25.0821 H   0  0  0  0  0  0
  -20.9994  -28.3300   24.1405 H   0  0  0  0  0  0
  -20.5709  -26.2323   23.3641 H   0  0  0  0  0  0
  -21.6631  -26.7475   22.1207 H   0  0  0  0  0  0
  -19.6898  -25.6313   21.1268 H   0  0  0  0  0  0
  -19.6679  -27.3230   20.6783 H   0  0  0  0  0  0
  -17.4199  -26.6731   21.4030 H   0  0  0  0  0  0
  -18.0290  -26.0122   22.9051 H   0  0  0  0  0  0
  -19.7918  -30.7335   24.2241 H   0  0  0  0  0  0
  -17.4990  -31.6287   24.5201 H   0  0  0  0  0  0
  -15.5343  -30.3009   23.7673 H   0  0  0  0  0  0
  -15.8671  -28.0879   22.7020 H   0  0  0  0  0  0
  -24.5914  -30.7060   25.7778 H   0  0  0  0  0  0
  -24.8941  -32.2867   26.4911 H   0  0  0  0  0  0
  -25.8089  -30.8862   27.0205 H   0  0  0  0  0  0
  -26.2872  -29.6778   24.1200 H   0  0  0  0  0  0
  -27.4051  -29.7263   25.4635 H   0  0  0  0  0  0
  -27.8734  -30.4308   23.9341 H   0  0  0  0  0  0
  -27.2646  -33.3637   26.2049 H   0  0  0  0  0  0
  -28.3840  -32.6915   25.0287 H   0  0  0  0  0  0
  -28.0742  -31.8480   26.5381 H   0  0  0  0  0  0
  -28.2595  -38.0085   24.7516 H   0  0  0  0  0  0
  -28.1055  -36.2619   24.6282 H   0  0  0  0  0  0
  -27.2298  -37.1451   25.8866 H   0  0  0  0  0  0
  -20.9407  -29.8750   21.6845 H   0  0  0  0  0  0
  -26.0153  -38.2842   24.1450 H   0  0  0  0  0  0
  -27.4482  -20.7251   23.6197 H   0  0  0  0  0  0
  -29.8571  -23.8097   19.6199 H   0  0  0  0  0  0
  -29.8409  -24.2515   21.2825 H   0  0  0  0  0  0
  -29.7334  -18.5094   19.2710 H   0  0  0  0  0  0
  -28.2767  -17.9896   20.0352 H   0  0  0  0  0  0
  -29.8716  -17.3781   22.1084 H   0  0  0  0  0  0
  -31.1552  -17.4254   20.9582 H   0  0  0  0  0  0
  -27.2598  -24.7893   20.9437 H   0  0  0  0  0  0
  -27.6088  -24.6313   19.2546 H   0  0  0  0  0  0
  -28.8288  -15.4930   20.9937 H   0  0  0  0  0  0
  1 25  1  0  0  0
  1 30  2  0  0  0
  1 81  1  0  0  0
  2  3  1  0  0  0
  2 25  1  0  0  0
  2 84  1  0  0  0
  2 85  1  0  0  0
  3  4  1  0  0  0
  3 86  1  0  0  0
  3 87  1  0  0  0
  4  5  1  0  0  0
  4 88  1  0  0  0
  4 89  1  0  0  0
  5  6  1  0  0  0
  5 26  1  0  0  0
  5 90  1  0  0  0
  6 25  1  0  0  0
  6 91  1  0  0  0
  6 92  1  0  0  0
  7  8  2  0  0  0
  7 26  1  0  0  0
  7 29  1  0  0  0
  8  9  1  0  0  0
  8 22  1  0  0  0
  9 10  1  0  0  0
  9 27  2  0  0  0
 10 11  2  0  0  0
 10 15  1  0  0  0
 11 12  1  0  0  0
 11 93  1  0  0  0
 12 13  2  0  0  0
 12 94  1  0  0  0
 13 14  1  0  0  0
 13 31  1  0  0  0
 14 15  2  0  0  0
 14 95  1  0  0  0
 15 96  1  0  0  0
 16 17  2  0  0  0
 16 21  1  0  0  0
 16 31  1  0  0  0
 17 18  1  0  0  0
 17 97  1  0  0  0
 18 19  2  0  0  0
 18 98  1  0  0  0
 19 20  1  0  0  0
 19 24  1  0  0  0
 20 21  2  0  0  0
 20 99  1  0  0  0
 21 23  1  0  0  0
 22 28  1  0  0  0
 22 32  2  0  0  0
 26 27  1  0  0  0
 28100  1  0  0  0
 28101  1  0  0  0
 29102  1  0  0  0
 29103  1  0  0  0
 33 34  1  0  0  0
 33 66  1  0  0  0
 33 70  2  0  0  0
 34 36  1  0  0  0
 34 59  1  0  0  0
 34104  1  0  0  0
 35 44  2  0  0  0
 35 45  1  0  0  0
 35 68  1  0  0  0
 36 56  1  0  0  0
 36105  1  0  0  0
 37 39  1  0  0  0
 37 47  1  0  0  0
 37 66  1  0  0  0
 37106  1  0  0  0
 38 43  2  0  0  0
 38 46  1  0  0  0
 38 47  1  0  0  0
 39 64  1  0  0  0
 39 67  2  0  0  0
 40 52  1  0  0  0
 40 53  2  0  0  0
 40 58  1  0  0  0
 41107  1  0  0  0
 41108  1  0  0  0
 41109  1  0  0  0
 41 48  1  0  0  0
 42 43  1  0  0  0
 42 66  1  0  0  0
 42110  1  0  0  0
 42111  1  0  0  0
 43 44  1  0  0  0
 44112  1  0  0  0
 45 46  2  0  0  0
 45113  1  0  0  0
 46114  1  0  0  0
 47115  1  0  0  0
 47116  1  0  0  0
 48 56  1  0  0  0
 48 65  1  0  0  0
 48117  1  0  0  0
 49 50  1  0  0  0
 49 53  1  0  0  0
 49 64  1  0  0  0
 49118  1  0  0  0
 50 51  1  0  0  0
 50119  1  0  0  0
 50120  1  0  0  0
 51 52  1  0  0  0
 51121  1  0  0  0
 51122  1  0  0  0
 52123  1  0  0  0
 52124  1  0  0  0
 53 54  1  0  0  0
 54 55  2  0  0  0
 54125  1  0  0  0
 55 57  1  0  0  0
 55126  1  0  0  0
 56 69  2  0  0  0
 57 58  2  0  0  0
 57127  1  0  0  0
 58128  1  0  0  0
 59 60  1  0  0  0
 59 61  1  0  0  0
 59 62  1  0  0  0
 60129  1  0  0  0
 60130  1  0  0  0
 60131  1  0  0  0
 61132  1  0  0  0
 61133  1  0  0  0
 61134  1  0  0  0
 62135  1  0  0  0
 62136  1  0  0  0
 62137  1  0  0  0
 63 65  1  0  0  0
 63138  1  0  0  0
 63139  1  0  0  0
 63140  1  0  0  0
 64141  1  0  0  0
 65142  1  0  0  0
 68 79  1  0  0  0
 71 73  2  0  0  0
 71 80  1  0  0  0
 71143  1  0  0  0
 72 73  1  0  0  0
 72 74  2  0  0  0
 72 76  1  0  0  0
 73 82  1  0  0  0
 74 75  1  0  0  0
 74 83  1  0  0  0
 75 77  1  0  0  0
 75 80  2  0  0  0
 76 79  1  0  0  0
 76144  1  0  0  0
 76145  1  0  0  0
 77 78  1  0  0  0
 77146  1  0  0  0
 77147  1  0  0  0
 78 81  1  0  0  0
 78148  1  0  0  0
 78149  1  0  0  0
 79150  1  0  0  0
 79151  1  0  0  0
 81152  1  0  0  0
M  ISO  4   1 100  68 101  79 101  81 100
M  END
> <chiral flag>
0

> <version>
0

> <s_m_source_file>
/data/baiqing/PycharmProjects/Reinvent-master-3.2/result/LINK_invent/BTK/process_docking_weight1_custom_sum_contain_oxygen_bond_distance_aromatic_linkinvent_7_9_3/rearranged_h_0030.sdf

> <i_m_source_file_index>
95

> <r_mmod_Potential_Energy-OPLS-2005>
62.4319534301758

> <r_mmod_Stretch_Energy-OPLS-2005>
113.619194030762

> <r_mmod_Bend_Energy-OPLS-2005>
155.083282470703

> <r_mmod_Torsional_Energy-OPLS-2005>
206.956680297852

> <r_mmod_Improper_Torsional_Energy-OPLS-2005>
5.56875133514404

> <r_mmod_Van_der_Waal_Energy-OPLS-2005>
143.756530761719

> <r_mmod_Electrostatic_Energy-OPLS-2005>
-408.590606689453

> <r_mmod_Solvation_Energy-OPLS-2005>
-221.526489257812

> <b_mmod_Minimization_Converged-OPLS-2005>
0

> <r_mmod_RMS_Derivative-OPLS-2005>
2.73352479934692

$$$$
95
                    3D
 Structure written by MMmdl.
151159  0  0  1  0            999 V2000
  -30.5381  -14.9913   20.4073 C   0  0  0  0  0  0
  -30.4356  -12.6215   19.4959 C   0  0  0  0  0  0
  -29.5195  -12.5453   18.2534 C   0  0  0  0  0  0
  -28.0567  -12.3140   18.6761 C   0  0  0  0  0  0
  -27.6255  -13.2532   19.8319 C   0  0  2  0  0  0
  -28.6677  -13.3125   20.9671 C   0  0  0  0  0  0
  -25.2453  -13.8206   20.5711 C   0  0  0  0  0  0
  -24.1781  -13.0437   20.9232 C   0  0  0  0  0  0
  -24.6393  -11.6918   20.8747 C   0  0  0  0  0  0
  -23.9064  -10.4300   21.0402 C   0  0  0  0  0  0
  -24.3616   -9.4217   21.9177 C   0  0  0  0  0  0
  -23.6309   -8.2238   22.0745 C   0  0  0  0  0  0
  -22.4304   -8.0265   21.3534 C   0  0  0  0  0  0
  -21.9928   -9.0228   20.4640 C   0  0  0  0  0  0
  -22.7235  -10.2118   20.3049 C   0  0  0  0  0  0
  -21.6855   -6.0750   22.5287 C   0  0  0  0  0  0
  -21.4014   -6.5650   23.8227 C   0  0  0  0  0  0
  -21.3664   -5.6787   24.9173 C   0  0  0  0  0  0
  -21.6044   -4.3050   24.7209 C   0  0  0  0  0  0
  -21.8825   -3.8150   23.4331 C   0  0  0  0  0  0
  -21.9191   -4.6979   22.3399 C   0  0  0  0  0  0
  -22.7801  -13.5220   21.1867 C   0  0  0  0  0  0
  -22.1667   -4.2160   21.0977 F   0  0  0  0  0  0
  -21.5629   -3.4540   25.7733 F   0  0  0  0  0  0
  -29.9349  -13.7322   20.3593 N   0  0  0  0  0  0
  -26.2880  -12.9440   20.3232 N   0  0  0  0  0  0
  -25.9327  -11.6571   20.5721 N   0  0  0  0  0  0
  -22.0425  -12.8242   22.0435 N   0  0  0  0  0  0
  -25.4107  -15.1918   20.4120 N   0  0  0  0  0  0
  -31.7491  -15.0266   20.1642 O   0  0  0  0  0  0
  -21.6640   -6.8881   21.4249 O   0  0  0  0  0  0
  -22.3497  -14.5512   20.6684 O   0  0  0  0  0  0
  -24.6458  -31.8406   23.1849 C   0  0  0  0  0  0
  -25.9225  -32.4664   23.8257 C   0  0  1  0  0  0
  -27.2220  -27.1132   20.1605 C   0  0  0  0  0  0
  -25.5965  -33.8474   24.2178 N   0  0  0  0  0  0
  -23.4515  -30.4596   21.5296 C   0  0  2  0  0  0
  -24.9029  -28.8788   20.1099 C   0  0  0  0  0  0
  -22.7586  -29.4541   22.4844 C   0  0  0  0  0  0
  -18.0307  -28.1366   22.8477 C   0  0  0  0  0  0
  -24.1509  -36.7254   23.2641 C   0  0  0  0  0  0
  -26.0087  -30.7067   21.3878 C   0  0  0  0  0  0
  -26.0801  -29.3162   20.7296 C   0  0  0  0  0  0
  -27.2410  -28.4515   20.7339 C   0  0  0  0  0  0
  -26.0171  -26.7798   19.5048 C   0  0  0  0  0  0
  -24.8864  -27.6262   19.4788 C   0  0  0  0  0  0
  -23.6797  -29.7838   20.1510 C   0  0  0  0  0  0
  -25.4138  -36.3013   24.0316 C   0  0  1  0  0  0
  -20.5923  -28.3701   23.1229 C   0  0  2  0  0  0
  -20.6786  -26.9402   22.5398 C   0  0  0  0  0  0
  -19.5763  -26.6353   21.5205 C   0  0  0  0  0  0
  -18.1948  -26.7905   22.1614 C   0  0  0  0  0  0
  -19.1563  -28.8854   23.2843 C   0  0  0  0  0  0
  -18.9468  -30.1453   23.8867 C   0  0  0  0  0  0
  -17.6462  -30.6566   24.0544 C   0  0  0  0  0  0
  -25.9079  -34.9388   23.5052 C   0  0  0  0  0  0
  -16.5357  -29.9049   23.6323 C   0  0  0  0  0  0
  -16.7293  -28.6463   23.0371 C   0  0  0  0  0  0
  -26.4517  -31.6542   25.0719 C   0  0  0  0  0  0
  -25.3699  -31.3746   26.1416 C   0  0  0  0  0  0
  -27.0373  -30.2926   24.6339 C   0  0  0  0  0  0
  -27.6035  -32.4327   25.7494 C   0  0  0  0  0  0
  -27.5593  -37.1791   24.8457 C   0  0  0  0  0  0
  -21.4278  -29.3028   22.3605 N   0  0  0  0  0  0
  -26.4298  -37.3737   23.9406 N   0  0  0  0  0  0
  -24.7213  -31.0259   22.0875 N   0  0  0  0  0  0
  -23.4221  -28.8097   23.3005 O   0  0  0  0  0  0
  -28.2734  -26.1180   20.2301 O   0  0  0  0  0  0
  -26.5675  -34.8894   22.4637 O   0  0  0  0  0  0
  -23.5572  -32.1276   23.7071 O   0  0  0  0  0  0
  -29.9115  -20.5860   20.5184 C   0  0  0  0  0  0
  -29.4338  -19.1838   20.3432 C   0  0  0  0  0  0
  -28.9768  -21.6450   20.3149 C   0  0  0  0  0  0
  -28.1343  -19.5031   20.0195 C   0  0  0  0  0  0
  -26.5269  -21.4793   19.7287 C   0  0  0  0  0  0
  -30.2644  -17.7241   20.4467 C   0  0  0  0  0  0
  -29.1126  -23.3065   20.3950 C   0  0  0  0  0  0
  -28.0083  -24.5714   20.1234 C   0  0  0  0  0  0
  -27.8303  -20.8954   20.0090 N   0  0  0  0  0  0
  -29.7897  -16.2070   20.5109 N   0  0  0  0  0  0
  -26.9328  -18.3374   19.6175 Cl  0  0  0  0  0  0
  -31.4666  -12.7835   19.1787 H   0  0  0  0  0  0
  -30.4335  -11.6756   20.0411 H   0  0  0  0  0  0
  -29.8531  -11.7480   17.5878 H   0  0  0  0  0  0
  -29.5949  -13.4740   17.6844 H   0  0  0  0  0  0
  -27.9723  -11.2747   19.0005 H   0  0  0  0  0  0
  -27.3880  -12.4215   17.8215 H   0  0  0  0  0  0
  -27.5779  -14.2503   19.3910 H   0  0  0  0  0  0
  -28.7696  -12.3485   21.4672 H   0  0  0  0  0  0
  -28.3593  -14.0285   21.7286 H   0  0  0  0  0  0
  -25.2743   -9.5713   22.4767 H   0  0  0  0  0  0
  -24.0027   -7.4640   22.7466 H   0  0  0  0  0  0
  -21.0849   -8.8749   19.8964 H   0  0  0  0  0  0
  -22.3667  -10.9664   19.6183 H   0  0  0  0  0  0
  -21.1991   -7.6160   23.9735 H   0  0  0  0  0  0
  -21.1498   -6.0512   25.9084 H   0  0  0  0  0  0
  -22.0593   -2.7611   23.2820 H   0  0  0  0  0  0
  -22.4025  -11.9928   22.4890 H   0  0  0  0  0  0
  -21.1039  -13.1290   22.2585 H   0  0  0  0  0  0
  -24.6369  -15.8388   20.5115 H   0  0  0  0  0  0
  -26.2443  -15.6354   20.0499 H   0  0  0  0  0  0
  -26.7302  -32.5260   23.0997 H   0  0  0  0  0  0
  -25.0104  -33.9575   25.0318 H   0  0  0  0  0  0
  -22.7547  -31.2852   21.3722 H   0  0  0  0  0  0
  -23.3769  -35.9581   23.3259 H   0  0  0  0  0  0
  -24.3602  -36.8927   22.2060 H   0  0  0  0  0  0
  -23.7255  -37.6441   23.6700 H   0  0  0  0  0  0
  -26.1784  -31.4621   20.6194 H   0  0  0  0  0  0
  -26.8728  -30.7510   22.0391 H   0  0  0  0  0  0
  -28.1368  -28.7845   21.2394 H   0  0  0  0  0  0
  -25.9190  -25.8200   19.0222 H   0  0  0  0  0  0
  -23.9901  -27.2864   18.9786 H   0  0  0  0  0  0
  -23.8167  -30.5535   19.3902 H   0  0  0  0  0  0
  -22.7943  -29.2248   19.8425 H   0  0  0  0  0  0
  -25.1326  -36.1832   25.0808 H   0  0  0  0  0  0
  -21.0019  -28.3269   24.1348 H   0  0  0  0  0  0
  -20.5650  -26.2319   23.3617 H   0  0  0  0  0  0
  -21.6658  -26.7384   22.1217 H   0  0  0  0  0  0
  -19.6921  -25.6252   21.1260 H   0  0  0  0  0  0
  -19.6695  -27.3135   20.6713 H   0  0  0  0  0  0
  -17.4224  -26.6664   21.4008 H   0  0  0  0  0  0
  -18.0334  -26.0032   22.8993 H   0  0  0  0  0  0
  -19.7947  -30.7281   24.2218 H   0  0  0  0  0  0
  -17.5010  -31.6244   24.5139 H   0  0  0  0  0  0
  -15.5357  -30.2940   23.7645 H   0  0  0  0  0  0
  -15.8697  -28.0755   22.7112 H   0  0  0  0  0  0
  -24.5854  -30.7124   25.7737 H   0  0  0  0  0  0
  -24.8917  -32.2930   26.4831 H   0  0  0  0  0  0
  -25.7970  -30.8908   27.0213 H   0  0  0  0  0  0
  -26.2983  -29.6648   24.1351 H   0  0  0  0  0  0
  -27.3950  -29.7235   25.4933 H   0  0  0  0  0  0
  -27.8916  -30.4127   23.9677 H   0  0  0  0  0  0
  -27.2605  -33.3638   26.2029 H   0  0  0  0  0  0
  -28.3856  -32.6891   25.0331 H   0  0  0  0  0  0
  -28.0706  -31.8502   26.5453 H   0  0  0  0  0  0
  -28.2582  -38.0113   24.7528 H   0  0  0  0  0  0
  -28.1122  -36.2652   24.6247 H   0  0  0  0  0  0
  -27.2329  -37.1391   25.8863 H   0  0  0  0  0  0
  -20.9486  -29.8762   21.6806 H   0  0  0  0  0  0
  -26.0158  -38.2809   24.1384 H   0  0  0  0  0  0
  -30.9364  -20.8126   20.7800 H   0  0  0  0  0  0
  -26.6168  -22.2527   18.9671 H   0  0  0  0  0  0
  -26.1165  -21.9199   20.6383 H   0  0  0  0  0  0
  -25.8240  -20.7321   19.3646 H   0  0  0  0  0  0
  -30.9142  -17.8442   21.3122 H   0  0  0  0  0  0
  -30.9494  -17.7549   19.5996 H   0  0  0  0  0  0
  -29.9449  -23.5481   19.7343 H   0  0  0  0  0  0
  -29.5187  -23.5107   21.3859 H   0  0  0  0  0  0
  -27.1648  -24.3802   20.7877 H   0  0  0  0  0  0
  -27.6274  -24.4122   19.1168 H   0  0  0  0  0  0
  -28.7983  -16.0822   20.6429 H   0  0  0  0  0  0
  1 25  1  0  0  0
  1 30  2  0  0  0
  1 80  1  0  0  0
  2  3  1  0  0  0
  2 25  1  0  0  0
  2 82  1  0  0  0
  2 83  1  0  0  0
  3  4  1  0  0  0
  3 84  1  0  0  0
  3 85  1  0  0  0
  4  5  1  0  0  0
  4 86  1  0  0  0
  4 87  1  0  0  0
  5  6  1  0  0  0
  5 26  1  0  0  0
  5 88  1  0  0  0
  6 25  1  0  0  0
  6 89  1  0  0  0
  6 90  1  0  0  0
  7  8  2  0  0  0
  7 26  1  0  0  0
  7 29  1  0  0  0
  8  9  1  0  0  0
  8 22  1  0  0  0
  9 10  1  0  0  0
  9 27  2  0  0  0
 10 11  2  0  0  0
 10 15  1  0  0  0
 11 12  1  0  0  0
 11 91  1  0  0  0
 12 13  2  0  0  0
 12 92  1  0  0  0
 13 14  1  0  0  0
 13 31  1  0  0  0
 14 15  2  0  0  0
 14 93  1  0  0  0
 15 94  1  0  0  0
 16 17  2  0  0  0
 16 21  1  0  0  0
 16 31  1  0  0  0
 17 18  1  0  0  0
 17 95  1  0  0  0
 18 19  2  0  0  0
 18 96  1  0  0  0
 19 20  1  0  0  0
 19 24  1  0  0  0
 20 21  2  0  0  0
 20 97  1  0  0  0
 21 23  1  0  0  0
 22 28  1  0  0  0
 22 32  2  0  0  0
 26 27  1  0  0  0
 28 98  1  0  0  0
 28 99  1  0  0  0
 29100  1  0  0  0
 29101  1  0  0  0
 33 34  1  0  0  0
 33 66  1  0  0  0
 33 70  2  0  0  0
 34 36  1  0  0  0
 34 59  1  0  0  0
 34102  1  0  0  0
 35 44  2  0  0  0
 35 45  1  0  0  0
 35 68  1  0  0  0
 36 56  1  0  0  0
 36103  1  0  0  0
 37 39  1  0  0  0
 37 47  1  0  0  0
 37 66  1  0  0  0
 37104  1  0  0  0
 38 43  2  0  0  0
 38 46  1  0  0  0
 38 47  1  0  0  0
 39 64  1  0  0  0
 39 67  2  0  0  0
 40 52  1  0  0  0
 40 53  2  0  0  0
 40 58  1  0  0  0
 41105  1  0  0  0
 41106  1  0  0  0
 41107  1  0  0  0
 41 48  1  0  0  0
 42 43  1  0  0  0
 42 66  1  0  0  0
 42108  1  0  0  0
 42109  1  0  0  0
 43 44  1  0  0  0
 44110  1  0  0  0
 45 46  2  0  0  0
 45111  1  0  0  0
 46112  1  0  0  0
 47113  1  0  0  0
 47114  1  0  0  0
 48 56  1  0  0  0
 48 65  1  0  0  0
 48115  1  0  0  0
 49 50  1  0  0  0
 49 53  1  0  0  0
 49 64  1  0  0  0
 49116  1  0  0  0
 50 51  1  0  0  0
 50117  1  0  0  0
 50118  1  0  0  0
 51 52  1  0  0  0
 51119  1  0  0  0
 51120  1  0  0  0
 52121  1  0  0  0
 52122  1  0  0  0
 53 54  1  0  0  0
 54 55  2  0  0  0
 54123  1  0  0  0
 55 57  1  0  0  0
 55124  1  0  0  0
 56 69  2  0  0  0
 57 58  2  0  0  0
 57125  1  0  0  0
 58126  1  0  0  0
 59 60  1  0  0  0
 59 61  1  0  0  0
 59 62  1  0  0  0
 60127  1  0  0  0
 60128  1  0  0  0
 60129  1  0  0  0
 61130  1  0  0  0
 61131  1  0  0  0
 61132  1  0  0  0
 62133  1  0  0  0
 62134  1  0  0  0
 62135  1  0  0  0
 63 65  1  0  0  0
 63136  1  0  0  0
 63137  1  0  0  0
 63138  1  0  0  0
 64139  1  0  0  0
 65140  1  0  0  0
 68 78  1  0  0  0
 71 72  1  0  0  0
 71 73  2  0  0  0
 71141  1  0  0  0
 72 74  2  0  0  0
 72 76  1  0  0  0
 73 77  1  0  0  0
 73 79  1  0  0  0
 74 79  1  0  0  0
 74 81  1  0  0  0
 75 79  1  0  0  0
 75142  1  0  0  0
 75143  1  0  0  0
 75144  1  0  0  0
 76 80  1  0  0  0
 76145  1  0  0  0
 76146  1  0  0  0
 77 78  1  0  0  0
 77147  1  0  0  0
 77148  1  0  0  0
 78149  1  0  0  0
 78150  1  0  0  0
 80151  1  0  0  0
M  ISO  4   1 100  68 101  78 101  80 100
M  END
> <chiral flag>
0

> <version>
0

> <s_m_source_file>
/data/baiqing/PycharmProjects/Reinvent-master-3.2/result/LINK_invent/BTK/process_docking_weight1_custom_sum_contain_oxygen_bond_distance_aromatic_linkinvent_7_9_3/rearranged_h_0030.sdf

> <i_m_source_file_index>
96

> <r_mmod_Potential_Energy-OPLS-2005>
521.68115234375

> <r_mmod_Stretch_Energy-OPLS-2005>
282.760284423828

> <r_mmod_Bend_Energy-OPLS-2005>
292.816925048828

> <r_mmod_Torsional_Energy-OPLS-2005>
205.74658203125

> <r_mmod_Improper_Torsional_Energy-OPLS-2005>
4.64106321334839

> <r_mmod_Van_der_Waal_Energy-OPLS-2005>
107.290687561035

> <r_mmod_Electrostatic_Energy-OPLS-2005>
-386.556274414062

> <r_mmod_Solvation_Energy-OPLS-2005>
-204.764984130859

> <b_mmod_Minimization_Converged-OPLS-2005>
0

> <r_mmod_RMS_Derivative-OPLS-2005>
2.72144389152527

$$$$
96
                    3D
 Structure written by MMmdl.
156164  0  0  1  0            999 V2000
  -30.6872  -14.4832   20.4997 C   0  0  0  0  0  0
  -30.4118  -12.2886   19.4424 C   0  0  0  0  0  0
  -29.4988  -12.4874   18.2146 C   0  0  0  0  0  0
  -28.0176  -12.3538   18.6202 C   0  0  0  0  0  0
  -27.6556  -13.2081   19.8658 C   0  0  2  0  0  0
  -28.6944  -13.0260   20.9971 C   0  0  0  0  0  0
  -25.2563  -13.8163   20.5667 C   0  0  0  0  0  0
  -24.1830  -13.0432   20.9172 C   0  0  0  0  0  0
  -24.6391  -11.6900   20.8724 C   0  0  0  0  0  0
  -23.9060  -10.4285   21.0402 C   0  0  0  0  0  0
  -24.3616   -9.4205   21.9186 C   0  0  0  0  0  0
  -23.6295   -8.2236   22.0752 C   0  0  0  0  0  0
  -22.4273   -8.0278   21.3545 C   0  0  0  0  0  0
  -21.9913   -9.0248   20.4638 C   0  0  0  0  0  0
  -22.7234  -10.2129   20.3052 C   0  0  0  0  0  0
  -21.6860   -6.0740   22.5283 C   0  0  0  0  0  0
  -21.4012   -6.5643   23.8220 C   0  0  0  0  0  0
  -21.3662   -5.6794   24.9187 C   0  0  0  0  0  0
  -21.6047   -4.3059   24.7232 C   0  0  0  0  0  0
  -21.8817   -3.8149   23.4352 C   0  0  0  0  0  0
  -21.9185   -4.6962   22.3408 C   0  0  0  0  0  0
  -22.7854  -13.5222   21.1860 C   0  0  0  0  0  0
  -22.1660   -4.2146   21.0989 F   0  0  0  0  0  0
  -21.5628   -3.4548   25.7749 F   0  0  0  0  0  0
  -30.0261  -13.2985   20.4395 N   0  0  0  0  0  0
  -26.2988  -12.9335   20.3302 N   0  0  0  0  0  0
  -25.9309  -11.6493   20.5729 N   0  0  0  0  0  0
  -22.0508  -12.8195   22.0410 N   0  0  0  0  0  0
  -25.4286  -15.1885   20.4086 N   0  0  0  0  0  0
  -31.8558  -14.6103   20.1264 O   0  0  0  0  0  0
  -21.6639   -6.8879   21.4242 O   0  0  0  0  0  0
  -22.3530  -14.5534   20.6724 O   0  0  0  0  0  0
  -24.6156  -31.8682   23.2103 C   0  0  0  0  0  0
  -25.9048  -32.4826   23.8395 C   0  0  1  0  0  0
  -27.2165  -27.4113   20.1036 C   0  0  0  0  0  0
  -25.5874  -33.8628   24.2328 N   0  0  0  0  0  0
  -23.4022  -30.4951   21.5518 C   0  0  2  0  0  0
  -24.8415  -28.9574   20.1147 C   0  0  0  0  0  0
  -22.7431  -29.4670   22.4978 C   0  0  0  0  0  0
  -18.0283  -28.1374   22.8495 C   0  0  0  0  0  0
  -24.1496  -36.7339   23.2631 C   0  0  0  0  0  0
  -25.9329  -30.8274   21.3664 C   0  0  0  0  0  0
  -26.0036  -29.4615   20.7096 C   0  0  0  0  0  0
  -27.1942  -28.6969   20.6957 C   0  0  0  0  0  0
  -26.0303  -26.9228   19.5073 C   0  0  0  0  0  0
  -24.8506  -27.6901   19.5083 C   0  0  0  0  0  0
  -23.6081  -29.8305   20.1649 C   0  0  0  0  0  0
  -25.4108  -36.3125   24.0331 C   0  0  1  0  0  0
  -20.5873  -28.3681   23.1316 C   0  0  2  0  0  0
  -20.6781  -26.9417   22.5403 C   0  0  0  0  0  0
  -19.5750  -26.6378   21.5214 C   0  0  0  0  0  0
  -18.1925  -26.7931   22.1611 C   0  0  0  0  0  0
  -19.1524  -28.8834   23.2910 C   0  0  0  0  0  0
  -18.9466  -30.1432   23.8937 C   0  0  0  0  0  0
  -17.6470  -30.6595   24.0557 C   0  0  0  0  0  0
  -25.9020  -34.9488   23.5139 C   0  0  0  0  0  0
  -16.5352  -29.9094   23.6309 C   0  0  0  0  0  0
  -16.7275  -28.6495   23.0354 C   0  0  0  0  0  0
  -26.4474  -31.6614   25.0734 C   0  0  0  0  0  0
  -25.3730  -31.3712   26.1480 C   0  0  0  0  0  0
  -27.0318  -30.3064   24.6091 C   0  0  0  0  0  0
  -27.6045  -32.4342   25.7483 C   0  0  0  0  0  0
  -27.5606  -37.1825   24.8458 C   0  0  0  0  0  0
  -21.4157  -29.3069   22.3750 N   0  0  0  0  0  0
  -26.4321  -37.3791   23.9399 N   0  0  0  0  0  0
  -24.6688  -31.0778   22.0997 N   0  0  0  0  0  0
  -23.4216  -28.8191   23.2997 O   0  0  0  0  0  0
  -28.3965  -26.6916   20.1288 O   0  0  0  0  0  0
  -26.5588  -34.8939   22.4698 O   0  0  0  0  0  0
  -23.5353  -32.1446   23.7494 O   0  0  0  0  0  0
  -29.1045  -20.9163   21.8146 C   0  0  0  0  0  0
  -28.9694  -22.3219   21.8519 C   0  0  0  0  0  0
  -27.2022  -20.7814   20.3155 C   0  0  0  0  0  0
  -28.2336  -20.1301   21.0281 C   0  0  0  0  0  0
  -27.9486  -22.9764   21.1233 C   0  0  0  0  0  0
  -27.0515  -22.1859   20.3615 C   0  0  0  0  0  0
  -28.4015  -18.6064   20.9190 C   0  0  0  0  0  0
  -27.8176  -24.5037   21.1949 C   0  0  0  0  0  0
  -29.8784  -18.1411   20.8719 C   0  0  0  0  0  0
  -30.1875  -16.8666   20.0501 C   0  0  0  0  0  0
  -28.3714  -25.2606   19.9609 C   0  0  0  0  0  0
  -29.9110  -15.5692   20.6971 N   0  0  0  0  0  0
  -25.7579  -22.9089   19.4723 Cl  0  0  0  0  0  0
  -31.4616  -12.3590   19.1513 H   0  0  0  0  0  0
  -30.2839  -11.2867   19.8559 H   0  0  0  0  0  0
  -29.7444  -11.7580   17.4411 H   0  0  0  0  0  0
  -29.6760  -13.4700   17.7740 H   0  0  0  0  0  0
  -27.8291  -11.2996   18.8262 H   0  0  0  0  0  0
  -27.3728  -12.6192   17.7812 H   0  0  0  0  0  0
  -27.6877  -14.2489   19.5438 H   0  0  0  0  0  0
  -28.6587  -12.0088   21.3909 H   0  0  0  0  0  0
  -28.4678  -13.6816   21.8395 H   0  0  0  0  0  0
  -25.2774   -9.5684   22.4751 H   0  0  0  0  0  0
  -24.0012   -7.4634   22.7473 H   0  0  0  0  0  0
  -21.0849   -8.8763   19.8943 H   0  0  0  0  0  0
  -22.3705  -10.9667   19.6149 H   0  0  0  0  0  0
  -21.2011   -7.6156   23.9719 H   0  0  0  0  0  0
  -21.1490   -6.0536   25.9089 H   0  0  0  0  0  0
  -22.0590   -2.7608   23.2863 H   0  0  0  0  0  0
  -22.4144  -11.9852   22.4775 H   0  0  0  0  0  0
  -21.1120  -13.1195   22.2627 H   0  0  0  0  0  0
  -24.6597  -15.8414   20.5146 H   0  0  0  0  0  0
  -26.2766  -15.6282   20.0756 H   0  0  0  0  0  0
  -26.7117  -32.5548   23.1173 H   0  0  0  0  0  0
  -25.0051  -33.9756   25.0494 H   0  0  0  0  0  0
  -22.6910  -31.3136   21.4180 H   0  0  0  0  0  0
  -23.3747  -35.9685   23.3286 H   0  0  0  0  0  0
  -24.3617  -36.8953   22.2049 H   0  0  0  0  0  0
  -23.7279  -37.6544   23.6671 H   0  0  0  0  0  0
  -26.0500  -31.5983   20.6030 H   0  0  0  0  0  0
  -26.8201  -30.8753   21.9871 H   0  0  0  0  0  0
  -28.0950  -29.0830   21.1516 H   0  0  0  0  0  0
  -25.9844  -25.9520   19.0369 H   0  0  0  0  0  0
  -23.9557  -27.2971   19.0455 H   0  0  0  0  0  0
  -23.7213  -30.6099   19.4096 H   0  0  0  0  0  0
  -22.7308  -29.2528   19.8680 H   0  0  0  0  0  0
  -25.1309  -36.1995   25.0828 H   0  0  0  0  0  0
  -20.9968  -28.3265   24.1431 H   0  0  0  0  0  0
  -20.5714  -26.2288   23.3598 H   0  0  0  0  0  0
  -21.6650  -26.7487   22.1172 H   0  0  0  0  0  0
  -19.6897  -25.6286   21.1249 H   0  0  0  0  0  0
  -19.6674  -27.3180   20.6742 H   0  0  0  0  0  0
  -17.4194  -26.6688   21.4013 H   0  0  0  0  0  0
  -18.0296  -26.0069   22.9006 H   0  0  0  0  0  0
  -19.7946  -30.7215   24.2343 H   0  0  0  0  0  0
  -17.5033  -31.6293   24.5137 H   0  0  0  0  0  0
  -15.5354  -30.3008   23.7621 H   0  0  0  0  0  0
  -15.8671  -28.0831   22.7058 H   0  0  0  0  0  0
  -24.5899  -30.7074   25.7810 H   0  0  0  0  0  0
  -24.8921  -32.2855   26.4968 H   0  0  0  0  0  0
  -25.8068  -30.8861   27.0229 H   0  0  0  0  0  0
  -26.2866  -29.6801   24.1177 H   0  0  0  0  0  0
  -27.4134  -29.7334   25.4544 H   0  0  0  0  0  0
  -27.8689  -30.4377   23.9222 H   0  0  0  0  0  0
  -27.2675  -33.3655   26.2065 H   0  0  0  0  0  0
  -28.3858  -32.6883   25.0300 H   0  0  0  0  0  0
  -28.0722  -31.8459   26.5390 H   0  0  0  0  0  0
  -28.2603  -38.0143   24.7537 H   0  0  0  0  0  0
  -28.1126  -36.2679   24.6267 H   0  0  0  0  0  0
  -27.2320  -37.1439   25.8854 H   0  0  0  0  0  0
  -20.9298  -29.8854   21.7045 H   0  0  0  0  0  0
  -26.0220  -38.2880   24.1374 H   0  0  0  0  0  0
  -29.8955  -20.4491   22.3851 H   0  0  0  0  0  0
  -29.6613  -22.8984   22.4499 H   0  0  0  0  0  0
  -26.5156  -20.2021   19.7145 H   0  0  0  0  0  0
  -27.8933  -18.2821   20.0102 H   0  0  0  0  0  0
  -27.8775  -18.1234   21.7442 H   0  0  0  0  0  0
  -28.3443  -24.8545   22.0826 H   0  0  0  0  0  0
  -26.7711  -24.7584   21.3584 H   0  0  0  0  0  0
  -30.3080  -18.0813   21.8733 H   0  0  0  0  0  0
  -30.4340  -18.9316   20.3625 H   0  0  0  0  0  0
  -31.2408  -16.9307   19.7711 H   0  0  0  0  0  0
  -29.6472  -16.9027   19.1033 H   0  0  0  0  0  0
  -27.8661  -24.9637   19.0436 H   0  0  0  0  0  0
  -29.4076  -24.9541   19.8132 H   0  0  0  0  0  0
  -28.9643  -15.3940   20.9969 H   0  0  0  0  0  0
  1 25  1  0  0  0
  1 30  2  0  0  0
  1 82  1  0  0  0
  2  3  1  0  0  0
  2 25  1  0  0  0
  2 84  1  0  0  0
  2 85  1  0  0  0
  3  4  1  0  0  0
  3 86  1  0  0  0
  3 87  1  0  0  0
  4  5  1  0  0  0
  4 88  1  0  0  0
  4 89  1  0  0  0
  5  6  1  0  0  0
  5 26  1  0  0  0
  5 90  1  0  0  0
  6 25  1  0  0  0
  6 91  1  0  0  0
  6 92  1  0  0  0
  7  8  2  0  0  0
  7 26  1  0  0  0
  7 29  1  0  0  0
  8  9  1  0  0  0
  8 22  1  0  0  0
  9 10  1  0  0  0
  9 27  2  0  0  0
 10 11  2  0  0  0
 10 15  1  0  0  0
 11 12  1  0  0  0
 11 93  1  0  0  0
 12 13  2  0  0  0
 12 94  1  0  0  0
 13 14  1  0  0  0
 13 31  1  0  0  0
 14 15  2  0  0  0
 14 95  1  0  0  0
 15 96  1  0  0  0
 16 17  2  0  0  0
 16 21  1  0  0  0
 16 31  1  0  0  0
 17 18  1  0  0  0
 17 97  1  0  0  0
 18 19  2  0  0  0
 18 98  1  0  0  0
 19 20  1  0  0  0
 19 24  1  0  0  0
 20 21  2  0  0  0
 20 99  1  0  0  0
 21 23  1  0  0  0
 22 28  1  0  0  0
 22 32  2  0  0  0
 26 27  1  0  0  0
 28100  1  0  0  0
 28101  1  0  0  0
 29102  1  0  0  0
 29103  1  0  0  0
 33 34  1  0  0  0
 33 66  1  0  0  0
 33 70  2  0  0  0
 34 36  1  0  0  0
 34 59  1  0  0  0
 34104  1  0  0  0
 35 44  2  0  0  0
 35 45  1  0  0  0
 35 68  1  0  0  0
 36 56  1  0  0  0
 36105  1  0  0  0
 37 39  1  0  0  0
 37 47  1  0  0  0
 37 66  1  0  0  0
 37106  1  0  0  0
 38 43  2  0  0  0
 38 46  1  0  0  0
 38 47  1  0  0  0
 39 64  1  0  0  0
 39 67  2  0  0  0
 40 52  1  0  0  0
 40 53  2  0  0  0
 40 58  1  0  0  0
 41107  1  0  0  0
 41108  1  0  0  0
 41109  1  0  0  0
 41 48  1  0  0  0
 42 43  1  0  0  0
 42 66  1  0  0  0
 42110  1  0  0  0
 42111  1  0  0  0
 43 44  1  0  0  0
 44112  1  0  0  0
 45 46  2  0  0  0
 45113  1  0  0  0
 46114  1  0  0  0
 47115  1  0  0  0
 47116  1  0  0  0
 48 56  1  0  0  0
 48 65  1  0  0  0
 48117  1  0  0  0
 49 50  1  0  0  0
 49 53  1  0  0  0
 49 64  1  0  0  0
 49118  1  0  0  0
 50 51  1  0  0  0
 50119  1  0  0  0
 50120  1  0  0  0
 51 52  1  0  0  0
 51121  1  0  0  0
 51122  1  0  0  0
 52123  1  0  0  0
 52124  1  0  0  0
 53 54  1  0  0  0
 54 55  2  0  0  0
 54125  1  0  0  0
 55 57  1  0  0  0
 55126  1  0  0  0
 56 69  2  0  0  0
 57 58  2  0  0  0
 57127  1  0  0  0
 58128  1  0  0  0
 59 60  1  0  0  0
 59 61  1  0  0  0
 59 62  1  0  0  0
 60129  1  0  0  0
 60130  1  0  0  0
 60131  1  0  0  0
 61132  1  0  0  0
 61133  1  0  0  0
 61134  1  0  0  0
 62135  1  0  0  0
 62136  1  0  0  0
 62137  1  0  0  0
 63 65  1  0  0  0
 63138  1  0  0  0
 63139  1  0  0  0
 63140  1  0  0  0
 64141  1  0  0  0
 65142  1  0  0  0
 68 81  1  0  0  0
 71 72  2  0  0  0
 71 74  1  0  0  0
 71143  1  0  0  0
 72 75  1  0  0  0
 72144  1  0  0  0
 73 74  2  0  0  0
 73 76  1  0  0  0
 73145  1  0  0  0
 74 77  1  0  0  0
 75 76  2  0  0  0
 75 78  1  0  0  0
 76 83  1  0  0  0
 77 79  1  0  0  0
 77146  1  0  0  0
 77147  1  0  0  0
 78 81  1  0  0  0
 78148  1  0  0  0
 78149  1  0  0  0
 79 80  1  0  0  0
 79150  1  0  0  0
 79151  1  0  0  0
 80 82  1  0  0  0
 80152  1  0  0  0
 80153  1  0  0  0
 81154  1  0  0  0
 81155  1  0  0  0
 82156  1  0  0  0
M  ISO  4   1 100  68 101  81 101  82 100
M  END
> <chiral flag>
0

> <version>
0

> <s_m_source_file>
/data/baiqing/PycharmProjects/Reinvent-master-3.2/result/LINK_invent/BTK/process_docking_weight1_custom_sum_contain_oxygen_bond_distance_aromatic_linkinvent_7_9_3/rearranged_h_0030.sdf

> <i_m_source_file_index>
97

> <r_mmod_Potential_Energy-OPLS-2005>
-42.7562789916992

> <r_mmod_Stretch_Energy-OPLS-2005>
37.7246780395508

> <r_mmod_Bend_Energy-OPLS-2005>
101.577613830566

> <r_mmod_Torsional_Energy-OPLS-2005>
213.539367675781

> <r_mmod_Improper_Torsional_Energy-OPLS-2005>
8.82966041564941

> <r_mmod_Van_der_Waal_Energy-OPLS-2005>
149.61474609375

> <r_mmod_Electrostatic_Energy-OPLS-2005>
-369.053192138672

> <r_mmod_Solvation_Energy-OPLS-2005>
-203.491226196289

> <b_mmod_Minimization_Converged-OPLS-2005>
0

> <r_mmod_RMS_Derivative-OPLS-2005>
2.60988855361938

$$$$
97
                    3D
 Structure written by MMmdl.
163172  0  0  1  0            999 V2000
  -30.7437  -14.3514   20.6676 C   0  0  0  0  0  0
  -30.4224  -12.2661   19.3984 C   0  0  0  0  0  0
  -29.4920  -12.5216   18.1972 C   0  0  0  0  0  0
  -28.0126  -12.3869   18.6069 C   0  0  0  0  0  0
  -27.6724  -13.1953   19.8859 C   0  0  2  0  0  0
  -28.7051  -12.9051   20.9976 C   0  0  0  0  0  0
  -25.2640  -13.8146   20.5658 C   0  0  0  0  0  0
  -24.1867  -13.0440   20.9150 C   0  0  0  0  0  0
  -24.6391  -11.6896   20.8713 C   0  0  0  0  0  0
  -23.9043  -10.4291   21.0385 C   0  0  0  0  0  0
  -24.3594   -9.4207   21.9171 C   0  0  0  0  0  0
  -23.6275   -8.2239   22.0755 C   0  0  0  0  0  0
  -22.4256   -8.0271   21.3550 C   0  0  0  0  0  0
  -21.9889   -9.0241   20.4654 C   0  0  0  0  0  0
  -22.7211  -10.2125   20.3048 C   0  0  0  0  0  0
  -21.6846   -6.0725   22.5272 C   0  0  0  0  0  0
  -21.4008   -6.5636   23.8207 C   0  0  0  0  0  0
  -21.3663   -5.6796   24.9172 C   0  0  0  0  0  0
  -21.6040   -4.3059   24.7230 C   0  0  0  0  0  0
  -21.8820   -3.8145   23.4359 C   0  0  0  0  0  0
  -21.9189   -4.6955   22.3407 C   0  0  0  0  0  0
  -22.7902  -13.5255   21.1830 C   0  0  0  0  0  0
  -22.1667   -4.2143   21.0986 F   0  0  0  0  0  0
  -21.5614   -3.4546   25.7745 F   0  0  0  0  0  0
  -30.0545  -13.1989   20.4710 N   0  0  0  0  0  0
  -26.3070  -12.9289   20.3380 N   0  0  0  0  0  0
  -25.9311  -11.6459   20.5732 N   0  0  0  0  0  0
  -22.0537  -12.8242   22.0379 N   0  0  0  0  0  0
  -25.4430  -15.1847   20.4070 N   0  0  0  0  0  0
  -31.7709  -14.6554   20.0536 O   0  0  0  0  0  0
  -21.6629   -6.8860   21.4239 O   0  0  0  0  0  0
  -22.3596  -14.5569   20.6695 O   0  0  0  0  0  0
  -24.6114  -31.8707   23.2165 C   0  0  0  0  0  0
  -25.9017  -32.4846   23.8424 C   0  0  1  0  0  0
  -27.2327  -27.4705   20.0683 C   0  0  0  0  0  0
  -25.5881  -33.8641   24.2355 N   0  0  0  0  0  0
  -23.3948  -30.4983   21.5563 C   0  0  2  0  0  0
  -24.8365  -28.9683   20.1169 C   0  0  0  0  0  0
  -22.7366  -29.4699   22.5036 C   0  0  0  0  0  0
  -18.0281  -28.1391   22.8502 C   0  0  0  0  0  0
  -24.1486  -36.7327   23.2636 C   0  0  0  0  0  0
  -25.9209  -30.8427   21.3651 C   0  0  0  0  0  0
  -25.9946  -29.4801   20.7117 C   0  0  0  0  0  0
  -27.1912  -28.7343   20.6929 C   0  0  0  0  0  0
  -26.0491  -26.9634   19.4753 C   0  0  0  0  0  0
  -24.8542  -27.7047   19.5048 C   0  0  0  0  0  0
  -23.5994  -29.8316   20.1703 C   0  0  0  0  0  0
  -25.4109  -36.3125   24.0342 C   0  0  1  0  0  0
  -20.5848  -28.3672   23.1346 C   0  0  2  0  0  0
  -20.6772  -26.9434   22.5417 C   0  0  0  0  0  0
  -19.5777  -26.6466   21.5168 C   0  0  0  0  0  0
  -18.1962  -26.7959   22.1607 C   0  0  0  0  0  0
  -19.1514  -28.8853   23.2926 C   0  0  0  0  0  0
  -18.9440  -30.1456   23.8938 C   0  0  0  0  0  0
  -17.6445  -30.6596   24.0574 C   0  0  0  0  0  0
  -25.9025  -34.9487   23.5149 C   0  0  0  0  0  0
  -16.5345  -29.9093   23.6327 C   0  0  0  0  0  0
  -16.7263  -28.6508   23.0348 C   0  0  0  0  0  0
  -26.4462  -31.6632   25.0743 C   0  0  0  0  0  0
  -25.3735  -31.3722   26.1496 C   0  0  0  0  0  0
  -27.0284  -30.3079   24.6109 C   0  0  0  0  0  0
  -27.6055  -32.4340   25.7492 C   0  0  0  0  0  0
  -27.5589  -37.1827   24.8464 C   0  0  0  0  0  0
  -21.4103  -29.3036   22.3748 N   0  0  0  0  0  0
  -26.4307  -37.3796   23.9402 N   0  0  0  0  0  0
  -24.6609  -31.0836   22.1050 N   0  0  0  0  0  0
  -23.4164  -28.8246   23.3058 O   0  0  0  0  0  0
  -28.4439  -26.8115   20.0549 O   0  0  0  0  0  0
  -26.5583  -34.8933   22.4708 O   0  0  0  0  0  0
  -23.5328  -32.1454   23.7589 O   0  0  0  0  0  0
  -28.1975  -23.0993   20.2903 C   0  0  0  0  0  0
  -29.2701  -22.7294   19.4445 C   0  0  0  0  0  0
  -27.6131  -21.9211   20.6499 C   0  0  0  0  0  0
  -27.8643  -24.5188   20.6308 C   0  0  0  0  0  0
  -30.1970  -23.6977   18.7686 C   0  0  0  0  0  0
  -29.9966  -25.1216   19.3392 C   0  0  0  0  0  0
  -28.5098  -25.4695   19.5908 C   0  0  2  0  0  0
  -26.4262  -21.6580   21.5186 C   0  0  0  0  0  0
  -29.3257  -18.8208   20.8658 C   0  0  0  0  0  0
  -29.2122  -17.2968   20.8707 C   0  0  0  0  0  0
  -28.1753  -19.4847   20.0917 C   0  0  0  0  0  0
  -30.3670  -16.6155   21.6190 C   0  0  0  0  0  0
  -29.3564  -21.4244   19.2776 N   0  0  0  0  0  0
  -28.3480  -20.9226   20.0322 N   0  0  0  0  0  0
  -30.1764  -15.1750   21.5544 N   0  0  0  0  0  0
  -31.4685  -12.3638   19.1013 H   0  0  0  0  0  0
  -30.3151  -11.2405   19.7527 H   0  0  0  0  0  0
  -29.7234  -11.8226   17.3915 H   0  0  0  0  0  0
  -29.6729  -13.5211   17.7984 H   0  0  0  0  0  0
  -27.8072  -11.3283   18.7721 H   0  0  0  0  0  0
  -27.3664  -12.6965   17.7842 H   0  0  0  0  0  0
  -27.7420  -14.2542   19.6314 H   0  0  0  0  0  0
  -28.6564  -11.8544   21.2865 H   0  0  0  0  0  0
  -28.4491  -13.4546   21.9031 H   0  0  0  0  0  0
  -25.2736   -9.5688   22.4746 H   0  0  0  0  0  0
  -23.9989   -7.4631   22.7477 H   0  0  0  0  0  0
  -21.0821   -8.8748   19.8961 H   0  0  0  0  0  0
  -22.3658  -10.9654   19.6158 H   0  0  0  0  0  0
  -21.2004   -7.6149   23.9707 H   0  0  0  0  0  0
  -21.1485   -6.0534   25.9075 H   0  0  0  0  0  0
  -22.0599   -2.7608   23.2861 H   0  0  0  0  0  0
  -22.4146  -11.9882   22.4741 H   0  0  0  0  0  0
  -21.1168  -13.1292   22.2618 H   0  0  0  0  0  0
  -24.6843  -15.8499   20.5076 H   0  0  0  0  0  0
  -26.3046  -15.6092   20.0885 H   0  0  0  0  0  0
  -26.7077  -32.5558   23.1181 H   0  0  0  0  0  0
  -24.9998  -33.9815   25.0476 H   0  0  0  0  0  0
  -22.6856  -31.3165   21.4213 H   0  0  0  0  0  0
  -23.3738  -35.9663   23.3311 H   0  0  0  0  0  0
  -24.3572  -36.8930   22.2045 H   0  0  0  0  0  0
  -23.7260  -37.6552   23.6631 H   0  0  0  0  0  0
  -26.0313  -31.6113   20.5987 H   0  0  0  0  0  0
  -26.8102  -30.8937   21.9815 H   0  0  0  0  0  0
  -28.0895  -29.1274   21.1502 H   0  0  0  0  0  0
  -26.0147  -26.0061   18.9762 H   0  0  0  0  0  0
  -23.9599  -27.3075   19.0450 H   0  0  0  0  0  0
  -23.7010  -30.6051   19.4090 H   0  0  0  0  0  0
  -22.7223  -29.2495   19.8808 H   0  0  0  0  0  0
  -25.1294  -36.1997   25.0836 H   0  0  0  0  0  0
  -20.9961  -28.3225   24.1457 H   0  0  0  0  0  0
  -20.5672  -26.2260   23.3559 H   0  0  0  0  0  0
  -21.6644  -26.7537   22.1208 H   0  0  0  0  0  0
  -19.6716  -27.3383   20.6792 H   0  0  0  0  0  0
  -19.6976  -25.6429   21.1082 H   0  0  0  0  0  0
  -17.4235  -26.6703   21.4014 H   0  0  0  0  0  0
  -18.0423  -26.0089   22.8996 H   0  0  0  0  0  0
  -19.7901  -30.7263   24.2339 H   0  0  0  0  0  0
  -17.4998  -31.6283   24.5164 H   0  0  0  0  0  0
  -15.5351  -30.3014   23.7644 H   0  0  0  0  0  0
  -15.8656  -28.0843   22.7054 H   0  0  0  0  0  0
  -24.5888  -30.7106   25.7817 H   0  0  0  0  0  0
  -24.8938  -32.2867   26.4995 H   0  0  0  0  0  0
  -25.8085  -30.8842   27.0226 H   0  0  0  0  0  0
  -26.2815  -29.6859   24.1163 H   0  0  0  0  0  0
  -27.4054  -29.7323   25.4577 H   0  0  0  0  0  0
  -27.8650  -30.4412   23.9242 H   0  0  0  0  0  0
  -27.2684  -33.3610   26.2138 H   0  0  0  0  0  0
  -28.3808  -32.6966   25.0280 H   0  0  0  0  0  0
  -28.0771  -31.8420   26.5349 H   0  0  0  0  0  0
  -28.2627  -38.0108   24.7494 H   0  0  0  0  0  0
  -28.1078  -36.2650   24.6307 H   0  0  0  0  0  0
  -27.2299  -37.1488   25.8865 H   0  0  0  0  0  0
  -20.9258  -29.8717   21.6938 H   0  0  0  0  0  0
  -26.0209  -38.2881   24.1387 H   0  0  0  0  0  0
  -28.2443  -24.7688   21.6228 H   0  0  0  0  0  0
  -26.7866  -24.6657   20.6840 H   0  0  0  0  0  0
  -29.9914  -23.7066   17.6986 H   0  0  0  0  0  0
  -31.2379  -23.3884   18.8777 H   0  0  0  0  0  0
  -30.4560  -25.8519   18.6724 H   0  0  0  0  0  0
  -30.5268  -25.1969   20.2891 H   0  0  0  0  0  0
  -28.0120  -25.3711   18.6248 H   0  0  0  0  0  0
  -25.6162  -21.2143   20.9394 H   0  0  0  0  0  0
  -26.0476  -22.5813   21.9578 H   0  0  0  0  0  0
  -26.6761  -20.9798   22.3346 H   0  0  0  0  0  0
  -30.2818  -19.1092   20.4249 H   0  0  0  0  0  0
  -29.3351  -19.1910   21.8909 H   0  0  0  0  0  0
  -29.1815  -16.9425   19.8379 H   0  0  0  0  0  0
  -28.2602  -17.0148   21.3243 H   0  0  0  0  0  0
  -27.2157  -19.2505   20.5556 H   0  0  0  0  0  0
  -28.1307  -19.1068   19.0702 H   0  0  0  0  0  0
  -31.3276  -16.9115   21.1917 H   0  0  0  0  0  0
  -30.3847  -16.9229   22.6662 H   0  0  0  0  0  0
  -29.3800  -14.8036   22.0523 H   0  0  0  0  0  0
  1 25  1  0  0  0
  1 30  2  0  0  0
  1 85  1  0  0  0
  2  3  1  0  0  0
  2 25  1  0  0  0
  2 86  1  0  0  0
  2 87  1  0  0  0
  3  4  1  0  0  0
  3 88  1  0  0  0
  3 89  1  0  0  0
  4  5  1  0  0  0
  4 90  1  0  0  0
  4 91  1  0  0  0
  5  6  1  0  0  0
  5 26  1  0  0  0
  5 92  1  0  0  0
  6 25  1  0  0  0
  6 93  1  0  0  0
  6 94  1  0  0  0
  7  8  2  0  0  0
  7 26  1  0  0  0
  7 29  1  0  0  0
  8  9  1  0  0  0
  8 22  1  0  0  0
  9 10  1  0  0  0
  9 27  2  0  0  0
 10 11  2  0  0  0
 10 15  1  0  0  0
 11 12  1  0  0  0
 11 95  1  0  0  0
 12 13  2  0  0  0
 12 96  1  0  0  0
 13 14  1  0  0  0
 13 31  1  0  0  0
 14 15  2  0  0  0
 14 97  1  0  0  0
 15 98  1  0  0  0
 16 17  2  0  0  0
 16 21  1  0  0  0
 16 31  1  0  0  0
 17 18  1  0  0  0
 17 99  1  0  0  0
 18 19  2  0  0  0
 18100  1  0  0  0
 19 20  1  0  0  0
 19 24  1  0  0  0
 20 21  2  0  0  0
 20101  1  0  0  0
 21 23  1  0  0  0
 22 28  1  0  0  0
 22 32  2  0  0  0
 26 27  1  0  0  0
 28102  1  0  0  0
 28103  1  0  0  0
 29104  1  0  0  0
 29105  1  0  0  0
 33 34  1  0  0  0
 33 66  1  0  0  0
 33 70  2  0  0  0
 34 36  1  0  0  0
 34 59  1  0  0  0
 34106  1  0  0  0
 35 44  2  0  0  0
 35 45  1  0  0  0
 35 68  1  0  0  0
 36 56  1  0  0  0
 36107  1  0  0  0
 37 39  1  0  0  0
 37 47  1  0  0  0
 37 66  1  0  0  0
 37108  1  0  0  0
 38 43  2  0  0  0
 38 46  1  0  0  0
 38 47  1  0  0  0
 39 64  1  0  0  0
 39 67  2  0  0  0
 40 52  1  0  0  0
 40 53  2  0  0  0
 40 58  1  0  0  0
 41109  1  0  0  0
 41110  1  0  0  0
 41111  1  0  0  0
 41 48  1  0  0  0
 42 43  1  0  0  0
 42 66  1  0  0  0
 42112  1  0  0  0
 42113  1  0  0  0
 43 44  1  0  0  0
 44114  1  0  0  0
 45 46  2  0  0  0
 45115  1  0  0  0
 46116  1  0  0  0
 47117  1  0  0  0
 47118  1  0  0  0
 48 56  1  0  0  0
 48 65  1  0  0  0
 48119  1  0  0  0
 49 50  1  0  0  0
 49 53  1  0  0  0
 49 64  1  0  0  0
 49120  1  0  0  0
 50 51  1  0  0  0
 50121  1  0  0  0
 50122  1  0  0  0
 51 52  1  0  0  0
 51123  1  0  0  0
 51124  1  0  0  0
 52125  1  0  0  0
 52126  1  0  0  0
 53 54  1  0  0  0
 54 55  2  0  0  0
 54127  1  0  0  0
 55 57  1  0  0  0
 55128  1  0  0  0
 56 69  2  0  0  0
 57 58  2  0  0  0
 57129  1  0  0  0
 58130  1  0  0  0
 59 60  1  0  0  0
 59 61  1  0  0  0
 59 62  1  0  0  0
 60131  1  0  0  0
 60132  1  0  0  0
 60133  1  0  0  0
 61134  1  0  0  0
 61135  1  0  0  0
 61136  1  0  0  0
 62137  1  0  0  0
 62138  1  0  0  0
 62139  1  0  0  0
 63 65  1  0  0  0
 63140  1  0  0  0
 63141  1  0  0  0
 63142  1  0  0  0
 64143  1  0  0  0
 65144  1  0  0  0
 68 77  1  0  0  0
 71 72  1  0  0  0
 71 73  2  0  0  0
 71 74  1  0  0  0
 72 75  1  0  0  0
 72 83  2  0  0  0
 73 78  1  0  0  0
 73 84  1  0  0  0
 74 77  1  0  0  0
 74145  1  0  0  0
 74146  1  0  0  0
 75 76  1  0  0  0
 75147  1  0  0  0
 75148  1  0  0  0
 76 77  1  0  0  0
 76149  1  0  0  0
 76150  1  0  0  0
 77151  1  0  0  0
 78152  1  0  0  0
 78153  1  0  0  0
 78154  1  0  0  0
 79 80  1  0  0  0
 79 81  1  0  0  0
 79155  1  0  0  0
 79156  1  0  0  0
 80 82  1  0  0  0
 80157  1  0  0  0
 80158  1  0  0  0
 81 84  1  0  0  0
 81159  1  0  0  0
 81160  1  0  0  0
 82 85  1  0  0  0
 82161  1  0  0  0
 82162  1  0  0  0
 83 84  1  0  0  0
 85163  1  0  0  0
M  ISO  4   1 100  68 101  77 101  85 100
M  END
> <chiral flag>
0

> <version>
0

> <s_m_source_file>
/data/baiqing/PycharmProjects/Reinvent-master-3.2/result/LINK_invent/BTK/process_docking_weight1_custom_sum_contain_oxygen_bond_distance_aromatic_linkinvent_7_9_3/rearranged_h_0030.sdf

> <i_m_source_file_index>
98

> <r_mmod_Potential_Energy-OPLS-2005>
-162.208541870117

> <r_mmod_Stretch_Energy-OPLS-2005>
30.3502769470215

> <r_mmod_Bend_Energy-OPLS-2005>
96.8527679443359

> <r_mmod_Torsional_Energy-OPLS-2005>
200.678436279297

> <r_mmod_Improper_Torsional_Energy-OPLS-2005>
2.91713428497314

> <r_mmod_Van_der_Waal_Energy-OPLS-2005>
139.704864501953

> <r_mmod_Electrostatic_Energy-OPLS-2005>
-420.299560546875

> <r_mmod_Solvation_Energy-OPLS-2005>
-220.516632080078

> <b_mmod_Minimization_Converged-OPLS-2005>
0

> <r_mmod_RMS_Derivative-OPLS-2005>
2.52496743202209

$$$$
98
                    3D
 Structure written by MMmdl.
150158  0  0  1  0            999 V2000
  -30.5862  -14.8909   20.4480 C   0  0  0  0  0  0
  -30.4361  -12.5754   19.4481 C   0  0  0  0  0  0
  -29.4882  -12.4926   18.2236 C   0  0  0  0  0  0
  -28.0372  -12.2695   18.6739 C   0  0  0  0  0  0
  -27.6198  -13.2346   19.8119 C   0  0  2  0  0  0
  -28.6748  -13.2932   20.9403 C   0  0  0  0  0  0
  -25.2491  -13.8256   20.5773 C   0  0  0  0  0  0
  -24.1784  -13.0452   20.9224 C   0  0  0  0  0  0
  -24.6350  -11.6954   20.8780 C   0  0  0  0  0  0
  -23.9053  -10.4300   21.0425 C   0  0  0  0  0  0
  -24.3589   -9.4217   21.9196 C   0  0  0  0  0  0
  -23.6274   -8.2251   22.0778 C   0  0  0  0  0  0
  -22.4283   -8.0272   21.3567 C   0  0  0  0  0  0
  -21.9875   -9.0260   20.4677 C   0  0  0  0  0  0
  -22.7205  -10.2135   20.3073 C   0  0  0  0  0  0
  -21.6821   -6.0708   22.5290 C   0  0  0  0  0  0
  -21.4034   -6.5639   23.8220 C   0  0  0  0  0  0
  -21.3634   -5.6790   24.9172 C   0  0  0  0  0  0
  -21.6069   -4.3064   24.7230 C   0  0  0  0  0  0
  -21.8796   -3.8133   23.4352 C   0  0  0  0  0  0
  -21.9216   -4.6947   22.3400 C   0  0  0  0  0  0
  -22.7774  -13.5231   21.1871 C   0  0  0  0  0  0
  -22.1669   -4.2141   21.0965 F   0  0  0  0  0  0
  -21.5624   -3.4530   25.7729 F   0  0  0  0  0  0
  -29.9490  -13.6673   20.3316 N   0  0  0  0  0  0
  -26.2855  -12.9409   20.3192 N   0  0  0  0  0  0
  -25.9286  -11.6603   20.5781 N   0  0  0  0  0  0
  -22.0415  -12.8267   22.0429 N   0  0  0  0  0  0
  -25.4190  -15.1926   20.4278 N   0  0  0  0  0  0
  -31.8065  -14.9282   20.2683 O   0  0  0  0  0  0
  -21.6644   -6.8864   21.4264 O   0  0  0  0  0  0
  -22.3483  -14.5530   20.6678 O   0  0  0  0  0  0
  -24.6442  -31.8464   23.1899 C   0  0  0  0  0  0
  -25.9226  -32.4725   23.8299 C   0  0  1  0  0  0
  -27.2460  -27.1847   20.2006 C   0  0  0  0  0  0
  -25.6005  -33.8524   24.2266 N   0  0  0  0  0  0
  -23.4445  -30.4670   21.5330 C   0  0  2  0  0  0
  -24.9017  -28.8904   20.1257 C   0  0  0  0  0  0
  -22.7540  -29.4615   22.4929 C   0  0  0  0  0  0
  -18.0299  -28.1391   22.8502 C   0  0  0  0  0  0
  -24.1471  -36.7212   23.2635 C   0  0  0  0  0  0
  -25.9916  -30.7488   21.3696 C   0  0  0  0  0  0
  -26.0779  -29.3590   20.7285 C   0  0  0  0  0  0
  -27.2548  -28.5316   20.7306 C   0  0  0  0  0  0
  -26.0416  -26.7907   19.5742 C   0  0  0  0  0  0
  -24.8892  -27.6110   19.5435 C   0  0  0  0  0  0
  -23.6713  -29.7854   20.1578 C   0  0  0  0  0  0
  -25.4109  -36.3034   24.0345 C   0  0  1  0  0  0
  -20.5912  -28.3727   23.1227 C   0  0  2  0  0  0
  -20.6792  -26.9436   22.5406 C   0  0  0  0  0  0
  -19.5748  -26.6405   21.5199 C   0  0  0  0  0  0
  -18.1936  -26.7951   22.1608 C   0  0  0  0  0  0
  -19.1551  -28.8882   23.2866 C   0  0  0  0  0  0
  -18.9461  -30.1473   23.8901 C   0  0  0  0  0  0
  -17.6454  -30.6596   24.0574 C   0  0  0  0  0  0
  -25.9061  -34.9442   23.5100 C   0  0  0  0  0  0
  -16.5359  -29.9086   23.6317 C   0  0  0  0  0  0
  -16.7278  -28.6488   23.0381 C   0  0  0  0  0  0
  -26.4574  -31.6569   25.0722 C   0  0  0  0  0  0
  -25.3819  -31.3735   26.1465 C   0  0  0  0  0  0
  -27.0456  -30.2986   24.6250 C   0  0  0  0  0  0
  -27.6111  -32.4334   25.7523 C   0  0  0  0  0  0
  -27.5563  -37.1767   24.8485 C   0  0  0  0  0  0
  -21.4245  -29.3066   22.3616 N   0  0  0  0  0  0
  -26.4269  -37.3747   23.9447 N   0  0  0  0  0  0
  -24.7117  -31.0424   22.0864 N   0  0  0  0  0  0
  -23.4197  -28.8176   23.3097 O   0  0  0  0  0  0
  -28.3587  -26.2836   20.2435 O   0  0  0  0  0  0
  -26.5581  -34.8911   22.4643 O   0  0  0  0  0  0
  -23.5570  -32.1333   23.7175 O   0  0  0  0  0  0
  -30.7670  -21.4141   20.5734 C   0  0  0  0  0  0
  -28.6594  -19.6490   20.8028 C   0  0  0  0  0  0
  -29.4868  -22.0571   20.5370 C   0  0  0  0  0  0
  -29.9523  -19.0171   20.8057 C   0  0  0  0  0  0
  -28.4275  -21.0935   20.6682 C   0  0  0  0  0  0
  -30.9967  -19.9958   20.7090 C   0  0  0  0  0  0
  -29.4057  -23.6771   20.2554 C   0  0  0  0  0  0
  -30.2667  -17.4440   21.2129 C   0  0  0  0  0  0
  -28.2191  -24.7863   20.5958 C   0  0  0  0  0  0
  -29.8468  -16.0855   20.5916 N   0  0  0  0  0  0
  -26.7967  -21.6616   20.7066 Cl  0  0  0  0  0  0
  -32.6491  -19.4932   20.8229 Cl  0  0  0  0  0  0
  -31.4574  -12.7428   19.1002 H   0  0  0  0  0  0
  -30.4450  -11.6317   20.0010 H   0  0  0  0  0  0
  -29.7995  -11.6841   17.5580 H   0  0  0  0  0  0
  -29.5507  -13.4086   17.6292 H   0  0  0  0  0  0
  -27.9644  -11.2404   19.0265 H   0  0  0  0  0  0
  -27.3507  -12.3514   17.8275 H   0  0  0  0  0  0
  -27.5698  -14.2193   19.3503 H   0  0  0  0  0  0
  -28.7726  -12.3385   21.4608 H   0  0  0  0  0  0
  -28.3792  -14.0393   21.6796 H   0  0  0  0  0  0
  -25.2711   -9.5694   22.4786 H   0  0  0  0  0  0
  -23.9987   -7.4639   22.7474 H   0  0  0  0  0  0
  -21.0796   -8.8761   19.8963 H   0  0  0  0  0  0
  -22.3647  -10.9689   19.6184 H   0  0  0  0  0  0
  -21.2022   -7.6148   23.9718 H   0  0  0  0  0  0
  -21.1476   -6.0517   25.9083 H   0  0  0  0  0  0
  -22.0591   -2.7598   23.2846 H   0  0  0  0  0  0
  -22.4065  -11.9928   22.4815 H   0  0  0  0  0  0
  -21.1033  -13.1332   22.2671 H   0  0  0  0  0  0
  -24.6575  -15.8488   20.5634 H   0  0  0  0  0  0
  -26.2803  -15.6415   20.1503 H   0  0  0  0  0  0
  -26.7347  -32.5370   23.1084 H   0  0  0  0  0  0
  -25.0316  -33.9634   25.0522 H   0  0  0  0  0  0
  -22.7473  -31.2951   21.3767 H   0  0  0  0  0  0
  -23.3751  -35.9512   23.3289 H   0  0  0  0  0  0
  -24.3564  -36.8800   22.2042 H   0  0  0  0  0  0
  -23.7188  -37.6417   23.6614 H   0  0  0  0  0  0
  -26.1279  -31.5040   20.5939 H   0  0  0  0  0  0
  -26.8658  -30.8113   22.0026 H   0  0  0  0  0  0
  -28.1527  -28.8989   21.2100 H   0  0  0  0  0  0
  -25.9723  -25.8028   19.1363 H   0  0  0  0  0  0
  -23.9819  -27.2330   19.0855 H   0  0  0  0  0  0
  -23.8025  -30.5548   19.3948 H   0  0  0  0  0  0
  -22.7811  -29.2278   19.8556 H   0  0  0  0  0  0
  -25.1280  -36.1864   25.0829 H   0  0  0  0  0  0
  -21.0022  -28.3287   24.1337 H   0  0  0  0  0  0
  -20.5648  -26.2341   23.3630 H   0  0  0  0  0  0
  -21.6668  -26.7442   22.1195 H   0  0  0  0  0  0
  -19.6904  -25.6299   21.1275 H   0  0  0  0  0  0
  -19.6676  -27.3197   20.6716 H   0  0  0  0  0  0
  -17.4220  -26.6743   21.3983 H   0  0  0  0  0  0
  -18.0278  -26.0075   22.8955 H   0  0  0  0  0  0
  -19.7937  -30.7275   24.2293 H   0  0  0  0  0  0
  -17.5013  -31.6266   24.5191 H   0  0  0  0  0  0
  -15.5359  -30.2999   23.7640 H   0  0  0  0  0  0
  -15.8678  -28.0796   22.7126 H   0  0  0  0  0  0
  -24.6000  -30.7046   25.7833 H   0  0  0  0  0  0
  -24.9014  -32.2913   26.4861 H   0  0  0  0  0  0
  -25.8184  -30.8972   27.0261 H   0  0  0  0  0  0
  -26.3064  -29.6709   24.1254 H   0  0  0  0  0  0
  -27.4113  -29.7270   25.4793 H   0  0  0  0  0  0
  -27.8942  -30.4252   23.9529 H   0  0  0  0  0  0
  -27.2686  -33.3622   26.2088 H   0  0  0  0  0  0
  -28.3941  -32.6922   25.0388 H   0  0  0  0  0  0
  -28.0778  -31.8500   26.5465 H   0  0  0  0  0  0
  -28.2625  -38.0004   24.7517 H   0  0  0  0  0  0
  -28.1008  -36.2580   24.6334 H   0  0  0  0  0  0
  -27.2303  -37.1457   25.8879 H   0  0  0  0  0  0
  -20.9435  -29.8706   21.6746 H   0  0  0  0  0  0
  -26.0142  -38.2815   24.1411 H   0  0  0  0  0  0
  -31.6385  -22.0557   20.5146 H   0  0  0  0  0  0
  -27.7918  -19.0172   20.9576 H   0  0  0  0  0  0
  -29.5652  -23.7572   19.1788 H   0  0  0  0  0  0
  -30.3070  -24.0834   20.7246 H   0  0  0  0  0  0
  -29.7315  -17.3742   22.1578 H   0  0  0  0  0  0
  -31.3208  -17.3437   21.4834 H   0  0  0  0  0  0
  -27.2978  -24.4074   20.1677 H   0  0  0  0  0  0
  -28.0951  -24.7705   21.6817 H   0  0  0  0  0  0
  -28.8428  -15.9410   20.5439 H   0  0  0  0  0  0
  1 25  1  0  0  0
  1 30  2  0  0  0
  1 80  1  0  0  0
  2  3  1  0  0  0
  2 25  1  0  0  0
  2 83  1  0  0  0
  2 84  1  0  0  0
  3  4  1  0  0  0
  3 85  1  0  0  0
  3 86  1  0  0  0
  4  5  1  0  0  0
  4 87  1  0  0  0
  4 88  1  0  0  0
  5  6  1  0  0  0
  5 26  1  0  0  0
  5 89  1  0  0  0
  6 25  1  0  0  0
  6 90  1  0  0  0
  6 91  1  0  0  0
  7  8  2  0  0  0
  7 26  1  0  0  0
  7 29  1  0  0  0
  8  9  1  0  0  0
  8 22  1  0  0  0
  9 10  1  0  0  0
  9 27  2  0  0  0
 10 11  2  0  0  0
 10 15  1  0  0  0
 11 12  1  0  0  0
 11 92  1  0  0  0
 12 13  2  0  0  0
 12 93  1  0  0  0
 13 14  1  0  0  0
 13 31  1  0  0  0
 14 15  2  0  0  0
 14 94  1  0  0  0
 15 95  1  0  0  0
 16 17  2  0  0  0
 16 21  1  0  0  0
 16 31  1  0  0  0
 17 18  1  0  0  0
 17 96  1  0  0  0
 18 19  2  0  0  0
 18 97  1  0  0  0
 19 20  1  0  0  0
 19 24  1  0  0  0
 20 21  2  0  0  0
 20 98  1  0  0  0
 21 23  1  0  0  0
 22 28  1  0  0  0
 22 32  2  0  0  0
 26 27  1  0  0  0
 28 99  1  0  0  0
 28100  1  0  0  0
 29101  1  0  0  0
 29102  1  0  0  0
 33 34  1  0  0  0
 33 66  1  0  0  0
 33 70  2  0  0  0
 34 36  1  0  0  0
 34 59  1  0  0  0
 34103  1  0  0  0
 35 44  2  0  0  0
 35 45  1  0  0  0
 35 68  1  0  0  0
 36 56  1  0  0  0
 36104  1  0  0  0
 37 39  1  0  0  0
 37 47  1  0  0  0
 37 66  1  0  0  0
 37105  1  0  0  0
 38 43  2  0  0  0
 38 46  1  0  0  0
 38 47  1  0  0  0
 39 64  1  0  0  0
 39 67  2  0  0  0
 40 52  1  0  0  0
 40 53  2  0  0  0
 40 58  1  0  0  0
 41106  1  0  0  0
 41107  1  0  0  0
 41108  1  0  0  0
 41 48  1  0  0  0
 42 43  1  0  0  0
 42 66  1  0  0  0
 42109  1  0  0  0
 42110  1  0  0  0
 43 44  1  0  0  0
 44111  1  0  0  0
 45 46  2  0  0  0
 45112  1  0  0  0
 46113  1  0  0  0
 47114  1  0  0  0
 47115  1  0  0  0
 48 56  1  0  0  0
 48 65  1  0  0  0
 48116  1  0  0  0
 49 50  1  0  0  0
 49 53  1  0  0  0
 49 64  1  0  0  0
 49117  1  0  0  0
 50 51  1  0  0  0
 50118  1  0  0  0
 50119  1  0  0  0
 51 52  1  0  0  0
 51120  1  0  0  0
 51121  1  0  0  0
 52122  1  0  0  0
 52123  1  0  0  0
 53 54  1  0  0  0
 54 55  2  0  0  0
 54124  1  0  0  0
 55 57  1  0  0  0
 55125  1  0  0  0
 56 69  2  0  0  0
 57 58  2  0  0  0
 57126  1  0  0  0
 58127  1  0  0  0
 59 60  1  0  0  0
 59 61  1  0  0  0
 59 62  1  0  0  0
 60128  1  0  0  0
 60129  1  0  0  0
 60130  1  0  0  0
 61131  1  0  0  0
 61132  1  0  0  0
 61133  1  0  0  0
 62134  1  0  0  0
 62135  1  0  0  0
 62136  1  0  0  0
 63 65  1  0  0  0
 63137  1  0  0  0
 63138  1  0  0  0
 63139  1  0  0  0
 64140  1  0  0  0
 65141  1  0  0  0
 68 79  1  0  0  0
 71 73  2  0  0  0
 71 76  1  0  0  0
 71142  1  0  0  0
 72 74  1  0  0  0
 72 75  2  0  0  0
 72143  1  0  0  0
 73 75  1  0  0  0
 73 77  1  0  0  0
 74 76  2  0  0  0
 74 78  1  0  0  0
 75 81  1  0  0  0
 76 82  1  0  0  0
 77 79  1  0  0  0
 77144  1  0  0  0
 77145  1  0  0  0
 78 80  1  0  0  0
 78146  1  0  0  0
 78147  1  0  0  0
 79148  1  0  0  0
 79149  1  0  0  0
 80150  1  0  0  0
M  ISO  4   1 100  68 101  79 101  80 100
M  END
> <chiral flag>
0

> <version>
0

> <s_m_source_file>
/data/baiqing/PycharmProjects/Reinvent-master-3.2/result/LINK_invent/BTK/process_docking_weight1_custom_sum_contain_oxygen_bond_distance_aromatic_linkinvent_7_9_3/rearranged_h_0030.sdf

> <i_m_source_file_index>
99

> <r_mmod_Potential_Energy-OPLS-2005>
374.754852294922

> <r_mmod_Stretch_Energy-OPLS-2005>
199.72770690918

> <r_mmod_Bend_Energy-OPLS-2005>
256.817016601562

> <r_mmod_Torsional_Energy-OPLS-2005>
230.235488891602

> <r_mmod_Improper_Torsional_Energy-OPLS-2005>
6.81293201446533

> <r_mmod_Van_der_Waal_Energy-OPLS-2005>
129.319915771484

> <r_mmod_Electrostatic_Energy-OPLS-2005>
-391.130706787109

> <r_mmod_Solvation_Energy-OPLS-2005>
-215.869079589844

> <b_mmod_Minimization_Converged-OPLS-2005>
0

> <r_mmod_RMS_Derivative-OPLS-2005>
12.9325256347656

$$$$
